AV-unprocessed.smi:37|AV-procd|sdf|304|dock9
  -GOLD-   2262016113D 1   1.00000     0.00000
 Structure written by MMmdl.
 44 45  0  0  0  0  0  0  0  0  1 V2000
  147.3478  134.8976  162.7860 C   0  0  0  0  0  0  0  0  0  0  0  0
  147.6428  134.8861  161.2798 C   0  0  0  0  0  0  0  0  0  0  0  0
  147.8946  136.2879  160.7288 C   0  0  0  0  0  0  0  0  0  0  0  0
  147.7106  137.2921  161.4167 O   0  0  0  0  0  0  0  0  0  0  0  0
  148.3101  136.2721  159.4546 O   0  0  0  0  0  0  0  0  0  0  0  0
  149.0591  137.3599  158.9393 C   0  0  0  0  0  0  0  0  0  0  0  0
  150.2118  136.8530  158.0553 C   0  0  1  0  0  0  0  0  0  0  0  0
  149.9654  135.5066  157.6579 O   0  0  0  0  0  0  0  0  0  0  0  0
  150.6229  135.2975  156.4476 C   0  0  1  0  0  0  0  0  0  0  0  0
  150.1528  133.9973  155.8178 N   0  0  0  0  0  0  0  0  0  0  0  0
  149.5156  133.9691  154.5813 C   0  0  0  0  0  0  0  0  0  0  0  0
  149.1354  132.8240  153.9668 C   0  0  0  0  0  0  0  0  0  0  0  0
  148.5216  132.8841  152.7728 F   0  0  0  0  0  0  0  0  0  0  0  0
  149.4110  131.5267  154.5740 C   0  0  0  0  0  0  0  0  0  0  0  0
  149.0931  130.4363  154.1038 O   0  0  0  0  0  0  0  0  0  0  0  0
  150.1134  131.5955  155.7796 N   0  0  0  0  0  0  0  0  0  0  0  0
  150.5228  132.7688  156.4161 C   0  0  0  0  0  0  0  0  0  0  0  0
  151.1856  132.6963  157.4499 O   0  0  0  0  0  0  0  0  0  0  0  0
  150.2643  136.5707  155.6667 C   0  0  1  0  0  0  0  0  0  0  0  0
  148.3361  136.5811  155.1175 Br  0  0  0  0  0  0  0  0  0  0  0  0
  150.5010  137.6238  156.7486 C   0  0  1  0  0  0  0  0  0  0  0  0
  149.7197  138.8023  156.5763 O   0  0  0  0  0  0  0  0  0  0  0  0
  150.0375  139.6975  155.6260 C   0  0  0  0  0  0  0  0  0  0  0  0
  150.9206  139.5607  154.7773 O   0  0  0  0  0  0  0  0  0  0  0  0
  149.1536  140.9441  155.6993 C   0  0  0  0  0  0  0  0  0  0  0  0
  148.5067  141.3177  154.3572 C   0  0  0  0  0  0  0  0  0  0  0  0
  150.3589  130.7210  156.2208 H   0  0  0  0  0  0  0  0  0  0  0  0
  147.1371  133.8895  163.1426 H   0  0  0  0  0  0  0  0  0  0  0  0
  146.4801  135.5173  163.0146 H   0  0  0  0  0  0  0  0  0  0  0  0
  148.1944  135.2787  163.3584 H   0  0  0  0  0  0  0  0  0  0  0  0
  148.5159  134.2660  161.0753 H   0  0  0  0  0  0  0  0  0  0  0  0
  146.8050  134.4413  160.7424 H   0  0  0  0  0  0  0  0  0  0  0  0
  148.4097  138.0153  158.3569 H   0  0  0  0  0  0  0  0  0  0  0  0
  149.4558  137.9495  159.7666 H   0  0  0  0  0  0  0  0  0  0  0  0
  151.1232  136.8547  158.6545 H   0  0  0  0  0  0  0  0  0  0  0  0
  151.6971  135.1686  156.5978 H   0  0  0  0  0  0  0  0  0  0  0  0
  149.3135  134.8912  154.0587 H   0  0  0  0  0  0  0  0  0  0  0  0
  150.8917  136.7069  154.7859 H   0  0  0  0  0  0  0  0  0  0  0  0
  151.5608  137.8848  156.7601 H   0  0  0  0  0  0  0  0  0  0  0  0
  148.3774  140.7721  156.4453 H   0  0  0  0  0  0  0  0  0  0  0  0
  149.7579  141.7766  156.0605 H   0  0  0  0  0  0  0  0  0  0  0  0
  147.8830  142.2049  154.4665 H   0  0  0  0  0  0  0  0  0  0  0  0
  147.8726  140.5130  153.9833 H   0  0  0  0  0  0  0  0  0  0  0  0
  149.2599  141.5359  153.5993 H   0  0  0  0  0  0  0  0  0  0  0  0
  1  2  1  0  0  0  0
  1 28  1  0  0  0  0
  1 29  1  0  0  0  0
  1 30  1  0  0  0  0
  2  3  1  0  0  0  0
  2 31  1  0  0  0  0
  2 32  1  0  0  0  0
  3  4  2  0  0  0  0
  3  5  1  0  0  0  0
  5  6  1  0  0  0  0
  6  7  1  0  0  0  0
  6 33  1  0  0  0  0
  6 34  1  0  0  0  0
  7 21  1  0  0  0  0
  7  8  1  0  0  0  0
  7 35  1  0  0  0  0
  8  9  1  0  0  0  0
  9 10  1  0  0  0  0
  9 19  1  0  0  0  0
  9 36  1  0  0  0  0
 10 17  1  0  0  0  0
 10 11  1  0  0  0  0
 11 12  2  0  0  0  0
 11 37  1  0  0  0  0
 12 13  1  0  0  0  0
 12 14  1  0  0  0  0
 14 15  2  0  0  0  0
 14 16  1  0  0  0  0
 16 27  1  0  0  0  0
 16 17  1  0  0  0  0
 17 18  2  0  0  0  0
 19 20  1  0  0  0  0
 19 21  1  0  0  0  0
 19 38  1  0  0  0  0
 21 22  1  0  0  0  0
 21 39  1  0  0  0  0
 22 23  1  0  0  0  0
 23 24  2  0  0  0  0
 23 25  1  0  0  0  0
 25 26  1  0  0  0  0
 25 40  1  0  0  0  0
 25 41  1  0  0  0  0
 26 42  1  0  0  0  0
 26 43  1  0  0  0  0
 26 44  1  0  0  0  0
M  END
> <s_m_source_file>
AV-unprocessed.smi

> <i_m_source_file_index>
37

> <i_lp_mmshare_version>
43012

> <i_f3d_flags>
0

> <s_epik_input>
W0NIM11bQ0gyXUMoPU8pT1tDSDJdW0NAQEhdMU9bQ0BASF0objJbY0hdYyhGKWMoPU8pW25IXWMyPU8pW0NAQEhdKEJyKVtDQEhdMU9DKD1PKVtDSDJdW0NIM10=

> <s_epik_cmdline>
J2VwaWtfcHl0aG9uJywgJy1waCcsICc3LjAnLCAnLXRuJywgJzgnLCAnLW1hJywgJzIwMCcsICctbWV0YWxfYmluZGluZycsICctaW1hZScsICc8aW5maWxlLm1hZT4nLCAnLW9tYWUnLCAnPG91dGZpbGUubWFlPic=

> <r_lp_tautomer_probability>
0.999537

> <r_epik_Ionization_Penalty>
0.104106

> <r_epik_Ionization_Penalty_Charging>
0.104106

> <r_epik_Ionization_Penalty_Neutral>
3.94675e-16

> <r_epik_State_Penalty>
0.0940182

> <r_epik_Charging_Adjusted_Penalty>
0.198124

> <i_epik_Tot_Q>
0

> <i_epik_Tot_abs_Q>
0

> <r_epik_Metal_State_Penalty>
3.05314

> <b_epik_Metal_Only>
0

> <s_epik_Chemistry_Notes>
This compound has an ester and may undergo hydrolysis at high or low pH. This compound contains an acetal/aminal-like group ( X-CH(R)-Y where X, Y are N, S, or O) that may be acid/base labile, releasing an aldehyde.

> <s_lp_Force_Field>
OPLS_2005

> <r_lp_Energy>
30.4871

> <b_lp_Chiralities_Consistent>
1

> <s_lp_Variant>
AV-unprocessed.smi:37-2

> <Gold.Version>
5.8.1

> <Gold.Id.Protein>
6NUR|6NUR_protein|mol2

> <Gold.PLP.Fitness>
50.3474

> <Gold.PLP.PLP>
-41.6098

> <Gold.PLP.part.hbond>
-5.0000

> <Gold.PLP.part.metal>
0.0000

> <Gold.PLP.part.buried>
-6.3001

> <Gold.PLP.part.nonpolar>
-31.2749

> <Gold.PLP.part.repulsive>
0.1364

> <Gold.PLP.ligand.clash>
2.7697

> <Gold.PLP.ligand.torsion>
1.5462

> <Gold.PLP.Chemscore.Hbond>
3.8586

> <Gold.PLP.Chemscore.CHOScore>
0.9350

> <Gold.PLP.Chemscore.Metal>
0.0000

> <Gold.Chemscore.Hbonds>
donor molecule, donor type, donor heavy atom, donor atom, acceptor molecule, acceptor atom, score
      P1  H  6896  6908       L1    18  0.86
      P1  H  6896  6909       L1     8  0.21
      P1  H  6931  6943       L1     4  0.94
      P1  H  6934  6947       L1     4  0.77
      P1  H  7989  7998       L1    24  1.00
      L1  C    11    37       P1  7948  0.91

> <Gold.PLP.Chemscore.Internal.Correction>
0.2190

> <Gold.Rescore>
     Score         DG    S(hbond)    S(metal)    S(lipo)     H(rot)  DE(clash)    DE(int)     intcor
     13.23     -15.76       3.60        0.00      58.10       3.33       0.11       2.42       ----

> <Gold.Chemscore.Fitness>
13.2282

> <Gold.Chemscore.DG>
-15.7637

> <Gold.Chemscore.ZeroCoef>
-5.4800

> <Gold.Chemscore.Hbond>
3.5962

> <Gold.Chemscore.Metal>
0.0000

> <Gold.Chemscore.Lipo>
58.1033

> <Gold.Chemscore.Internal_Hbond>
0.0000

> <Gold.Chemscore.DEClash>
0.1118

> <Gold.Chemscore.DEInternal>
2.4238

> <Gold.Chemscore.Rot>
3.3303

> <Gold.Chemscore.Internal.Correction>
   9.000000E+99

> <Gold.Chemscore.Hbonds>
donor molecule, donor type, donor heavy atom, donor atom, acceptor molecule, acceptor atom, score
      P1  H  6896  6908       L1    18  0.85
      P1  H  6896  6909       L1     8  0.02
      P1  H  6931  6943       L1     4  0.89
      P1  H  6934  6947       L1     4  0.76
      P1  H  7989  7998       L1    24  0.99

> <Gold.Chemscore.Hbond.Weighted>
-12.0112

> <Gold.Chemscore.Metal.Weighted>
-0.0000

> <Gold.Chemscore.Lipo.Weighted>
-6.7981

> <Gold.Chemscore.Internal_Hbond.Weighted>
0.0000

> <Gold.Chemscore.DEClash.Weighted>
0.1118

> <Gold.Chemscore.DEInternal.Weighted>
2.4238

> <Gold.Chemscore.Rot.Weighted>
8.5256

> <Gold.Chemscore.Internal.Correction.Weighted>
   9.000000E+99

> <Gold.Protein.RotatedTorsions>
[ 6907 6896 6895 6894 ] final   60.25 input  -60.11 | X-H torsion
[ 7974 7965 7964 7962 ] final   78.84 input  175.53 | X-H torsion
[ 8008 7997 7996 7995 ] final  -71.75 input   59.86 | X-H torsion
[ 10167 10162 10161 10158 ] final -158.83 input  -65.29 | X-H torsion
[ 10718 10713 10712 10709 ] final   22.08 input   66.30 | X-H torsion
[ 10763 10752 10751 10750 ] final   31.77 input  -60.55 | X-H torsion
[ 11005 11000 10999 10996 ] final    7.50 input  -57.11 | X-H torsion

> <Gold.Protein.ActiveResidues>
 VAL166  LYS551  ARG553  GLY616  TRP617  ASP618  TYR619  PRO620  LYS621  CYS622 
 ASP623  PHE694  ASN695  SER759  ASP760  ASP761  ALA762  ILE779  LEU786  VAL792 
 PHE793  MET794  SER795  GLU796  ALA797  LYS798  CYS799  TRP800  GLU811  SER814 

> <Gold.Protein.RotatedAtoms>
  152.3986  134.6324  160.0078 H   0  0  0  0  0  0  0  0  0  0  0  0  # atno 6907 bound_to 6896
  151.6536  133.3314  159.3165 H   0  0  0  0  0  0  0  0  0  0  0  0  # atno 6908 bound_to 6896
  150.7890  134.6941  159.6558 H   0  0  0  0  0  0  0  0  0  0  0  0  # atno 6909 bound_to 6896
  145.6720  139.2499  143.1863 H   0  0  0  0  0  0  0  0  0  0  0  0  # atno 7974 bound_to 7965
  154.5112  140.0810  156.7993 H   0  0  0  0  0  0  0  0  0  0  0  0  # atno 8008 bound_to 7997
  155.3781  140.3426  155.4227 H   0  0  0  0  0  0  0  0  0  0  0  0  # atno 8009 bound_to 7997
  156.1575  140.1578  156.8655 H   0  0  0  0  0  0  0  0  0  0  0  0  # atno 8010 bound_to 7997
  139.6662  143.9825  152.2256 H   0  0  0  0  0  0  0  0  0  0  0  0  # atno 10167 bound_to 10162
  157.1473  130.6659  149.6000 H   0  0  0  0  0  0  0  0  0  0  0  0  # atno 10718 bound_to 10713
  153.0298  135.6430  154.1251 H   0  0  0  0  0  0  0  0  0  0  0  0  # atno 10763 bound_to 10752
  154.0975  135.2862  155.3260 H   0  0  0  0  0  0  0  0  0  0  0  0  # atno 10764 bound_to 10752
  154.6422  135.5455  153.7866 H   0  0  0  0  0  0  0  0  0  0  0  0  # atno 10765 bound_to 10752
  140.5475  134.0315  155.7925 H   0  0  0  0  0  0  0  0  0  0  0  0  # atno 11005 bound_to 11000
  146.1037  140.7512  142.9536 LP  0  0  0  0  0  0  0  0  0  0  0  0  # atno 17320 bound_to 7965
  144.7054  140.3828  143.7122 LP  0  0  0  0  0  0  0  0  0  0  0  0  # atno 17321 bound_to 7965
  139.9577  144.6578  150.8109 LP  0  0  0  0  0  0  0  0  0  0  0  0  # atno 17342 bound_to 10162
  140.7600  143.3142  151.2774 LP  0  0  0  0  0  0  0  0  0  0  0  0  # atno 17343 bound_to 10162
  155.9777  130.4757  150.6610 LP  0  0  0  0  0  0  0  0  0  0  0  0  # atno 17370 bound_to 10713
  157.4252  131.0842  151.1092 LP  0  0  0  0  0  0  0  0  0  0  0  0  # atno 17371 bound_to 10713
  141.1191  133.9491  157.2765 LP  0  0  0  0  0  0  0  0  0  0  0  0  # atno 17394 bound_to 11000
  139.9472  135.0182  156.8887 LP  0  0  0  0  0  0  0  0  0  0  0  0  # atno 17395 bound_to 11000

$$$$
