AV-unprocessed.smi:34|AV-procd|sdf|216|dock4
  -GOLD-   2262015523D 1   1.00000     0.00000
 Structure written by MMmdl.
 55 59  0  0  0  0  0  0  0  0  1 V2000
  153.5736  140.3539  158.9389 O   0  0  0  0  0  0  0  0  0  0  0  0
  152.7730  141.1496  158.4465 C   0  0  0  0  0  0  0  0  0  0  0  0
  152.0211  140.8445  157.2419 N   0  0  0  0  0  0  0  0  0  0  0  0
  152.1179  139.7507  156.4500 C   0  0  0  0  0  0  0  0  0  0  0  0
  152.6816  139.7930  155.2143 N   0  0  0  0  0  0  0  0  0  0  0  0
  152.7521  138.6861  154.4698 C   0  0  0  0  0  0  0  0  0  0  0  0
  152.3256  137.4571  154.7647 N   0  0  0  0  0  0  0  0  0  0  0  0
  151.7547  137.4030  156.0018 C   0  0  0  0  0  0  0  0  0  0  0  0
  151.6148  138.5008  156.8969 C   0  0  0  0  0  0  0  0  0  0  0  0
  150.9884  138.0806  158.0626 N   0  0  0  0  0  0  0  0  0  0  0  0
  150.7729  136.8084  157.8641 C   0  0  0  0  0  0  0  0  0  0  0  0
  151.2043  136.3149  156.6528 N   0  0  0  0  0  0  0  0  0  0  0  0
  151.0958  134.9007  156.1676 C   0  0  1  0  0  0  0  0  0  0  0  0
  150.4704  134.1049  157.1328 O   0  0  0  0  0  0  0  0  0  0  0  0
  149.5081  133.2296  156.5354 C   0  0  1  0  0  0  0  0  0  0  0  0
  148.0990  133.6678  156.9669 C   0  0  0  0  0  0  0  0  0  0  0  0
  148.1434  134.1120  158.3135 O   0  0  0  0  0  0  0  0  0  0  0  0
  147.2558  133.6422  159.2123 C   0  0  0  0  0  0  0  0  0  0  0  0
  146.4873  132.7044  158.9889 O   0  0  0  0  0  0  0  0  0  0  0  0
  147.2911  134.3847  160.5049 C   0  0  0  0  0  0  0  0  0  0  0  0
  147.7756  135.7134  160.5273 C   0  0  0  0  0  0  0  0  0  0  0  0
  147.8234  136.4394  161.7333 C   0  0  0  0  0  0  0  0  0  0  0  0
  147.3872  135.8454  162.9317 C   0  0  0  0  0  0  0  0  0  0  0  0
  146.9042  134.5239  162.9230 C   0  0  0  0  0  0  0  0  0  0  0  0
  146.8560  133.7960  161.7180 C   0  0  0  0  0  0  0  0  0  0  0  0
  149.7618  133.3609  155.0300 C   0  0  1  0  0  0  0  0  0  0  0  0
  148.7132  133.0855  154.2519 F   0  0  0  0  0  0  0  0  0  0  0  0
  150.2906  134.7729  154.8681 C   0  0  1  0  0  0  0  0  0  0  0  0
  149.2560  135.7345  154.7497 O   0  0  0  0  0  0  0  0  0  0  0  0
  152.4531  142.4581  159.1095 C   0  0  0  0  0  0  0  0  0  0  0  0
  152.4811  142.5623  160.5186 C   0  0  0  0  0  0  0  0  0  0  0  0
  152.1993  143.7901  161.1487 C   0  0  0  0  0  0  0  0  0  0  0  0
  151.8946  144.9259  160.3751 C   0  0  0  0  0  0  0  0  0  0  0  0
  151.8759  144.8341  158.9707 C   0  0  0  0  0  0  0  0  0  0  0  0
  152.1575  143.6068  158.3393 C   0  0  0  0  0  0  0  0  0  0  0  0
  151.3511  141.5416  156.9519 H   0  0  0  0  0  0  0  0  0  0  0  0
  153.2167  138.8006  153.5013 H   0  0  0  0  0  0  0  0  0  0  0  0
  150.2919  136.1867  158.6052 H   0  0  0  0  0  0  0  0  0  0  0  0
  152.1279  134.5661  156.0531 H   0  0  0  0  0  0  0  0  0  0  0  0
  149.6843  132.2026  156.8575 H   0  0  0  0  0  0  0  0  0  0  0  0
  147.7229  134.4509  156.3087 H   0  0  0  0  0  0  0  0  0  0  0  0
  147.4048  132.8295  156.9028 H   0  0  0  0  0  0  0  0  0  0  0  0
  148.1169  136.1901  159.6195 H   0  0  0  0  0  0  0  0  0  0  0  0
  148.1954  137.4534  161.7379 H   0  0  0  0  0  0  0  0  0  0  0  0
  147.4236  136.4021  163.8565 H   0  0  0  0  0  0  0  0  0  0  0  0
  146.5698  134.0665  163.8425 H   0  0  0  0  0  0  0  0  0  0  0  0
  146.4799  132.7839  161.7467 H   0  0  0  0  0  0  0  0  0  0  0  0
  150.5450  132.6574  154.7437 H   0  0  0  0  0  0  0  0  0  0  0  0
  150.9560  134.8687  154.0097 H   0  0  0  0  0  0  0  0  0  0  0  0
  148.9992  135.7886  153.8418 H   0  0  0  0  0  0  0  0  0  0  0  0
  152.7150  141.7002  161.1268 H   0  0  0  0  0  0  0  0  0  0  0  0
  152.2185  143.8605  162.2263 H   0  0  0  0  0  0  0  0  0  0  0  0
  151.6795  145.8674  160.8587 H   0  0  0  0  0  0  0  0  0  0  0  0
  151.6483  145.7068  158.3763 H   0  0  0  0  0  0  0  0  0  0  0  0
  152.1476  143.5612  157.2599 H   0  0  0  0  0  0  0  0  0  0  0  0
  1  2  2  0  0  0  0
  2  3  1  0  0  0  0
  2 30  1  0  0  0  0
  3  4  1  0  0  0  0
  3 36  1  0  0  0  0
  4  9  1  0  0  0  0
  4  5  2  0  0  0  0
  5  6  1  0  0  0  0
  6  7  2  0  0  0  0
  6 37  1  0  0  0  0
  7  8  1  0  0  0  0
  8 12  1  0  0  0  0
  8  9  2  0  0  0  0
  9 10  1  0  0  0  0
 10 11  2  0  0  0  0
 11 12  1  0  0  0  0
 11 38  1  0  0  0  0
 12 13  1  0  0  0  0
 13 28  1  0  0  0  0
 13 14  1  0  0  0  0
 13 39  1  0  0  0  0
 14 15  1  0  0  0  0
 15 16  1  0  0  0  0
 15 26  1  0  0  0  0
 15 40  1  0  0  0  0
 16 17  1  0  0  0  0
 16 41  1  0  0  0  0
 16 42  1  0  0  0  0
 17 18  1  0  0  0  0
 18 19  2  0  0  0  0
 18 20  1  0  0  0  0
 20 25  1  0  0  0  0
 20 21  2  0  0  0  0
 21 22  1  0  0  0  0
 21 43  1  0  0  0  0
 22 23  2  0  0  0  0
 22 44  1  0  0  0  0
 23 24  1  0  0  0  0
 23 45  1  0  0  0  0
 24 25  2  0  0  0  0
 24 46  1  0  0  0  0
 25 47  1  0  0  0  0
 26 27  1  0  0  0  0
 26 28  1  0  0  0  0
 26 48  1  0  0  0  0
 28 29  1  0  0  0  0
 28 49  1  0  0  0  0
 29 50  1  0  0  0  0
 30 35  1  0  0  0  0
 30 31  2  0  0  0  0
 31 32  1  0  0  0  0
 31 51  1  0  0  0  0
 32 33  2  0  0  0  0
 32 52  1  0  0  0  0
 33 34  1  0  0  0  0
 33 53  1  0  0  0  0
 34 35  2  0  0  0  0
 34 54  1  0  0  0  0
 35 55  1  0  0  0  0
M  END
> <s_m_source_file>
AV-unprocessed.smi

> <i_m_source_file_index>
34

> <i_lp_mmshare_version>
43012

> <i_f3d_flags>
0

> <s_epik_input>
W2NIXTFbY0hdW2NIXVtjSF1bY0hdYzFDKD1PKVtOSF1jKG5bY0hdbjIpYyhjMjMpbltjSF1uM1tDQEBIXTRPW0NASF0oW0NAQEhdKEYpW0NASF00W09IXSlbQ0gyXU9DKD1PKWM1W2NIXVtjSF1bY0hdW2NIXVtjSF01

> <s_epik_cmdline>
J2VwaWtfcHl0aG9uJywgJy1waCcsICc3LjAnLCAnLXRuJywgJzgnLCAnLW1hJywgJzIwMCcsICctbWV0YWxfYmluZGluZycsICctaW1hZScsICc8aW5maWxlLm1hZT4nLCAnLW9tYWUnLCAnPG91dGZpbGUubWFlPic=

> <r_lp_tautomer_probability>
1

> <r_epik_Ionization_Penalty>
0.00257489

> <r_epik_Ionization_Penalty_Charging>
0

> <r_epik_Ionization_Penalty_Neutral>
0.00257489

> <r_epik_State_Penalty>
0.00519398

> <r_epik_Charging_Adjusted_Penalty>
0.00519398

> <i_epik_Tot_Q>
0

> <i_epik_Tot_abs_Q>
0

> <r_epik_Metal_State_Penalty>
0.335891

> <b_epik_Metal_Only>
0

> <s_epik_Chemistry_Notes>
This compound has an ester and may undergo hydrolysis at high or low pH. This compound contains an acetal/aminal-like group ( X-CH(R)-Y where X, Y are N, S, or O) that may be acid/base labile, releasing an aldehyde.

> <s_lp_Force_Field>
OPLS_2005

> <r_lp_Energy>
55.8297

> <b_lp_Chiralities_Consistent>
1

> <s_lp_Variant>
AV-unprocessed.smi:34-2

> <Gold.Version>
5.8.1

> <Gold.Id.Protein>
6NUR|6NUR_protein|mol2

> <Gold.PLP.Fitness>
72.2570

> <Gold.PLP.PLP>
-65.4704

> <Gold.PLP.part.hbond>
-6.0000

> <Gold.PLP.part.metal>
0.0000

> <Gold.PLP.part.buried>
-3.8086

> <Gold.PLP.part.nonpolar>
-54.7638

> <Gold.PLP.part.repulsive>
0.2086

> <Gold.PLP.ligand.clash>
0.0000

> <Gold.PLP.ligand.torsion>
2.1421

> <Gold.PLP.Chemscore.Hbond>
3.6610

> <Gold.PLP.Chemscore.CHOScore>
0.0000

> <Gold.PLP.Chemscore.Metal>
0.0000

> <Gold.Chemscore.Hbonds>
donor molecule, donor type, donor heavy atom, donor atom, acceptor molecule, acceptor atom, score
      L1  H    29    50       P1  7948  1.00
      P1  H  6896  6909       L1    14  0.48
      P1  H  7989  7998       L1     5  0.12
      P1  H  7997  8008       L1     1  0.35
      P1  H  7997  8009       L1     5  0.96
      P1  H 10752 10764       L1     7  0.67

> <Gold.PLP.Chemscore.Internal.Correction>
0.0877

> <Gold.Rescore>
     Score         DG    S(hbond)    S(metal)    S(lipo)     H(rot)  DE(clash)    DE(int)     intcor
     21.21     -23.04       2.54        0.00     137.22       2.72       0.05       1.78       ----

> <Gold.Chemscore.Fitness>
21.2127

> <Gold.Chemscore.DG>
-23.0377

> <Gold.Chemscore.ZeroCoef>
-5.4800

> <Gold.Chemscore.Hbond>
2.5359

> <Gold.Chemscore.Metal>
0.0000

> <Gold.Chemscore.Lipo>
137.2202

> <Gold.Chemscore.Internal_Hbond>
0.0000

> <Gold.Chemscore.DEClash>
0.0458

> <Gold.Chemscore.DEInternal>
1.7792

> <Gold.Chemscore.Rot>
2.7215

> <Gold.Chemscore.Internal.Correction>
   9.000000E+99

> <Gold.Chemscore.Hbonds>
donor molecule, donor type, donor heavy atom, donor atom, acceptor molecule, acceptor atom, score
      L1  H    29    50       P1  7948  0.88
      P1  H  6896  6909       L1    14  0.43
      P1  H  7989  7998       L1     5  0.01
      P1  H  7997  8008       L1     1  0.16
      P1  H  7997  8009       L1     5  0.13
      P1  H 10752 10764       L1     7  0.44

> <Gold.Chemscore.Hbond.Weighted>
-8.4700

> <Gold.Chemscore.Metal.Weighted>
-0.0000

> <Gold.Chemscore.Lipo.Weighted>
-16.0548

> <Gold.Chemscore.Internal_Hbond.Weighted>
0.0000

> <Gold.Chemscore.DEClash.Weighted>
0.0458

> <Gold.Chemscore.DEInternal.Weighted>
1.7792

> <Gold.Chemscore.Rot.Weighted>
6.9670

> <Gold.Chemscore.Internal.Correction.Weighted>
   9.000000E+99

> <Gold.Protein.RotatedTorsions>
[ 6907 6896 6895 6894 ] final   -0.47 input  -60.11 | X-H torsion
[ 7974 7965 7964 7962 ] final -100.88 input  175.53 | X-H torsion
[ 8008 7997 7996 7995 ] final -119.67 input   59.86 | X-H torsion
[ 10167 10162 10161 10158 ] final  -96.24 input  -65.29 | X-H torsion
[ 10718 10713 10712 10709 ] final -138.57 input   66.30 | X-H torsion
[ 10763 10752 10751 10750 ] final  -76.11 input  -60.55 | X-H torsion
[ 11005 11000 10999 10996 ] final  -86.40 input  -57.11 | X-H torsion

> <Gold.Protein.ActiveResidues>
 VAL166  LYS551  ARG553  GLY616  TRP617  ASP618  TYR619  PRO620  LYS621  CYS622 
 ASP623  PHE694  ASN695  SER759  ASP760  ASP761  ALA762  ILE779  LEU786  VAL792 
 PHE793  MET794  SER795  GLU796  ALA797  LYS798  CYS799  TRP800  GLU811  SER814 

> <Gold.Protein.RotatedAtoms>
  151.5618  135.1065  159.9974 H   0  0  0  0  0  0  0  0  0  0  0  0  # atno 6907 bound_to 6896
  152.4443  133.7502  159.6700 H   0  0  0  0  0  0  0  0  0  0  0  0  # atno 6908 bound_to 6896
  150.8355  133.7952  159.3105 H   0  0  0  0  0  0  0  0  0  0  0  0  # atno 6909 bound_to 6896
  145.2888  140.9347  143.2889 H   0  0  0  0  0  0  0  0  0  0  0  0  # atno 7974 bound_to 7965
  155.1195  140.0398  157.2746 H   0  0  0  0  0  0  0  0  0  0  0  0  # atno 8008 bound_to 7997
  154.6624  140.2594  155.7068 H   0  0  0  0  0  0  0  0  0  0  0  0  # atno 8009 bound_to 7997
  156.2625  140.2814  156.1102 H   0  0  0  0  0  0  0  0  0  0  0  0  # atno 8010 bound_to 7997
  140.2958  143.3193  152.0299 H   0  0  0  0  0  0  0  0  0  0  0  0  # atno 10167 bound_to 10162
  156.3008  130.7427  151.1479 H   0  0  0  0  0  0  0  0  0  0  0  0  # atno 10718 bound_to 10713
  154.4955  135.5809  153.6491 H   0  0  0  0  0  0  0  0  0  0  0  0  # atno 10763 bound_to 10752
  152.9869  135.6123  154.3070 H   0  0  0  0  0  0  0  0  0  0  0  0  # atno 10764 bound_to 10752
  154.2974  135.2847  155.2606 H   0  0  0  0  0  0  0  0  0  0  0  0  # atno 10765 bound_to 10752
  141.1630  133.7452  156.9155 H   0  0  0  0  0  0  0  0  0  0  0  0  # atno 11005 bound_to 11000
  144.9190  139.4435  143.6550 LP  0  0  0  0  0  0  0  0  0  0  0  0  # atno 17320 bound_to 7965
  146.3192  139.8040  142.8959 LP  0  0  0  0  0  0  0  0  0  0  0  0  # atno 17321 bound_to 7965
  139.4927  144.6492  151.6713 LP  0  0  0  0  0  0  0  0  0  0  0  0  # atno 17342 bound_to 10162
  140.5693  144.0136  150.6208 LP  0  0  0  0  0  0  0  0  0  0  0  0  # atno 17343 bound_to 10162
  157.7367  131.0559  150.5397 LP  0  0  0  0  0  0  0  0  0  0  0  0  # atno 17370 bound_to 10713
  156.5524  130.4235  149.6101 LP  0  0  0  0  0  0  0  0  0  0  0  0  # atno 17371 bound_to 10713
  140.1487  134.9245  157.2564 LP  0  0  0  0  0  0  0  0  0  0  0  0  # atno 17394 bound_to 11000
  140.2748  134.3418  155.7361 LP  0  0  0  0  0  0  0  0  0  0  0  0  # atno 17395 bound_to 11000

$$$$
