AV-unprocessed.smi:557|AV-procd|sdf|2918|dock3
  -GOLD-   2262023413D 1   1.00000     0.00000
 Structure written by MMmdl.
 47 49  0  0  0  0  0  0  0  0  2 V2000
  147.7072  142.2637  154.4761 C   0  0  0  0  0  0  0  0  0  0  0  0
  148.3947  140.9944  154.3736 N   0  0  0  0  0  0  0  0  0  0  0  0
  149.7236  140.7136  154.6079 C   0  0  0  0  0  0  0  0  0  0  0  0
  149.9069  139.3787  154.3806 C   0  0  0  0  0  0  0  0  0  0  0  0
  151.1692  138.5705  154.4900 C   0  0  0  0  0  0  0  0  0  0  0  0
  150.9452  137.2894  155.3037 C   0  0  0  0  0  0  0  0  0  0  0  0
  150.2016  136.3059  154.5211 N   0  0  0  0  0  0  0  0  0  0  0  0
  149.8505  135.0652  154.8989 C   0  0  0  0  0  0  0  0  0  0  0  0
  150.1382  134.6161  156.0065 O   0  0  0  0  0  0  0  0  0  0  0  0
  149.1658  134.3730  153.9727 N   0  0  0  0  0  0  0  0  0  0  0  0
  148.6583  133.0143  154.1373 C   0  0  2  0  0  0  0  0  0  0  0  0
  149.7642  131.9686  154.2219 C   0  0  0  0  0  0  0  0  0  0  0  0
  149.0150  130.6796  153.8818 C   0  0  0  0  0  0  0  0  0  0  0  0
  147.9800  131.0618  152.8946 N   0  3  1  0  0  0  0  0  0  0  0  0
  146.7215  130.2816  152.9834 C   0  0  0  0  0  0  0  0  0  0  0  0
  145.7170  130.7517  151.9158 C   0  0  0  0  0  0  0  0  0  0  0  0
  145.4957  132.2788  151.9268 C   0  0  0  0  0  0  0  0  0  0  0  0
  146.3449  132.9901  152.9926 C   0  0  0  0  0  0  0  0  0  0  0  0
  147.8238  132.5440  152.9328 C   0  0  1  0  0  0  0  0  0  0  0  0
  148.6089  138.9258  154.0082 C   0  0  0  0  0  0  0  0  0  0  0  0
  147.7075  139.8942  154.0044 N   0  0  0  0  0  0  0  0  0  0  0  0
  148.4110  143.0498  154.7513 H   0  0  0  0  0  0  0  0  0  0  0  0
  146.9294  142.2015  155.2378 H   0  0  0  0  0  0  0  0  0  0  0  0
  147.2516  142.5161  153.5182 H   0  0  0  0  0  0  0  0  0  0  0  0
  150.4231  141.4785  154.9123 H   0  0  0  0  0  0  0  0  0  0  0  0
  151.5412  138.3086  153.4986 H   0  0  0  0  0  0  0  0  0  0  0  0
  151.9590  139.1607  154.9564 H   0  0  0  0  0  0  0  0  0  0  0  0
  151.9069  136.8672  155.6005 H   0  0  0  0  0  0  0  0  0  0  0  0
  150.3932  137.5205  156.2162 H   0  0  0  0  0  0  0  0  0  0  0  0
  149.9310  136.5927  153.5911 H   0  0  0  0  0  0  0  0  0  0  0  0
  148.9821  134.8254  153.0888 H   0  0  0  0  0  0  0  0  0  0  0  0
  148.0634  132.9423  155.0506 H   0  0  0  0  0  0  0  0  0  0  0  0
  150.5333  132.1621  153.4723 H   0  0  0  0  0  0  0  0  0  0  0  0
  150.2441  131.9333  155.2005 H   0  0  0  0  0  0  0  0  0  0  0  0
  149.6726  129.9039  153.4893 H   0  0  0  0  0  0  0  0  0  0  0  0
  148.5419  130.2903  154.7850 H   0  0  0  0  0  0  0  0  0  0  0  0
  146.9416  129.2221  152.8482 H   0  0  0  0  0  0  0  0  0  0  0  0
  146.2886  130.3881  153.9793 H   0  0  0  0  0  0  0  0  0  0  0  0
  146.0760  130.4521  150.9304 H   0  0  0  0  0  0  0  0  0  0  0  0
  144.7661  130.2370  152.0571 H   0  0  0  0  0  0  0  0  0  0  0  0
  145.7434  132.6821  150.9440 H   0  0  0  0  0  0  0  0  0  0  0  0
  144.4404  132.5038  152.0871 H   0  0  0  0  0  0  0  0  0  0  0  0
  146.2716  134.0700  152.8619 H   0  0  0  0  0  0  0  0  0  0  0  0
  145.9315  132.7790  153.9799 H   0  0  0  0  0  0  0  0  0  0  0  0
  148.2721  132.9180  152.0108 H   0  0  0  0  0  0  0  0  0  0  0  0
  148.2982  137.9267  153.7400 H   0  0  0  0  0  0  0  0  0  0  0  0
  148.3692  130.8613  151.9844 H   0  0  0  0  0  0  0  0  0  0  0  0
  1  2  1  0  0  0  0
  1 22  1  0  0  0  0
  1 23  1  0  0  0  0
  1 24  1  0  0  0  0
  2 21  1  0  0  0  0
  2  3  1  0  0  0  0
  3  4  2  0  0  0  0
  3 25  1  0  0  0  0
  4  5  1  0  0  0  0
  4 20  1  0  0  0  0
  5  6  1  0  0  0  0
  5 26  1  0  0  0  0
  5 27  1  0  0  0  0
  6  7  1  0  0  0  0
  6 28  1  0  0  0  0
  6 29  1  0  0  0  0
  7  8  1  0  0  0  0
  7 30  1  0  0  0  0
  8  9  2  0  0  0  0
  8 10  1  0  0  0  0
 10 11  1  0  0  0  0
 10 31  1  0  0  0  0
 11 19  1  0  0  0  0
 11 12  1  0  0  0  0
 11 32  1  0  0  0  0
 12 13  1  0  0  0  0
 12 33  1  0  0  0  0
 12 34  1  0  0  0  0
 13 14  1  0  0  0  0
 13 35  1  0  0  0  0
 13 36  1  0  0  0  0
 14 19  1  0  0  0  0
 14 15  1  0  0  0  0
 14 47  1  0  0  0  0
 15 16  1  0  0  0  0
 15 37  1  0  0  0  0
 15 38  1  0  0  0  0
 16 17  1  0  0  0  0
 16 39  1  0  0  0  0
 16 40  1  0  0  0  0
 17 18  1  0  0  0  0
 17 41  1  0  0  0  0
 17 42  1  0  0  0  0
 18 19  1  0  0  0  0
 18 43  1  0  0  0  0
 18 44  1  0  0  0  0
 19 45  1  0  0  0  0
 20 21  2  0  0  0  0
 20 46  1  0  0  0  0
M  CHG  1  14   1
M  END
> <s_m_source_file>
AV-unprocessed.smi

> <i_m_source_file_index>
557

> <i_lp_mmshare_version>
43012

> <i_f3d_flags>
0

> <s_epik_input>
W0NIM11uMVtjSF1jKFtjSF1uMSlbQ0gyXVtDSDJdW05IXUMoPU8pW05IXVtDQEhdKFtDSDJdW0NIMl0yKVtDQEhdKE4yMylbQ0gyXVtDSDJdW0NIMl1bQ0gyXTM=

> <s_epik_cmdline>
J2VwaWtfcHl0aG9uJywgJy1waCcsICc3LjAnLCAnLXRuJywgJzgnLCAnLW1hJywgJzIwMCcsICctbWV0YWxfYmluZGluZycsICctaW1hZScsICc8aW5maWxlLm1hZT4nLCAnLW9tYWUnLCAnPG91dGZpbGUubWFlPic=

> <r_lp_tautomer_probability>
1

> <r_epik_Ionization_Penalty>
0.000956547

> <r_epik_Ionization_Penalty_Charging>
0.000435796

> <r_epik_Ionization_Penalty_Neutral>
0.000520752

> <r_epik_State_Penalty>
-0

> <r_epik_Charging_Adjusted_Penalty>
0.000435796

> <i_epik_Tot_Q>
1

> <i_epik_Tot_abs_Q>
1

> <r_epik_Metal_State_Penalty>
-0

> <b_epik_Metal_Only>
0

> <s_lp_Force_Field>
OPLS_2005

> <r_lp_Energy>
44.7682

> <b_lp_Chiralities_Consistent>
1

> <s_lp_Variant>
AV-unprocessed.smi:557-5

> <Gold.Version>
5.8.1

> <Gold.Id.Protein>
6NUR|6NUR_protein|mol2

> <Gold.PLP.Fitness>
51.1815

> <Gold.PLP.PLP>
-40.1816

> <Gold.PLP.part.hbond>
-3.0000

> <Gold.PLP.part.metal>
0.0000

> <Gold.PLP.part.buried>
-3.2905

> <Gold.PLP.part.nonpolar>
-34.4000

> <Gold.PLP.part.repulsive>
0.2569

> <Gold.PLP.ligand.clash>
0.0000

> <Gold.PLP.ligand.torsion>
0.2094

> <Gold.PLP.Chemscore.Hbond>
2.8000

> <Gold.PLP.Chemscore.CHOScore>
1.0000

> <Gold.PLP.Chemscore.Metal>
0.0000

> <Gold.Chemscore.Hbonds>
donor molecule, donor type, donor heavy atom, donor atom, acceptor molecule, acceptor atom, score
      L1  H     7    30       P1  7948  0.95
      L1  H    10    31       P1  7948  0.75
      L1  H    14    47       P1 10747  1.00
      L1  C    20    46       P1  7948  0.82

> <Gold.PLP.Chemscore.Internal.Correction>
0.0186

> <Gold.Rescore>
     Score         DG    S(hbond)    S(metal)    S(lipo)     H(rot)  DE(clash)    DE(int)     intcor
     20.21     -20.70       2.64        0.00      89.63       1.60       0.30       0.18       ----

> <Gold.Chemscore.Fitness>
20.2106

> <Gold.Chemscore.DG>
-20.6979

> <Gold.Chemscore.ZeroCoef>
-5.4800

> <Gold.Chemscore.Hbond>
2.6444

> <Gold.Chemscore.Metal>
0.0000

> <Gold.Chemscore.Lipo>
89.6254

> <Gold.Chemscore.Internal_Hbond>
0.0000

> <Gold.Chemscore.DEClash>
0.3029

> <Gold.Chemscore.DEInternal>
0.1844

> <Gold.Chemscore.Rot>
1.6018

> <Gold.Chemscore.Internal.Correction>
   9.000000E+99

> <Gold.Chemscore.Hbonds>
donor molecule, donor type, donor heavy atom, donor atom, acceptor molecule, acceptor atom, score
      L1  H     7    30       P1  7948  0.20
      L1  H    10    31       P1  7948  0.09
      L1  H    14    47       P1 10747  0.98

> <Gold.Chemscore.Hbond.Weighted>
-8.8324

> <Gold.Chemscore.Metal.Weighted>
-0.0000

> <Gold.Chemscore.Lipo.Weighted>
-10.4862

> <Gold.Chemscore.Internal_Hbond.Weighted>
0.0000

> <Gold.Chemscore.DEClash.Weighted>
0.3029

> <Gold.Chemscore.DEInternal.Weighted>
0.1844

> <Gold.Chemscore.Rot.Weighted>
4.1006

> <Gold.Chemscore.Internal.Correction.Weighted>
   9.000000E+99

> <Gold.Protein.RotatedTorsions>
[ 6907 6896 6895 6894 ] final   84.56 input  -60.11 | X-H torsion
[ 7974 7965 7964 7962 ] final -118.34 input  175.53 | X-H torsion
[ 8008 7997 7996 7995 ] final  132.21 input   59.86 | X-H torsion
[ 10167 10162 10161 10158 ] final -175.50 input  -65.29 | X-H torsion
[ 10718 10713 10712 10709 ] final  -31.07 input   66.30 | X-H torsion
[ 10763 10752 10751 10750 ] final -168.49 input  -60.55 | X-H torsion
[ 11005 11000 10999 10996 ] final   38.77 input  -57.11 | X-H torsion

> <Gold.Protein.ActiveResidues>
 VAL166  LYS551  ARG553  GLY616  TRP617  ASP618  TYR619  PRO620  LYS621  CYS622 
 ASP623  PHE694  ASN695  SER759  ASP760  ASP761  ALA762  ILE779  LEU786  VAL792 
 PHE793  MET794  SER795  GLU796  ALA797  LYS798  CYS799  TRP800  GLU811  SER814 

> <Gold.Protein.RotatedAtoms>
  152.5355  134.2722  159.8975 H   0  0  0  0  0  0  0  0  0  0  0  0  # atno 6907 bound_to 6896
  151.2678  133.4263  159.2627 H   0  0  0  0  0  0  0  0  0  0  0  0  # atno 6908 bound_to 6896
  151.0395  134.9611  159.8210 H   0  0  0  0  0  0  0  0  0  0  0  0  # atno 6909 bound_to 6896
  145.0749  140.8385  143.4073 H   0  0  0  0  0  0  0  0  0  0  0  0  # atno 7974 bound_to 7965
  156.2980  140.2552  156.3052 H   0  0  0  0  0  0  0  0  0  0  0  0  # atno 8008 bound_to 7997
  154.9379  140.0397  157.2100 H   0  0  0  0  0  0  0  0  0  0  0  0  # atno 8009 bound_to 7997
  154.8155  140.2851  155.5828 H   0  0  0  0  0  0  0  0  0  0  0  0  # atno 8010 bound_to 7997
  139.5578  144.1945  152.1188 H   0  0  0  0  0  0  0  0  0  0  0  0  # atno 10167 bound_to 10162
  156.3919  130.4374  149.7388 H   0  0  0  0  0  0  0  0  0  0  0  0  # atno 10718 bound_to 10713
  154.6623  135.2927  154.9850 H   0  0  0  0  0  0  0  0  0  0  0  0  # atno 10763 bound_to 10752
  154.0906  135.6591  153.4856 H   0  0  0  0  0  0  0  0  0  0  0  0  # atno 10764 bound_to 10752
  153.0437  135.5219  154.7580 H   0  0  0  0  0  0  0  0  0  0  0  0  # atno 10765 bound_to 10752
  140.2094  134.3774  155.8056 H   0  0  0  0  0  0  0  0  0  0  0  0  # atno 11005 bound_to 11000
  145.1247  139.2670  143.5570 LP  0  0  0  0  0  0  0  0  0  0  0  0  # atno 17320 bound_to 7965
  146.3530  140.0881  142.8614 LP  0  0  0  0  0  0  0  0  0  0  0  0  # atno 17321 bound_to 7965
  140.1453  144.5164  150.6719 LP  0  0  0  0  0  0  0  0  0  0  0  0  # atno 17342 bound_to 10162
  140.6853  143.2347  151.5276 LP  0  0  0  0  0  0  0  0  0  0  0  0  # atno 17343 bound_to 10162
  156.4438  130.7874  151.2895 LP  0  0  0  0  0  0  0  0  0  0  0  0  # atno 17370 bound_to 10713
  157.7499  131.0116  150.3353 LP  0  0  0  0  0  0  0  0  0  0  0  0  # atno 17371 bound_to 10713
  141.2226  133.7135  156.8392 LP  0  0  0  0  0  0  0  0  0  0  0  0  # atno 17394 bound_to 11000
  140.1968  134.8926  157.3123 LP  0  0  0  0  0  0  0  0  0  0  0  0  # atno 17395 bound_to 11000

$$$$
