AV-unprocessed.smi:2478|AV-procd|sdf|9764|dock4
  -GOLD-   2272013403D 1   1.00000     0.00000
 Structure written by MMmdl.
 42 43  0  0  0  0  0  0  0  0  1 V2000
  150.1690  141.3680  156.1289 C   0  0  0  0  0  0  0  0  0  0  0  0
  151.3327  141.5586  157.1141 C   0  0  1  0  0  0  0  0  0  0  0  0
  151.0135  142.6258  158.1807 C   0  0  0  0  0  0  0  0  0  0  0  0
  152.1958  142.8365  159.1405 C   0  0  0  0  0  0  0  0  0  0  0  0
  152.6288  141.5148  159.7922 C   0  0  0  0  0  0  0  0  0  0  0  0
  152.9495  140.4502  158.7303 C   0  0  0  0  0  0  0  0  0  0  0  0
  151.7612  140.2268  157.7702 C   0  0  1  0  0  0  0  0  0  0  0  0
  150.6456  139.6938  158.4758 O   0  0  0  0  0  0  0  0  0  0  0  0
  150.2052  138.4239  158.0161 C   0  0  0  0  0  0  0  0  0  0  0  0
  150.1074  137.4660  159.2033 C   0  0  0  0  0  0  0  0  0  0  0  0
  151.1332  137.0304  159.7280 O   0  0  0  0  0  0  0  0  0  0  0  0
  148.8566  137.1583  159.5923 N   0  0  0  0  0  0  0  0  0  0  0  0
  148.4413  136.2949  160.6433 C   0  0  0  0  0  0  0  0  0  0  0  0
  148.1506  136.7369  161.8924 N   0  0  0  0  0  0  0  0  0  0  0  0
  147.7630  135.8534  162.8341 C   0  0  0  0  0  0  0  0  0  0  0  0
  147.6386  134.4756  162.5878 C   0  0  0  0  0  0  0  0  0  0  0  0
  147.9361  134.0032  161.2981 C   0  0  0  0  0  0  0  0  0  0  0  0
  148.3546  134.9207  160.3040 C   0  0  0  0  0  0  0  0  0  0  0  0
  148.6463  134.5289  159.0148 O   0  0  0  0  0  0  0  0  0  0  0  0
  148.2768  133.2889  158.5969 C   0  0  0  0  0  0  0  0  0  0  0  0
  148.3188  133.2131  157.2439 F   0  0  0  0  0  0  0  0  0  0  0  0
  149.1394  132.3657  159.0862 F   0  0  0  0  0  0  0  0  0  0  0  0
  149.2646  141.0344  156.6386 H   0  0  0  0  0  0  0  0  0  0  0  0
  150.4152  140.6266  155.3685 H   0  0  0  0  0  0  0  0  0  0  0  0
  149.9340  142.3006  155.6155 H   0  0  0  0  0  0  0  0  0  0  0  0
  152.1814  141.9224  156.5328 H   0  0  0  0  0  0  0  0  0  0  0  0
  150.7638  143.5717  157.6990 H   0  0  0  0  0  0  0  0  0  0  0  0
  150.1313  142.3292  158.7497 H   0  0  0  0  0  0  0  0  0  0  0  0
  153.0367  143.2668  158.5950 H   0  0  0  0  0  0  0  0  0  0  0  0
  151.9247  143.5589  159.9108 H   0  0  0  0  0  0  0  0  0  0  0  0
  153.5001  141.6818  160.4260 H   0  0  0  0  0  0  0  0  0  0  0  0
  151.8357  141.1521  160.4475 H   0  0  0  0  0  0  0  0  0  0  0  0
  153.8180  140.7714  158.1541 H   0  0  0  0  0  0  0  0  0  0  0  0
  153.2420  139.5194  159.2148 H   0  0  0  0  0  0  0  0  0  0  0  0
  152.0593  139.5354  156.9798 H   0  0  0  0  0  0  0  0  0  0  0  0
  149.2298  138.5194  157.5357 H   0  0  0  0  0  0  0  0  0  0  0  0
  150.8984  138.0030  157.2881 H   0  0  0  0  0  0  0  0  0  0  0  0
  148.1086  137.5947  159.0731 H   0  0  0  0  0  0  0  0  0  0  0  0
  147.5425  136.2578  163.8107 H   0  0  0  0  0  0  0  0  0  0  0  0
  147.3197  133.7996  163.3673 H   0  0  0  0  0  0  0  0  0  0  0  0
  147.8355  132.9497  161.0838 H   0  0  0  0  0  0  0  0  0  0  0  0
  147.2767  133.0274  158.9439 H   0  0  0  0  0  0  0  0  0  0  0  0
  1  2  1  0  0  0  0
  1 23  1  0  0  0  0
  1 24  1  0  0  0  0
  1 25  1  0  0  0  0
  2  7  1  0  0  0  0
  2  3  1  0  0  0  0
  2 26  1  0  0  0  0
  3  4  1  0  0  0  0
  3 27  1  0  0  0  0
  3 28  1  0  0  0  0
  4  5  1  0  0  0  0
  4 29  1  0  0  0  0
  4 30  1  0  0  0  0
  5  6  1  0  0  0  0
  5 31  1  0  0  0  0
  5 32  1  0  0  0  0
  6  7  1  0  0  0  0
  6 33  1  0  0  0  0
  6 34  1  0  0  0  0
  7  8  1  0  0  0  0
  7 35  1  0  0  0  0
  8  9  1  0  0  0  0
  9 10  1  0  0  0  0
  9 36  1  0  0  0  0
  9 37  1  0  0  0  0
 10 11  2  0  0  0  0
 10 12  1  0  0  0  0
 12 13  1  0  0  0  0
 12 38  1  0  0  0  0
 13 18  1  0  0  0  0
 13 14  2  0  0  0  0
 14 15  1  0  0  0  0
 15 16  2  0  0  0  0
 15 39  1  0  0  0  0
 16 17  1  0  0  0  0
 16 40  1  0  0  0  0
 17 18  2  0  0  0  0
 17 41  1  0  0  0  0
 18 19  1  0  0  0  0
 19 20  1  0  0  0  0
 20 21  1  0  0  0  0
 20 22  1  0  0  0  0
 20 42  1  0  0  0  0
M  END
> <s_m_source_file>
AV-unprocessed.smi

> <i_m_source_file_index>
2478

> <i_lp_mmshare_version>
43012

> <i_f3d_flags>
0

> <s_epik_input>
W0NIM11bQ0BASF0xW0NIMl1bQ0gyXVtDSDJdW0NIMl1bQ0BIXTFPW0NIMl1DKD1PKVtOSF1jMm5bY0hdW2NIXVtjSF1jMk9bQ0hdKEYpRg==

> <s_epik_cmdline>
J2VwaWtfcHl0aG9uJywgJy1waCcsICc3LjAnLCAnLXRuJywgJzgnLCAnLW1hJywgJzIwMCcsICctbWV0YWxfYmluZGluZycsICctaW1hZScsICc8aW5maWxlLm1hZT4nLCAnLW9tYWUnLCAnPG91dGZpbGUubWFlPic=

> <r_lp_tautomer_probability>
1

> <r_epik_Ionization_Penalty>
6.06012e-05

> <r_epik_Ionization_Penalty_Charging>
0

> <r_epik_Ionization_Penalty_Neutral>
6.06012e-05

> <r_epik_State_Penalty>
-0

> <r_epik_Charging_Adjusted_Penalty>
0

> <i_epik_Tot_Q>
0

> <i_epik_Tot_abs_Q>
0

> <r_epik_Metal_State_Penalty>
-0

> <b_epik_Metal_Only>
0

> <s_lp_Force_Field>
OPLS_2005

> <r_lp_Energy>
14.9607

> <b_lp_Chiralities_Consistent>
1

> <s_lp_Variant>
AV-unprocessed.smi:2478-2

> <Gold.Version>
5.8.1

> <Gold.Id.Protein>
6NUR|6NUR_protein|mol2

> <Gold.PLP.Fitness>
40.0419

> <Gold.PLP.PLP>
-38.4856

> <Gold.PLP.part.hbond>
-2.4531

> <Gold.PLP.part.metal>
0.0000

> <Gold.PLP.part.buried>
-5.5491

> <Gold.PLP.part.nonpolar>
-31.1260

> <Gold.PLP.part.repulsive>
0.2343

> <Gold.PLP.ligand.clash>
0.0000

> <Gold.PLP.ligand.torsion>
2.3020

> <Gold.PLP.Chemscore.Hbond>
2.0000

> <Gold.PLP.Chemscore.CHOScore>
0.0000

> <Gold.PLP.Chemscore.Metal>
0.0000

> <Gold.Chemscore.Hbonds>
donor molecule, donor type, donor heavy atom, donor atom, acceptor molecule, acceptor atom, score
      P1  H  6896  6907       L1    11  1.00
      P1  H  6931  6943       L1    14  1.00

> <Gold.PLP.Chemscore.Internal.Correction>
0.1602

> <Gold.Rescore>
     Score         DG    S(hbond)    S(metal)    S(lipo)     H(rot)  DE(clash)    DE(int)     intcor
     14.67     -16.92       1.65        0.00      91.26       1.85       0.11       2.15       ----

> <Gold.Chemscore.Fitness>
14.6665

> <Gold.Chemscore.DG>
-16.9230

> <Gold.Chemscore.ZeroCoef>
-5.4800

> <Gold.Chemscore.Hbond>
1.6457

> <Gold.Chemscore.Metal>
0.0000

> <Gold.Chemscore.Lipo>
91.2593

> <Gold.Chemscore.Internal_Hbond>
0.0000

> <Gold.Chemscore.DEClash>
0.1095

> <Gold.Chemscore.DEInternal>
2.1469

> <Gold.Chemscore.Rot>
1.8481

> <Gold.Chemscore.Internal.Correction>
   9.000000E+99

> <Gold.Chemscore.Hbonds>
donor molecule, donor type, donor heavy atom, donor atom, acceptor molecule, acceptor atom, score
      P1  H  6896  6907       L1    11  0.96
      P1  H  6931  6943       L1    14  0.30

> <Gold.Chemscore.Hbond.Weighted>
-5.4968

> <Gold.Chemscore.Metal.Weighted>
-0.0000

> <Gold.Chemscore.Lipo.Weighted>
-10.6773

> <Gold.Chemscore.Internal_Hbond.Weighted>
0.0000

> <Gold.Chemscore.DEClash.Weighted>
0.1095

> <Gold.Chemscore.DEInternal.Weighted>
2.1469

> <Gold.Chemscore.Rot.Weighted>
4.7311

> <Gold.Chemscore.Internal.Correction.Weighted>
   9.000000E+99

> <Gold.Protein.RotatedTorsions>
[ 6907 6896 6895 6894 ] final  -15.52 input  -60.11 | X-H torsion
[ 7974 7965 7964 7962 ] final  -10.31 input  175.53 | X-H torsion
[ 8008 7997 7996 7995 ] final  -82.03 input   59.86 | X-H torsion
[ 10167 10162 10161 10158 ] final -100.40 input  -65.29 | X-H torsion
[ 10718 10713 10712 10709 ] final   24.12 input   66.30 | X-H torsion
[ 10763 10752 10751 10750 ] final -164.99 input  -60.55 | X-H torsion
[ 11005 11000 10999 10996 ] final  -13.19 input  -57.11 | X-H torsion

> <Gold.Protein.ActiveResidues>
 VAL166  LYS551  ARG553  GLY616  TRP617  ASP618  TYR619  PRO620  LYS621  CYS622 
 ASP623  PHE694  ASN695  SER759  ASP760  ASP761  ALA762  ILE779  LEU786  VAL792 
 PHE793  MET794  SER795  GLU796  ALA797  LYS798  CYS799  TRP800  GLU811  SER814 

> <Gold.Protein.RotatedAtoms>
  151.3227  135.0822  159.9311 H   0  0  0  0  0  0  0  0  0  0  0  0  # atno 6907 bound_to 6896
  152.5253  133.9622  159.7733 H   0  0  0  0  0  0  0  0  0  0  0  0  # atno 6908 bound_to 6896
  150.9946  133.6063  159.2733 H   0  0  0  0  0  0  0  0  0  0  0  0  # atno 6909 bound_to 6896
  146.2224  140.2746  142.8358 H   0  0  0  0  0  0  0  0  0  0  0  0  # atno 7974 bound_to 7965
  154.6044  140.0639  156.9412 H   0  0  0  0  0  0  0  0  0  0  0  0  # atno 8008 bound_to 7997
  155.2077  140.3320  155.4315 H   0  0  0  0  0  0  0  0  0  0  0  0  # atno 8009 bound_to 7997
  156.2338  140.1853  156.7156 H   0  0  0  0  0  0  0  0  0  0  0  0  # atno 8010 bound_to 7997
  140.2523  143.3464  152.0703 H   0  0  0  0  0  0  0  0  0  0  0  0  # atno 10167 bound_to 10162
  157.1754  130.6778  149.6093 H   0  0  0  0  0  0  0  0  0  0  0  0  # atno 10718 bound_to 10713
  154.6975  135.2982  154.9390 H   0  0  0  0  0  0  0  0  0  0  0  0  # atno 10763 bound_to 10752
  154.0333  135.6667  153.4787 H   0  0  0  0  0  0  0  0  0  0  0  0  # atno 10764 bound_to 10752
  153.0657  135.5090  154.8101 H   0  0  0  0  0  0  0  0  0  0  0  0  # atno 10765 bound_to 10752
  140.7736  133.8419  155.9228 H   0  0  0  0  0  0  0  0  0  0  0  0  # atno 11005 bound_to 11000
  144.9243  140.7903  143.5729 LP  0  0  0  0  0  0  0  0  0  0  0  0  # atno 17320 bound_to 7965
  145.2684  139.1964  143.4854 LP  0  0  0  0  0  0  0  0  0  0  0  0  # atno 17321 bound_to 7965
  139.5042  144.6771  151.6100 LP  0  0  0  0  0  0  0  0  0  0  0  0  # atno 17342 bound_to 10162
  140.6031  143.9574  150.6400 LP  0  0  0  0  0  0  0  0  0  0  0  0  # atno 17343 bound_to 10162
  155.9732  130.4665  150.6290 LP  0  0  0  0  0  0  0  0  0  0  0  0  # atno 17370 bound_to 10713
  157.4003  131.0809  151.1314 LP  0  0  0  0  0  0  0  0  0  0  0  0  # atno 17371 bound_to 10713
  140.9550  134.1729  157.4698 LP  0  0  0  0  0  0  0  0  0  0  0  0  # atno 17394 bound_to 11000
  139.8752  134.9923  156.5593 LP  0  0  0  0  0  0  0  0  0  0  0  0  # atno 17395 bound_to 11000

$$$$
