AV-unprocessed.smi:1623|AV-procd|sdf|6501|dock1
  -GOLD-   22720 7163D 1   1.00000     0.00000
 Structure written by MMmdl.
 42 43  0  0  0  0  0  0  0  0  1 V2000
  150.8834  145.3123  159.7856 C   0  0  0  0  0  0  0  0  0  0  0  0
  151.4307  143.9718  159.3759 C   0  0  0  0  0  0  0  0  0  0  0  0
  151.1398  143.5671  158.1833 N   0  0  0  0  0  0  0  0  0  0  0  0
  151.5871  142.3498  157.7075 N   0  0  0  0  0  0  0  0  0  0  0  0
  151.1603  142.0515  156.3357 C   0  0  0  0  0  0  0  0  0  0  0  0
  150.5695  140.6301  156.2073 C   0  0  2  0  0  0  0  0  0  0  0  0
  150.7855  140.1071  154.9126 O   0  0  0  0  0  0  0  0  0  0  0  0
  149.0568  140.5917  156.4772 C   0  0  0  0  0  0  0  0  0  0  0  0
  148.3899  141.4747  155.5849 O   0  0  0  0  0  0  0  0  0  0  0  0
  146.9970  141.2306  155.4555 C   0  0  0  0  0  0  0  0  0  0  0  0
  146.2184  142.4459  154.9719 C   0  0  0  0  0  0  0  0  0  0  0  0
  146.3932  142.8955  153.6452 C   0  0  0  0  0  0  0  0  0  0  0  0
  145.6827  144.0152  153.1724 C   0  0  0  0  0  0  0  0  0  0  0  0
  144.7940  144.6956  154.0253 C   0  0  0  0  0  0  0  0  0  0  0  0
  144.6188  144.2568  155.3513 C   0  0  0  0  0  0  0  0  0  0  0  0
  145.3282  143.1369  155.8295 C   0  0  0  0  0  0  0  0  0  0  0  0
  145.0877  142.6354  157.4666 Cl  0  0  0  0  0  0  0  0  0  0  0  0
  152.3452  141.4684  158.4194 C   0  0  0  0  0  0  0  0  0  0  0  0
  152.7125  140.3858  157.9606 O   0  0  0  0  0  0  0  0  0  0  0  0
  152.6752  141.9352  159.7680 C   0  0  0  0  0  0  0  0  0  0  0  0
  153.4709  141.0439  160.5487 C   0  0  0  0  0  0  0  0  0  0  0  0
  154.1341  140.3260  161.1692 N   0  0  0  0  0  0  0  0  0  0  0  0
  152.2525  143.1333  160.2430 C   0  0  0  0  0  0  0  0  0  0  0  0
  152.5686  143.6605  161.6361 C   0  0  0  0  0  0  0  0  0  0  0  0
  150.3578  145.2435  160.7381 H   0  0  0  0  0  0  0  0  0  0  0  0
  150.1779  145.7050  159.0515 H   0  0  0  0  0  0  0  0  0  0  0  0
  151.6878  146.0400  159.8940 H   0  0  0  0  0  0  0  0  0  0  0  0
  150.3935  142.7794  156.0624 H   0  0  0  0  0  0  0  0  0  0  0  0
  151.9623  142.2113  155.6124 H   0  0  0  0  0  0  0  0  0  0  0  0
  151.0543  139.9582  156.9168 H   0  0  0  0  0  0  0  0  0  0  0  0
  150.0176  139.6192  154.6561 H   0  0  0  0  0  0  0  0  0  0  0  0
  148.6632  139.5781  156.3849 H   0  0  0  0  0  0  0  0  0  0  0  0
  148.8837  140.9078  157.5065 H   0  0  0  0  0  0  0  0  0  0  0  0
  146.8604  140.4300  154.7282 H   0  0  0  0  0  0  0  0  0  0  0  0
  146.5939  140.8580  156.3986 H   0  0  0  0  0  0  0  0  0  0  0  0
  147.0716  142.3796  152.9817 H   0  0  0  0  0  0  0  0  0  0  0  0
  145.8198  144.3520  152.1553 H   0  0  0  0  0  0  0  0  0  0  0  0
  144.2484  145.5548  153.6638 H   0  0  0  0  0  0  0  0  0  0  0  0
  143.9376  144.7829  156.0039 H   0  0  0  0  0  0  0  0  0  0  0  0
  153.3206  143.0564  162.1427 H   0  0  0  0  0  0  0  0  0  0  0  0
  151.6700  143.6600  162.2535 H   0  0  0  0  0  0  0  0  0  0  0  0
  152.9542  144.6795  161.5892 H   0  0  0  0  0  0  0  0  0  0  0  0
  1  2  1  0  0  0  0
  1 25  1  0  0  0  0
  1 26  1  0  0  0  0
  1 27  1  0  0  0  0
  2 23  1  0  0  0  0
  2  3  2  0  0  0  0
  3  4  1  0  0  0  0
  4  5  1  0  0  0  0
  4 18  1  0  0  0  0
  5  6  1  0  0  0  0
  5 28  1  0  0  0  0
  5 29  1  0  0  0  0
  6  7  1  0  0  0  0
  6  8  1  0  0  0  0
  6 30  1  0  0  0  0
  7 31  1  0  0  0  0
  8  9  1  0  0  0  0
  8 32  1  0  0  0  0
  8 33  1  0  0  0  0
  9 10  1  0  0  0  0
 10 11  1  0  0  0  0
 10 34  1  0  0  0  0
 10 35  1  0  0  0  0
 11 16  1  0  0  0  0
 11 12  2  0  0  0  0
 12 13  1  0  0  0  0
 12 36  1  0  0  0  0
 13 14  2  0  0  0  0
 13 37  1  0  0  0  0
 14 15  1  0  0  0  0
 14 38  1  0  0  0  0
 15 16  2  0  0  0  0
 15 39  1  0  0  0  0
 16 17  1  0  0  0  0
 18 19  2  0  0  0  0
 18 20  1  0  0  0  0
 20 21  1  0  0  0  0
 20 23  2  0  0  0  0
 21 22  3  0  0  0  0
 23 24  1  0  0  0  0
 24 40  1  0  0  0  0
 24 41  1  0  0  0  0
 24 42  1  0  0  0  0
M  END
> <s_m_source_file>
AV-unprocessed.smi

> <i_m_source_file_index>
1623

> <i_lp_mmshare_version>
43012

> <i_f3d_flags>
0

> <s_epik_input>
TiNDYyhjMVtDSDNdKWMoPU8pbihuYzFbQ0gzXSlbQ0gyXVtDQEhdKFtPSF0pW0NIMl1PW0NIMl1jMltjSF1bY0hdW2NIXVtjSF1jMkNs

> <s_epik_cmdline>
J2VwaWtfcHl0aG9uJywgJy1waCcsICc3LjAnLCAnLXRuJywgJzgnLCAnLW1hJywgJzIwMCcsICctbWV0YWxfYmluZGluZycsICctaW1hZScsICc8aW5maWxlLm1hZT4nLCAnLW9tYWUnLCAnPG91dGZpbGUubWFlPic=

> <r_lp_tautomer_probability>
1

> <r_epik_Ionization_Penalty>
6.50533e-08

> <r_epik_Ionization_Penalty_Charging>
2.19172e-10

> <r_epik_Ionization_Penalty_Neutral>
6.48342e-08

> <r_epik_State_Penalty>
-0

> <r_epik_Charging_Adjusted_Penalty>
2.19172e-10

> <i_epik_Tot_Q>
0

> <i_epik_Tot_abs_Q>
0

> <r_epik_Metal_State_Penalty>
-0

> <b_epik_Metal_Only>
0

> <s_lp_Force_Field>
OPLS_2005

> <r_lp_Energy>
31.4415

> <b_lp_Chiralities_Consistent>
1

> <s_lp_Variant>
AV-unprocessed.smi:1623-1

> <Gold.Version>
5.8.1

> <Gold.Id.Protein>
6NUR|6NUR_protein|mol2

> <Gold.PLP.Fitness>
52.6950

> <Gold.PLP.PLP>
-48.6238

> <Gold.PLP.part.hbond>
-2.0000

> <Gold.PLP.part.metal>
0.0000

> <Gold.PLP.part.buried>
-9.2609

> <Gold.PLP.part.nonpolar>
-35.3607

> <Gold.PLP.part.repulsive>
0.2242

> <Gold.PLP.ligand.clash>
0.0000

> <Gold.PLP.ligand.torsion>
0.7804

> <Gold.PLP.Chemscore.Hbond>
1.8151

> <Gold.PLP.Chemscore.CHOScore>
0.0000

> <Gold.PLP.Chemscore.Metal>
0.0000

> <Gold.Chemscore.Hbonds>
donor molecule, donor type, donor heavy atom, donor atom, acceptor molecule, acceptor atom, score
      P1  H  7989  7998       L1     7  1.00
      P1  H  7997  8009       L1    19  0.76

> <Gold.PLP.Chemscore.Internal.Correction>
0.1867

> <Gold.Rescore>
     Score         DG    S(hbond)    S(metal)    S(lipo)     H(rot)  DE(clash)    DE(int)     intcor
     15.70     -18.04       1.82        0.00     109.59       2.48       0.13       2.21       ----

> <Gold.Chemscore.Fitness>
15.7025

> <Gold.Chemscore.DG>
-18.0422

> <Gold.Chemscore.ZeroCoef>
-5.4800

> <Gold.Chemscore.Hbond>
1.8212

> <Gold.Chemscore.Metal>
0.0000

> <Gold.Chemscore.Lipo>
109.5936

> <Gold.Chemscore.Internal_Hbond>
0.0000

> <Gold.Chemscore.DEClash>
0.1285

> <Gold.Chemscore.DEInternal>
2.2112

> <Gold.Chemscore.Rot>
2.4777

> <Gold.Chemscore.Internal.Correction>
   9.000000E+99

> <Gold.Chemscore.Hbonds>
donor molecule, donor type, donor heavy atom, donor atom, acceptor molecule, acceptor atom, score
      P1  H  7989  7998       L1     7  0.85
      P1  H  7997  8009       L1    19  0.72

> <Gold.Chemscore.Hbond.Weighted>
-6.0826

> <Gold.Chemscore.Metal.Weighted>
-0.0000

> <Gold.Chemscore.Lipo.Weighted>
-12.8224

> <Gold.Chemscore.Internal_Hbond.Weighted>
0.0000

> <Gold.Chemscore.DEClash.Weighted>
0.1285

> <Gold.Chemscore.DEInternal.Weighted>
2.2112

> <Gold.Chemscore.Rot.Weighted>
6.3428

> <Gold.Chemscore.Internal.Correction.Weighted>
   9.000000E+99

> <Gold.Protein.RotatedTorsions>
[ 6907 6896 6895 6894 ] final   54.41 input  -60.11 | X-H torsion
[ 7974 7965 7964 7962 ] final -169.44 input  175.53 | X-H torsion
[ 8008 7997 7996 7995 ] final  162.28 input   59.86 | X-H torsion
[ 10167 10162 10161 10158 ] final  -47.64 input  -65.29 | X-H torsion
[ 10718 10713 10712 10709 ] final -179.99 input   66.30 | X-H torsion
[ 10763 10752 10751 10750 ] final  156.64 input  -60.55 | X-H torsion
[ 11005 11000 10999 10996 ] final   26.41 input  -57.11 | X-H torsion

> <Gold.Protein.ActiveResidues>
 VAL166  LYS551  ARG553  GLY616  TRP617  ASP618  TYR619  PRO620  LYS621  CYS622 
 ASP623  PHE694  ASN695  SER759  ASP760  ASP761  ALA762  ILE779  LEU786  VAL792 
 PHE793  MET794  SER795  GLU796  ALA797  LYS798  CYS799  TRP800  GLU811  SER814 

> <Gold.Protein.RotatedAtoms>
  152.3436  134.7102  160.0256 H   0  0  0  0  0  0  0  0  0  0  0  0  # atno 6907 bound_to 6896
  151.7479  133.3320  159.3391 H   0  0  0  0  0  0  0  0  0  0  0  0  # atno 6908 bound_to 6896
  150.7495  134.6152  159.6151 H   0  0  0  0  0  0  0  0  0  0  0  0  # atno 6909 bound_to 6896
  144.7185  140.2220  143.6315 H   0  0  0  0  0  0  0  0  0  0  0  0  # atno 7974 bound_to 7965
  156.2042  140.1754  156.7834 H   0  0  0  0  0  0  0  0  0  0  0  0  # atno 8008 bound_to 7997
  154.5633  140.0695  156.8883 H   0  0  0  0  0  0  0  0  0  0  0  0  # atno 8009 bound_to 7997
  155.2808  140.3349  155.4261 H   0  0  0  0  0  0  0  0  0  0  0  0  # atno 8010 bound_to 7997
  140.6766  143.2775  151.3956 H   0  0  0  0  0  0  0  0  0  0  0  0  # atno 10167 bound_to 10162
  156.8673  130.9772  151.3077 H   0  0  0  0  0  0  0  0  0  0  0  0  # atno 10718 bound_to 10713
  154.1876  135.2796  155.3032 H   0  0  0  0  0  0  0  0  0  0  0  0  # atno 10763 bound_to 10752
  154.5954  135.5546  153.7324 H   0  0  0  0  0  0  0  0  0  0  0  0  # atno 10764 bound_to 10752
  153.0121  135.6378  154.2014 H   0  0  0  0  0  0  0  0  0  0  0  0  # atno 10765 bound_to 10752
  140.3373  134.2371  155.7694 H   0  0  0  0  0  0  0  0  0  0  0  0  # atno 11005 bound_to 11000
  145.8492  139.2167  143.1782 LP  0  0  0  0  0  0  0  0  0  0  0  0  # atno 17320 bound_to 7965
  146.0276  140.8289  142.9892 LP  0  0  0  0  0  0  0  0  0  0  0  0  # atno 17321 bound_to 7965
  139.6062  144.1192  152.2251 LP  0  0  0  0  0  0  0  0  0  0  0  0  # atno 17342 bound_to 10162
  140.0591  144.5871  150.7276 LP  0  0  0  0  0  0  0  0  0  0  0  0  # atno 17343 bound_to 10162
  157.6216  130.8659  149.9118 LP  0  0  0  0  0  0  0  0  0  0  0  0  # atno 17370 bound_to 10713
  156.0745  130.3681  150.0707 LP  0  0  0  0  0  0  0  0  0  0  0  0  # atno 17371 bound_to 10713
  141.2048  133.7877  157.0269 LP  0  0  0  0  0  0  0  0  0  0  0  0  # atno 17394 bound_to 11000
  140.0810  134.9648  157.1624 LP  0  0  0  0  0  0  0  0  0  0  0  0  # atno 17395 bound_to 11000

$$$$
