#       Name:                AV-unprocessed.smi:2662
#       Creating user name   scv26
#       Creation time:       Fri Mar 27 14:33:50 2020


#       File generated by GOLD software.
#

@<TRIPOS>MOLECULE
AV-unprocessed.smi:2662
    41    43     1
SMALL
NO_CHARGES


@<TRIPOS>ATOM
      1 ****        -1.5587   3.4337  -0.4665 O.3            1 S1                 0.0000
      2 ****        -1.7300   2.8833   0.8199 C.3            1 S1                 0.0000
      3 ****        -2.0587   1.4273   0.7747 C.2            1 S1                 0.0000
      4 ****        -3.3145   0.8975   0.7956 N.pl3          1 S1                 1.0000
      5 ****        -3.2425  -0.4944   0.7318 C.ar           1 S1                 0.0000
      6 ****        -4.2442  -1.4602   0.7260 C.ar           1 S1                 0.0000
      7 ****        -3.8258  -2.8051   0.6510 C.ar           1 S1                 0.0000
      8 ****        -2.4592  -3.1466   0.5849 C.ar           1 S1                 0.0000
      9 ****        -1.4527  -2.1584   0.5912 C.ar           1 S1                 0.0000
     10 ****        -1.8752  -0.8314   0.6662 C.ar           1 S1                 0.0000
     11 ****        -1.1820   0.3837   0.6925 N.pl3          1 S1                 0.0000
     12 ****         0.2884   0.3642   0.6322 C.3            1 S1                 0.0000
     13 ****         0.8311   0.1713  -0.7980 C.3            1 S1                 0.0000
     14 ****         0.3572   1.2106  -1.6330 O.3            1 S1                 0.0000
     15 ****         2.3499   0.0678  -0.7979 C.ar           1 S1                 0.0000
     16 ****         3.1481   1.2341  -0.7938 C.ar           1 S1                 0.0000
     17 ****         4.5529   1.1357  -0.7838 C.ar           1 S1                 0.0000
     18 ****         5.3098   2.2583  -0.7809 F              1 S1                 0.0000
     19 ****         5.1701  -0.1293  -0.7745 C.ar           1 S1                 0.0000
     20 ****         4.3816  -1.2955  -0.7706 C.ar           1 S1                 0.0000
     21 ****         2.9761  -1.1994  -0.7791 C.ar           1 S1                 0.0000
     22 ****         2.2322  -2.3317  -0.7641 F              1 S1                 0.0000
     23 ****        -0.8254   3.0026  -0.8803 H              1 S1                 0.0000
     24 ****        -0.8247   3.0425   1.4051 H              1 S1                 0.0000
     25 ****        -2.5336   3.4183   1.3265 H              1 S1                 0.0000
     26 ****        -5.2916  -1.2010   0.7759 H              1 S1                 0.0000
     27 ****        -4.5679  -3.5905   0.6439 H              1 S1                 0.0000
     28 ****        -2.1766  -4.1879   0.5277 H              1 S1                 0.0000
     29 ****        -0.4087  -2.4303   0.5387 H              1 S1                 0.0000
     30 ****         0.6580   1.2983   1.0557 H              1 S1                 0.0000
     31 ****         0.6446  -0.4285   1.2915 H              1 S1                 0.0000
     32 ****         0.4249  -0.7519  -1.2117 H              1 S1                 0.0000
     33 ****         0.6178   1.0221  -2.5221 H              1 S1                 0.0000
     34 ****         2.6865   2.2108  -0.7946 H              1 S1                 0.0000
     35 ****         6.2475  -0.2053  -0.7670 H              1 S1                 0.0000
     36 ****         4.8557  -2.2659  -0.7583 H              1 S1                 0.0000
     37 ****        -4.1589   1.4529   0.8469 H              1 S1                 0.0000
     38 ****        -1.3765   4.4141  -0.3929 LP             1 S1                 0.0000
     39 ****        -2.3861   3.2882  -1.0091 LP             1 S1                 0.0000
     40 ****         0.7515   2.0827  -1.3434 LP             1 S1                 0.0000
     41 ****        -0.6400   1.2606  -1.5769 LP             1 S1                 0.0000
@<TRIPOS>BOND
    1    1    2 1     
    2    1   23 1     
    3    2    3 1     
    4    2   24 1     
    5    2   25 1     
    6    3   11 1     
    7    3    4 2     
    8    4    5 1     
    9    4   37 1     
   10    5   10 ar    
   11    5    6 ar    
   12    6    7 ar    
   13    6   26 1     
   14    7    8 ar    
   15    7   27 1     
   16    8    9 ar    
   17    8   28 1     
   18    9   10 ar    
   19    9   29 1     
   20   10   11 1     
   21   11   12 1     
   22   12   13 1     
   23   12   30 1     
   24   12   31 1     
   25   13   14 1     
   26   13   15 1     
   27   13   32 1     
   28   14   33 1     
   29   15   21 ar    
   30   15   16 ar    
   31   16   17 ar    
   32   16   34 1     
   33   17   18 1     
   34   17   19 ar    
   35   19   20 ar    
   36   19   35 1     
   37   20   21 ar    
   38   20   36 1     
   39   21   22 1     
   40    1   38 1     
   41    1   39 1     
   42   14   40 1     
   43   14   41 1     
@<TRIPOS>SUBSTRUCTURE
      1 S1             1
@<TRIPOS>SET
LONE_PAIRS      STATIC     ATOMS    <user>   **** ""
4 38 39 40 41
DONOR_HYDROGENS      STATIC     ATOMS    <user>   **** ""
3 23 37 33
ATOM$BLUE        STATIC     ATOMS    COLORGROUP SYSTEM
4 38 39 40 41
ATOM$RED        STATIC     ATOMS    COLORGROUP SYSTEM
3 23 37 33
