AV-unprocessed.smi:967|AV-procd|sdf|4285|dock1
  -GOLD-   22720 2193D 1   1.00000     0.00000
 Structure written by MMmdl.
 43 44  0  0  0  0  0  0  0  0  2 V2000
  150.3031  142.0194  157.2235 C   0  0  0  0  0  0  0  0  0  0  0  0
  150.6666  141.5015  155.9131 N   0  0  0  0  0  0  0  0  0  0  0  0
  151.8419  140.6450  155.8681 C   0  0  0  0  0  0  0  0  0  0  0  0
  149.5758  140.9665  155.2142 C   0  0  0  0  0  0  0  0  0  0  0  0
  149.4975  139.5890  154.9237 C   0  0  0  0  0  0  0  0  0  0  0  0
  148.3816  139.0937  154.2188 C   0  0  0  0  0  0  0  0  0  0  0  0
  147.3538  139.9765  153.8220 C   0  0  0  0  0  0  0  0  0  0  0  0
  146.2559  139.4315  153.1031 N   0  0  0  0  0  0  0  0  0  0  0  0
  145.9682  138.1403  152.8651 C   0  0  0  0  0  0  0  0  0  0  0  0
  146.6487  137.1824  153.2310 O   0  0  0  0  0  0  0  0  0  0  0  0
  144.8399  138.0235  152.1499 N   0  0  0  0  0  0  0  0  0  0  0  0
  144.2426  136.7743  151.6850 C   0  0  2  0  0  0  0  0  0  0  0  0
  143.8170  135.9238  152.8974 C   0  0  0  0  0  0  0  0  0  0  0  0
  143.2727  134.5531  152.4640 C   0  0  0  0  0  0  0  0  0  0  0  0
  144.2941  133.8018  151.5929 C   0  0  1  0  0  0  0  0  0  0  0  0
  143.7363  132.5795  151.1598 O   0  0  0  0  0  0  0  0  0  0  0  0
  144.7026  134.6431  150.3716 C   0  0  0  0  0  0  0  0  0  0  0  0
  145.2508  136.0135  150.8020 C   0  0  0  0  0  0  0  0  0  0  0  0
  147.4912  141.3521  154.1313 C   0  0  0  0  0  0  0  0  0  0  0  0
  148.5779  141.7861  154.8066 N   0  3  0  0  0  0  0  0  0  0  0  0
  149.4279  142.6670  157.1561 H   0  0  0  0  0  0  0  0  0  0  0  0
  151.1237  142.6056  157.6379 H   0  0  0  0  0  0  0  0  0  0  0  0
  150.0794  141.2078  157.9168 H   0  0  0  0  0  0  0  0  0  0  0  0
  152.0385  140.3078  154.8496 H   0  0  0  0  0  0  0  0  0  0  0  0
  151.7107  139.7678  156.5026 H   0  0  0  0  0  0  0  0  0  0  0  0
  152.7192  141.1906  156.2168 H   0  0  0  0  0  0  0  0  0  0  0  0
  150.2836  138.9169  155.2363 H   0  0  0  0  0  0  0  0  0  0  0  0
  148.3163  138.0396  153.9909 H   0  0  0  0  0  0  0  0  0  0  0  0
  145.6416  140.1072  152.6725 H   0  0  0  0  0  0  0  0  0  0  0  0
  144.3557  138.8717  151.8942 H   0  0  0  0  0  0  0  0  0  0  0  0
  143.3541  136.9765  151.0838 H   0  0  0  0  0  0  0  0  0  0  0  0
  144.6690  135.7769  153.5629 H   0  0  0  0  0  0  0  0  0  0  0  0
  143.0597  136.4525  153.4774 H   0  0  0  0  0  0  0  0  0  0  0  0
  143.0232  133.9609  153.3455 H   0  0  0  0  0  0  0  0  0  0  0  0
  142.3429  134.6926  151.9104 H   0  0  0  0  0  0  0  0  0  0  0  0
  145.1794  133.5742  152.1881 H   0  0  0  0  0  0  0  0  0  0  0  0
  143.0702  132.7649  150.5158 H   0  0  0  0  0  0  0  0  0  0  0  0
  145.4540  134.1132  149.7851 H   0  0  0  0  0  0  0  0  0  0  0  0
  143.8427  134.7880  149.7157 H   0  0  0  0  0  0  0  0  0  0  0  0
  145.4948  136.6047  149.9184 H   0  0  0  0  0  0  0  0  0  0  0  0
  146.1859  135.8711  151.3460 H   0  0  0  0  0  0  0  0  0  0  0  0
  146.7885  142.1253  153.8594 H   0  0  0  0  0  0  0  0  0  0  0  0
  148.6496  142.7815  155.0175 H   0  0  0  0  0  0  0  0  0  0  0  0
  1  2  1  0  0  0  0
  1 21  1  0  0  0  0
  1 22  1  0  0  0  0
  1 23  1  0  0  0  0
  2  3  1  0  0  0  0
  2  4  1  0  0  0  0
  3 24  1  0  0  0  0
  3 25  1  0  0  0  0
  3 26  1  0  0  0  0
  4 20  1  0  0  0  0
  4  5  2  0  0  0  0
  5  6  1  0  0  0  0
  5 27  1  0  0  0  0
  6  7  2  0  0  0  0
  6 28  1  0  0  0  0
  7  8  1  0  0  0  0
  7 19  1  0  0  0  0
  8  9  1  0  0  0  0
  8 29  1  0  0  0  0
  9 10  2  0  0  0  0
  9 11  1  0  0  0  0
 11 12  1  0  0  0  0
 11 30  1  0  0  0  0
 12 18  1  0  0  0  0
 12 13  1  0  0  0  0
 12 31  1  0  0  0  0
 13 14  1  0  0  0  0
 13 32  1  0  0  0  0
 13 33  1  0  0  0  0
 14 15  1  0  0  0  0
 14 34  1  0  0  0  0
 14 35  1  0  0  0  0
 15 16  1  0  0  0  0
 15 17  1  0  0  0  0
 15 36  1  0  0  0  0
 16 37  1  0  0  0  0
 17 18  1  0  0  0  0
 17 38  1  0  0  0  0
 17 39  1  0  0  0  0
 18 40  1  0  0  0  0
 18 41  1  0  0  0  0
 19 20  2  0  0  0  0
 19 42  1  0  0  0  0
 20 43  1  0  0  0  0
M  CHG  1  20   1
M  END
> <s_m_source_file>
AV-unprocessed.smi

> <i_m_source_file_index>
967

> <i_lp_mmshare_version>
43012

> <i_f3d_flags>
0

> <s_epik_input>
W0NIM11OKFtDSDNdKWMxW2NIXVtjSF1jKFtjSF1uMSlbTkhdQyg9TylbTkhdW0NAQEhdMltDSDJdW0NIMl1bQ0BASF0oW09IXSlbQ0gyXVtDSDJdMg==

> <s_epik_cmdline>
J2VwaWtfcHl0aG9uJywgJy1waCcsICc3LjAnLCAnLXRuJywgJzgnLCAnLW1hJywgJzIwMCcsICctbWV0YWxfYmluZGluZycsICctaW1hZScsICc8aW5maWxlLm1hZT4nLCAnLW9tYWUnLCAnPG91dGZpbGUubWFlPic=

> <r_lp_tautomer_probability>
0.999994

> <r_epik_Ionization_Penalty>
0.251848

> <r_epik_Ionization_Penalty_Charging>
0.251826

> <r_epik_Ionization_Penalty_Neutral>
2.16844e-05

> <r_epik_State_Penalty>
0.243201

> <r_epik_Charging_Adjusted_Penalty>
0.495027

> <i_epik_Tot_Q>
1

> <i_epik_Tot_abs_Q>
1

> <r_epik_Metal_State_Penalty>
0.534113

> <b_epik_Metal_Only>
0

> <s_lp_Force_Field>
OPLS_2005

> <r_lp_Energy>
22.3095

> <b_lp_Chiralities_Consistent>
1

> <s_lp_Variant>
AV-unprocessed.smi:967-1

> <Gold.Version>
5.8.1

> <Gold.Id.Protein>
6NUR|6NUR_protein|mol2

> <Gold.PLP.Fitness>
40.2484

> <Gold.PLP.PLP>
-29.9108

> <Gold.PLP.part.hbond>
-3.9602

> <Gold.PLP.part.metal>
0.0000

> <Gold.PLP.part.buried>
-2.1018

> <Gold.PLP.part.nonpolar>
-25.2123

> <Gold.PLP.part.repulsive>
1.9822

> <Gold.PLP.ligand.clash>
0.3928

> <Gold.PLP.ligand.torsion>
0.3521

> <Gold.PLP.Chemscore.Hbond>
3.7440

> <Gold.PLP.Chemscore.CHOScore>
0.0000

> <Gold.PLP.Chemscore.Metal>
0.0000

> <Gold.Chemscore.Hbonds>
donor molecule, donor type, donor heavy atom, donor atom, acceptor molecule, acceptor atom, score
      L1  H     8    29       P1 10175  0.80
      L1  H    11    30       P1 10175  0.96
      L1  H    20    43       P1  8028  1.95

> <Gold.PLP.Chemscore.Internal.Correction>
0.2026

> <Gold.Rescore>
     Score         DG    S(hbond)    S(metal)    S(lipo)     H(rot)  DE(clash)    DE(int)     intcor
     14.33     -18.01       2.87        0.00      62.96       1.73       1.08       2.60       ----

> <Gold.Chemscore.Fitness>
14.3286

> <Gold.Chemscore.DG>
-18.0100

> <Gold.Chemscore.ZeroCoef>
-5.4800

> <Gold.Chemscore.Hbond>
2.8720

> <Gold.Chemscore.Metal>
0.0000

> <Gold.Chemscore.Lipo>
62.9588

> <Gold.Chemscore.Internal_Hbond>
0.0000

> <Gold.Chemscore.DEClash>
1.0825

> <Gold.Chemscore.DEInternal>
2.5989

> <Gold.Chemscore.Rot>
1.7299

> <Gold.Chemscore.Internal.Correction>
   9.000000E+99

> <Gold.Chemscore.Hbonds>
donor molecule, donor type, donor heavy atom, donor atom, acceptor molecule, acceptor atom, score
      L1  H     8    29       P1 10175  0.72
      L1  H    11    30       P1 10175  0.92
      L1  H    20    43       P1  8028  0.92

> <Gold.Chemscore.Hbond.Weighted>
-9.5923

> <Gold.Chemscore.Metal.Weighted>
-0.0000

> <Gold.Chemscore.Lipo.Weighted>
-7.3662

> <Gold.Chemscore.Internal_Hbond.Weighted>
0.0000

> <Gold.Chemscore.DEClash.Weighted>
1.0825

> <Gold.Chemscore.DEInternal.Weighted>
2.5989

> <Gold.Chemscore.Rot.Weighted>
4.4285

> <Gold.Chemscore.Internal.Correction.Weighted>
   9.000000E+99

> <Gold.Protein.RotatedTorsions>
[ 6907 6896 6895 6894 ] final -121.54 input  -60.11 | X-H torsion
[ 7974 7965 7964 7962 ] final  -18.73 input  175.53 | X-H torsion
[ 8008 7997 7996 7995 ] final -122.26 input   59.86 | X-H torsion
[ 10167 10162 10161 10158 ] final  165.06 input  -65.29 | X-H torsion
[ 10718 10713 10712 10709 ] final  127.95 input   66.30 | X-H torsion
[ 10763 10752 10751 10750 ] final  -22.20 input  -60.55 | X-H torsion
[ 11005 11000 10999 10996 ] final -117.44 input  -57.11 | X-H torsion

> <Gold.Protein.ActiveResidues>
 VAL166  LYS551  ARG553  GLY616  TRP617  ASP618  TYR619  PRO620  LYS621  CYS622 
 ASP623  PHE694  ASN695  SER759  ASP760  ASP761  ALA762  ILE779  LEU786  VAL792 
 PHE793  MET794  SER795  GLU796  ALA797  LYS798  CYS799  TRP800  GLU811  SER814 

> <Gold.Protein.RotatedAtoms>
  150.8493  133.7812  159.3031 H   0  0  0  0  0  0  0  0  0  0  0  0  # atno 6907 bound_to 6896
  151.5489  135.1066  159.9954 H   0  0  0  0  0  0  0  0  0  0  0  0  # atno 6908 bound_to 6896
  152.4539  133.7641  159.6819 H   0  0  0  0  0  0  0  0  0  0  0  0  # atno 6909 bound_to 6896
  146.1877  140.3962  142.8470 H   0  0  0  0  0  0  0  0  0  0  0  0  # atno 7974 bound_to 7965
  155.1614  140.0406  157.2843 H   0  0  0  0  0  0  0  0  0  0  0  0  # atno 8008 bound_to 7997
  154.6334  140.2529  155.7380 H   0  0  0  0  0  0  0  0  0  0  0  0  # atno 8009 bound_to 7997
  156.2496  140.2870  156.0695 H   0  0  0  0  0  0  0  0  0  0  0  0  # atno 8010 bound_to 7997
  139.4899  144.4171  151.9231 H   0  0  0  0  0  0  0  0  0  0  0  0  # atno 10167 bound_to 10162
  157.5288  131.1098  150.9041 H   0  0  0  0  0  0  0  0  0  0  0  0  # atno 10718 bound_to 10713
  153.6482  135.6982  153.5218 H   0  0  0  0  0  0  0  0  0  0  0  0  # atno 10763 bound_to 10752
  153.2727  135.4210  155.1003 H   0  0  0  0  0  0  0  0  0  0  0  0  # atno 10764 bound_to 10752
  154.8483  135.3582  154.6027 H   0  0  0  0  0  0  0  0  0  0  0  0  # atno 10765 bound_to 10752
  141.0354  133.9917  157.3078 H   0  0  0  0  0  0  0  0  0  0  0  0  # atno 11005 bound_to 11000
  144.8428  140.6884  143.6218 LP  0  0  0  0  0  0  0  0  0  0  0  0  # atno 17320 bound_to 7965
  145.3887  139.1621  143.4241 LP  0  0  0  0  0  0  0  0  0  0  0  0  # atno 17321 bound_to 7965
  140.3614  144.2968  150.5933 LP  0  0  0  0  0  0  0  0  0  0  0  0  # atno 17342 bound_to 10162
  140.5400  143.2225  151.8101 LP  0  0  0  0  0  0  0  0  0  0  0  0  # atno 17343 bound_to 10162
  156.9629  130.5462  149.5287 LP  0  0  0  0  0  0  0  0  0  0  0  0  # atno 17370 bound_to 10713
  156.0407  130.5489  150.8763 LP  0  0  0  0  0  0  0  0  0  0  0  0  # atno 17371 bound_to 10713
  139.9237  135.0201  156.8158 LP  0  0  0  0  0  0  0  0  0  0  0  0  # atno 17394 bound_to 11000
  140.6331  133.9887  155.7671 LP  0  0  0  0  0  0  0  0  0  0  0  0  # atno 17395 bound_to 11000

$$$$
