#       Name:                AV-unprocessed.smi:48
#       Creating user name   scv26
#       Creation time:       Thu Mar 26 16:32:51 2020


#       File generated by GOLD software.
#

@<TRIPOS>MOLECULE
AV-unprocessed.smi:48
    41    43     1
SMALL
NO_CHARGES


@<TRIPOS>ATOM
      1 ****        -3.9254   0.9951  -2.0795 O.3            1 S1                 0.0000
      2 ****        -3.2937   0.0410  -1.2534 C.3            1 S1                 0.0000
      3 ****        -1.8492  -0.1949  -1.7295 C.3            1 S1                 0.0000
      4 ****        -0.9797   0.8312  -1.2517 O.3            1 S1                 0.0000
      5 ****         0.3059   0.3344  -1.0240 C.3            1 S1                 0.0000
      6 ****         0.6365   0.5881   0.4148 N.pl3          1 S1                 0.0000
      7 ****        -0.1943   0.6821   1.4751 C.2            1 S1                 0.0000
      8 ****         0.3556   0.9153   2.6664 N.2            1 S1                 0.0000
      9 ****         1.6998   0.9889   2.3401 C.ar           1 S1                 0.0000
     10 ****         2.8655   1.2158   3.1110 C.ar           1 S1                 0.0000
     11 ****         2.7685   1.4699   4.8151 Cl             1 S1                 0.0000
     12 ****         4.0637   1.2277   2.4793 N.ar           1 S1                 0.0000
     13 ****         4.1106   1.0271   1.1562 C.ar           1 S1                 0.0000
     14 ****         3.1039   0.8031   0.3034 N.ar           1 S1                 0.0000
     15 ****         1.8980   0.7917   0.9444 C.ar           1 S1                 0.0000
     16 ****         0.2796  -1.1699  -1.3529 C.3            1 S1                 0.0000
     17 ****         1.0902  -1.9924  -0.5315 O.3            1 S1                 0.0000
     18 ****        -1.2024  -1.5077  -1.2641 C.3            1 S1                 0.0000
     19 ****        -1.6063  -1.8510   0.0513 O.3            1 S1                 0.0000
     20 ****        -1.8098  -0.1786  -2.8204 H              1 S1                 0.0000
     21 ****         1.0559   0.8940  -1.5843 H              1 S1                 0.0000
     22 ****         0.6058  -1.2787  -2.3882 H              1 S1                 0.0000
     23 ****        -1.4652  -2.3369  -1.9216 H              1 S1                 0.0000
     24 ****        -4.8090   1.1221  -1.7696 H              1 S1                 0.0000
     25 ****        -3.3225   0.3643  -0.2124 H              1 S1                 0.0000
     26 ****        -3.8693  -0.8823  -1.3248 H              1 S1                 0.0000
     27 ****        -1.2636   0.5727   1.3691 H              1 S1                 0.0000
     28 ****         5.0971   1.0477   0.7169 H              1 S1                 0.0000
     29 ****         0.8250  -1.8671   0.3669 H              1 S1                 0.0000
     30 ****        -1.1698  -2.6528   0.2965 H              1 S1                 0.0000
     31 ****        -3.9432   0.6651  -3.0233 LP             1 S1                 0.0000
     32 ****        -3.4259   1.8604  -2.0383 LP             1 S1                 0.0000
     33 ****        -1.3452   1.1967  -0.3956 LP             1 S1                 0.0000
     34 ****        -0.9318   1.5620  -1.9325 LP             1 S1                 0.0000
     35 ****        -0.0852   1.0116   3.5589 LP             1 S1                 0.0000
     36 ****         4.9052   1.3848   2.9962 LP             1 S1                 0.0000
     37 ****         3.2200   0.6618  -0.6797 LP             1 S1                 0.0000
     38 ****         2.0508  -1.7363  -0.6394 LP             1 S1                 0.0000
     39 ****         0.9698  -2.9511  -0.7891 LP             1 S1                 0.0000
     40 ****        -2.5971  -1.9841   0.0768 LP             1 S1                 0.0000
     41 ****        -1.3518  -1.1202   0.6847 LP             1 S1                 0.0000
@<TRIPOS>BOND
    1    1    2 1     
    2    1   24 1     
    3    2    3 1     
    4    2   25 1     
    5    2   26 1     
    6    3   20 1     
    7    3   18 1     
    8    3    4 1     
    9    4    5 1     
   10    5   21 1     
   11    5    6 1     
   12    5   16 1     
   13    6   15 1     
   14    6    7 1     
   15    7    8 2     
   16    7   27 1     
   17    8    9 1     
   18    9   15 ar    
   19    9   10 ar    
   20   10   11 1     
   21   10   12 ar    
   22   12   13 ar    
   23   13   14 ar    
   24   13   28 1     
   25   14   15 ar    
   26   16   22 1     
   27   16   17 1     
   28   16   18 1     
   29   17   29 1     
   30   18   23 1     
   31   18   19 1     
   32   19   30 1     
   33    1   31 1     
   34    1   32 1     
   35    4   33 1     
   36    4   34 1     
   37    8   35 1     
   38   12   36 1     
   39   14   37 1     
   40   17   38 1     
   41   17   39 1     
   42   19   40 1     
   43   19   41 1     
@<TRIPOS>SUBSTRUCTURE
      1 S1             1
@<TRIPOS>SET
LONE_PAIRS      STATIC     ATOMS    <user>   **** ""
11 31 32 33 34 35 36 37 38 39 40 41
DONOR_HYDROGENS      STATIC     ATOMS    <user>   **** ""
3 24 29 30
ATOM$BLUE        STATIC     ATOMS    COLORGROUP SYSTEM
11 31 32 33 34 35 36 37 38 39 40 41
ATOM$RED        STATIC     ATOMS    COLORGROUP SYSTEM
3 24 29 30
