AV-unprocessed.smi:49|AV-procd|sdf|472|dock3
  -GOLD-   2262016333D 1   1.00000     0.00000
 Structure written by MMmdl.
 27 28  0  0  0  0  0  0  0  0  1 V2000
  152.5212  144.6977  158.2124 C   0  0  0  0  0  0  0  0  0  0  0  0
  151.6389  143.5706  158.7597 C   0  0  0  0  0  0  0  0  0  0  0  0
  151.3142  142.5433  157.7255 C   0  0  0  0  0  0  0  0  0  0  0  0
  151.8280  141.3190  157.6750 N   0  0  0  0  0  0  0  0  0  0  0  0
  151.1877  140.8311  156.5696 C   0  0  0  0  0  0  0  0  0  0  0  0
  151.3853  139.4249  156.0916 C   0  0  1  0  0  0  0  0  0  0  0  0
  150.1132  138.5754  156.2231 C   0  0  0  0  0  0  0  0  0  0  0  0
  150.2746  137.5573  155.1035 C   0  0  1  0  0  0  0  0  0  0  0  0
  149.0486  136.9894  154.6946 O   0  0  0  0  0  0  0  0  0  0  0  0
  150.9233  138.3938  154.0048 C   0  0  0  0  0  0  0  0  0  0  0  0
  151.8183  139.3219  154.6914 N   0  0  0  0  0  0  0  0  0  0  0  0
  150.3221  141.6612  155.9852 N   0  0  0  0  0  0  0  0  0  0  0  0
  150.4305  142.7667  156.7510 N   0  0  0  0  0  0  0  0  0  0  0  0
  152.1563  138.9669  156.7127 H   0  0  0  0  0  0  0  0  0  0  0  0
  150.9541  136.7638  155.4178 H   0  0  0  0  0  0  0  0  0  0  0  0
  149.8983  143.6085  156.5834 H   0  0  0  0  0  0  0  0  0  0  0  0
  152.7423  145.4301  158.9888 H   0  0  0  0  0  0  0  0  0  0  0  0
  152.0274  145.2202  157.3926 H   0  0  0  0  0  0  0  0  0  0  0  0
  153.4692  144.3091  157.8396 H   0  0  0  0  0  0  0  0  0  0  0  0
  152.1358  143.0853  159.6006 H   0  0  0  0  0  0  0  0  0  0  0  0
  150.7062  143.9835  159.1457 H   0  0  0  0  0  0  0  0  0  0  0  0
  149.9986  138.1263  157.2099 H   0  0  0  0  0  0  0  0  0  0  0  0
  149.2309  139.1889  156.0301 H   0  0  0  0  0  0  0  0  0  0  0  0
  149.1417  136.6806  153.8064 H   0  0  0  0  0  0  0  0  0  0  0  0
  151.4515  137.7860  153.2698 H   0  0  0  0  0  0  0  0  0  0  0  0
  150.1571  138.9619  153.4752 H   0  0  0  0  0  0  0  0  0  0  0  0
  152.7575  138.9381  154.6751 H   0  0  0  0  0  0  0  0  0  0  0  0
  1  2  1  0  0  0  0
  1 17  1  0  0  0  0
  1 18  1  0  0  0  0
  1 19  1  0  0  0  0
  2  3  1  0  0  0  0
  2 20  1  0  0  0  0
  2 21  1  0  0  0  0
  3 13  1  0  0  0  0
  3  4  2  0  0  0  0
  4  5  1  0  0  0  0
  5  6  1  0  0  0  0
  5 12  2  0  0  0  0
  6 14  1  0  0  0  0
  6 11  1  0  0  0  0
  6  7  1  0  0  0  0
  7  8  1  0  0  0  0
  7 22  1  0  0  0  0
  7 23  1  0  0  0  0
  8 15  1  0  0  0  0
  8  9  1  0  0  0  0
  8 10  1  0  0  0  0
  9 24  1  0  0  0  0
 10 11  1  0  0  0  0
 10 25  1  0  0  0  0
 10 26  1  0  0  0  0
 11 27  1  0  0  0  0
 12 13  1  0  0  0  0
 13 16  1  0  0  0  0
M  END
> <s_m_source_file>
AV-unprocessed.smi

> <i_m_source_file_index>
49

> <i_lp_mmshare_version>
43012

> <i_f3d_flags>
0

> <s_epik_input>
W0NIM11bQ0gyXWMxbmMobltuSF0xKVtDQEBIXTJbQ0gyXVtDQEBIXShbT0hdKVtDSDJdW05IXTI=

> <s_epik_cmdline>
J2VwaWtfcHl0aG9uJywgJy1waCcsICc3LjAnLCAnLXRuJywgJzgnLCAnLW1hJywgJzIwMCcsICctbWV0YWxfYmluZGluZycsICctaW1hZScsICc8aW5maWxlLm1hZT4nLCAnLW9tYWUnLCAnPG91dGZpbGUubWFlPic=

> <r_lp_tautomer_probability>
0.948284

> <r_epik_Ionization_Penalty>
1.6657

> <r_epik_Ionization_Penalty_Charging>
0

> <r_epik_Ionization_Penalty_Neutral>
1.6657

> <r_epik_State_Penalty>
2.01417

> <r_epik_Charging_Adjusted_Penalty>
2.01417

> <i_epik_Tot_Q>
0

> <i_epik_Tot_abs_Q>
0

> <r_epik_Metal_State_Penalty>
2.28256

> <b_epik_Metal_Only>
0

> <s_lp_Force_Field>
OPLS_2005

> <r_lp_Energy>
18.9273

> <b_lp_Chiralities_Consistent>
1

> <s_lp_Variant>
AV-unprocessed.smi:49-10

> <Gold.Version>
5.8.1

> <Gold.Id.Protein>
6NUR|6NUR_protein|mol2

> <Gold.PLP.Fitness>
32.7544

> <Gold.PLP.PLP>
-24.1329

> <Gold.PLP.part.hbond>
-3.0000

> <Gold.PLP.part.metal>
0.0000

> <Gold.PLP.part.buried>
-4.5245

> <Gold.PLP.part.nonpolar>
-16.8903

> <Gold.PLP.part.repulsive>
0.1301

> <Gold.PLP.ligand.clash>
0.0000

> <Gold.PLP.ligand.torsion>
0.1983

> <Gold.PLP.Chemscore.Hbond>
3.0000

> <Gold.PLP.Chemscore.CHOScore>
0.0000

> <Gold.PLP.Chemscore.Metal>
0.0000

> <Gold.Chemscore.Hbonds>
donor molecule, donor type, donor heavy atom, donor atom, acceptor molecule, acceptor atom, score
      L1  H     9    24       P1  7948  1.00
      L1  H    13    16       P1  8028  1.00
      P1  H  7989  7998       L1    11  0.95

> <Gold.PLP.Chemscore.Internal.Correction>
0.0182

> <Gold.Rescore>
     Score         DG    S(hbond)    S(metal)    S(lipo)     H(rot)  DE(clash)    DE(int)     intcor
     13.95     -14.15       2.27        0.00      49.88       1.86       0.03       0.17       ----

> <Gold.Chemscore.Fitness>
13.9507

> <Gold.Chemscore.DG>
-14.1510

> <Gold.Chemscore.ZeroCoef>
-5.4800

> <Gold.Chemscore.Hbond>
2.2710

> <Gold.Chemscore.Metal>
0.0000

> <Gold.Chemscore.Lipo>
49.8842

> <Gold.Chemscore.Internal_Hbond>
0.0000

> <Gold.Chemscore.DEClash>
0.0309

> <Gold.Chemscore.DEInternal>
0.1694

> <Gold.Chemscore.Rot>
1.8558

> <Gold.Chemscore.Internal.Correction>
   9.000000E+99

> <Gold.Chemscore.Hbonds>
donor molecule, donor type, donor heavy atom, donor atom, acceptor molecule, acceptor atom, score
      L1  H     9    24       P1  7948  0.96
      L1  H    13    16       P1  8028  0.99
      P1  H  7989  7998       L1    11  0.16

> <Gold.Chemscore.Hbond.Weighted>
-7.5853

> <Gold.Chemscore.Metal.Weighted>
-0.0000

> <Gold.Chemscore.Lipo.Weighted>
-5.8365

> <Gold.Chemscore.Internal_Hbond.Weighted>
0.0000

> <Gold.Chemscore.DEClash.Weighted>
0.0309

> <Gold.Chemscore.DEInternal.Weighted>
0.1694

> <Gold.Chemscore.Rot.Weighted>
4.7507

> <Gold.Chemscore.Internal.Correction.Weighted>
   9.000000E+99

> <Gold.Protein.RotatedTorsions>
[ 6907 6896 6895 6894 ] final -109.82 input  -60.11 | X-H torsion
[ 7974 7965 7964 7962 ] final   38.67 input  175.53 | X-H torsion
[ 8008 7997 7996 7995 ] final  148.53 input   59.86 | X-H torsion
[ 10167 10162 10161 10158 ] final   -4.47 input  -65.29 | X-H torsion
[ 10718 10713 10712 10709 ] final -176.78 input   66.30 | X-H torsion
[ 10763 10752 10751 10750 ] final  125.21 input  -60.55 | X-H torsion
[ 11005 11000 10999 10996 ] final   73.42 input  -57.11 | X-H torsion

> <Gold.Protein.ActiveResidues>
 VAL166  LYS551  ARG553  GLY616  TRP617  ASP618  TYR619  PRO620  LYS621  CYS622 
 ASP623  PHE694  ASN695  SER759  ASP760  ASP761  ALA762  ILE779  LEU786  VAL792 
 PHE793  MET794  SER795  GLU796  ALA797  LYS798  CYS799  TRP800  GLU811  SER814 

> <Gold.Protein.RotatedAtoms>
  150.7586  133.9472  159.3474 H   0  0  0  0  0  0  0  0  0  0  0  0  # atno 6907 bound_to 6896
  151.7386  135.0857  160.0321 H   0  0  0  0  0  0  0  0  0  0  0  0  # atno 6908 bound_to 6896
  152.3543  133.6181  159.6004 H   0  0  0  0  0  0  0  0  0  0  0  0  # atno 6909 bound_to 6896
  146.1044  139.5744  142.9393 H   0  0  0  0  0  0  0  0  0  0  0  0  # atno 7974 bound_to 7965
  156.2788  140.2126  156.5713 H   0  0  0  0  0  0  0  0  0  0  0  0  # atno 8008 bound_to 7997
  154.7133  140.0510  157.0594 H   0  0  0  0  0  0  0  0  0  0  0  0  # atno 8009 bound_to 7997
  155.0576  140.3163  155.4674 H   0  0  0  0  0  0  0  0  0  0  0  0  # atno 8010 bound_to 7997
  140.6928  143.6420  150.8427 H   0  0  0  0  0  0  0  0  0  0  0  0  # atno 10167 bound_to 10162
  156.8198  130.9616  151.3112 H   0  0  0  0  0  0  0  0  0  0  0  0  # atno 10718 bound_to 10713
  153.6736  135.3326  155.3160 H   0  0  0  0  0  0  0  0  0  0  0  0  # atno 10763 bound_to 10752
  154.8484  135.4392  154.1679 H   0  0  0  0  0  0  0  0  0  0  0  0  # atno 10764 bound_to 10752
  153.2677  135.6997  153.7589 H   0  0  0  0  0  0  0  0  0  0  0  0  # atno 10765 bound_to 10752
  139.9441  134.7345  156.1024 H   0  0  0  0  0  0  0  0  0  0  0  0  # atno 11005 bound_to 11000
  145.5791  141.0385  143.2132 LP  0  0  0  0  0  0  0  0  0  0  0  0  # atno 17320 bound_to 7965
  144.7458  139.7323  143.7292 LP  0  0  0  0  0  0  0  0  0  0  0  0  # atno 17321 bound_to 7965
  140.0135  143.5617  152.2829 LP  0  0  0  0  0  0  0  0  0  0  0  0  # atno 17342 bound_to 10162
  139.6350  144.7649  151.2457 LP  0  0  0  0  0  0  0  0  0  0  0  0  # atno 17343 bound_to 10162
  157.6463  130.8847  149.9544 LP  0  0  0  0  0  0  0  0  0  0  0  0  # atno 17370 bound_to 10713
  156.0995  130.3657  150.0244 LP  0  0  0  0  0  0  0  0  0  0  0  0  # atno 17371 bound_to 10713
  141.1085  133.6651  156.2922 LP  0  0  0  0  0  0  0  0  0  0  0  0  # atno 17394 bound_to 11000
  140.5879  134.5680  157.5493 LP  0  0  0  0  0  0  0  0  0  0  0  0  # atno 17395 bound_to 11000

$$$$
