AV-unprocessed.smi:657|AV-procd|sdf|3226|dock6
  -GOLD-   22720 0163D 1   1.00000     0.00000
 Structure written by MMmdl.
 46 47  0  0  0  0  0  0  0  0  3 V2000
  145.7242  136.1956  151.1023 C   0  0  0  0  0  0  0  0  0  0  0  0
  145.9412  134.7405  151.5615 C   0  0  0  0  0  0  0  0  0  0  0  0
  144.6119  134.0483  151.9086 C   0  0  0  0  0  0  0  0  0  0  0  0
  146.9386  134.6021  152.6767 N   0  3  2  0  0  0  0  0  0  0  0  0
  147.6232  133.2753  152.6873 C   0  0  0  0  0  0  0  0  0  0  0  0
  148.7657  133.2203  153.7085 C   0  0  0  0  0  0  0  0  0  0  0  0
  148.2319  133.5118  155.1106 C   0  0  0  0  0  0  0  0  0  0  0  0
  147.5604  134.8861  155.1123 C   0  0  0  0  0  0  0  0  0  0  0  0
  146.4439  134.9988  154.0416 C   0  0  1  0  0  0  0  0  0  0  0  0
  145.8461  136.4214  154.1074 C   0  0  0  0  0  0  0  0  0  0  0  0
  144.6212  136.5295  154.2207 O   0  0  0  0  0  0  0  0  0  0  0  0
  146.8114  137.3806  154.0164 N   0  5  0  0  0  0  0  0  0  0  0  0
  146.6549  138.7400  154.5253 C   0  0  0  0  0  0  0  0  0  0  0  0
  147.6665  139.6730  153.8320 C   0  0  0  0  0  0  0  0  0  0  0  0
  148.8120  140.0666  154.7321 C   0  0  0  0  0  0  0  0  0  0  0  0
  150.0057  139.3354  155.0036 C   0  0  0  0  0  0  0  0  0  0  0  0
  150.8196  139.9650  155.8352 N   0  0  0  0  0  0  0  0  0  0  0  0
  150.1816  141.1184  156.1200 N   0  0  0  0  0  0  0  0  0  0  0  0
  150.7970  142.0703  157.0196 C   0  0  0  0  0  0  0  0  0  0  0  0
  148.9722  141.2102  155.4659 C   0  0  0  0  0  0  0  0  0  0  0  0
  145.0938  136.2254  150.2131 H   0  0  0  0  0  0  0  0  0  0  0  0
  146.6652  136.6811  150.8442 H   0  0  0  0  0  0  0  0  0  0  0  0
  145.2291  136.7980  151.8639 H   0  0  0  0  0  0  0  0  0  0  0  0
  146.3005  134.1980  150.6894 H   0  0  0  0  0  0  0  0  0  0  0  0
  143.9590  134.0097  151.0361 H   0  0  0  0  0  0  0  0  0  0  0  0
  144.0644  134.5678  152.6943 H   0  0  0  0  0  0  0  0  0  0  0  0
  144.7793  133.0214  152.2354 H   0  0  0  0  0  0  0  0  0  0  0  0
  146.9057  132.4887  152.9224 H   0  0  0  0  0  0  0  0  0  0  0  0
  148.0301  133.0473  151.7035 H   0  0  0  0  0  0  0  0  0  0  0  0
  149.2361  132.2366  153.6872 H   0  0  0  0  0  0  0  0  0  0  0  0
  149.5385  133.9427  153.4429 H   0  0  0  0  0  0  0  0  0  0  0  0
  147.5167  132.7443  155.4094 H   0  0  0  0  0  0  0  0  0  0  0  0
  149.0442  133.4875  155.8377 H   0  0  0  0  0  0  0  0  0  0  0  0
  147.1502  135.0863  156.1033 H   0  0  0  0  0  0  0  0  0  0  0  0
  148.3269  135.6444  154.9434 H   0  0  0  0  0  0  0  0  0  0  0  0
  145.6536  134.2977  154.3141 H   0  0  0  0  0  0  0  0  0  0  0  0
  145.6491  139.1253  154.3515 H   0  0  0  0  0  0  0  0  0  0  0  0
  146.8107  138.7806  155.6038 H   0  0  0  0  0  0  0  0  0  0  0  0
  148.0480  139.1844  152.9345 H   0  0  0  0  0  0  0  0  0  0  0  0
  147.1454  140.5640  153.4790 H   0  0  0  0  0  0  0  0  0  0  0  0
  150.2999  138.3684  154.6229 H   0  0  0  0  0  0  0  0  0  0  0  0
  150.1377  142.9261  157.1679 H   0  0  0  0  0  0  0  0  0  0  0  0
  151.7409  142.4182  156.5992 H   0  0  0  0  0  0  0  0  0  0  0  0
  150.9860  141.5980  157.9840 H   0  0  0  0  0  0  0  0  0  0  0  0
  148.3282  142.0703  155.5762 H   0  0  0  0  0  0  0  0  0  0  0  0
  147.6519  135.2878  152.4716 H   0  0  0  0  0  0  0  0  0  0  0  0
  1  2  1  0  0  0  0
  1 21  1  0  0  0  0
  1 22  1  0  0  0  0
  1 23  1  0  0  0  0
  2  3  1  0  0  0  0
  2  4  1  0  0  0  0
  2 24  1  0  0  0  0
  3 25  1  0  0  0  0
  3 26  1  0  0  0  0
  3 27  1  0  0  0  0
  4  9  1  0  0  0  0
  4  5  1  0  0  0  0
  4 46  1  0  0  0  0
  5  6  1  0  0  0  0
  5 28  1  0  0  0  0
  5 29  1  0  0  0  0
  6  7  1  0  0  0  0
  6 30  1  0  0  0  0
  6 31  1  0  0  0  0
  7  8  1  0  0  0  0
  7 32  1  0  0  0  0
  7 33  1  0  0  0  0
  8  9  1  0  0  0  0
  8 34  1  0  0  0  0
  8 35  1  0  0  0  0
  9 10  1  0  0  0  0
  9 36  1  0  0  0  0
 10 11  2  0  0  0  0
 10 12  1  0  0  0  0
 12 13  1  0  0  0  0
 13 14  1  0  0  0  0
 13 37  1  0  0  0  0
 13 38  1  0  0  0  0
 14 15  1  0  0  0  0
 14 39  1  0  0  0  0
 14 40  1  0  0  0  0
 15 20  2  0  0  0  0
 15 16  1  0  0  0  0
 16 17  2  0  0  0  0
 16 41  1  0  0  0  0
 17 18  1  0  0  0  0
 18 19  1  0  0  0  0
 18 20  1  0  0  0  0
 19 42  1  0  0  0  0
 19 43  1  0  0  0  0
 19 44  1  0  0  0  0
 20 45  1  0  0  0  0
M  CHG  1   4   1
M  CHG  1  12  -1
M  END
> <s_m_source_file>
AV-unprocessed.smi

> <i_m_source_file_index>
657

> <i_lp_mmshare_version>
43012

> <i_f3d_flags>
0

> <s_epik_input>
W0NIM11bQ0hdKFtDSDNdKU4xW0NIMl1bQ0gyXVtDSDJdW0NIMl1bQ0BIXTFDKD1PKVtOSF1bQ0gyXVtDSDJdYzJbY0hdbm4oW0NIM10pW2NIXTI=

> <s_epik_cmdline>
J2VwaWtfcHl0aG9uJywgJy1waCcsICc3LjAnLCAnLXRuJywgJzgnLCAnLW1hJywgJzIwMCcsICctbWV0YWxfYmluZGluZycsICctaW1hZScsICc8aW5maWxlLm1hZT4nLCAnLW9tYWUnLCAnPG91dGZpbGUubWFlPic=

> <r_lp_tautomer_probability>
1

> <r_epik_Ionization_Penalty>
6.1622

> <r_epik_Ionization_Penalty_Charging>
6.16146

> <r_epik_Ionization_Penalty_Neutral>
0.00073675

> <r_epik_State_Penalty>
6.18018

> <r_epik_Charging_Adjusted_Penalty>
12.3416

> <i_epik_Tot_Q>
0

> <i_epik_Tot_abs_Q>
2

> <r_epik_Metal_State_Penalty>
2.12232

> <b_epik_Metal_Only>
1

> <s_lp_Force_Field>
OPLS_2005

> <r_lp_Energy>
11.2403

> <b_lp_Chiralities_Consistent>
1

> <s_lp_Variant>
AV-unprocessed.smi:657-7

> <Gold.Version>
5.8.1

> <Gold.Id.Protein>
6NUR|6NUR_protein|mol2

> <Gold.PLP.Fitness>
38.6778

> <Gold.PLP.PLP>
-32.4075

> <Gold.PLP.part.hbond>
-2.0000

> <Gold.PLP.part.metal>
0.0000

> <Gold.PLP.part.buried>
-2.4018

> <Gold.PLP.part.nonpolar>
-27.2916

> <Gold.PLP.part.repulsive>
0.2939

> <Gold.PLP.ligand.clash>
0.0000

> <Gold.PLP.ligand.torsion>
1.4429

> <Gold.PLP.Chemscore.Hbond>
2.2000

> <Gold.PLP.Chemscore.CHOScore>
0.7775

> <Gold.PLP.Chemscore.Metal>
0.0000

> <Gold.Chemscore.Hbonds>
donor molecule, donor type, donor heavy atom, donor atom, acceptor molecule, acceptor atom, score
      L1  H     4    46       P1  7948  2.00
      L1  C    20    45       P1  8028  0.58

> <Gold.PLP.Chemscore.Internal.Correction>
0.2235

> <Gold.Rescore>
     Score         DG    S(hbond)    S(metal)    S(lipo)     H(rot)  DE(clash)    DE(int)     intcor
     11.14     -13.41       1.00        0.00      73.74       1.57       0.07       2.20       ----

> <Gold.Chemscore.Fitness>
11.1436

> <Gold.Chemscore.DG>
-13.4105

> <Gold.Chemscore.ZeroCoef>
-5.4800

> <Gold.Chemscore.Hbond>
0.9977

> <Gold.Chemscore.Metal>
0.0000

> <Gold.Chemscore.Lipo>
73.7424

> <Gold.Chemscore.Internal_Hbond>
0.0000

> <Gold.Chemscore.DEClash>
0.0690

> <Gold.Chemscore.DEInternal>
2.1979

> <Gold.Chemscore.Rot>
1.5741

> <Gold.Chemscore.Internal.Correction>
   9.000000E+99

> <Gold.Chemscore.Hbonds>
donor molecule, donor type, donor heavy atom, donor atom, acceptor molecule, acceptor atom, score
      L1  H     4    46       P1  7948  1.00

> <Gold.Chemscore.Hbond.Weighted>
-3.3323

> <Gold.Chemscore.Metal.Weighted>
-0.0000

> <Gold.Chemscore.Lipo.Weighted>
-8.6279

> <Gold.Chemscore.Internal_Hbond.Weighted>
0.0000

> <Gold.Chemscore.DEClash.Weighted>
0.0690

> <Gold.Chemscore.DEInternal.Weighted>
2.1979

> <Gold.Chemscore.Rot.Weighted>
4.0297

> <Gold.Chemscore.Internal.Correction.Weighted>
   9.000000E+99

> <Gold.Protein.RotatedTorsions>
[ 6907 6896 6895 6894 ] final -149.57 input  -60.11 | X-H torsion
[ 7974 7965 7964 7962 ] final  102.70 input  175.53 | X-H torsion
[ 8008 7997 7996 7995 ] final -109.29 input   59.86 | X-H torsion
[ 10167 10162 10161 10158 ] final  -57.74 input  -65.29 | X-H torsion
[ 10718 10713 10712 10709 ] final -166.87 input   66.30 | X-H torsion
[ 10763 10752 10751 10750 ] final -114.14 input  -60.55 | X-H torsion
[ 11005 11000 10999 10996 ] final   26.17 input  -57.11 | X-H torsion

> <Gold.Protein.ActiveResidues>
 VAL166  LYS551  ARG553  GLY616  TRP617  ASP618  TYR619  PRO620  LYS621  CYS622 
 ASP623  PHE694  ASN695  SER759  ASP760  ASP761  ALA762  ILE779  LEU786  VAL792 
 PHE793  MET794  SER795  GLU796  ALA797  LYS798  CYS799  TRP800  GLU811  SER814 

> <Gold.Protein.RotatedAtoms>
  151.1860  133.4696  159.2594 H   0  0  0  0  0  0  0  0  0  0  0  0  # atno 6907 bound_to 6896
  151.1211  135.0080  159.8549 H   0  0  0  0  0  0  0  0  0  0  0  0  # atno 6908 bound_to 6896
  152.5456  134.1771  159.8673 H   0  0  0  0  0  0  0  0  0  0  0  0  # atno 6909 bound_to 6896
  145.3556  139.2429  143.3534 H   0  0  0  0  0  0  0  0  0  0  0  0  # atno 7974 bound_to 7965
  154.9571  140.0400  157.2172 H   0  0  0  0  0  0  0  0  0  0  0  0  # atno 8008 bound_to 7997
  154.7923  140.2837  155.5960 H   0  0  0  0  0  0  0  0  0  0  0  0  # atno 8009 bound_to 7997
  156.2951  140.2571  156.2773 H   0  0  0  0  0  0  0  0  0  0  0  0  # atno 8010 bound_to 7997
  140.6240  143.2430  151.5410 H   0  0  0  0  0  0  0  0  0  0  0  0  # atno 10167 bound_to 10162
  156.6741  130.9096  151.3048 H   0  0  0  0  0  0  0  0  0  0  0  0  # atno 10718 bound_to 10713
  154.8427  135.4428  154.1460 H   0  0  0  0  0  0  0  0  0  0  0  0  # atno 10763 bound_to 10752
  153.2633  135.6938  153.7562 H   0  0  0  0  0  0  0  0  0  0  0  0  # atno 10764 bound_to 10752
  153.6830  135.3400  155.3158 H   0  0  0  0  0  0  0  0  0  0  0  0  # atno 10765 bound_to 10752
  140.3399  134.2344  155.7691 H   0  0  0  0  0  0  0  0  0  0  0  0  # atno 11005 bound_to 11000
  146.2949  140.4181  142.8725 LP  0  0  0  0  0  0  0  0  0  0  0  0  # atno 17320 bound_to 7965
  144.8684  140.7239  143.6062 LP  0  0  0  0  0  0  0  0  0  0  0  0  # atno 17321 bound_to 7965
  139.5463  144.2512  152.1448 LP  0  0  0  0  0  0  0  0  0  0  0  0  # atno 17342 bound_to 10162
  140.1739  144.4909  150.6564 LP  0  0  0  0  0  0  0  0  0  0  0  0  # atno 17343 bound_to 10162
  157.7067  130.9393  150.0953 LP  0  0  0  0  0  0  0  0  0  0  0  0  # atno 17370 bound_to 10713
  156.1916  130.3655  149.8902 LP  0  0  0  0  0  0  0  0  0  0  0  0  # atno 17371 bound_to 10713
  141.2041  133.7895  157.0304 LP  0  0  0  0  0  0  0  0  0  0  0  0  # atno 17394 bound_to 11000
  140.0790  134.9659  157.1592 LP  0  0  0  0  0  0  0  0  0  0  0  0  # atno 17395 bound_to 11000

$$$$
