#       Name:                AV-unprocessed.smi:1644
#       Creating user name   scv26
#       Creation time:       Fri Mar 27 07:28:47 2020


#       File generated by GOLD software.
#

@<TRIPOS>MOLECULE
AV-unprocessed.smi:1644
    56    58     1
SMALL
NO_CHARGES


@<TRIPOS>ATOM
      1 ****        -6.3751   2.2190  -0.9768 C.3            1 S1                 0.0000
      2 ****        -5.1386   1.8148  -0.1670 C.3            1 S1                 0.0000
      3 ****        -3.9341   2.7418  -0.4297 C.3            1 S1                 0.0000
      4 ****        -2.6511   2.4213   0.3712 C.3            1 S1                 0.0000
      5 ****        -2.8651   2.3753   1.8042 N.am           1 S1                 0.0000
      6 ****        -2.5149   1.1975   2.3383 C.2            1 S1                 0.0000
      7 ****        -2.5803   0.9139   3.5332 O.2            1 S1                 0.0000
      8 ****        -2.0818   0.3953   1.3491 N.am           1 S1                 0.0000
      9 ****        -1.6046  -0.9769   1.5444 C.3            1 S1                 0.0000
     10 ****        -0.0655  -1.0367   1.6223 C.3            1 S1                 0.0000
     11 ****         0.3321  -0.8893   2.9714 O.3            1 S1                 0.0000
     12 ****         0.4829  -2.3800   1.1029 C.3            1 S1                 0.0000
     13 ****         1.9501  -2.4219   1.0868 N.pl3          1 S1                 0.0000
     14 ****         2.8224  -3.0056   1.9524 C.2            1 S1                 0.0000
     15 ****         4.0813  -2.7549   1.4959 N.pl3          1 S1                 1.0000
     16 ****         4.0102  -1.9987   0.3234 C.ar           1 S1                 0.0000
     17 ****         5.0103  -1.4989  -0.5023 C.ar           1 S1                 0.0000
     18 ****         4.6018  -0.7554  -1.6330 C.ar           1 S1                 0.0000
     19 ****         5.6699  -0.1939  -2.5561 C.3            1 S1                 0.0000
     20 ****         3.2263  -0.5342  -1.9042 C.ar           1 S1                 0.0000
     21 ****         2.7979   0.2706  -3.1195 C.3            1 S1                 0.0000
     22 ****         2.2244  -1.0540  -1.0542 C.ar           1 S1                 0.0000
     23 ****         2.6450  -1.7830   0.0553 C.ar           1 S1                 0.0000
     24 ****        -2.1178   1.0160   0.1622 C.2            1 S1                 0.0000
     25 ****        -1.7745   0.5611  -0.9292 O.2            1 S1                 0.0000
     26 ****        -7.2078   1.5441  -0.7770 H              1 S1                 0.0000
     27 ****        -6.1724   2.1881  -2.0478 H              1 S1                 0.0000
     28 ****        -6.6980   3.2294  -0.7247 H              1 S1                 0.0000
     29 ****        -5.3931   1.8249   0.8931 H              1 S1                 0.0000
     30 ****        -4.8806   0.7843  -0.4127 H              1 S1                 0.0000
     31 ****        -3.6977   2.7275  -1.4947 H              1 S1                 0.0000
     32 ****        -4.2282   3.7686  -0.2090 H              1 S1                 0.0000
     33 ****        -1.8661   3.1436   0.1439 H              1 S1                 0.0000
     34 ****        -3.2234   3.1582   2.3320 H              1 S1                 0.0000
     35 ****        -2.0624  -1.4417   2.4200 H              1 S1                 0.0000
     36 ****        -1.9536  -1.5704   0.6975 H              1 S1                 0.0000
     37 ****         0.3736  -0.2248   1.0414 H              1 S1                 0.0000
     38 ****        -0.0161  -0.0743   3.3006 H              1 S1                 0.0000
     39 ****         0.1314  -3.2051   1.7243 H              1 S1                 0.0000
     40 ****         0.1294  -2.5812   0.0908 H              1 S1                 0.0000
     41 ****         2.5625  -3.5623   2.8412 H              1 S1                 0.0000
     42 ****         6.0553  -1.6701  -0.2888 H              1 S1                 0.0000
     43 ****         5.5348  -0.5673  -3.5716 H              1 S1                 0.0000
     44 ****         6.6705  -0.4773  -2.2282 H              1 S1                 0.0000
     45 ****         5.6221   0.8952  -2.5779 H              1 S1                 0.0000
     46 ****         1.7132   0.3713  -3.1690 H              1 S1                 0.0000
     47 ****         3.1297  -0.2161  -4.0370 H              1 S1                 0.0000
     48 ****         3.2235   1.2738  -3.0850 H              1 S1                 0.0000
     49 ****         1.1769  -0.8868  -1.2590 H              1 S1                 0.0000
     50 ****         4.9245  -3.0760   1.9543 H              1 S1                 0.0000
     51 ****        -2.9163   1.5893   4.1898 LP             1 S1                 0.0000
     52 ****        -2.2975   0.0080   3.8483 LP             1 S1                 0.0000
     53 ****         1.3304  -0.8771   3.0292 LP             1 S1                 0.0000
     54 ****        -0.0238  -1.6510   3.5128 LP             1 S1                 0.0000
     55 ****        -1.8389   1.1286  -1.7500 LP             1 S1                 0.0000
     56 ****        -1.4312  -0.3758  -0.9947 LP             1 S1                 0.0000
@<TRIPOS>BOND
    1    1    2 1     
    2    1   26 1     
    3    1   27 1     
    4    1   28 1     
    5    2    3 1     
    6    2   29 1     
    7    2   30 1     
    8    3    4 1     
    9    3   31 1     
   10    3   32 1     
   11    4   24 1     
   12    4    5 1     
   13    4   33 1     
   14    5    6 am    
   15    5   34 1     
   16    6    7 2     
   17    6    8 am    
   18    8    9 1     
   19    8   24 am    
   20    9   10 1     
   21    9   35 1     
   22    9   36 1     
   23   10   11 1     
   24   10   12 1     
   25   10   37 1     
   26   11   38 1     
   27   12   13 1     
   28   12   39 1     
   29   12   40 1     
   30   13   23 1     
   31   13   14 1     
   32   14   15 2     
   33   14   41 1     
   34   15   16 1     
   35   15   50 1     
   36   16   23 ar    
   37   16   17 ar    
   38   17   18 ar    
   39   17   42 1     
   40   18   19 1     
   41   18   20 ar    
   42   19   43 1     
   43   19   44 1     
   44   19   45 1     
   45   20   21 1     
   46   20   22 ar    
   47   21   46 1     
   48   21   47 1     
   49   21   48 1     
   50   22   23 ar    
   51   22   49 1     
   52   24   25 2     
   53    7   51 1     
   54    7   52 1     
   55   11   53 1     
   56   11   54 1     
   57   25   55 1     
   58   25   56 1     
@<TRIPOS>SUBSTRUCTURE
      1 S1             1
@<TRIPOS>SET
LONE_PAIRS      STATIC     ATOMS    <user>   **** ""
6 51 52 53 54 55 56
DONOR_HYDROGENS      STATIC     ATOMS    <user>   **** ""
3 34 38 50
ATOM$BLUE        STATIC     ATOMS    COLORGROUP SYSTEM
6 51 52 53 54 55 56
ATOM$RED        STATIC     ATOMS    COLORGROUP SYSTEM
3 34 38 50
