AV-unprocessed.smi:1285|AV-procd|sdf|5368|dock10
  -GOLD-   22720 4513D 1   1.00000     0.00000
 Structure written by MMmdl.
 46 47  0  0  0  0  0  0  0  0  1 V2000
  149.5142  141.1052  154.6124 C   0  0  0  0  0  0  0  0  0  0  0  0
  149.6749  139.9550  155.6230 C   0  0  0  0  0  0  0  0  0  0  0  0
  150.8944  140.0726  156.5928 C   0  0  2  0  0  0  0  0  0  0  0  0
  152.1647  139.9199  155.7129 C   0  0  0  0  0  0  0  0  0  0  0  0
  150.8379  138.8780  157.6010 C   0  0  0  0  0  0  0  0  0  0  0  0
  152.1142  138.6168  158.2633 N   0  0  0  0  0  0  0  0  0  0  0  0
  152.2979  137.8618  159.3584 C   0  0  0  0  0  0  0  0  0  0  0  0
  151.3977  137.2064  159.8846 O   0  0  0  0  0  0  0  0  0  0  0  0
  153.7147  137.8811  159.9559 C   0  0  2  0  0  0  0  0  0  0  0  0
  153.8627  136.9757  161.1955 C   0  0  0  0  0  0  0  0  0  0  0  0
  154.1206  139.2546  160.2332 N   0  0  0  0  0  0  0  0  0  0  0  0
  154.4864  139.8265  161.3827 C   0  0  0  0  0  0  0  0  0  0  0  0
  154.8578  141.0930  161.2604 N   0  0  0  0  0  0  0  0  0  0  0  0
  154.6913  141.2501  159.9137 C   0  0  0  0  0  0  0  0  0  0  0  0
  154.2598  140.1783  159.2495 N   0  0  0  0  0  0  0  0  0  0  0  0
  150.9020  141.3906  157.2888 N   0  0  0  0  0  0  0  0  0  0  0  0
  152.0398  141.6161  158.1886 C   0  0  0  0  0  0  0  0  0  0  0  0
  152.0521  143.0464  158.7549 C   0  0  0  0  0  0  0  0  0  0  0  0
  150.8243  143.3090  159.4234 O   0  0  0  0  0  0  0  0  0  0  0  0
  149.6976  143.1570  158.5684 C   0  0  0  0  0  0  0  0  0  0  0  0
  149.6655  141.7265  158.0052 C   0  0  0  0  0  0  0  0  0  0  0  0
  148.6347  140.9441  153.9891 H   0  0  0  0  0  0  0  0  0  0  0  0
  150.3725  141.1808  153.9456 H   0  0  0  0  0  0  0  0  0  0  0  0
  149.3882  142.0675  155.1083 H   0  0  0  0  0  0  0  0  0  0  0  0
  148.7494  139.8539  156.1899 H   0  0  0  0  0  0  0  0  0  0  0  0
  149.7425  139.0307  155.0479 H   0  0  0  0  0  0  0  0  0  0  0  0
  152.0775  139.0959  155.0041 H   0  0  0  0  0  0  0  0  0  0  0  0
  153.0528  139.7171  156.3119 H   0  0  0  0  0  0  0  0  0  0  0  0
  152.3634  140.8203  155.1315 H   0  0  0  0  0  0  0  0  0  0  0  0
  150.0595  139.0307  158.3489 H   0  0  0  0  0  0  0  0  0  0  0  0
  150.5744  137.9556  157.0850 H   0  0  0  0  0  0  0  0  0  0  0  0
  152.9149  139.1111  157.8979 H   0  0  0  0  0  0  0  0  0  0  0  0
  154.3881  137.4955  159.1885 H   0  0  0  0  0  0  0  0  0  0  0  0
  153.6173  135.9400  160.9580 H   0  0  0  0  0  0  0  0  0  0  0  0
  153.2121  137.2908  162.0124 H   0  0  0  0  0  0  0  0  0  0  0  0
  154.8879  136.9899  161.5664 H   0  0  0  0  0  0  0  0  0  0  0  0
  154.4917  139.3024  162.3272 H   0  0  0  0  0  0  0  0  0  0  0  0
  154.9011  142.1803  159.4066 H   0  0  0  0  0  0  0  0  0  0  0  0
  152.0110  140.9126  159.0206 H   0  0  0  0  0  0  0  0  0  0  0  0
  152.9844  141.4563  157.6716 H   0  0  0  0  0  0  0  0  0  0  0  0
  152.8742  143.1673  159.4605 H   0  0  0  0  0  0  0  0  0  0  0  0
  152.2042  143.7759  157.9578 H   0  0  0  0  0  0  0  0  0  0  0  0
  148.7900  143.3608  159.1367 H   0  0  0  0  0  0  0  0  0  0  0  0
  149.7413  143.8893  157.7605 H   0  0  0  0  0  0  0  0  0  0  0  0
  148.7994  141.6457  157.3510 H   0  0  0  0  0  0  0  0  0  0  0  0
  149.5054  141.0326  158.8303 H   0  0  0  0  0  0  0  0  0  0  0  0
  1  2  1  0  0  0  0
  1 22  1  0  0  0  0
  1 23  1  0  0  0  0
  1 24  1  0  0  0  0
  2  3  1  0  0  0  0
  2 25  1  0  0  0  0
  2 26  1  0  0  0  0
  3  4  1  0  0  0  0
  3  5  1  0  0  0  0
  3 16  1  0  0  0  0
  4 27  1  0  0  0  0
  4 28  1  0  0  0  0
  4 29  1  0  0  0  0
  5  6  1  0  0  0  0
  5 30  1  0  0  0  0
  5 31  1  0  0  0  0
  6  7  1  0  0  0  0
  6 32  1  0  0  0  0
  7  8  2  0  0  0  0
  7  9  1  0  0  0  0
  9 10  1  0  0  0  0
  9 11  1  0  0  0  0
  9 33  1  0  0  0  0
 10 34  1  0  0  0  0
 10 35  1  0  0  0  0
 10 36  1  0  0  0  0
 11 15  1  0  0  0  0
 11 12  1  0  0  0  0
 12 13  2  0  0  0  0
 12 37  1  0  0  0  0
 13 14  1  0  0  0  0
 14 15  2  0  0  0  0
 14 38  1  0  0  0  0
 16 21  1  0  0  0  0
 16 17  1  0  0  0  0
 17 18  1  0  0  0  0
 17 39  1  0  0  0  0
 17 40  1  0  0  0  0
 18 19  1  0  0  0  0
 18 41  1  0  0  0  0
 18 42  1  0  0  0  0
 19 20  1  0  0  0  0
 20 21  1  0  0  0  0
 20 43  1  0  0  0  0
 20 44  1  0  0  0  0
 21 45  1  0  0  0  0
 21 46  1  0  0  0  0
M  END
> <s_m_source_file>
AV-unprocessed.smi

> <i_m_source_file_index>
1285

> <i_lp_mmshare_version>
43012

> <i_f3d_flags>
0

> <s_epik_input>
W0NIMl0xW0NIMl1PW0NIMl1bQ0gyXU4xW0NAQF0oW0NIM10pKFtDSDJdW0NIM10pW0NIMl1bTkhdQyg9TylbQ0BIXShbQ0gzXSluMltjSF1uW2NIXW4y

> <s_epik_cmdline>
J2VwaWtfcHl0aG9uJywgJy1waCcsICc3LjAnLCAnLXRuJywgJzgnLCAnLW1hJywgJzIwMCcsICctbWV0YWxfYmluZGluZycsICctaW1hZScsICc8aW5maWxlLm1hZT4nLCAnLW9tYWUnLCAnPG91dGZpbGUubWFlPic=

> <r_lp_tautomer_probability>
1

> <r_epik_Ionization_Penalty>
0.285697

> <r_epik_Ionization_Penalty_Charging>
0

> <r_epik_Ionization_Penalty_Neutral>
0.285697

> <r_epik_State_Penalty>
0.278478

> <r_epik_Charging_Adjusted_Penalty>
0.278478

> <i_epik_Tot_Q>
0

> <i_epik_Tot_abs_Q>
0

> <r_epik_Metal_State_Penalty>
0.278477

> <b_epik_Metal_Only>
0

> <s_lp_Force_Field>
OPLS_2005

> <r_lp_Energy>
47.2582

> <b_lp_Chiralities_Consistent>
1

> <s_lp_Variant>
AV-unprocessed.smi:1285-2

> <Gold.Version>
5.8.1

> <Gold.Id.Protein>
6NUR|6NUR_protein|mol2

> <Gold.PLP.Fitness>
37.3908

> <Gold.PLP.PLP>
-32.1115

> <Gold.PLP.part.hbond>
-2.9737

> <Gold.PLP.part.metal>
0.0000

> <Gold.PLP.part.buried>
-3.3773

> <Gold.PLP.part.nonpolar>
-24.1478

> <Gold.PLP.part.repulsive>
0.1617

> <Gold.PLP.ligand.clash>
0.0000

> <Gold.PLP.ligand.torsion>
0.4446

> <Gold.PLP.Chemscore.Hbond>
1.9600

> <Gold.PLP.Chemscore.CHOScore>
0.0000

> <Gold.PLP.Chemscore.Metal>
0.0000

> <Gold.Chemscore.Hbonds>
donor molecule, donor type, donor heavy atom, donor atom, acceptor molecule, acceptor atom, score
      P1  H  6896  6907       L1     8  0.99
      P1  H  7997  8009       L1    15  0.83

> <Gold.PLP.Chemscore.Internal.Correction>
0.2884

> <Gold.Rescore>
     Score         DG    S(hbond)    S(metal)    S(lipo)     H(rot)  DE(clash)    DE(int)     intcor
     10.72     -12.73       1.94        0.00      65.31       2.68       0.10       1.91       ----

> <Gold.Chemscore.Fitness>
10.7244

> <Gold.Chemscore.DG>
-12.7275

> <Gold.Chemscore.ZeroCoef>
-5.4800

> <Gold.Chemscore.Hbond>
1.9377

> <Gold.Chemscore.Metal>
0.0000

> <Gold.Chemscore.Lipo>
65.3148

> <Gold.Chemscore.Internal_Hbond>
0.0000

> <Gold.Chemscore.DEClash>
0.0962

> <Gold.Chemscore.DEInternal>
1.9070

> <Gold.Chemscore.Rot>
2.6821

> <Gold.Chemscore.Internal.Correction>
   9.000000E+99

> <Gold.Chemscore.Hbonds>
donor molecule, donor type, donor heavy atom, donor atom, acceptor molecule, acceptor atom, score
      P1  H  6896  6907       L1     8  0.91
      P1  H  7997  8009       L1    15  0.66

> <Gold.Chemscore.Hbond.Weighted>
-6.4718

> <Gold.Chemscore.Metal.Weighted>
-0.0000

> <Gold.Chemscore.Lipo.Weighted>
-7.6418

> <Gold.Chemscore.Internal_Hbond.Weighted>
0.0000

> <Gold.Chemscore.DEClash.Weighted>
0.0962

> <Gold.Chemscore.DEInternal.Weighted>
1.9070

> <Gold.Chemscore.Rot.Weighted>
6.8661

> <Gold.Chemscore.Internal.Correction.Weighted>
   9.000000E+99

> <Gold.Protein.RotatedTorsions>
[ 6907 6896 6895 6894 ] final   -5.69 input  -60.11 | X-H torsion
[ 7974 7965 7964 7962 ] final   -6.91 input  175.53 | X-H torsion
[ 8008 7997 7996 7995 ] final  125.50 input   59.86 | X-H torsion
[ 10167 10162 10161 10158 ] final   85.47 input  -65.29 | X-H torsion
[ 10718 10713 10712 10709 ] final -120.13 input   66.30 | X-H torsion
[ 10763 10752 10751 10750 ] final  162.15 input  -60.55 | X-H torsion
[ 11005 11000 10999 10996 ] final -159.14 input  -57.11 | X-H torsion

> <Gold.Protein.ActiveResidues>
 VAL166  LYS551  ARG553  GLY616  TRP617  ASP618  TYR619  PRO620  LYS621  CYS622 
 ASP623  PHE694  ASN695  SER759  ASP760  ASP761  ALA762  ILE779  LEU786  VAL792 
 PHE793  MET794  SER795  GLU796  ALA797  LYS798  CYS799  TRP800  GLU811  SER814 

> <Gold.Protein.RotatedAtoms>
  151.4775  135.1050  159.9768 H   0  0  0  0  0  0  0  0  0  0  0  0  # atno 6907 bound_to 6896
  152.4792  133.8209  159.7063 H   0  0  0  0  0  0  0  0  0  0  0  0  # atno 6908 bound_to 6896
  150.8852  133.7256  159.2947 H   0  0  0  0  0  0  0  0  0  0  0  0  # atno 6909 bound_to 6896
  146.2320  140.2240  142.8338 H   0  0  0  0  0  0  0  0  0  0  0  0  # atno 7974 bound_to 7965
  156.2836  140.2715  156.1959 H   0  0  0  0  0  0  0  0  0  0  0  0  # atno 8008 bound_to 7997
  155.0410  140.0386  157.2527 H   0  0  0  0  0  0  0  0  0  0  0  0  # atno 8009 bound_to 7997
  154.7274  140.2700  155.6492 H   0  0  0  0  0  0  0  0  0  0  0  0  # atno 8010 bound_to 7997
  139.8974  144.6349  150.8673 H   0  0  0  0  0  0  0  0  0  0  0  0  # atno 10167 bound_to 10162
  156.1234  130.6340  150.9502 H   0  0  0  0  0  0  0  0  0  0  0  0  # atno 10718 bound_to 10713
  154.2739  135.2765  155.2726 H   0  0  0  0  0  0  0  0  0  0  0  0  # atno 10763 bound_to 10752
  154.5278  135.5738  153.6737 H   0  0  0  0  0  0  0  0  0  0  0  0  # atno 10764 bound_to 10752
  152.9940  135.6220  154.2895 H   0  0  0  0  0  0  0  0  0  0  0  0  # atno 10765 bound_to 10752
  140.6459  134.4502  157.5234 H   0  0  0  0  0  0  0  0  0  0  0  0  # atno 11005 bound_to 11000
  144.9609  140.8274  143.5514 LP  0  0  0  0  0  0  0  0  0  0  0  0  # atno 17320 bound_to 7965
  145.2211  139.2158  143.5092 LP  0  0  0  0  0  0  0  0  0  0  0  0  # atno 17321 bound_to 7965
  140.7714  143.3463  151.2105 LP  0  0  0  0  0  0  0  0  0  0  0  0  # atno 17342 bound_to 10162
  139.7055  143.9462  152.2925 LP  0  0  0  0  0  0  0  0  0  0  0  0  # atno 17343 bound_to 10162
  157.6417  131.0909  150.8238 LP  0  0  0  0  0  0  0  0  0  0  0  0  # atno 17370 bound_to 10713
  156.8332  130.5023  149.5329 LP  0  0  0  0  0  0  0  0  0  0  0  0  # atno 17371 bound_to 10713
  139.9063  134.8442  156.1694 LP  0  0  0  0  0  0  0  0  0  0  0  0  # atno 17394 bound_to 11000
  141.0573  133.6859  156.1884 LP  0  0  0  0  0  0  0  0  0  0  0  0  # atno 17395 bound_to 11000

$$$$
