AV-unprocessed.smi:1792|AV-procd|sdf|7222|dock8
  -GOLD-   22720 8463D 1   1.00000     0.00000
 Structure written by MMmdl.
 42 43  0  0  0  0  0  0  0  0  1 V2000
  147.5468  139.9134  151.5018 C   0  0  0  0  0  0  0  0  0  0  0  0
  147.3671  140.0370  153.0341 C   0  0  0  0  0  0  0  0  0  0  0  0
  146.5866  141.3496  153.3012 C   0  0  0  0  0  0  0  0  0  0  0  0
  146.4320  138.8782  153.4855 C   0  0  0  0  0  0  0  0  0  0  0  0
  146.7447  137.6256  152.7996 N   0  0  0  0  0  0  0  0  0  0  0  0
  145.8525  136.7559  152.3067 C   0  0  0  0  0  0  0  0  0  0  0  0
  144.6345  136.9324  152.3436 O   0  0  0  0  0  0  0  0  0  0  0  0
  146.4679  135.6821  151.7814 N   0  0  0  0  0  0  0  0  0  0  0  0
  145.8793  134.5354  151.1851 C   0  0  0  0  0  0  0  0  0  0  0  0
  146.7539  133.4401  151.0048 C   0  0  0  0  0  0  0  0  0  0  0  0
  146.2670  132.2523  150.4259 C   0  0  0  0  0  0  0  0  0  0  0  0
  144.9163  132.1909  150.0396 C   0  0  0  0  0  0  0  0  0  0  0  0
  144.1137  133.3269  150.2521 C   0  0  0  0  0  0  0  0  0  0  0  0
  144.5781  134.4660  150.8080 N   0  0  0  0  0  0  0  0  0  0  0  0
  148.6595  140.0226  153.7763 N   0  0  0  0  0  0  0  0  0  0  0  0
  149.3784  141.3018  153.7908 C   0  0  0  0  0  0  0  0  0  0  0  0
  150.6396  141.2481  154.6700 C   0  0  0  0  0  0  0  0  0  0  0  0
  151.4910  140.1987  154.2260 O   0  0  0  0  0  0  0  0  0  0  0  0
  150.8487  138.9304  154.2570 C   0  0  0  0  0  0  0  0  0  0  0  0
  149.5926  138.9648  153.3704 C   0  0  0  0  0  0  0  0  0  0  0  0
  146.5822  139.9317  150.9930 H   0  0  0  0  0  0  0  0  0  0  0  0
  148.0326  138.9801  151.2179 H   0  0  0  0  0  0  0  0  0  0  0  0
  148.1342  140.7325  151.0878 H   0  0  0  0  0  0  0  0  0  0  0  0
  145.5694  141.2975  152.9107 H   0  0  0  0  0  0  0  0  0  0  0  0
  147.0510  142.2117  152.8227 H   0  0  0  0  0  0  0  0  0  0  0  0
  146.5124  141.5644  154.3679 H   0  0  0  0  0  0  0  0  0  0  0  0
  146.5011  138.7525  154.5677 H   0  0  0  0  0  0  0  0  0  0  0  0
  145.3849  139.1170  153.3012 H   0  0  0  0  0  0  0  0  0  0  0  0
  147.7242  137.3927  152.7245 H   0  0  0  0  0  0  0  0  0  0  0  0
  147.4760  135.6780  151.8262 H   0  0  0  0  0  0  0  0  0  0  0  0
  147.7890  133.5043  151.3076 H   0  0  0  0  0  0  0  0  0  0  0  0
  146.9191  131.4037  150.2818 H   0  0  0  0  0  0  0  0  0  0  0  0
  144.5065  131.2977  149.5918 H   0  0  0  0  0  0  0  0  0  0  0  0
  143.0716  133.3218  149.9688 H   0  0  0  0  0  0  0  0  0  0  0  0
  149.6684  141.5833  152.7785 H   0  0  0  0  0  0  0  0  0  0  0  0
  148.7445  142.1001  154.1725 H   0  0  0  0  0  0  0  0  0  0  0  0
  151.1804  142.1929  154.6133 H   0  0  0  0  0  0  0  0  0  0  0  0
  150.3744  141.0931  155.7169 H   0  0  0  0  0  0  0  0  0  0  0  0
  151.5436  138.1704  153.8997 H   0  0  0  0  0  0  0  0  0  0  0  0
  150.5893  138.6698  155.2843 H   0  0  0  0  0  0  0  0  0  0  0  0
  149.1213  137.9854  153.4281 H   0  0  0  0  0  0  0  0  0  0  0  0
  149.8987  139.1085  152.3343 H   0  0  0  0  0  0  0  0  0  0  0  0
  1  2  1  0  0  0  0
  1 21  1  0  0  0  0
  1 22  1  0  0  0  0
  1 23  1  0  0  0  0
  2  3  1  0  0  0  0
  2  4  1  0  0  0  0
  2 15  1  0  0  0  0
  3 24  1  0  0  0  0
  3 25  1  0  0  0  0
  3 26  1  0  0  0  0
  4  5  1  0  0  0  0
  4 27  1  0  0  0  0
  4 28  1  0  0  0  0
  5  6  1  0  0  0  0
  5 29  1  0  0  0  0
  6  7  2  0  0  0  0
  6  8  1  0  0  0  0
  8  9  1  0  0  0  0
  8 30  1  0  0  0  0
  9 14  1  0  0  0  0
  9 10  2  0  0  0  0
 10 11  1  0  0  0  0
 10 31  1  0  0  0  0
 11 12  2  0  0  0  0
 11 32  1  0  0  0  0
 12 13  1  0  0  0  0
 12 33  1  0  0  0  0
 13 14  2  0  0  0  0
 13 34  1  0  0  0  0
 15 20  1  0  0  0  0
 15 16  1  0  0  0  0
 16 17  1  0  0  0  0
 16 35  1  0  0  0  0
 16 36  1  0  0  0  0
 17 18  1  0  0  0  0
 17 37  1  0  0  0  0
 17 38  1  0  0  0  0
 18 19  1  0  0  0  0
 19 20  1  0  0  0  0
 19 39  1  0  0  0  0
 19 40  1  0  0  0  0
 20 41  1  0  0  0  0
 20 42  1  0  0  0  0
M  END
> <s_m_source_file>
AV-unprocessed.smi

> <i_m_source_file_index>
1792

> <i_lp_mmshare_version>
43012

> <i_f3d_flags>
0

> <s_epik_input>
W0NIMl0xW0NIMl1PW0NIMl1bQ0gyXU4xQyhbQ0gzXSkoW0NIM10pW0NIMl1bTkhdQyg9TylbTkhdYzJbY0hdW2NIXVtjSF1bY0hdbjI=

> <s_epik_cmdline>
J2VwaWtfcHl0aG9uJywgJy1waCcsICc3LjAnLCAnLXRuJywgJzgnLCAnLW1hJywgJzIwMCcsICctbWV0YWxfYmluZGluZycsICctaW1hZScsICc8aW5maWxlLm1hZT4nLCAnLW9tYWUnLCAnPG91dGZpbGUubWFlPic=

> <r_epik_Ionization_Penalty>
0.26604

> <r_epik_Ionization_Penalty_Charging>
0

> <r_epik_Ionization_Penalty_Neutral>
0.26604

> <r_epik_State_Penalty>
0.257924

> <r_epik_Charging_Adjusted_Penalty>
0.257924

> <i_epik_Tot_Q>
0

> <i_epik_Tot_abs_Q>
0

> <r_epik_Metal_State_Penalty>
0.257923

> <b_epik_Metal_Only>
0

> <s_lp_Force_Field>
OPLS_2005

> <r_lp_Energy>
43.4175

> <b_lp_Chiralities_Consistent>
1

> <s_lp_Variant>
AV-unprocessed.smi:1792-1

> <Gold.Version>
5.8.1

> <Gold.Id.Protein>
6NUR|6NUR_protein|mol2

> <Gold.PLP.Fitness>
41.0443

> <Gold.PLP.PLP>
-31.2276

> <Gold.PLP.part.hbond>
-3.0000

> <Gold.PLP.part.metal>
0.0000

> <Gold.PLP.part.buried>
-1.1475

> <Gold.PLP.part.nonpolar>
-25.6725

> <Gold.PLP.part.repulsive>
0.4320

> <Gold.PLP.ligand.clash>
0.0039

> <Gold.PLP.ligand.torsion>
0.9301

> <Gold.PLP.Chemscore.Hbond>
2.8723

> <Gold.PLP.Chemscore.CHOScore>
1.0000

> <Gold.PLP.Chemscore.Metal>
0.0000

> <Gold.Chemscore.Hbonds>
donor molecule, donor type, donor heavy atom, donor atom, acceptor molecule, acceptor atom, score
      L1  H     5    29       P1  7948  0.86
      L1  H     8    30       P1  7948  1.00
      L1  C    13    34       P1 10186  1.00

> <Gold.PLP.Chemscore.Internal.Correction>
0.0640

> <Gold.Rescore>
     Score         DG    S(hbond)    S(metal)    S(lipo)     H(rot)  DE(clash)    DE(int)     intcor
     17.27     -19.63       2.64        0.00      78.38       1.50       0.03       2.33       ----

> <Gold.Chemscore.Fitness>
17.2717

> <Gold.Chemscore.DG>
-19.6330

> <Gold.Chemscore.ZeroCoef>
-5.4800

> <Gold.Chemscore.Hbond>
2.6448

> <Gold.Chemscore.Metal>
0.0000

> <Gold.Chemscore.Lipo>
78.3832

> <Gold.Chemscore.Internal_Hbond>
0.0000

> <Gold.Chemscore.DEClash>
0.0304

> <Gold.Chemscore.DEInternal>
2.3309

> <Gold.Chemscore.Rot>
1.5045

> <Gold.Chemscore.Internal.Correction>
   9.000000E+99

> <Gold.Chemscore.Hbonds>
donor molecule, donor type, donor heavy atom, donor atom, acceptor molecule, acceptor atom, score
      L1  H     5    29       P1  7948  0.85
      L1  H     8    30       P1  7948  0.94

> <Gold.Chemscore.Hbond.Weighted>
-8.8337

> <Gold.Chemscore.Metal.Weighted>
-0.0000

> <Gold.Chemscore.Lipo.Weighted>
-9.1708

> <Gold.Chemscore.Internal_Hbond.Weighted>
0.0000

> <Gold.Chemscore.DEClash.Weighted>
0.0304

> <Gold.Chemscore.DEInternal.Weighted>
2.3309

> <Gold.Chemscore.Rot.Weighted>
3.8515

> <Gold.Chemscore.Internal.Correction.Weighted>
   9.000000E+99

> <Gold.Protein.RotatedTorsions>
[ 6907 6896 6895 6894 ] final -124.19 input  -60.11 | X-H torsion
[ 7974 7965 7964 7962 ] final  -43.39 input  175.53 | X-H torsion
[ 8008 7997 7996 7995 ] final  169.63 input   59.86 | X-H torsion
[ 10167 10162 10161 10158 ] final  -12.49 input  -65.29 | X-H torsion
[ 10718 10713 10712 10709 ] final  -61.33 input   66.30 | X-H torsion
[ 10763 10752 10751 10750 ] final  146.47 input  -60.55 | X-H torsion
[ 11005 11000 10999 10996 ] final -176.91 input  -57.11 | X-H torsion

> <Gold.Protein.ActiveResidues>
 VAL166  LYS551  ARG553  GLY616  TRP617  ASP618  TYR619  PRO620  LYS621  CYS622 
 ASP623  PHE694  ASN695  SER759  ASP760  ASP761  ALA762  ILE779  LEU786  VAL792 
 PHE793  MET794  SER795  GLU796  ALA797  LYS798  CYS799  TRP800  GLU811  SER814 

> <Gold.Protein.RotatedAtoms>
  150.8744  133.7460  159.2951 H   0  0  0  0  0  0  0  0  0  0  0  0  # atno 6907 bound_to 6896
  151.5061  135.1062  159.9851 H   0  0  0  0  0  0  0  0  0  0  0  0  # atno 6908 bound_to 6896
  152.4717  133.8000  159.7003 H   0  0  0  0  0  0  0  0  0  0  0  0  # atno 6909 bound_to 6896
  146.0024  140.7059  142.9264 H   0  0  0  0  0  0  0  0  0  0  0  0  # atno 7974 bound_to 7965
  156.1440  140.1559  156.8876 H   0  0  0  0  0  0  0  0  0  0  0  0  # atno 8008 bound_to 7997
  154.5012  140.0825  156.7839 H   0  0  0  0  0  0  0  0  0  0  0  0  # atno 8009 bound_to 7997
  155.4024  140.3415  155.4260 H   0  0  0  0  0  0  0  0  0  0  0  0  # atno 8010 bound_to 7997
  140.7162  143.5527  150.9283 H   0  0  0  0  0  0  0  0  0  0  0  0  # atno 10167 bound_to 10162
  156.0929  130.4197  150.0979 H   0  0  0  0  0  0  0  0  0  0  0  0  # atno 10718 bound_to 10713
  154.0224  135.2905  155.3379 H   0  0  0  0  0  0  0  0  0  0  0  0  # atno 10763 bound_to 10752
  154.7038  135.5178  153.8568 H   0  0  0  0  0  0  0  0  0  0  0  0  # atno 10764 bound_to 10752
  153.0675  135.6636  154.0445 H   0  0  0  0  0  0  0  0  0  0  0  0  # atno 10765 bound_to 10752
  140.4468  134.6381  157.4783 H   0  0  0  0  0  0  0  0  0  0  0  0  # atno 11005 bound_to 11000
  144.6924  140.3256  143.7225 LP  0  0  0  0  0  0  0  0  0  0  0  0  # atno 17320 bound_to 7965
  145.7468  139.1781  143.2344 LP  0  0  0  0  0  0  0  0  0  0  0  0  # atno 17321 bound_to 7965
  139.9251  143.6559  152.3088 LP  0  0  0  0  0  0  0  0  0  0  0  0  # atno 17342 bound_to 10162
  139.6990  144.7637  151.1306 LP  0  0  0  0  0  0  0  0  0  0  0  0  # atno 17343 bound_to 10162
  156.8984  130.9612  151.3579 LP  0  0  0  0  0  0  0  0  0  0  0  0  # atno 17370 bound_to 10713
  157.6083  130.8564  149.8911 LP  0  0  0  0  0  0  0  0  0  0  0  0  # atno 17371 bound_to 10713
  140.0033  134.6802  155.9495 LP  0  0  0  0  0  0  0  0  0  0  0  0  # atno 17394 bound_to 11000
  141.1682  133.6537  156.4554 LP  0  0  0  0  0  0  0  0  0  0  0  0  # atno 17395 bound_to 11000

$$$$
