#       Name:                AV-unprocessed.smi:1591
#       Creating user name   scv26
#       Creation time:       Fri Mar 27 07:03:27 2020


#       File generated by GOLD software.
#

@<TRIPOS>MOLECULE
AV-unprocessed.smi:1591
    58    61     1
SMALL
NO_CHARGES


@<TRIPOS>ATOM
      1 ****        -0.9322   0.6599  -4.2549 C.3            1 S1                 0.0000
      2 ****        -1.3852  -0.1063  -3.0027 C.3            1 S1                 0.0000
      3 ****        -0.8330   0.4764  -1.6780 C.3            1 S1                 0.0000
      4 ****         0.6307   0.4801  -1.7381 N.am           1 S1                 0.0000
      5 ****         1.4340   1.5341  -1.5256 C.2            1 S1                 0.0000
      6 ****         1.0240   2.6775  -1.3279 O.2            1 S1                 0.0000
      7 ****         2.9364   1.2405  -1.5098 C.3            1 S1                 0.0000
      8 ****         3.4326   1.2024  -0.1281 N.am           1 S1                 0.0000
      9 ****         3.3965   0.0110   0.5830 C.2            1 S1                 0.0000
     10 ****         3.7881  -0.1007   1.8741 C.2            1 S1                 0.0000
     11 ****         4.2806   1.0654   2.5990 C.2            1 S1                 0.0000
     12 ****         4.6548   1.0666   3.7696 O.2            1 S1                 0.0000
     13 ****         4.3026   2.2451   1.8504 N.am           1 S1                 0.0000
     14 ****         3.8996   2.3671   0.5196 C.2            1 S1                 0.0000
     15 ****         3.9528   3.4598  -0.0430 O.2            1 S1                 0.0000
     16 ****        -1.3266  -0.2354  -0.3712 C.3            1 S1                 0.0000
     17 ****        -0.8336  -1.7096  -0.2829 C.3            1 S1                 0.0000
     18 ****        -1.3199  -2.3709   1.0256 C.3            1 S1                 0.0000
     19 ****        -0.7621  -1.5977   2.2380 C.3            1 S1                 0.0000
     20 ****        -1.2726  -0.1434   2.1877 C.3            1 S1                 0.0000
     21 ****        -2.8123  -0.1257   2.2369 C.3            1 S1                 0.0000
     22 ****        -3.3612  -0.9019   1.0243 C.3            1 S1                 0.0000
     23 ****        -2.8619  -2.3608   1.0713 C.3            1 S1                 0.0000
     24 ****        -2.8808  -0.2359  -0.2828 C.3            1 S1                 0.0000
     25 ****        -0.7902   0.5217   0.8830 C.3            1 S1                 0.0000
     26 ****         4.6328   3.0804   2.3116 H              1 S1                 0.0000
     27 ****        -1.4092   0.2545  -5.1473 H              1 S1                 0.0000
     28 ****         0.1458   0.5937  -4.4031 H              1 S1                 0.0000
     29 ****        -1.1984   1.7150  -4.1875 H              1 S1                 0.0000
     30 ****        -2.4737  -0.0886  -2.9957 H              1 S1                 0.0000
     31 ****        -1.0958  -1.1515  -3.1093 H              1 S1                 0.0000
     32 ****        -1.1894   1.5071  -1.6317 H              1 S1                 0.0000
     33 ****         1.0714  -0.4137  -1.8986 H              1 S1                 0.0000
     34 ****         3.1425   0.2918  -2.0091 H              1 S1                 0.0000
     35 ****         3.4561   1.9940  -2.1040 H              1 S1                 0.0000
     36 ****         3.0300  -0.8771   0.0874 H              1 S1                 0.0000
     37 ****         3.7333  -1.0570   2.3738 H              1 S1                 0.0000
     38 ****        -1.1976  -2.2881  -1.1317 H              1 S1                 0.0000
     39 ****         0.2551  -1.7571  -0.3254 H              1 S1                 0.0000
     40 ****        -0.9649  -3.4014   1.0617 H              1 S1                 0.0000
     41 ****        -1.0725  -2.0756   3.1680 H              1 S1                 0.0000
     42 ****         0.3286  -1.6164   2.2300 H              1 S1                 0.0000
     43 ****        -0.8775   0.4076   3.0417 H              1 S1                 0.0000
     44 ****        -3.1672  -0.5731   3.1662 H              1 S1                 0.0000
     45 ****        -3.1800   0.9012   2.2272 H              1 S1                 0.0000
     46 ****        -4.4513  -0.8926   1.0546 H              1 S1                 0.0000
     47 ****        -3.2694  -2.9281   0.2333 H              1 S1                 0.0000
     48 ****        -3.2165  -2.8523   1.9781 H              1 S1                 0.0000
     49 ****        -3.2637   0.7837  -0.3442 H              1 S1                 0.0000
     50 ****        -3.3201  -0.7800  -1.1178 H              1 S1                 0.0000
     51 ****         0.2995   0.5401   0.8945 H              1 S1                 0.0000
     52 ****        -1.1095   1.5645   0.8591 H              1 S1                 0.0000
     53 ****         0.0412   2.8618  -1.3195 LP             1 S1                 0.0000
     54 ****         1.6737   3.4223  -1.1756 LP             1 S1                 0.0000
     55 ****         4.6353   0.2201   4.3016 LP             1 S1                 0.0000
     56 ****         4.9788   1.9141   4.1901 LP             1 S1                 0.0000
     57 ****         3.6587   3.5470  -0.9948 LP             1 S1                 0.0000
     58 ****         4.2901   4.2609   0.4515 LP             1 S1                 0.0000
@<TRIPOS>BOND
    1    1    2 1     
    2    1   27 1     
    3    1   28 1     
    4    1   29 1     
    5    2    3 1     
    6    2   30 1     
    7    2   31 1     
    8    3    4 1     
    9    3   16 1     
   10    3   32 1     
   11    4    5 am    
   12    4   33 1     
   13    5    6 2     
   14    5    7 1     
   15    7    8 1     
   16    7   34 1     
   17    7   35 1     
   18    8   14 1     
   19    8    9 1     
   20    9   10 2     
   21    9   36 1     
   22   10   11 1     
   23   10   37 1     
   24   11   12 2     
   25   11   13 1     
   26   13   26 1     
   27   13   14 1     
   28   14   15 2     
   29   16   24 1     
   30   16   25 1     
   31   16   17 1     
   32   17   18 1     
   33   17   38 1     
   34   17   39 1     
   35   18   23 1     
   36   18   19 1     
   37   18   40 1     
   38   19   20 1     
   39   19   41 1     
   40   19   42 1     
   41   20   21 1     
   42   20   25 1     
   43   20   43 1     
   44   21   22 1     
   45   21   44 1     
   46   21   45 1     
   47   22   23 1     
   48   22   24 1     
   49   22   46 1     
   50   23   47 1     
   51   23   48 1     
   52   24   49 1     
   53   24   50 1     
   54   25   51 1     
   55   25   52 1     
   56    6   53 1     
   57    6   54 1     
   58   12   55 1     
   59   12   56 1     
   60   15   57 1     
   61   15   58 1     
@<TRIPOS>SUBSTRUCTURE
      1 S1             1
@<TRIPOS>SET
LONE_PAIRS      STATIC     ATOMS    <user>   **** ""
6 53 54 55 56 57 58
DONOR_HYDROGENS      STATIC     ATOMS    <user>   **** ""
2 33 26
ATOM$BLUE        STATIC     ATOMS    COLORGROUP SYSTEM
6 53 54 55 56 57 58
ATOM$RED        STATIC     ATOMS    COLORGROUP SYSTEM
2 33 26
