AV-unprocessed.smi:1047|AV-procd|sdf|4580|dock9
  -GOLD-   22720 3 43D 1   1.00000     0.00000
 Structure written by MMmdl.
 58 60  0  0  0  0  0  0  0  0  4 V2000
  151.1375  140.6289  155.9237 C   0  0  0  0  0  0  0  0  0  0  0  0
  150.5964  139.6925  154.8338 C   0  0  0  0  0  0  0  0  0  0  0  0
  149.1530  139.9065  154.5610 N   0  3  1  0  0  0  0  0  0  0  0  0
  148.7496  141.3212  154.7456 C   0  0  0  0  0  0  0  0  0  0  0  0
  147.2378  141.4864  154.5163 C   0  0  0  0  0  0  0  0  0  0  0  0
  146.8962  141.0233  153.2151 O   0  0  0  0  0  0  0  0  0  0  0  0
  147.2041  139.6449  153.0363 C   0  0  1  0  0  0  0  0  0  0  0  0
  146.6867  139.1915  151.6602 C   0  0  0  0  0  0  0  0  0  0  0  0
  146.7337  137.7227  151.5034 N   0  3  0  0  0  0  0  0  0  0  0  0
  145.7228  136.9985  152.2995 C   0  0  0  0  0  0  0  0  0  0  0  0
  145.2610  135.7180  151.5792 C   0  0  2  0  0  0  0  0  0  0  0  0
  144.0925  136.0081  150.8397 O   0  0  0  0  0  0  0  0  0  0  0  0
  144.9385  134.5446  152.5257 C   0  0  0  0  0  0  0  0  0  0  0  0
  144.6548  133.2926  151.8099 N   0  0  0  0  0  0  0  0  0  0  0  0
  143.6743  133.0180  150.9064 C   0  0  0  0  0  0  0  0  0  0  0  0
  143.8145  131.7174  150.5294 N   0  3  0  0  0  0  0  0  0  0  0  0
  144.8966  131.1502  151.2050 C   0  0  0  0  0  0  0  0  0  0  0  0
  145.4263  129.8664  151.1555 C   0  0  0  0  0  0  0  0  0  0  0  0
  146.5454  129.5982  151.9754 C   0  0  0  0  0  0  0  0  0  0  0  0
  147.1472  128.2033  151.9465 C   0  0  0  0  0  0  0  0  0  0  0  0
  147.0979  130.6055  152.8079 C   0  0  0  0  0  0  0  0  0  0  0  0
  148.3021  130.3066  153.6847 C   0  0  0  0  0  0  0  0  0  0  0  0
  146.5437  131.9052  152.8450 C   0  0  0  0  0  0  0  0  0  0  0  0
  145.4399  132.1536  152.0316 C   0  0  0  0  0  0  0  0  0  0  0  0
  148.7187  139.4166  153.2290 C   0  0  0  0  0  0  0  0  0  0  0  0
  152.2170  140.5139  156.0251 H   0  0  0  0  0  0  0  0  0  0  0  0
  150.6999  140.4190  156.8992 H   0  0  0  0  0  0  0  0  0  0  0  0
  150.9393  141.6734  155.6818 H   0  0  0  0  0  0  0  0  0  0  0  0
  151.1608  139.8825  153.9199 H   0  0  0  0  0  0  0  0  0  0  0  0
  150.7786  138.6498  155.0981 H   0  0  0  0  0  0  0  0  0  0  0  0
  149.0034  141.6508  155.7540 H   0  0  0  0  0  0  0  0  0  0  0  0
  149.3049  141.9548  154.0520 H   0  0  0  0  0  0  0  0  0  0  0  0
  146.6675  140.9428  155.2713 H   0  0  0  0  0  0  0  0  0  0  0  0
  146.9574  142.5364  154.6018 H   0  0  0  0  0  0  0  0  0  0  0  0
  146.6659  139.0713  153.7936 H   0  0  0  0  0  0  0  0  0  0  0  0
  145.6616  139.5372  151.5212 H   0  0  0  0  0  0  0  0  0  0  0  0
  147.2859  139.6498  150.8722 H   0  0  0  0  0  0  0  0  0  0  0  0
  146.5908  137.4974  150.5285 H   0  0  0  0  0  0  0  0  0  0  0  0
  146.1756  136.7495  153.2593 H   0  0  0  0  0  0  0  0  0  0  0  0
  144.8720  137.6497  152.5058 H   0  0  0  0  0  0  0  0  0  0  0  0
  146.0321  135.4005  150.8758 H   0  0  0  0  0  0  0  0  0  0  0  0
  143.9559  136.9438  150.8375 H   0  0  0  0  0  0  0  0  0  0  0  0
  145.7409  134.3810  153.2452 H   0  0  0  0  0  0  0  0  0  0  0  0
  144.0489  134.7774  153.1130 H   0  0  0  0  0  0  0  0  0  0  0  0
  142.9197  133.7066  150.5537 H   0  0  0  0  0  0  0  0  0  0  0  0
  145.0006  129.1045  150.5185 H   0  0  0  0  0  0  0  0  0  0  0  0
  147.1680  127.7718  152.9477 H   0  0  0  0  0  0  0  0  0  0  0  0
  148.1666  128.2348  151.5612 H   0  0  0  0  0  0  0  0  0  0  0  0
  146.5702  127.5329  151.3088 H   0  0  0  0  0  0  0  0  0  0  0  0
  148.6494  131.1999  154.2049 H   0  0  0  0  0  0  0  0  0  0  0  0
  149.1313  129.9286  153.0864 H   0  0  0  0  0  0  0  0  0  0  0  0
  148.0484  129.5593  154.4370 H   0  0  0  0  0  0  0  0  0  0  0  0
  146.9676  132.6674  153.4817 H   0  0  0  0  0  0  0  0  0  0  0  0
  149.2872  139.9346  152.4550 H   0  0  0  0  0  0  0  0  0  0  0  0
  148.9359  138.3536  153.1278 H   0  0  0  0  0  0  0  0  0  0  0  0
  147.6483  137.3942  151.7779 H   0  0  0  0  0  0  0  0  0  0  0  0
  148.6467  139.3742  155.2547 H   0  0  0  0  0  0  0  0  0  0  0  0
  143.2104  131.2513  149.8639 H   0  0  0  0  0  0  0  0  0  0  0  0
  1  2  1  0  0  0  0
  1 26  1  0  0  0  0
  1 27  1  0  0  0  0
  1 28  1  0  0  0  0
  2  3  1  0  0  0  0
  2 29  1  0  0  0  0
  2 30  1  0  0  0  0
  3 25  1  0  0  0  0
  3  4  1  0  0  0  0
  3 57  1  0  0  0  0
  4  5  1  0  0  0  0
  4 31  1  0  0  0  0
  4 32  1  0  0  0  0
  5  6  1  0  0  0  0
  5 33  1  0  0  0  0
  5 34  1  0  0  0  0
  6  7  1  0  0  0  0
  7  8  1  0  0  0  0
  7 25  1  0  0  0  0
  7 35  1  0  0  0  0
  8  9  1  0  0  0  0
  8 36  1  0  0  0  0
  8 37  1  0  0  0  0
  9 10  1  0  0  0  0
  9 38  1  0  0  0  0
  9 56  1  0  0  0  0
 10 11  1  0  0  0  0
 10 39  1  0  0  0  0
 10 40  1  0  0  0  0
 11 12  1  0  0  0  0
 11 13  1  0  0  0  0
 11 41  1  0  0  0  0
 12 42  1  0  0  0  0
 13 14  1  0  0  0  0
 13 43  1  0  0  0  0
 13 44  1  0  0  0  0
 14 24  1  0  0  0  0
 14 15  1  0  0  0  0
 15 16  2  0  0  0  0
 15 45  1  0  0  0  0
 16 17  1  0  0  0  0
 16 58  1  0  0  0  0
 17 24  2  0  0  0  0
 17 18  1  0  0  0  0
 18 19  2  0  0  0  0
 18 46  1  0  0  0  0
 19 20  1  0  0  0  0
 19 21  1  0  0  0  0
 20 47  1  0  0  0  0
 20 48  1  0  0  0  0
 20 49  1  0  0  0  0
 21 22  1  0  0  0  0
 21 23  2  0  0  0  0
 22 50  1  0  0  0  0
 22 51  1  0  0  0  0
 22 52  1  0  0  0  0
 23 24  1  0  0  0  0
 23 53  1  0  0  0  0
 25 54  1  0  0  0  0
 25 55  1  0  0  0  0
M  CHG  1   3   1
M  CHG  1   9   1
M  CHG  1  16   1
M  END
> <s_m_source_file>
AV-unprocessed.smi

> <i_m_source_file_index>
1047

> <i_lp_mmshare_version>
43012

> <i_f3d_flags>
0

> <s_epik_input>
W0NIM11bQ0gyXU4xW0NIMl1bQ0gyXU9bQ0BIXShbQ0gyXTEpW0NIMl1bTkhdW0NIMl1bQ0BIXShbT0hdKVtDSDJdbihbY0hdbjIpYyhjMjMpW2NIXWMoW0NIM10pYyhbY0hdMylbQ0gzXQ==

> <s_epik_cmdline>
J2VwaWtfcHl0aG9uJywgJy1waCcsICc3LjAnLCAnLXRuJywgJzgnLCAnLW1hJywgJzIwMCcsICctbWV0YWxfYmluZGluZycsICctaW1hZScsICc8aW5maWxlLm1hZT4nLCAnLW9tYWUnLCAnPG91dGZpbGUubWFlPic=

> <r_epik_Ionization_Penalty>
1.6114

> <r_epik_Ionization_Penalty_Charging>
1.61139

> <r_epik_Ionization_Penalty_Neutral>
5.04732e-06

> <r_epik_State_Penalty>
1.63724

> <r_epik_Charging_Adjusted_Penalty>
3.24864

> <i_epik_Tot_Q>
3

> <i_epik_Tot_abs_Q>
3

> <r_epik_Metal_State_Penalty>
5.64594

> <b_epik_Metal_Only>
0

> <s_lp_Force_Field>
OPLS_2005

> <r_lp_Energy>
43.5462

> <b_lp_Chiralities_Consistent>
1

> <s_lp_Variant>
AV-unprocessed.smi:1047-21

> <Gold.Version>
5.8.1

> <Gold.Id.Protein>
6NUR|6NUR_protein|mol2

> <Gold.PLP.Fitness>
55.3875

> <Gold.PLP.PLP>
-45.2726

> <Gold.PLP.part.hbond>
-2.0000

> <Gold.PLP.part.metal>
0.0000

> <Gold.PLP.part.buried>
-0.4275

> <Gold.PLP.part.nonpolar>
-43.3970

> <Gold.PLP.part.repulsive>
0.4857

> <Gold.PLP.ligand.clash>
0.0000

> <Gold.PLP.ligand.torsion>
1.0466

> <Gold.PLP.Chemscore.Hbond>
3.0000

> <Gold.PLP.Chemscore.CHOScore>
1.0000

> <Gold.PLP.Chemscore.Metal>
0.0000

> <Gold.Chemscore.Hbonds>
donor molecule, donor type, donor heavy atom, donor atom, acceptor molecule, acceptor atom, score
      L1  H     9    56       P1  7948  2.00
      L1  H    12    42       P1 10171  0.94
      L1  C    15    45       P1 10186  1.00

> <Gold.PLP.Chemscore.Internal.Correction>
0.2080

> <Gold.Rescore>
     Score         DG    S(hbond)    S(metal)    S(lipo)     H(rot)  DE(clash)    DE(int)     intcor
     16.28     -18.76       1.98        0.00     117.89       2.78       1.60       0.87       ----

> <Gold.Chemscore.Fitness>
16.2849

> <Gold.Chemscore.DG>
-18.7609

> <Gold.Chemscore.ZeroCoef>
-5.4800

> <Gold.Chemscore.Hbond>
1.9812

> <Gold.Chemscore.Metal>
0.0000

> <Gold.Chemscore.Lipo>
117.8867

> <Gold.Chemscore.Internal_Hbond>
0.0000

> <Gold.Chemscore.DEClash>
1.6025

> <Gold.Chemscore.DEInternal>
0.8734

> <Gold.Chemscore.Rot>
2.7848

> <Gold.Chemscore.Internal.Correction>
   9.000000E+99

> <Gold.Chemscore.Hbonds>
donor molecule, donor type, donor heavy atom, donor atom, acceptor molecule, acceptor atom, score
      L1  H     9    56       P1  7948  0.98
      L1  H    12    42       P1 10171  0.91

> <Gold.Chemscore.Hbond.Weighted>
-6.6172

> <Gold.Chemscore.Metal.Weighted>
-0.0000

> <Gold.Chemscore.Lipo.Weighted>
-13.7927

> <Gold.Chemscore.Internal_Hbond.Weighted>
0.0000

> <Gold.Chemscore.DEClash.Weighted>
1.6025

> <Gold.Chemscore.DEInternal.Weighted>
0.8734

> <Gold.Chemscore.Rot.Weighted>
7.1291

> <Gold.Chemscore.Internal.Correction.Weighted>
   9.000000E+99

> <Gold.Protein.RotatedTorsions>
[ 6907 6896 6895 6894 ] final  -41.08 input  -60.11 | X-H torsion
[ 7974 7965 7964 7962 ] final -114.95 input  175.53 | X-H torsion
[ 8008 7997 7996 7995 ] final   57.69 input   59.86 | X-H torsion
[ 10167 10162 10161 10158 ] final   98.54 input  -65.29 | X-H torsion
[ 10718 10713 10712 10709 ] final   91.85 input   66.30 | X-H torsion
[ 10763 10752 10751 10750 ] final  -63.11 input  -60.55 | X-H torsion
[ 11005 11000 10999 10996 ] final  153.24 input  -57.11 | X-H torsion

> <Gold.Protein.ActiveResidues>
 VAL166  LYS551  ARG553  GLY616  TRP617  ASP618  TYR619  PRO620  LYS621  CYS622 
 ASP623  PHE694  ASN695  SER759  ASP760  ASP761  ALA762  ILE779  LEU786  VAL792 
 PHE793  MET794  SER795  GLU796  ALA797  LYS798  CYS799  TRP800  GLU811  SER814 

> <Gold.Protein.RotatedAtoms>
  150.9709  134.9082  159.7787 H   0  0  0  0  0  0  0  0  0  0  0  0  # atno 6907 bound_to 6896
  152.5190  134.3542  159.9272 H   0  0  0  0  0  0  0  0  0  0  0  0  # atno 6908 bound_to 6896
  151.3551  133.3870  159.2718 H   0  0  0  0  0  0  0  0  0  0  0  0  # atno 6909 bound_to 6896
  145.1141  140.8629  143.3852 H   0  0  0  0  0  0  0  0  0  0  0  0  # atno 7974 bound_to 7965
  155.5378  140.3483  155.4440 H   0  0  0  0  0  0  0  0  0  0  0  0  # atno 8008 bound_to 7997
  156.0673  140.1354  156.9897 H   0  0  0  0  0  0  0  0  0  0  0  0  # atno 8009 bound_to 7997
  154.4510  140.0973  156.6591 H   0  0  0  0  0  0  0  0  0  0  0  0  # atno 8010 bound_to 7997
  139.7699  144.6926  151.0170 H   0  0  0  0  0  0  0  0  0  0  0  0  # atno 10167 bound_to 10162
  157.6960  131.0422  150.3792 H   0  0  0  0  0  0  0  0  0  0  0  0  # atno 10718 bound_to 10713
  154.3101  135.6217  153.5462 H   0  0  0  0  0  0  0  0  0  0  0  0  # atno 10763 bound_to 10752
  152.9830  135.5699  154.5186 H   0  0  0  0  0  0  0  0  0  0  0  0  # atno 10764 bound_to 10752
  154.4834  135.2864  155.1529 H   0  0  0  0  0  0  0  0  0  0  0  0  # atno 10765 bound_to 10752
  140.1380  134.8758  157.2292 H   0  0  0  0  0  0  0  0  0  0  0  0  # atno 11005 bound_to 11000
  145.0813  139.2957  143.5782 LP  0  0  0  0  0  0  0  0  0  0  0  0  # atno 17320 bound_to 7965
  146.3525  140.0321  142.8649 LP  0  0  0  0  0  0  0  0  0  0  0  0  # atno 17321 bound_to 7965
  140.7813  143.4600  151.0291 LP  0  0  0  0  0  0  0  0  0  0  0  0  # atno 17342 bound_to 10162
  139.8284  143.7725  152.3179 LP  0  0  0  0  0  0  0  0  0  0  0  0  # atno 17343 bound_to 10162
  156.4208  130.3952  149.6827 LP  0  0  0  0  0  0  0  0  0  0  0  0  # atno 17370 bound_to 10713
  156.4078  130.7707  151.2718 LP  0  0  0  0  0  0  0  0  0  0  0  0  # atno 17371 bound_to 10713
  140.2758  134.3407  155.7358 LP  0  0  0  0  0  0  0  0  0  0  0  0  # atno 17394 bound_to 11000
  141.2181  133.7450  156.9291 LP  0  0  0  0  0  0  0  0  0  0  0  0  # atno 17395 bound_to 11000

$$$$
