#       Name:                AV-unprocessed.smi:1641
#       Creating user name   scv26
#       Creation time:       Fri Mar 27 07:24:54 2020


#       File generated by GOLD software.
#

@<TRIPOS>MOLECULE
AV-unprocessed.smi:1641
    48    49     1
SMALL
NO_CHARGES


@<TRIPOS>ATOM
      1 ****        -3.6925   6.1514  -3.8340 C.3            1 S1                 0.0000
      2 ****        -3.5863   5.3328  -2.5932 C.2            1 S1                 0.0000
      3 ****        -4.6477   4.9716  -1.8676 N.2            1 S1                 0.0000
      4 ****        -4.2913   4.2124  -0.7622 N.2            1 S1                 0.0000
      5 ****        -2.9703   4.0010  -0.6737 C.2            1 S1                 0.0000
      6 ****        -2.4178   3.2901   0.3233 N.pl3          1 S1                -1.0000
      7 ****        -2.1093   1.9871   0.1320 C.2            1 S1                 0.0000
      8 ****        -2.3032   1.3342  -0.8963 O.2            1 S1                 0.0000
      9 ****        -1.5349   1.4059   1.1951 N.am           1 S1                 0.0000
     10 ****        -1.0823   0.0215   1.2711 C.3            1 S1                 0.0000
     11 ****         0.2681  -0.1662   0.5541 C.3            1 S1                 0.0000
     12 ****         0.7638  -1.5410   0.5209 N.3            1 S1                 0.0000
     13 ****         1.9057  -1.6604  -0.3780 C.3            1 S1                 0.0000
     14 ****         2.4428  -3.1027  -0.4412 C.3            1 S1                 0.0000
     15 ****         3.6879  -3.2195  -1.3262 C.3            1 S1                 0.0000
     16 ****         2.7855  -3.5274   0.8751 O.3            1 S1                 0.0000
     17 ****         1.6912  -3.4725   1.7864 C.3            1 S1                 0.0000
     18 ****         2.1797  -3.9605   3.1541 C.3            1 S1                 0.0000
     19 ****         1.1485  -2.0312   1.8419 C.3            1 S1                 0.0000
     20 ****        -2.0481   4.7623  -1.9698 S.3            1 S1                 0.0000
     21 ****        -3.6004   5.5103  -4.7107 H              1 S1                 0.0000
     22 ****        -2.8976   6.8969  -3.8590 H              1 S1                 0.0000
     23 ****        -4.6534   6.6654  -3.8738 H              1 S1                 0.0000
     24 ****        -1.3970   1.9766   2.0164 H              1 S1                 0.0000
     25 ****        -0.9994  -0.2321   2.3273 H              1 S1                 0.0000
     26 ****        -1.8376  -0.6428   0.8479 H              1 S1                 0.0000
     27 ****         0.1530   0.1847  -0.4722 H              1 S1                 0.0000
     28 ****         1.0164   0.4848   1.0085 H              1 S1                 0.0000
     29 ****         1.6193  -1.3397  -1.3804 H              1 S1                 0.0000
     30 ****         2.7023  -0.9892  -0.0526 H              1 S1                 0.0000
     31 ****         1.6692  -3.7636  -0.8362 H              1 S1                 0.0000
     32 ****         3.4710  -2.9124  -2.3496 H              1 S1                 0.0000
     33 ****         4.0482  -4.2480  -1.3575 H              1 S1                 0.0000
     34 ****         4.4984  -2.5934  -0.9523 H              1 S1                 0.0000
     35 ****         0.9058  -4.1440   1.4350 H              1 S1                 0.0000
     36 ****         1.3706  -3.9537   3.8849 H              1 S1                 0.0000
     37 ****         2.9817  -3.3276   3.5352 H              1 S1                 0.0000
     38 ****         2.5613  -4.9798   3.0896 H              1 S1                 0.0000
     39 ****         1.9054  -1.3737   2.2725 H              1 S1                 0.0000
     40 ****         0.2933  -2.0076   2.5164 H              1 S1                 0.0000
     41 ****        -5.5896   5.2194  -2.0945 LP             1 S1                 0.0000
     42 ****        -4.9518   3.8592  -0.0997 LP             1 S1                 0.0000
     43 ****        -2.2348   3.7236   1.2056 LP             1 S1                 0.0000
     44 ****        -2.7269   1.7679  -1.6916 LP             1 S1                 0.0000
     45 ****        -2.0367   0.3711  -0.9348 LP             1 S1                 0.0000
     46 ****         0.0056  -2.1015   0.1879 LP             1 S1                 0.0000
     47 ****         3.5155  -2.9371   1.2194 LP             1 S1                 0.0000
     48 ****         3.1136  -4.4709   0.8291 LP             1 S1                 0.0000
@<TRIPOS>BOND
    1    1    2 1     
    2    1   21 1     
    3    1   22 1     
    4    1   23 1     
    5    2   20 1     
    6    2    3 2     
    7    3    4 1     
    8    4    5 2     
    9    5    6 1     
   10    5   20 1     
   11    6    7 1     
   12    7    8 2     
   13    7    9 am    
   14    9   10 1     
   15    9   24 1     
   16   10   11 1     
   17   10   25 1     
   18   10   26 1     
   19   11   12 1     
   20   11   27 1     
   21   11   28 1     
   22   12   19 1     
   23   12   13 1     
   24   13   14 1     
   25   13   29 1     
   26   13   30 1     
   27   14   15 1     
   28   14   16 1     
   29   14   31 1     
   30   15   32 1     
   31   15   33 1     
   32   15   34 1     
   33   16   17 1     
   34   17   18 1     
   35   17   19 1     
   36   17   35 1     
   37   18   36 1     
   38   18   37 1     
   39   18   38 1     
   40   19   39 1     
   41   19   40 1     
   42    3   41 1     
   43    4   42 1     
   44    6   43 1     
   45    8   44 1     
   46    8   45 1     
   47   12   46 1     
   48   16   47 1     
   49   16   48 1     
@<TRIPOS>SUBSTRUCTURE
      1 S1             1
@<TRIPOS>SET
LONE_PAIRS      STATIC     ATOMS    <user>   **** ""
8 41 42 43 44 45 46 47 48
DONOR_HYDROGENS      STATIC     ATOMS    <user>   **** ""
1 24
ATOM$BLUE        STATIC     ATOMS    COLORGROUP SYSTEM
8 41 42 43 44 45 46 47 48
ATOM$RED        STATIC     ATOMS    COLORGROUP SYSTEM
1 24
