AV-unprocessed.smi:671|AV-procd|sdf|3275|dock9
  -GOLD-   22720 0233D 1   1.00000     0.00000
 Structure written by MMmdl.
 49 50  0  0  0  0  0  0  0  0  1 V2000
  152.8988  138.3728  155.2359 C   0  0  0  0  0  0  0  0  0  0  0  0
  151.9086  139.4436  155.5956 C   0  0  0  0  0  0  0  0  0  0  0  0
  152.2659  140.3807  156.4573 N   0  0  0  0  0  0  0  0  0  0  0  0
  151.1834  141.1757  156.5703 N   0  0  0  0  0  0  0  0  0  0  0  0
  151.2342  142.3255  157.4524 C   0  0  0  0  0  0  0  0  0  0  0  0
  150.1384  140.7390  155.7798 C   0  0  0  0  0  0  0  0  0  0  0  0
  148.8290  141.4585  155.7304 C   0  0  0  0  0  0  0  0  0  0  0  0
  150.5714  139.6142  155.1286 C   0  0  0  0  0  0  0  0  0  0  0  0
  149.8292  138.7449  154.1446 C   0  0  0  0  0  0  0  0  0  0  0  0
  148.3231  138.6513  154.4573 C   0  0  2  0  0  0  0  0  0  0  0  0
  148.0383  138.3481  155.9398 C   0  0  0  0  0  0  0  0  0  0  0  0
  147.7254  137.6152  153.6110 N   0  0  0  0  0  0  0  0  0  0  0  0
  146.4236  137.3137  153.4532 C   0  0  0  0  0  0  0  0  0  0  0  0
  145.5407  137.9277  154.0490 O   0  0  0  0  0  0  0  0  0  0  0  0
  146.1844  136.3032  152.6009 N   0  0  0  0  0  0  0  0  0  0  0  0
  144.8781  135.7260  152.2861 C   0  0  1  0  0  0  0  0  0  0  0  0
  144.6333  135.7614  150.7631 C   0  0  0  0  0  0  0  0  0  0  0  0
  144.4175  134.3102  150.3201 C   0  0  0  0  0  0  0  0  0  0  0  0
  145.0776  133.4645  151.4050 C   0  0  0  0  0  0  0  0  0  0  0  0
  144.7908  134.2364  152.6936 C   0  0  1  0  0  0  0  0  0  0  0  0
  145.6557  133.7934  153.8876 C   0  0  0  0  0  0  0  0  0  0  0  0
  152.5599  137.7804  154.3863 H   0  0  0  0  0  0  0  0  0  0  0  0
  153.0561  137.6907  156.0715 H   0  0  0  0  0  0  0  0  0  0  0  0
  153.8646  138.8034  154.9702 H   0  0  0  0  0  0  0  0  0  0  0  0
  151.0021  143.2301  156.8903 H   0  0  0  0  0  0  0  0  0  0  0  0
  152.2262  142.4306  157.8937 H   0  0  0  0  0  0  0  0  0  0  0  0
  150.5036  142.2050  158.2526 H   0  0  0  0  0  0  0  0  0  0  0  0
  148.1223  140.9565  155.0706 H   0  0  0  0  0  0  0  0  0  0  0  0
  148.9613  142.4758  155.3622 H   0  0  0  0  0  0  0  0  0  0  0  0
  148.3795  141.5127  156.7222 H   0  0  0  0  0  0  0  0  0  0  0  0
  149.9566  139.1411  153.1364 H   0  0  0  0  0  0  0  0  0  0  0  0
  150.2558  137.7421  154.1093 H   0  0  0  0  0  0  0  0  0  0  0  0
  147.8818  139.6180  154.2094 H   0  0  0  0  0  0  0  0  0  0  0  0
  148.4208  139.1359  156.5886 H   0  0  0  0  0  0  0  0  0  0  0  0
  148.5009  137.4097  156.2473 H   0  0  0  0  0  0  0  0  0  0  0  0
  146.9677  138.2681  156.1304 H   0  0  0  0  0  0  0  0  0  0  0  0
  148.3753  137.0865  153.0470 H   0  0  0  0  0  0  0  0  0  0  0  0
  146.9814  135.8735  152.1546 H   0  0  0  0  0  0  0  0  0  0  0  0
  144.0864  136.2778  152.7957 H   0  0  0  0  0  0  0  0  0  0  0  0
  143.7739  136.3821  150.5074 H   0  0  0  0  0  0  0  0  0  0  0  0
  145.4935  136.1799  150.2373 H   0  0  0  0  0  0  0  0  0  0  0  0
  143.3490  134.0924  150.2897 H   0  0  0  0  0  0  0  0  0  0  0  0
  144.8235  134.1100  149.3284 H   0  0  0  0  0  0  0  0  0  0  0  0
  144.6925  132.4446  151.4322 H   0  0  0  0  0  0  0  0  0  0  0  0
  146.1529  133.4125  151.2281 H   0  0  0  0  0  0  0  0  0  0  0  0
  143.7499  134.0405  152.9568 H   0  0  0  0  0  0  0  0  0  0  0  0
  146.7213  133.8899  153.6771 H   0  0  0  0  0  0  0  0  0  0  0  0
  145.4660  132.7489  154.1354 H   0  0  0  0  0  0  0  0  0  0  0  0
  145.4324  134.3886  154.7734 H   0  0  0  0  0  0  0  0  0  0  0  0
  1  2  1  0  0  0  0
  1 22  1  0  0  0  0
  1 23  1  0  0  0  0
  1 24  1  0  0  0  0
  2  8  1  0  0  0  0
  2  3  2  0  0  0  0
  3  4  1  0  0  0  0
  4  5  1  0  0  0  0
  4  6  1  0  0  0  0
  5 25  1  0  0  0  0
  5 26  1  0  0  0  0
  5 27  1  0  0  0  0
  6  7  1  0  0  0  0
  6  8  2  0  0  0  0
  7 28  1  0  0  0  0
  7 29  1  0  0  0  0
  7 30  1  0  0  0  0
  8  9  1  0  0  0  0
  9 10  1  0  0  0  0
  9 31  1  0  0  0  0
  9 32  1  0  0  0  0
 10 11  1  0  0  0  0
 10 12  1  0  0  0  0
 10 33  1  0  0  0  0
 11 34  1  0  0  0  0
 11 35  1  0  0  0  0
 11 36  1  0  0  0  0
 12 13  1  0  0  0  0
 12 37  1  0  0  0  0
 13 14  2  0  0  0  0
 13 15  1  0  0  0  0
 15 16  1  0  0  0  0
 15 38  1  0  0  0  0
 16 20  1  0  0  0  0
 16 17  1  0  0  0  0
 16 39  1  0  0  0  0
 17 18  1  0  0  0  0
 17 40  1  0  0  0  0
 17 41  1  0  0  0  0
 18 19  1  0  0  0  0
 18 42  1  0  0  0  0
 18 43  1  0  0  0  0
 19 20  1  0  0  0  0
 19 44  1  0  0  0  0
 19 45  1  0  0  0  0
 20 21  1  0  0  0  0
 20 46  1  0  0  0  0
 21 47  1  0  0  0  0
 21 48  1  0  0  0  0
 21 49  1  0  0  0  0
M  END
> <s_m_source_file>
AV-unprocessed.smi

> <i_m_source_file_index>
671

> <i_lp_mmshare_version>
43012

> <i_f3d_flags>
0

> <s_epik_input>
W0NIM11jMW5uKFtDSDNdKWMoW0NIM10pYzFbQ0gyXVtDQEhdKFtDSDNdKVtOSF1DKD1PKVtOSF1bQ0BASF0yW0NIMl1bQ0gyXVtDSDJdW0NASF0yW0NIM10=

> <s_epik_cmdline>
J2VwaWtfcHl0aG9uJywgJy1waCcsICc3LjAnLCAnLXRuJywgJzgnLCAnLW1hJywgJzIwMCcsICctbWV0YWxfYmluZGluZycsICctaW1hZScsICc8aW5maWxlLm1hZT4nLCAnLW9tYWUnLCAnPG91dGZpbGUubWFlPic=

> <r_lp_tautomer_probability>
1

> <r_epik_Ionization_Penalty>
0.0126855

> <r_epik_Ionization_Penalty_Charging>
0

> <r_epik_Ionization_Penalty_Neutral>
0.0126855

> <r_epik_State_Penalty>
0.00977547

> <r_epik_Charging_Adjusted_Penalty>
0.00977547

> <i_epik_Tot_Q>
0

> <i_epik_Tot_abs_Q>
0

> <r_epik_Metal_State_Penalty>
0.00957132

> <b_epik_Metal_Only>
0

> <s_lp_Force_Field>
OPLS_2005

> <r_lp_Energy>
23.5654

> <b_lp_Chiralities_Consistent>
1

> <s_lp_Variant>
AV-unprocessed.smi:671-3

> <Gold.Version>
5.8.1

> <Gold.Id.Protein>
6NUR|6NUR_protein|mol2

> <Gold.PLP.Fitness>
39.7722

> <Gold.PLP.PLP>
-32.3300

> <Gold.PLP.part.hbond>
-2.9297

> <Gold.PLP.part.metal>
0.0000

> <Gold.PLP.part.buried>
-0.3813

> <Gold.PLP.part.nonpolar>
-28.5630

> <Gold.PLP.part.repulsive>
0.1505

> <Gold.PLP.ligand.clash>
0.0000

> <Gold.PLP.ligand.torsion>
0.4771

> <Gold.PLP.Chemscore.Hbond>
2.7913

> <Gold.PLP.Chemscore.CHOScore>
0.0000

> <Gold.PLP.Chemscore.Metal>
0.0000

> <Gold.Chemscore.Hbonds>
donor molecule, donor type, donor heavy atom, donor atom, acceptor molecule, acceptor atom, score
      L1  H    12    37       P1  7948  1.00
      L1  H    15    38       P1  7948  0.82
      P1  H  7997  8009       L1     3  0.83

> <Gold.PLP.Chemscore.Internal.Correction>
0.0227

> <Gold.Rescore>
     Score         DG    S(hbond)    S(metal)    S(lipo)     H(rot)  DE(clash)    DE(int)     intcor
     18.94     -19.59       2.54        0.00      79.95       1.45       0.17       0.48       ----

> <Gold.Chemscore.Fitness>
18.9371

> <Gold.Chemscore.DG>
-19.5909

> <Gold.Chemscore.ZeroCoef>
-5.4800

> <Gold.Chemscore.Hbond>
2.5355

> <Gold.Chemscore.Metal>
0.0000

> <Gold.Chemscore.Lipo>
79.9501

> <Gold.Chemscore.Internal_Hbond>
0.0000

> <Gold.Chemscore.DEClash>
0.1693

> <Gold.Chemscore.DEInternal>
0.4845

> <Gold.Chemscore.Rot>
1.4499

> <Gold.Chemscore.Internal.Correction>
   9.000000E+99

> <Gold.Chemscore.Hbonds>
donor molecule, donor type, donor heavy atom, donor atom, acceptor molecule, acceptor atom, score
      L1  H    12    37       P1  7948  0.96
      L1  H    15    38       P1  7948  0.76
      P1  H  7997  8009       L1     3  0.18

> <Gold.Chemscore.Hbond.Weighted>
-8.4686

> <Gold.Chemscore.Metal.Weighted>
-0.0000

> <Gold.Chemscore.Lipo.Weighted>
-9.3542

> <Gold.Chemscore.Internal_Hbond.Weighted>
0.0000

> <Gold.Chemscore.DEClash.Weighted>
0.1693

> <Gold.Chemscore.DEInternal.Weighted>
0.4845

> <Gold.Chemscore.Rot.Weighted>
3.7118

> <Gold.Chemscore.Internal.Correction.Weighted>
   9.000000E+99

> <Gold.Protein.RotatedTorsions>
[ 6907 6896 6895 6894 ] final   64.21 input  -60.11 | X-H torsion
[ 7974 7965 7964 7962 ] final  -72.38 input  175.53 | X-H torsion
[ 8008 7997 7996 7995 ] final -161.60 input   59.86 | X-H torsion
[ 10167 10162 10161 10158 ] final  -58.81 input  -65.29 | X-H torsion
[ 10718 10713 10712 10709 ] final   26.72 input   66.30 | X-H torsion
[ 10763 10752 10751 10750 ] final   -6.83 input  -60.55 | X-H torsion
[ 11005 11000 10999 10996 ] final   39.01 input  -57.11 | X-H torsion

> <Gold.Protein.ActiveResidues>
 VAL166  LYS551  ARG553  GLY616  TRP617  ASP618  TYR619  PRO620  LYS621  CYS622 
 ASP623  PHE694  ASN695  SER759  ASP760  ASP761  ALA762  ILE779  LEU786  VAL792 
 PHE793  MET794  SER795  GLU796  ALA797  LYS798  CYS799  TRP800  GLU811  SER814 

> <Gold.Protein.RotatedAtoms>
  152.4314  134.5771  159.9937 H   0  0  0  0  0  0  0  0  0  0  0  0  # atno 6907 bound_to 6896
  151.5893  133.3362  159.3032 H   0  0  0  0  0  0  0  0  0  0  0  0  # atno 6908 bound_to 6896
  150.8207  134.7449  159.6834 H   0  0  0  0  0  0  0  0  0  0  0  0  # atno 6909 bound_to 6896
  145.6659  140.9237  143.0909 H   0  0  0  0  0  0  0  0  0  0  0  0  # atno 7974 bound_to 7965
  155.7946  140.0883  157.1990 H   0  0  0  0  0  0  0  0  0  0  0  0  # atno 8008 bound_to 7997
  154.3984  140.1483  156.3261 H   0  0  0  0  0  0  0  0  0  0  0  0  # atno 8009 bound_to 7997
  155.8524  140.3434  155.5705 H   0  0  0  0  0  0  0  0  0  0  0  0  # atno 8010 bound_to 7997
  140.6174  143.2407  151.5564 H   0  0  0  0  0  0  0  0  0  0  0  0  # atno 10167 bound_to 10162
  157.2107  130.6932  149.6227 H   0  0  0  0  0  0  0  0  0  0  0  0  # atno 10718 bound_to 10713
  153.4179  135.7009  153.6314 H   0  0  0  0  0  0  0  0  0  0  0  0  # atno 10763 bound_to 10752
  153.4781  135.3699  155.2428 H   0  0  0  0  0  0  0  0  0  0  0  0  # atno 10764 bound_to 10752
  154.8720  135.4059  154.3542 H   0  0  0  0  0  0  0  0  0  0  0  0  # atno 10765 bound_to 10752
  140.2070  134.3802  155.8068 H   0  0  0  0  0  0  0  0  0  0  0  0  # atno 11005 bound_to 11000
  144.7073  139.8509  143.7426 LP  0  0  0  0  0  0  0  0  0  0  0  0  # atno 17320 bound_to 7965
  146.1087  139.4089  143.0301 LP  0  0  0  0  0  0  0  0  0  0  0  0  # atno 17321 bound_to 7965
  139.5410  144.2648  152.1350 LP  0  0  0  0  0  0  0  0  0  0  0  0  # atno 17342 bound_to 10162
  140.1861  144.4798  150.6503 LP  0  0  0  0  0  0  0  0  0  0  0  0  # atno 17343 bound_to 10162
  155.9691  130.4552  150.5879 LP  0  0  0  0  0  0  0  0  0  0  0  0  # atno 17370 bound_to 10713
  157.3675  131.0760  151.1585 LP  0  0  0  0  0  0  0  0  0  0  0  0  # atno 17371 bound_to 10713
  141.2227  133.7123  156.8353 LP  0  0  0  0  0  0  0  0  0  0  0  0  # atno 17394 bound_to 11000
  140.1992  134.8909  157.3150 LP  0  0  0  0  0  0  0  0  0  0  0  0  # atno 17395 bound_to 11000

$$$$
