AV-unprocessed.smi:1047|AV-procd|sdf|4598|dock7
  -GOLD-   22720 3 83D 1   1.00000     0.00000
 Structure written by MMmdl.
 57 59  0  0  0  0  0  0  0  0  3 V2000
  145.7697  136.3537  151.6303 C   0  0  0  0  0  0  0  0  0  0  0  0
  145.1324  136.6256  153.0004 C   0  0  0  0  0  0  0  0  0  0  0  0
  145.3782  138.0120  153.4793 N   0  3  1  0  0  0  0  0  0  0  0  0
  144.8993  138.2526  154.8624 C   0  0  0  0  0  0  0  0  0  0  0  0
  145.8738  137.6644  155.8986 C   0  0  0  0  0  0  0  0  0  0  0  0
  147.1701  138.2133  155.6936 O   0  0  0  0  0  0  0  0  0  0  0  0
  147.7048  137.8922  154.4138 C   0  0  2  0  0  0  0  0  0  0  0  0
  149.1300  138.4637  154.3500 C   0  0  0  0  0  0  0  0  0  0  0  0
  150.0294  137.7590  155.2595 N   0  0  0  0  0  0  0  0  0  0  0  0
  151.4226  137.7709  154.8218 C   0  0  0  0  0  0  0  0  0  0  0  0
  152.0931  139.1206  155.1289 C   0  0  2  0  0  0  0  0  0  0  0  0
  153.4762  138.9965  154.8620 O   0  0  0  0  0  0  0  0  0  0  0  0
  151.8920  139.5346  156.6006 C   0  0  0  0  0  0  0  0  0  0  0  0
  151.3629  140.8988  156.7476 N   0  0  0  0  0  0  0  0  0  0  0  0
  150.5737  141.6189  155.9051 C   0  0  0  0  0  0  0  0  0  0  0  0
  150.3494  142.8298  156.4858 N   0  3  0  0  0  0  0  0  0  0  0  0
  151.0058  142.8853  157.7170 C   0  0  0  0  0  0  0  0  0  0  0  0
  151.0764  143.8988  158.6655 C   0  0  0  0  0  0  0  0  0  0  0  0
  151.8391  143.6433  159.8273 C   0  0  0  0  0  0  0  0  0  0  0  0
  151.9392  144.7312  160.8831 C   0  0  0  0  0  0  0  0  0  0  0  0
  152.5006  142.4010  160.0074 C   0  0  0  0  0  0  0  0  0  0  0  0
  153.3227  142.1387  161.2577 C   0  0  0  0  0  0  0  0  0  0  0  0
  152.4145  141.3822  159.0318 C   0  0  0  0  0  0  0  0  0  0  0  0
  151.6587  141.6495  157.8924 C   0  0  0  0  0  0  0  0  0  0  0  0
  146.7779  138.4870  153.3280 C   0  0  0  0  0  0  0  0  0  0  0  0
  145.4835  135.3667  151.2660 H   0  0  0  0  0  0  0  0  0  0  0  0
  146.8582  136.3769  151.6715 H   0  0  0  0  0  0  0  0  0  0  0  0
  145.4427  137.0847  150.8900 H   0  0  0  0  0  0  0  0  0  0  0  0
  144.0572  136.4735  152.8985 H   0  0  0  0  0  0  0  0  0  0  0  0
  145.4752  135.8922  153.7299 H   0  0  0  0  0  0  0  0  0  0  0  0
  144.8197  139.3298  155.0152 H   0  0  0  0  0  0  0  0  0  0  0  0
  143.8953  137.8499  155.0000 H   0  0  0  0  0  0  0  0  0  0  0  0
  145.5426  137.9141  156.9067 H   0  0  0  0  0  0  0  0  0  0  0  0
  145.9092  136.5758  155.8388 H   0  0  0  0  0  0  0  0  0  0  0  0
  147.7615  136.8063  154.3228 H   0  0  0  0  0  0  0  0  0  0  0  0
  149.5056  138.4173  153.3271 H   0  0  0  0  0  0  0  0  0  0  0  0
  149.1015  139.5197  154.6215 H   0  0  0  0  0  0  0  0  0  0  0  0
  149.7180  136.8000  155.3760 H   0  0  0  0  0  0  0  0  0  0  0  0
  151.9614  136.9804  155.3459 H   0  0  0  0  0  0  0  0  0  0  0  0
  151.4979  137.5409  153.7578 H   0  0  0  0  0  0  0  0  0  0  0  0
  151.6798  139.8982  154.4846 H   0  0  0  0  0  0  0  0  0  0  0  0
  153.5922  138.3463  154.1858 H   0  0  0  0  0  0  0  0  0  0  0  0
  151.1760  138.8642  157.0776 H   0  0  0  0  0  0  0  0  0  0  0  0
  152.8178  139.4440  157.1694 H   0  0  0  0  0  0  0  0  0  0  0  0
  150.1927  141.2889  154.9493 H   0  0  0  0  0  0  0  0  0  0  0  0
  150.5716  144.8429  158.5203 H   0  0  0  0  0  0  0  0  0  0  0  0
  152.9772  145.0334  161.0234 H   0  0  0  0  0  0  0  0  0  0  0  0
  151.5489  144.3769  161.8375 H   0  0  0  0  0  0  0  0  0  0  0  0
  151.3697  145.6169  160.5993 H   0  0  0  0  0  0  0  0  0  0  0  0
  153.7651  141.1420  161.2427 H   0  0  0  0  0  0  0  0  0  0  0  0
  152.6994  142.2127  162.1492 H   0  0  0  0  0  0  0  0  0  0  0  0
  154.1344  142.8616  161.3407 H   0  0  0  0  0  0  0  0  0  0  0  0
  152.9241  140.4395  159.1665 H   0  0  0  0  0  0  0  0  0  0  0  0
  147.1568  138.2695  152.3303 H   0  0  0  0  0  0  0  0  0  0  0  0
  146.7736  139.5742  153.4155 H   0  0  0  0  0  0  0  0  0  0  0  0
  144.8089  138.5986  152.8858 H   0  0  0  0  0  0  0  0  0  0  0  0
  149.7891  143.5628  156.0699 H   0  0  0  0  0  0  0  0  0  0  0  0
  1  2  1  0  0  0  0
  1 26  1  0  0  0  0
  1 27  1  0  0  0  0
  1 28  1  0  0  0  0
  2  3  1  0  0  0  0
  2 29  1  0  0  0  0
  2 30  1  0  0  0  0
  3 25  1  0  0  0  0
  3  4  1  0  0  0  0
  3 56  1  0  0  0  0
  4  5  1  0  0  0  0
  4 31  1  0  0  0  0
  4 32  1  0  0  0  0
  5  6  1  0  0  0  0
  5 33  1  0  0  0  0
  5 34  1  0  0  0  0
  6  7  1  0  0  0  0
  7  8  1  0  0  0  0
  7 25  1  0  0  0  0
  7 35  1  0  0  0  0
  8  9  1  0  0  0  0
  8 36  1  0  0  0  0
  8 37  1  0  0  0  0
  9 10  1  0  0  0  0
  9 38  1  0  0  0  0
 10 11  1  0  0  0  0
 10 39  1  0  0  0  0
 10 40  1  0  0  0  0
 11 12  1  0  0  0  0
 11 13  1  0  0  0  0
 11 41  1  0  0  0  0
 12 42  1  0  0  0  0
 13 14  1  0  0  0  0
 13 43  1  0  0  0  0
 13 44  1  0  0  0  0
 14 24  1  0  0  0  0
 14 15  1  0  0  0  0
 15 16  2  0  0  0  0
 15 45  1  0  0  0  0
 16 17  1  0  0  0  0
 16 57  1  0  0  0  0
 17 24  2  0  0  0  0
 17 18  1  0  0  0  0
 18 19  2  0  0  0  0
 18 46  1  0  0  0  0
 19 20  1  0  0  0  0
 19 21  1  0  0  0  0
 20 47  1  0  0  0  0
 20 48  1  0  0  0  0
 20 49  1  0  0  0  0
 21 22  1  0  0  0  0
 21 23  2  0  0  0  0
 22 50  1  0  0  0  0
 22 51  1  0  0  0  0
 22 52  1  0  0  0  0
 23 24  1  0  0  0  0
 23 53  1  0  0  0  0
 25 54  1  0  0  0  0
 25 55  1  0  0  0  0
M  CHG  1   3   1
M  CHG  1  16   1
M  END
> <s_m_source_file>
AV-unprocessed.smi

> <i_m_source_file_index>
1047

> <i_lp_mmshare_version>
43012

> <i_f3d_flags>
0

> <s_epik_input>
W0NIM11bQ0gyXU4xW0NIMl1bQ0gyXU9bQ0BIXShbQ0gyXTEpW0NIMl1bTkhdW0NIMl1bQ0BIXShbT0hdKVtDSDJdbihbY0hdbjIpYyhjMjMpW2NIXWMoW0NIM10pYyhbY0hdMylbQ0gzXQ==

> <s_epik_cmdline>
J2VwaWtfcHl0aG9uJywgJy1waCcsICc3LjAnLCAnLXRuJywgJzgnLCAnLW1hJywgJzIwMCcsICctbWV0YWxfYmluZGluZycsICctaW1hZScsICc8aW5maWxlLm1hZT4nLCAnLW9tYWUnLCAnPG91dGZpbGUubWFlPic=

> <r_epik_Ionization_Penalty>
2.03028

> <r_epik_Ionization_Penalty_Charging>
1.21256

> <r_epik_Ionization_Penalty_Neutral>
0.817715

> <r_epik_State_Penalty>
2.54959

> <r_epik_Charging_Adjusted_Penalty>
3.76215

> <i_epik_Tot_Q>
2

> <i_epik_Tot_abs_Q>
2

> <r_epik_Metal_State_Penalty>
6.52811

> <b_epik_Metal_Only>
0

> <s_lp_Force_Field>
OPLS_2005

> <r_lp_Energy>
38.5552

> <b_lp_Chiralities_Consistent>
1

> <s_lp_Variant>
AV-unprocessed.smi:1047-39

> <Gold.Version>
5.8.1

> <Gold.Id.Protein>
6NUR|6NUR_protein|mol2

> <Gold.PLP.Fitness>
60.2270

> <Gold.PLP.PLP>
-48.0881

> <Gold.PLP.part.hbond>
-3.0000

> <Gold.PLP.part.metal>
0.0000

> <Gold.PLP.part.buried>
-7.4836

> <Gold.PLP.part.nonpolar>
-38.8376

> <Gold.PLP.part.repulsive>
0.0855

> <Gold.PLP.ligand.clash>
0.0000

> <Gold.PLP.ligand.torsion>
1.4657

> <Gold.PLP.Chemscore.Hbond>
5.0000

> <Gold.PLP.Chemscore.CHOScore>
0.0000

> <Gold.PLP.Chemscore.Metal>
0.0000

> <Gold.Chemscore.Hbonds>
donor molecule, donor type, donor heavy atom, donor atom, acceptor molecule, acceptor atom, score
      L1  H     3    56       P1 10175  1.07
      L1  H    16    57       P1  8028  1.95
      P1  H  7997  8009       L1    12  1.00

> <Gold.PLP.Chemscore.Internal.Correction>
0.0704

> <Gold.Rescore>
     Score         DG    S(hbond)    S(metal)    S(lipo)     H(rot)  DE(clash)    DE(int)     intcor
     21.33     -22.75       2.73        0.00     128.96       2.71       0.01       1.41       ----

> <Gold.Chemscore.Fitness>
21.3254

> <Gold.Chemscore.DG>
-22.7489

> <Gold.Chemscore.ZeroCoef>
-5.4800

> <Gold.Chemscore.Hbond>
2.7292

> <Gold.Chemscore.Metal>
0.0000

> <Gold.Chemscore.Lipo>
128.9582

> <Gold.Chemscore.Internal_Hbond>
0.0000

> <Gold.Chemscore.DEClash>
0.0126

> <Gold.Chemscore.DEInternal>
1.4109

> <Gold.Chemscore.Rot>
2.7088

> <Gold.Chemscore.Internal.Correction>
   9.000000E+99

> <Gold.Chemscore.Hbonds>
donor molecule, donor type, donor heavy atom, donor atom, acceptor molecule, acceptor atom, score
      L1  H     3    56       P1 10175  0.52
      L1  H    16    57       P1  8028  0.92
      P1  H  7997  8009       L1    12  0.87

> <Gold.Chemscore.Hbond.Weighted>
-9.1154

> <Gold.Chemscore.Metal.Weighted>
-0.0000

> <Gold.Chemscore.Lipo.Weighted>
-15.0881

> <Gold.Chemscore.Internal_Hbond.Weighted>
0.0000

> <Gold.Chemscore.DEClash.Weighted>
0.0126

> <Gold.Chemscore.DEInternal.Weighted>
1.4109

> <Gold.Chemscore.Rot.Weighted>
6.9346

> <Gold.Chemscore.Internal.Correction.Weighted>
   9.000000E+99

> <Gold.Protein.RotatedTorsions>
[ 6907 6896 6895 6894 ] final  121.37 input  -60.11 | X-H torsion
[ 7974 7965 7964 7962 ] final -173.21 input  175.53 | X-H torsion
[ 8008 7997 7996 7995 ] final -129.87 input   59.86 | X-H torsion
[ 10167 10162 10161 10158 ] final   87.67 input  -65.29 | X-H torsion
[ 10718 10713 10712 10709 ] final  167.82 input   66.30 | X-H torsion
[ 10763 10752 10751 10750 ] final  -87.20 input  -60.55 | X-H torsion
[ 11005 11000 10999 10996 ] final  -52.70 input  -57.11 | X-H torsion

> <Gold.Protein.ActiveResidues>
 VAL166  LYS551  ARG553  GLY616  TRP617  ASP618  TYR619  PRO620  LYS621  CYS622 
 ASP623  PHE694  ASN695  SER759  ASP760  ASP761  ALA762  ILE779  LEU786  VAL792 
 PHE793  MET794  SER795  GLU796  ALA797  LYS798  CYS799  TRP800  GLU811  SER814 

> <Gold.Protein.RotatedAtoms>
  152.4326  133.7305  159.6584 H   0  0  0  0  0  0  0  0  0  0  0  0  # atno 6907 bound_to 6896
  150.8207  133.8247  159.3146 H   0  0  0  0  0  0  0  0  0  0  0  0  # atno 6908 bound_to 6896
  151.5930  135.1054  160.0095 H   0  0  0  0  0  0  0  0  0  0  0  0  # atno 6909 bound_to 6896
  144.7140  140.1656  143.6372 H   0  0  0  0  0  0  0  0  0  0  0  0  # atno 7974 bound_to 7965
  155.2864  140.0446  157.3019 H   0  0  0  0  0  0  0  0  0  0  0  0  # atno 8008 bound_to 7997
  154.5567  140.2334  155.8367 H   0  0  0  0  0  0  0  0  0  0  0  0  # atno 8009 bound_to 7997
  156.2013  140.3025  155.9539 H   0  0  0  0  0  0  0  0  0  0  0  0  # atno 8010 bound_to 7997
  139.8750  144.6472  150.8907 H   0  0  0  0  0  0  0  0  0  0  0  0  # atno 10167 bound_to 10162
  157.0460  131.0300  151.2697 H   0  0  0  0  0  0  0  0  0  0  0  0  # atno 10718 bound_to 10713
  154.6310  135.5422  153.7680 H   0  0  0  0  0  0  0  0  0  0  0  0  # atno 10763 bound_to 10752
  153.0284  135.6436  154.1301 H   0  0  0  0  0  0  0  0  0  0  0  0  # atno 10764 bound_to 10752
  154.1231  135.2919  155.3183 H   0  0  0  0  0  0  0  0  0  0  0  0  # atno 10765 bound_to 10752
  141.0938  133.6628  156.4063 H   0  0  0  0  0  0  0  0  0  0  0  0  # atno 11005 bound_to 11000
  145.8990  139.2419  143.1504 LP  0  0  0  0  0  0  0  0  0  0  0  0  # atno 17320 bound_to 7965
  145.9829  140.8668  143.0105 LP  0  0  0  0  0  0  0  0  0  0  0  0  # atno 17321 bound_to 7965
  140.7754  143.3632  151.1788 LP  0  0  0  0  0  0  0  0  0  0  0  0  # atno 17342 bound_to 10162
  139.7249  143.9165  152.2999 LP  0  0  0  0  0  0  0  0  0  0  0  0  # atno 17343 bound_to 10162
  157.5068  130.7913  149.7662 LP  0  0  0  0  0  0  0  0  0  0  0  0  # atno 17370 bound_to 10713
  156.0023  130.3874  150.2560 LP  0  0  0  0  0  0  0  0  0  0  0  0  # atno 17371 bound_to 10713
  140.5189  134.6323  157.5311 LP  0  0  0  0  0  0  0  0  0  0  0  0  # atno 17394 bound_to 11000
  139.9769  134.7200  155.9932 LP  0  0  0  0  0  0  0  0  0  0  0  0  # atno 17395 bound_to 11000

$$$$
