AV-unprocessed.smi:2026|AV-procd|sdf|8201|dock5
  -GOLD-   2272010453D 1   1.00000     0.00000
 Structure written by MMmdl.
 46 48  0  0  0  0  0  0  0  0  1 V2000
  152.7138  142.6058  161.4406 C   0  0  0  0  0  0  0  0  0  0  0  0
  152.1348  142.3216  160.0661 C   0  0  0  0  0  0  0  0  0  0  0  0
  152.6140  141.2110  159.3342 C   0  0  0  0  0  0  0  0  0  0  0  0
  152.0991  140.9108  158.0536 C   0  0  0  0  0  0  0  0  0  0  0  0
  152.4117  139.8899  157.1714 N   0  0  0  0  0  0  0  0  0  0  0  0
  151.5920  140.1512  156.1561 C   0  0  0  0  0  0  0  0  0  0  0  0
  150.7861  141.2232  156.2776 N   0  0  0  0  0  0  0  0  0  0  0  0
  149.8173  141.7204  155.3205 C   0  0  0  0  0  0  0  0  0  0  0  0
  149.1449  140.5760  154.5349 C   0  0  2  0  0  0  0  0  0  0  0  0
  150.0162  140.1311  153.5152 O   0  0  0  0  0  0  0  0  0  0  0  0
  147.7950  140.9661  153.8974 C   0  0  0  0  0  0  0  0  0  0  0  0
  146.8312  141.4597  154.8893 N   0  0  0  0  0  0  0  0  0  0  0  0
  146.0719  142.5596  154.7347 C   0  0  0  0  0  0  0  0  0  0  0  0
  146.0533  143.3056  153.7569 O   0  0  0  0  0  0  0  0  0  0  0  0
  145.3340  142.7209  155.8409 N   0  0  0  0  0  0  0  0  0  0  0  0
  145.5789  141.6968  156.8381 C   0  0  0  0  0  0  0  0  0  0  0  0
  146.1666  142.3109  158.1218 C   0  0  0  0  0  0  0  0  0  0  0  0
  144.3036  140.8797  157.1114 C   0  0  0  0  0  0  0  0  0  0  0  0
  146.6163  140.8834  156.0801 C   0  0  0  0  0  0  0  0  0  0  0  0
  147.1566  139.8709  156.5257 O   0  0  0  0  0  0  0  0  0  0  0  0
  151.0863  141.7607  157.5229 C   0  0  0  0  0  0  0  0  0  0  0  0
  150.6020  142.8683  158.2397 C   0  0  0  0  0  0  0  0  0  0  0  0
  151.1263  143.1542  159.5168 C   0  0  0  0  0  0  0  0  0  0  0  0
  150.5936  144.3525  160.2826 C   0  0  0  0  0  0  0  0  0  0  0  0
  153.4183  141.8311  161.7442 H   0  0  0  0  0  0  0  0  0  0  0  0
  151.9226  142.6478  162.1894 H   0  0  0  0  0  0  0  0  0  0  0  0
  153.2417  143.5597  161.4401 H   0  0  0  0  0  0  0  0  0  0  0  0
  153.3829  140.5777  159.7520 H   0  0  0  0  0  0  0  0  0  0  0  0
  151.5758  139.5278  155.2740 H   0  0  0  0  0  0  0  0  0  0  0  0
  149.0774  142.2908  155.8814 H   0  0  0  0  0  0  0  0  0  0  0  0
  150.3051  142.4240  154.6446 H   0  0  0  0  0  0  0  0  0  0  0  0
  148.9853  139.7281  155.2017 H   0  0  0  0  0  0  0  0  0  0  0  0
  149.6386  140.3532  152.6781 H   0  0  0  0  0  0  0  0  0  0  0  0
  147.9547  141.7050  153.1102 H   0  0  0  0  0  0  0  0  0  0  0  0
  147.3597  140.0979  153.3991 H   0  0  0  0  0  0  0  0  0  0  0  0
  144.6810  143.4778  155.9834 H   0  0  0  0  0  0  0  0  0  0  0  0
  146.3855  141.5423  158.8639 H   0  0  0  0  0  0  0  0  0  0  0  0
  145.4680  143.0151  158.5744 H   0  0  0  0  0  0  0  0  0  0  0  0
  147.0936  142.8510  157.9244 H   0  0  0  0  0  0  0  0  0  0  0  0
  144.4817  140.1073  157.8605 H   0  0  0  0  0  0  0  0  0  0  0  0
  143.9377  140.3861  156.2099 H   0  0  0  0  0  0  0  0  0  0  0  0
  143.5022  141.5187  157.4836 H   0  0  0  0  0  0  0  0  0  0  0  0
  149.8297  143.4889  157.8101 H   0  0  0  0  0  0  0  0  0  0  0  0
  149.8747  144.9169  159.6873 H   0  0  0  0  0  0  0  0  0  0  0  0
  151.4054  145.0279  160.5534 H   0  0  0  0  0  0  0  0  0  0  0  0
  150.0927  144.0285  161.1950 H   0  0  0  0  0  0  0  0  0  0  0  0
  1  2  1  0  0  0  0
  1 25  1  0  0  0  0
  1 26  1  0  0  0  0
  1 27  1  0  0  0  0
  2 23  1  0  0  0  0
  2  3  2  0  0  0  0
  3  4  1  0  0  0  0
  3 28  1  0  0  0  0
  4 21  2  0  0  0  0
  4  5  1  0  0  0  0
  5  6  2  0  0  0  0
  6  7  1  0  0  0  0
  6 29  1  0  0  0  0
  7  8  1  0  0  0  0
  7 21  1  0  0  0  0
  8  9  1  0  0  0  0
  8 30  1  0  0  0  0
  8 31  1  0  0  0  0
  9 10  1  0  0  0  0
  9 11  1  0  0  0  0
  9 32  1  0  0  0  0
 10 33  1  0  0  0  0
 11 12  1  0  0  0  0
 11 34  1  0  0  0  0
 11 35  1  0  0  0  0
 12 19  1  0  0  0  0
 12 13  1  0  0  0  0
 13 14  2  0  0  0  0
 13 15  1  0  0  0  0
 15 16  1  0  0  0  0
 15 36  1  0  0  0  0
 16 17  1  0  0  0  0
 16 18  1  0  0  0  0
 16 19  1  0  0  0  0
 17 37  1  0  0  0  0
 17 38  1  0  0  0  0
 17 39  1  0  0  0  0
 18 40  1  0  0  0  0
 18 41  1  0  0  0  0
 18 42  1  0  0  0  0
 19 20  2  0  0  0  0
 21 22  1  0  0  0  0
 22 23  2  0  0  0  0
 22 43  1  0  0  0  0
 23 24  1  0  0  0  0
 24 44  1  0  0  0  0
 24 45  1  0  0  0  0
 24 46  1  0  0  0  0
M  END
> <s_m_source_file>
AV-unprocessed.smi

> <i_m_source_file_index>
2026

> <i_lp_mmshare_version>
43012

> <i_f3d_flags>
0

> <s_epik_input>
W0NIM11jKFtjSF0xKWMoW0NIM10pW2NIXWMoYzEyKW4oW2NIXW4yKVtDSDJdW0NASF0oW09IXSlbQ0gyXU4oQzM9TylDKD1PKVtOSF1DMyhbQ0gzXSlbQ0gzXQ==

> <s_epik_cmdline>
J2VwaWtfcHl0aG9uJywgJy1waCcsICc3LjAnLCAnLXRuJywgJzgnLCAnLW1hJywgJzIwMCcsICctbWV0YWxfYmluZGluZycsICctaW1hZScsICc8aW5maWxlLm1hZT4nLCAnLW9tYWUnLCAnPG91dGZpbGUubWFlPic=

> <r_lp_tautomer_probability>
1

> <r_epik_Ionization_Penalty>
0.103994

> <r_epik_Ionization_Penalty_Charging>
0

> <r_epik_Ionization_Penalty_Neutral>
0.103994

> <r_epik_State_Penalty>
0.0938482

> <r_epik_Charging_Adjusted_Penalty>
0.0938482

> <i_epik_Tot_Q>
0

> <i_epik_Tot_abs_Q>
0

> <r_epik_Metal_State_Penalty>
0.106997

> <b_epik_Metal_Only>
0

> <s_lp_Force_Field>
OPLS_2005

> <r_lp_Energy>
21.0149

> <b_lp_Chiralities_Consistent>
1

> <s_lp_Variant>
AV-unprocessed.smi:2026-1

> <Gold.Version>
5.8.1

> <Gold.Id.Protein>
6NUR|6NUR_protein|mol2

> <Gold.PLP.Fitness>
52.2144

> <Gold.PLP.PLP>
-45.5290

> <Gold.PLP.part.hbond>
-3.5628

> <Gold.PLP.part.metal>
0.0000

> <Gold.PLP.part.buried>
-5.4730

> <Gold.PLP.part.nonpolar>
-36.9125

> <Gold.PLP.part.repulsive>
0.2351

> <Gold.PLP.ligand.clash>
0.0000

> <Gold.PLP.ligand.torsion>
0.7310

> <Gold.PLP.Chemscore.Hbond>
2.7120

> <Gold.PLP.Chemscore.CHOScore>
0.0000

> <Gold.PLP.Chemscore.Metal>
0.0000

> <Gold.Chemscore.Hbonds>
donor molecule, donor type, donor heavy atom, donor atom, acceptor molecule, acceptor atom, score
      L1  H    10    33       P1  7957  0.91
      P1  H  7989  7998       L1    10  0.64
      P1  H  7997  8008       L1     5  0.96

> <Gold.PLP.Chemscore.Internal.Correction>
0.0113

> <Gold.Rescore>
     Score         DG    S(hbond)    S(metal)    S(lipo)     H(rot)  DE(clash)    DE(int)     intcor
     16.14     -16.88       1.87        0.00      97.35       2.44       0.28       0.45       ----

> <Gold.Chemscore.Fitness>
16.1431

> <Gold.Chemscore.DG>
-16.8756

> <Gold.Chemscore.ZeroCoef>
-5.4800

> <Gold.Chemscore.Hbond>
1.8686

> <Gold.Chemscore.Metal>
0.0000

> <Gold.Chemscore.Lipo>
97.3509

> <Gold.Chemscore.Internal_Hbond>
0.0000

> <Gold.Chemscore.DEClash>
0.2803

> <Gold.Chemscore.DEInternal>
0.4522

> <Gold.Chemscore.Rot>
2.4358

> <Gold.Chemscore.Internal.Correction>
   9.000000E+99

> <Gold.Chemscore.Hbonds>
donor molecule, donor type, donor heavy atom, donor atom, acceptor molecule, acceptor atom, score
      L1  H    10    33       P1  7957  0.85
      P1  H  7989  7998       L1    10  0.24
      P1  H  7997  8008       L1     5  0.44

> <Gold.Chemscore.Hbond.Weighted>
-6.2412

> <Gold.Chemscore.Metal.Weighted>
-0.0000

> <Gold.Chemscore.Lipo.Weighted>
-11.3901

> <Gold.Chemscore.Internal_Hbond.Weighted>
0.0000

> <Gold.Chemscore.DEClash.Weighted>
0.2803

> <Gold.Chemscore.DEInternal.Weighted>
0.4522

> <Gold.Chemscore.Rot.Weighted>
6.2357

> <Gold.Chemscore.Internal.Correction.Weighted>
   9.000000E+99

> <Gold.Protein.RotatedTorsions>
[ 6907 6896 6895 6894 ] final  129.89 input  -60.11 | X-H torsion
[ 7974 7965 7964 7962 ] final  115.98 input  175.53 | X-H torsion
[ 8008 7997 7996 7995 ] final  -53.24 input   59.86 | X-H torsion
[ 10167 10162 10161 10158 ] final   23.11 input  -65.29 | X-H torsion
[ 10718 10713 10712 10709 ] final  -62.54 input   66.30 | X-H torsion
[ 10763 10752 10751 10750 ] final -171.71 input  -60.55 | X-H torsion
[ 11005 11000 10999 10996 ] final  139.61 input  -57.11 | X-H torsion

> <Gold.Protein.ActiveResidues>
 VAL166  LYS551  ARG553  GLY616  TRP617  ASP618  TYR619  PRO620  LYS621  CYS622 
 ASP623  PHE694  ASN695  SER759  ASP760  ASP761  ALA762  ILE779  LEU786  VAL792 
 PHE793  MET794  SER795  GLU796  ALA797  LYS798  CYS799  TRP800  GLU811  SER814 

> <Gold.Protein.RotatedAtoms>
  152.3580  133.6261  159.5993 H   0  0  0  0  0  0  0  0  0  0  0  0  # atno 6907 bound_to 6896
  150.7582  133.9469  159.3482 H   0  0  0  0  0  0  0  0  0  0  0  0  # atno 6908 bound_to 6896
  151.7311  135.0875  160.0351 H   0  0  0  0  0  0  0  0  0  0  0  0  # atno 6909 bound_to 6896
  145.1853  139.3028  143.4397 H   0  0  0  0  0  0  0  0  0  0  0  0  # atno 7974 bound_to 7965
  154.4128  140.1205  156.5121 H   0  0  0  0  0  0  0  0  0  0  0  0  # atno 8008 bound_to 7997
  155.6788  140.3496  155.4828 H   0  0  0  0  0  0  0  0  0  0  0  0  # atno 8009 bound_to 7997
  155.9569  140.1115  157.0919 H   0  0  0  0  0  0  0  0  0  0  0  0  # atno 8010 bound_to 7997
  140.5295  143.9866  150.6458 H   0  0  0  0  0  0  0  0  0  0  0  0  # atno 10167 bound_to 10162
  156.0849  130.4210  150.1149 H   0  0  0  0  0  0  0  0  0  0  0  0  # atno 10718 bound_to 10713
  154.6274  135.2882  155.0256 H   0  0  0  0  0  0  0  0  0  0  0  0  # atno 10763 bound_to 10752
  154.1429  135.6515  153.4950 H   0  0  0  0  0  0  0  0  0  0  0  0  # atno 10764 bound_to 10752
  153.0264  135.5337  154.7088 H   0  0  0  0  0  0  0  0  0  0  0  0  # atno 10765 bound_to 10752
  140.0267  134.9371  157.0583 H   0  0  0  0  0  0  0  0  0  0  0  0  # atno 11005 bound_to 11000
  146.3446  140.2046  142.8589 LP  0  0  0  0  0  0  0  0  0  0  0  0  # atno 17320 bound_to 7965
  145.0096  140.8702  143.5232 LP  0  0  0  0  0  0  0  0  0  0  0  0  # atno 17321 bound_to 7965
  140.3237  143.3121  152.0758 LP  0  0  0  0  0  0  0  0  0  0  0  0  # atno 17342 bound_to 10162
  139.4949  144.6556  151.6579 LP  0  0  0  0  0  0  0  0  0  0  0  0  # atno 17343 bound_to 10162
  156.9173  130.9671  151.3554 LP  0  0  0  0  0  0  0  0  0  0  0  0  # atno 17370 bound_to 10713
  157.5979  130.8491  149.8757 LP  0  0  0  0  0  0  0  0  0  0  0  0  # atno 17371 bound_to 10713
  140.4294  134.1796  155.7167 LP  0  0  0  0  0  0  0  0  0  0  0  0  # atno 17394 bound_to 11000
  141.1807  133.8420  157.1267 LP  0  0  0  0  0  0  0  0  0  0  0  0  # atno 17395 bound_to 11000

$$$$
