#       Name:                AV-unprocessed.smi:1196
#       Creating user name   scv26
#       Creation time:       Fri Mar 27 04:01:37 2020


#       File generated by GOLD software.
#

@<TRIPOS>MOLECULE
AV-unprocessed.smi:1196
    44    45     1
SMALL
NO_CHARGES


@<TRIPOS>ATOM
      1 ****        -3.1079  -1.6597   2.3416 C.3            1 S1                 0.0000
      2 ****        -2.5342  -0.8666   1.1597 C.3            1 S1                 0.0000
      3 ****        -2.9050  -1.5170  -0.1902 C.3            1 S1                 0.0000
      4 ****        -2.4658  -0.7287  -1.3293 N.pl3          1 S1                 0.0000
      5 ****        -3.0219   0.4262  -1.8374 C.2            1 S1                 0.0000
      6 ****        -2.2502   0.8181  -2.8935 C.2            1 S1                 0.0000
      7 ****        -1.2336  -0.1755  -2.9570 C.2            1 S1                 0.0000
      8 ****        -1.3692  -1.1036  -2.0236 N.2            1 S1                 0.0000
      9 ****        -1.0820  -0.7715   1.3054 N.am           1 S1                 0.0000
     10 ****        -0.3473   0.3344   1.1044 C.2            1 S1                 0.0000
     11 ****        -0.8335   1.4337   0.8376 O.2            1 S1                 0.0000
     12 ****         1.1702   0.1698   1.1987 C.3            1 S1                 0.0000
     13 ****         1.8789   0.6630  -0.0763 C.3            1 S1                 0.0000
     14 ****         3.3993   0.4134  -0.0548 C.3            1 S1                 0.0000
     15 ****         4.0541   1.2584   0.9203 N.am           1 S1                 0.0000
     16 ****         4.9819   2.0262   0.3524 C.2            1 S1                 0.0000
     17 ****         5.6676   2.8054   1.0105 O.2            1 S1                 0.0000
     18 ****         5.0177   1.8054  -0.9761 N.pl3          1 S1                -1.0000
     19 ****         4.1103   0.8692  -1.3287 C.2            1 S1                 0.0000
     20 ****         3.8398   0.3996  -2.4328 O.2            1 S1                 0.0000
     21 ****        -4.1945  -1.7233   2.2797 H              1 S1                 0.0000
     22 ****        -2.8609  -1.1836   3.2911 H              1 S1                 0.0000
     23 ****        -2.7162  -2.6772   2.3661 H              1 S1                 0.0000
     24 ****        -2.9787   0.1296   1.1967 H              1 S1                 0.0000
     25 ****        -2.4800  -2.5198  -0.2626 H              1 S1                 0.0000
     26 ****        -3.9869  -1.6333  -0.2636 H              1 S1                 0.0000
     27 ****        -3.9053   0.8718  -1.4044 H              1 S1                 0.0000
     28 ****        -2.3884   1.6847  -3.5226 H              1 S1                 0.0000
     29 ****        -0.4078  -0.2499  -3.6491 H              1 S1                 0.0000
     30 ****        -0.5908  -1.6276   1.5181 H              1 S1                 0.0000
     31 ****         1.5238   0.7261   2.0671 H              1 S1                 0.0000
     32 ****         1.4180  -0.8780   1.3754 H              1 S1                 0.0000
     33 ****         1.4496   0.1472  -0.9372 H              1 S1                 0.0000
     34 ****         1.6794   1.7251  -0.2303 H              1 S1                 0.0000
     35 ****         3.6289  -0.6353   0.1384 H              1 S1                 0.0000
     36 ****         3.8394   1.2437   1.9063 H              1 S1                 0.0000
     37 ****        -0.7897  -1.9034  -1.8672 LP             1 S1                 0.0000
     38 ****        -1.8252   1.5364   0.7606 LP             1 S1                 0.0000
     39 ****        -0.2366   2.2238   0.6980 LP             1 S1                 0.0000
     40 ****         5.5359   2.8748   1.9994 LP             1 S1                 0.0000
     41 ****         6.3573   3.3700   0.5571 LP             1 S1                 0.0000
     42 ****         5.6318   2.2707  -1.6136 LP             1 S1                 0.0000
     43 ****         3.1344  -0.3041  -2.5177 LP             1 S1                 0.0000
     44 ****         4.3253   0.7215  -3.2456 LP             1 S1                 0.0000
@<TRIPOS>BOND
    1    1    2 1     
    2    1   21 1     
    3    1   22 1     
    4    1   23 1     
    5    2    3 1     
    6    2    9 1     
    7    2   24 1     
    8    3    4 1     
    9    3   25 1     
   10    3   26 1     
   11    4    8 1     
   12    4    5 1     
   13    5    6 2     
   14    5   27 1     
   15    6    7 1     
   16    6   28 1     
   17    7    8 2     
   18    7   29 1     
   19    9   10 am    
   20    9   30 1     
   21   10   11 2     
   22   10   12 1     
   23   12   13 1     
   24   12   31 1     
   25   12   32 1     
   26   13   14 1     
   27   13   33 1     
   28   13   34 1     
   29   14   19 1     
   30   14   15 1     
   31   14   35 1     
   32   15   16 am    
   33   15   36 1     
   34   16   17 2     
   35   16   18 1     
   36   18   19 1     
   37   19   20 2     
   38    8   37 1     
   39   11   38 1     
   40   11   39 1     
   41   17   40 1     
   42   17   41 1     
   43   18   42 1     
   44   20   43 1     
   45   20   44 1     
@<TRIPOS>SUBSTRUCTURE
      1 S1             1
@<TRIPOS>SET
LONE_PAIRS      STATIC     ATOMS    <user>   **** ""
8 37 38 39 40 41 42 43 44
DONOR_HYDROGENS      STATIC     ATOMS    <user>   **** ""
2 30 36
ATOM$BLUE        STATIC     ATOMS    COLORGROUP SYSTEM
8 37 38 39 40 41 42 43 44
ATOM$RED        STATIC     ATOMS    COLORGROUP SYSTEM
2 30 36
