AV-unprocessed.smi:117|AV-procd|sdf|1129|dock7
  -GOLD-   2262018253D 1   1.00000     0.00000
 Structure written by MMmdl.
 53 55  0  0  0  0  0  0  0  0  1 V2000
  153.2255  142.5728  161.8869 C   0  0  0  0  0  0  0  0  0  0  0  0
  152.6313  142.6047  160.4886 C   0  0  0  0  0  0  0  0  0  0  0  0
  151.9262  143.7574  160.0868 C   0  0  0  0  0  0  0  0  0  0  0  0
  151.3379  143.8239  158.8135 C   0  0  0  0  0  0  0  0  0  0  0  0
  151.4523  142.7381  157.9294 C   0  0  0  0  0  0  0  0  0  0  0  0
  152.1741  141.5789  158.3035 C   0  0  0  0  0  0  0  0  0  0  0  0
  152.2809  140.4465  157.4447 N   0  0  0  0  0  0  0  0  0  0  0  0
  151.7590  140.2570  156.2184 C   0  0  0  0  0  0  0  0  0  0  0  0
  151.0738  141.0830  155.6141 O   0  0  0  0  0  0  0  0  0  0  0  0
  152.0927  138.9012  155.5800 C   0  0  0  0  0  0  0  0  0  0  0  0
  151.4660  137.7624  156.2483 N   0  0  0  0  0  0  0  0  0  0  0  0
  151.1832  136.5825  155.6743 C   0  0  0  0  0  0  0  0  0  0  0  0
  151.4399  136.3276  154.4970 O   0  0  0  0  0  0  0  0  0  0  0  0
  150.5248  135.5352  156.5850 C   0  0  0  0  0  0  0  0  0  0  0  0
  150.3040  134.2328  155.9190 N   0  0  0  0  0  0  0  0  0  0  0  0
  149.3197  134.1558  154.9025 C   0  0  0  0  0  0  0  0  0  0  0  0
  148.6517  135.1407  154.5844 O   0  0  0  0  0  0  0  0  0  0  0  0
  149.1689  132.8506  154.2696 C   0  0  0  0  0  0  0  0  0  0  0  0
  148.2662  132.6863  153.2877 F   0  0  0  0  0  0  0  0  0  0  0  0
  149.9251  131.8018  154.6531 C   0  0  0  0  0  0  0  0  0  0  0  0
  150.8682  131.8844  155.6584 N   0  0  0  0  0  0  0  0  0  0  0  0
  151.7073  130.6704  155.9837 C   0  0  2  0  0  0  0  0  0  0  0  0
  153.2225  130.9108  155.8443 C   0  0  0  0  0  0  0  0  0  0  0  0
  153.6394  129.8683  154.8198 C   0  0  0  0  0  0  0  0  0  0  0  0
  152.5125  128.8443  154.8994 C   0  0  0  0  0  0  0  0  0  0  0  0
  151.3582  129.6420  155.1093 O   0  0  0  0  0  0  0  0  0  0  0  0
  151.0998  133.1246  156.2977 C   0  0  0  0  0  0  0  0  0  0  0  0
  151.9754  133.2422  157.1565 O   0  0  0  0  0  0  0  0  0  0  0  0
  152.7638  141.5084  159.5947 C   0  0  0  0  0  0  0  0  0  0  0  0
  153.5247  140.2518  160.0123 C   0  0  0  0  0  0  0  0  0  0  0  0
  152.9265  143.4464  162.4671 H   0  0  0  0  0  0  0  0  0  0  0  0
  154.3146  142.5629  161.8390 H   0  0  0  0  0  0  0  0  0  0  0  0
  152.8892  141.6875  162.4275 H   0  0  0  0  0  0  0  0  0  0  0  0
  151.8234  144.5963  160.7596 H   0  0  0  0  0  0  0  0  0  0  0  0
  150.7874  144.7048  158.5177 H   0  0  0  0  0  0  0  0  0  0  0  0
  150.9605  142.8125  156.9721 H   0  0  0  0  0  0  0  0  0  0  0  0
  152.8958  139.7165  157.7738 H   0  0  0  0  0  0  0  0  0  0  0  0
  151.8136  138.9175  154.5250 H   0  0  0  0  0  0  0  0  0  0  0  0
  153.1729  138.7582  155.6141 H   0  0  0  0  0  0  0  0  0  0  0  0
  151.2166  137.8872  157.2183 H   0  0  0  0  0  0  0  0  0  0  0  0
  151.1429  135.4266  157.4772 H   0  0  0  0  0  0  0  0  0  0  0  0
  149.5825  135.9334  156.9653 H   0  0  0  0  0  0  0  0  0  0  0  0
  149.7775  130.8583  154.1482 H   0  0  0  0  0  0  0  0  0  0  0  0
  151.4379  130.3818  157.0009 H   0  0  0  0  0  0  0  0  0  0  0  0
  153.4595  131.9298  155.5371 H   0  0  0  0  0  0  0  0  0  0  0  0
  153.6939  130.7225  156.8095 H   0  0  0  0  0  0  0  0  0  0  0  0
  153.6698  130.3106  153.8239 H   0  0  0  0  0  0  0  0  0  0  0  0
  154.6190  129.4370  155.0260 H   0  0  0  0  0  0  0  0  0  0  0  0
  152.4258  128.2415  153.9953 H   0  0  0  0  0  0  0  0  0  0  0  0
  152.6532  128.1753  155.7500 H   0  0  0  0  0  0  0  0  0  0  0  0
  154.1326  139.8685  159.1924 H   0  0  0  0  0  0  0  0  0  0  0  0
  152.8220  139.4730  160.3092 H   0  0  0  0  0  0  0  0  0  0  0  0
  154.2082  140.4238  160.8418 H   0  0  0  0  0  0  0  0  0  0  0  0
  1  2  1  0  0  0  0
  1 31  1  0  0  0  0
  1 32  1  0  0  0  0
  1 33  1  0  0  0  0
  2 29  1  0  0  0  0
  2  3  2  0  0  0  0
  3  4  1  0  0  0  0
  3 34  1  0  0  0  0
  4  5  2  0  0  0  0
  4 35  1  0  0  0  0
  5  6  1  0  0  0  0
  5 36  1  0  0  0  0
  6  7  1  0  0  0  0
  6 29  2  0  0  0  0
  7  8  1  0  0  0  0
  7 37  1  0  0  0  0
  8  9  2  0  0  0  0
  8 10  1  0  0  0  0
 10 11  1  0  0  0  0
 10 38  1  0  0  0  0
 10 39  1  0  0  0  0
 11 12  1  0  0  0  0
 11 40  1  0  0  0  0
 12 13  2  0  0  0  0
 12 14  1  0  0  0  0
 14 15  1  0  0  0  0
 14 41  1  0  0  0  0
 14 42  1  0  0  0  0
 15 27  1  0  0  0  0
 15 16  1  0  0  0  0
 16 17  2  0  0  0  0
 16 18  1  0  0  0  0
 18 19  1  0  0  0  0
 18 20  2  0  0  0  0
 20 21  1  0  0  0  0
 20 43  1  0  0  0  0
 21 22  1  0  0  0  0
 21 27  1  0  0  0  0
 22 26  1  0  0  0  0
 22 23  1  0  0  0  0
 22 44  1  0  0  0  0
 23 24  1  0  0  0  0
 23 45  1  0  0  0  0
 23 46  1  0  0  0  0
 24 25  1  0  0  0  0
 24 47  1  0  0  0  0
 24 48  1  0  0  0  0
 25 26  1  0  0  0  0
 25 49  1  0  0  0  0
 25 50  1  0  0  0  0
 27 28  2  0  0  0  0
 29 30  1  0  0  0  0
 30 51  1  0  0  0  0
 30 52  1  0  0  0  0
 30 53  1  0  0  0  0
M  END
> <s_m_source_file>
AV-unprocessed.smi

> <i_m_source_file_index>
117

> <i_lp_mmshare_version>
43012

> <i_f3d_flags>
0

> <s_epik_input>
W0NIM11jMVtjSF1bY0hdW2NIXWMoYzFbQ0gzXSlbTkhdQyg9TylbQ0gyXVtOSF1DKD1PKVtDSDJdbjJjKD1PKWMoRilbY0hdbihjMj1PKVtDQEBIXTNbQ0gyXVtDSDJdW0NIMl1PMw==

> <s_epik_cmdline>
J2VwaWtfcHl0aG9uJywgJy1waCcsICc3LjAnLCAnLXRuJywgJzgnLCAnLW1hJywgJzIwMCcsICctbWV0YWxfYmluZGluZycsICctaW1hZScsICc8aW5maWxlLm1hZT4nLCAnLW9tYWUnLCAnPG91dGZpbGUubWFlPic=

> <r_lp_tautomer_probability>
1

> <r_epik_Ionization_Penalty>
1.58439e-06

> <r_epik_Ionization_Penalty_Charging>
4.14583e-09

> <r_epik_Ionization_Penalty_Neutral>
1.58025e-06

> <r_epik_State_Penalty>
-0

> <r_epik_Charging_Adjusted_Penalty>
4.14583e-09

> <i_epik_Tot_Q>
0

> <i_epik_Tot_abs_Q>
0

> <r_epik_Metal_State_Penalty>
-0

> <b_epik_Metal_Only>
0

> <s_epik_Chemistry_Notes>
This compound contains an acetal/aminal-like group ( X-CH(R)-Y where X, Y are N, S, or O) that may be acid/base labile, releasing an aldehyde.

> <s_lp_Force_Field>
OPLS_2005

> <r_lp_Energy>
28.8349

> <b_lp_Chiralities_Consistent>
1

> <s_lp_Variant>
AV-unprocessed.smi:117-1

> <Gold.Version>
5.8.1

> <Gold.Id.Protein>
6NUR|6NUR_protein|mol2

> <Gold.PLP.Fitness>
62.8175

> <Gold.PLP.PLP>
-57.2705

> <Gold.PLP.part.hbond>
-3.0000

> <Gold.PLP.part.metal>
0.0000

> <Gold.PLP.part.buried>
-7.2151

> <Gold.PLP.part.nonpolar>
-49.8707

> <Gold.PLP.part.repulsive>
2.2975

> <Gold.PLP.ligand.clash>
0.0000

> <Gold.PLP.ligand.torsion>
0.3891

> <Gold.PLP.Chemscore.Hbond>
2.0928

> <Gold.PLP.Chemscore.CHOScore>
0.0000

> <Gold.PLP.Chemscore.Metal>
0.0000

> <Gold.Chemscore.Hbonds>
donor molecule, donor type, donor heavy atom, donor atom, acceptor molecule, acceptor atom, score
      P1  H  6896  6909       L1    28  0.51
      P1  H  7989  7998       L1     9  0.39
      P1  H 10752 10763       L1    13  1.00

> <Gold.PLP.Chemscore.Internal.Correction>
0.0469

> <Gold.Rescore>
     Score         DG    S(hbond)    S(metal)    S(lipo)     H(rot)  DE(clash)    DE(int)     intcor
     18.21     -21.16       2.57        0.00     111.35       2.32       0.00       2.95       ----

> <Gold.Chemscore.Fitness>
18.2058

> <Gold.Chemscore.DG>
-21.1584

> <Gold.Chemscore.ZeroCoef>
-5.4800

> <Gold.Chemscore.Hbond>
2.5692

> <Gold.Chemscore.Metal>
0.0000

> <Gold.Chemscore.Lipo>
111.3475

> <Gold.Chemscore.Internal_Hbond>
0.0000

> <Gold.Chemscore.DEClash>
0.0000

> <Gold.Chemscore.DEInternal>
2.9525

> <Gold.Chemscore.Rot>
2.3166

> <Gold.Chemscore.Internal.Correction>
   9.000000E+99

> <Gold.Chemscore.Hbonds>
donor molecule, donor type, donor heavy atom, donor atom, acceptor molecule, acceptor atom, score
      P1  H  6896  6909       L1    28  0.48
      P1  H  7989  7998       L1     9  0.22
      P1  H 10752 10763       L1    13  0.90

> <Gold.Chemscore.Hbond.Weighted>
-8.5813

> <Gold.Chemscore.Metal.Weighted>
-0.0000

> <Gold.Chemscore.Lipo.Weighted>
-13.0277

> <Gold.Chemscore.Internal_Hbond.Weighted>
0.0000

> <Gold.Chemscore.DEClash.Weighted>
0.0000

> <Gold.Chemscore.DEInternal.Weighted>
2.9525

> <Gold.Chemscore.Rot.Weighted>
5.9306

> <Gold.Chemscore.Internal.Correction.Weighted>
   9.000000E+99

> <Gold.Protein.RotatedTorsions>
[ 6907 6896 6895 6894 ] final  -48.61 input  -60.11 | X-H torsion
[ 7974 7965 7964 7962 ] final    2.15 input  175.53 | X-H torsion
[ 8008 7997 7996 7995 ] final -160.65 input   59.86 | X-H torsion
[ 10167 10162 10161 10158 ] final   61.60 input  -65.29 | X-H torsion
[ 10718 10713 10712 10709 ] final  -93.82 input   66.30 | X-H torsion
[ 10763 10752 10751 10750 ] final   38.22 input  -60.55 | X-H torsion
[ 11005 11000 10999 10996 ] final   83.03 input  -57.11 | X-H torsion

> <Gold.Protein.ActiveResidues>
 VAL166  LYS551  ARG553  GLY616  TRP617  ASP618  TYR619  PRO620  LYS621  CYS622 
 ASP623  PHE694  ASN695  SER759  ASP760  ASP761  ALA762  ILE779  LEU786  VAL792 
 PHE793  MET794  SER795  GLU796  ALA797  LYS798  CYS799  TRP800  GLU811  SER814 

> <Gold.Protein.RotatedAtoms>
  150.8888  134.8289  159.7277 H   0  0  0  0  0  0  0  0  0  0  0  0  # atno 6907 bound_to 6896
  152.4824  134.4681  159.9636 H   0  0  0  0  0  0  0  0  0  0  0  0  # atno 6908 bound_to 6896
  151.4746  133.3522  159.2864 H   0  0  0  0  0  0  0  0  0  0  0  0  # atno 6909 bound_to 6896
  146.2443  140.0879  142.8353 H   0  0  0  0  0  0  0  0  0  0  0  0  # atno 7974 bound_to 7965
  155.7805  140.0864  157.2061 H   0  0  0  0  0  0  0  0  0  0  0  0  # atno 8008 bound_to 7997
  154.3990  140.1508  156.3105 H   0  0  0  0  0  0  0  0  0  0  0  0  # atno 8009 bound_to 7997
  155.8658  140.3428  155.5790 H   0  0  0  0  0  0  0  0  0  0  0  0  # atno 8010 bound_to 7997
  140.1530  144.4444  150.6749 H   0  0  0  0  0  0  0  0  0  0  0  0  # atno 10167 bound_to 10162
  156.0018  130.5042  150.5834 H   0  0  0  0  0  0  0  0  0  0  0  0  # atno 10718 bound_to 10713
  153.0009  135.6255  154.2270 H   0  0  0  0  0  0  0  0  0  0  0  0  # atno 10763 bound_to 10752
  154.2013  135.2804  155.2991 H   0  0  0  0  0  0  0  0  0  0  0  0  # atno 10764 bound_to 10752
  154.5682  135.5685  153.7129 H   0  0  0  0  0  0  0  0  0  0  0  0  # atno 10765 bound_to 10752
  139.9044  134.8115  156.2254 H   0  0  0  0  0  0  0  0  0  0  0  0  # atno 11005 bound_to 11000
  145.0676  140.9132  143.4901 LP  0  0  0  0  0  0  0  0  0  0  0  0  # atno 17320 bound_to 7965
  145.1007  139.2825  143.5688 LP  0  0  0  0  0  0  0  0  0  0  0  0  # atno 17321 bound_to 7965
  140.6690  143.2278  151.5671 LP  0  0  0  0  0  0  0  0  0  0  0  0  # atno 17342 bound_to 10162
  139.5417  144.2631  152.1363 LP  0  0  0  0  0  0  0  0  0  0  0  0  # atno 17343 bound_to 10162
  157.3711  131.0765  151.1557 LP  0  0  0  0  0  0  0  0  0  0  0  0  # atno 17370 bound_to 10713
  157.2310  130.6525  149.5850 LP  0  0  0  0  0  0  0  0  0  0  0  0  # atno 17371 bound_to 10713
  141.0379  133.6953  156.1545 LP  0  0  0  0  0  0  0  0  0  0  0  0  # atno 17394 bound_to 11000
  140.6999  134.4575  157.5586 LP  0  0  0  0  0  0  0  0  0  0  0  0  # atno 17395 bound_to 11000

$$$$
