AV-unprocessed.smi:1898|AV-procd|sdf|7701|dock9
  -GOLD-   22720 9443D 1   1.00000     0.00000
 Structure written by MMmdl.
 47 48  0  0  0  0  0  0  0  0  2 V2000
  143.4691  136.9071  152.5579 C   0  0  0  0  0  0  0  0  0  0  0  0
  144.5358  137.7267  152.0030 N   0  0  0  0  0  0  0  0  0  0  0  0
  145.8370  137.5537  152.2738 C   0  0  0  0  0  0  0  0  0  0  0  0
  146.2574  136.6794  153.0325 O   0  0  0  0  0  0  0  0  0  0  0  0
  146.8053  138.5291  151.5961 C   0  0  0  0  0  0  0  0  0  0  0  0
  147.4665  139.4506  152.5554 N   0  3  2  0  0  0  0  0  0  0  0  0
  148.0230  138.7420  153.7358 C   0  0  0  0  0  0  0  0  0  0  0  0
  148.8371  139.7001  154.6211 C   0  0  0  0  0  0  0  0  0  0  0  0
  147.9886  140.9020  155.0661 C   0  0  1  0  0  0  0  0  0  0  0  0
  148.8123  141.8379  155.8254 N   0  0  0  0  0  0  0  0  0  0  0  0
  149.6834  141.4965  156.7855 C   0  0  0  0  0  0  0  0  0  0  0  0
  149.8894  140.3329  157.1280 O   0  0  0  0  0  0  0  0  0  0  0  0
  150.2868  142.5831  157.2969 N   0  0  0  0  0  0  0  0  0  0  0  0
  151.2861  142.6705  158.3071 C   0  0  0  0  0  0  0  0  0  0  0  0
  152.3739  141.7714  158.4319 C   0  0  0  0  0  0  0  0  0  0  0  0
  153.2946  141.9540  159.4802 C   0  0  0  0  0  0  0  0  0  0  0  0
  153.0930  143.0232  160.3714 C   0  0  0  0  0  0  0  0  0  0  0  0
  152.0565  143.8803  160.2733 N   0  0  0  0  0  0  0  0  0  0  0  0
  151.1676  143.7068  159.2631 C   0  0  0  0  0  0  0  0  0  0  0  0
  150.1032  144.5833  159.1675 O   0  0  0  0  0  0  0  0  0  0  0  0
  149.5937  145.1675  160.3614 C   0  0  0  0  0  0  0  0  0  0  0  0
  147.3804  141.5918  153.8317 C   0  0  0  0  0  0  0  0  0  0  0  0
  146.6023  140.5909  152.9621 C   0  0  0  0  0  0  0  0  0  0  0  0
  142.5038  137.2538  152.1892 H   0  0  0  0  0  0  0  0  0  0  0  0
  143.4591  136.9660  153.6471 H   0  0  0  0  0  0  0  0  0  0  0  0
  143.5902  135.8629  152.2665 H   0  0  0  0  0  0  0  0  0  0  0  0
  144.2660  138.4713  151.3761 H   0  0  0  0  0  0  0  0  0  0  0  0
  147.5555  137.9856  151.0192 H   0  0  0  0  0  0  0  0  0  0  0  0
  146.2160  139.1042  150.8806 H   0  0  0  0  0  0  0  0  0  0  0  0
  147.2106  138.2940  154.3103 H   0  0  0  0  0  0  0  0  0  0  0  0
  148.6682  137.9261  153.4079 H   0  0  0  0  0  0  0  0  0  0  0  0
  149.2142  139.1646  155.4933 H   0  0  0  0  0  0  0  0  0  0  0  0
  149.7121  140.0459  154.0682 H   0  0  0  0  0  0  0  0  0  0  0  0
  147.1812  140.5313  155.7008 H   0  0  0  0  0  0  0  0  0  0  0  0
  148.7105  142.8182  155.6056 H   0  0  0  0  0  0  0  0  0  0  0  0
  150.0385  143.4646  156.8714 H   0  0  0  0  0  0  0  0  0  0  0  0
  152.5203  140.9414  157.7597 H   0  0  0  0  0  0  0  0  0  0  0  0
  154.1348  141.2861  159.5999 H   0  0  0  0  0  0  0  0  0  0  0  0
  153.7795  143.1922  161.1877 H   0  0  0  0  0  0  0  0  0  0  0  0
  148.7601  145.8240  160.1131 H   0  0  0  0  0  0  0  0  0  0  0  0
  150.3507  145.7701  160.8654 H   0  0  0  0  0  0  0  0  0  0  0  0
  149.2223  144.4080  161.0509 H   0  0  0  0  0  0  0  0  0  0  0  0
  146.7174  142.4008  154.1410 H   0  0  0  0  0  0  0  0  0  0  0  0
  148.1705  142.0508  153.2352 H   0  0  0  0  0  0  0  0  0  0  0  0
  146.2188  141.1059  152.0809 H   0  0  0  0  0  0  0  0  0  0  0  0
  145.7356  140.2158  153.5087 H   0  0  0  0  0  0  0  0  0  0  0  0
  148.2567  139.8421  152.0623 H   0  0  0  0  0  0  0  0  0  0  0  0
  1  2  1  0  0  0  0
  1 24  1  0  0  0  0
  1 25  1  0  0  0  0
  1 26  1  0  0  0  0
  2  3  1  0  0  0  0
  2 27  1  0  0  0  0
  3  4  2  0  0  0  0
  3  5  1  0  0  0  0
  5  6  1  0  0  0  0
  5 28  1  0  0  0  0
  5 29  1  0  0  0  0
  6 23  1  0  0  0  0
  6  7  1  0  0  0  0
  6 47  1  0  0  0  0
  7  8  1  0  0  0  0
  7 30  1  0  0  0  0
  7 31  1  0  0  0  0
  8  9  1  0  0  0  0
  8 32  1  0  0  0  0
  8 33  1  0  0  0  0
  9 10  1  0  0  0  0
  9 22  1  0  0  0  0
  9 34  1  0  0  0  0
 10 11  1  0  0  0  0
 10 35  1  0  0  0  0
 11 12  2  0  0  0  0
 11 13  1  0  0  0  0
 13 14  1  0  0  0  0
 13 36  1  0  0  0  0
 14 19  1  0  0  0  0
 14 15  2  0  0  0  0
 15 16  1  0  0  0  0
 15 37  1  0  0  0  0
 16 17  2  0  0  0  0
 16 38  1  0  0  0  0
 17 18  1  0  0  0  0
 17 39  1  0  0  0  0
 18 19  2  0  0  0  0
 19 20  1  0  0  0  0
 20 21  1  0  0  0  0
 21 40  1  0  0  0  0
 21 41  1  0  0  0  0
 21 42  1  0  0  0  0
 22 23  1  0  0  0  0
 22 43  1  0  0  0  0
 22 44  1  0  0  0  0
 23 45  1  0  0  0  0
 23 46  1  0  0  0  0
M  CHG  1   6   1
M  END
> <s_m_source_file>
AV-unprocessed.smi

> <i_m_source_file_index>
1898

> <i_lp_mmshare_version>
43012

> <i_f3d_flags>
0

> <s_epik_input>
W0NIM11bTkhdQyg9TylbQ0gyXU4xW0NIMl1bQ0gyXVtDSF0oW0NIMl1bQ0gyXTEpW05IXUMoPU8pW05IXWMyW2NIXVtjSF1bY0hdbmMyT1tDSDNd

> <s_epik_cmdline>
J2VwaWtfcHl0aG9uJywgJy1waCcsICc3LjAnLCAnLXRuJywgJzgnLCAnLW1hJywgJzIwMCcsICctbWV0YWxfYmluZGluZycsICctaW1hZScsICc8aW5maWxlLm1hZT4nLCAnLW9tYWUnLCAnPG91dGZpbGUubWFlPic=

> <r_lp_tautomer_probability>
1

> <r_epik_Ionization_Penalty>
0.838943

> <r_epik_Ionization_Penalty_Charging>
0.838844

> <r_epik_Ionization_Penalty_Neutral>
9.87395e-05

> <r_epik_State_Penalty>
0.8734

> <r_epik_Charging_Adjusted_Penalty>
1.71224

> <i_epik_Tot_Q>
1

> <i_epik_Tot_abs_Q>
1

> <r_epik_Metal_State_Penalty>
0.877926

> <b_epik_Metal_Only>
0

> <s_lp_Force_Field>
OPLS_2005

> <r_lp_Energy>
17.1521

> <b_lp_Chiralities_Consistent>
1

> <s_lp_Variant>
AV-unprocessed.smi:1898-2

> <Gold.Version>
5.8.1

> <Gold.Id.Protein>
6NUR|6NUR_protein|mol2

> <Gold.PLP.Fitness>
47.0823

> <Gold.PLP.PLP>
-38.2166

> <Gold.PLP.part.hbond>
-4.7421

> <Gold.PLP.part.metal>
0.0000

> <Gold.PLP.part.buried>
-3.1702

> <Gold.PLP.part.nonpolar>
-32.7735

> <Gold.PLP.part.repulsive>
0.9981

> <Gold.PLP.ligand.clash>
0.0000

> <Gold.PLP.ligand.torsion>
1.0478

> <Gold.PLP.Chemscore.Hbond>
3.6455

> <Gold.PLP.Chemscore.CHOScore>
0.0000

> <Gold.PLP.Chemscore.Metal>
0.0000

> <Gold.Chemscore.Hbonds>
donor molecule, donor type, donor heavy atom, donor atom, acceptor molecule, acceptor atom, score
      L1  H     2    27       P1 10171  0.74
      L1  H     6    47       P1  7957  1.00
      L1  H    10    35       P1  8028  1.00
      L1  H    13    36       P1  8028  0.88

> <Gold.PLP.Chemscore.Internal.Correction>
0.0248

> <Gold.Rescore>
     Score         DG    S(hbond)    S(metal)    S(lipo)     H(rot)  DE(clash)    DE(int)     intcor
     18.67     -23.98       3.84        0.00      92.23       2.00       1.54       3.77       ----

> <Gold.Chemscore.Fitness>
18.6703

> <Gold.Chemscore.DG>
-23.9828

> <Gold.Chemscore.ZeroCoef>
-5.4800

> <Gold.Chemscore.Hbond>
3.8391

> <Gold.Chemscore.Metal>
0.0000

> <Gold.Chemscore.Lipo>
92.2281

> <Gold.Chemscore.Internal_Hbond>
0.0000

> <Gold.Chemscore.DEClash>
1.5419

> <Gold.Chemscore.DEInternal>
3.7707

> <Gold.Chemscore.Rot>
1.9963

> <Gold.Chemscore.Internal.Correction>
   9.000000E+99

> <Gold.Chemscore.Hbonds>
donor molecule, donor type, donor heavy atom, donor atom, acceptor molecule, acceptor atom, score
      L1  H     2    27       P1 10171  0.73
      L1  H     6    47       P1  7957  0.99
      L1  H    10    35       P1  8028  1.00
      L1  H    13    36       P1  8028  0.83

> <Gold.Chemscore.Hbond.Weighted>
-12.8226

> <Gold.Chemscore.Metal.Weighted>
-0.0000

> <Gold.Chemscore.Lipo.Weighted>
-10.7907

> <Gold.Chemscore.Internal_Hbond.Weighted>
0.0000

> <Gold.Chemscore.DEClash.Weighted>
1.5419

> <Gold.Chemscore.DEInternal.Weighted>
3.7707

> <Gold.Chemscore.Rot.Weighted>
5.1105

> <Gold.Chemscore.Internal.Correction.Weighted>
   9.000000E+99

> <Gold.Protein.RotatedTorsions>
[ 6907 6896 6895 6894 ] final   57.49 input  -60.11 | X-H torsion
[ 7974 7965 7964 7962 ] final  -82.49 input  175.53 | X-H torsion
[ 8008 7997 7996 7995 ] final   95.18 input   59.86 | X-H torsion
[ 10167 10162 10161 10158 ] final   94.91 input  -65.29 | X-H torsion
[ 10718 10713 10712 10709 ] final   99.28 input   66.30 | X-H torsion
[ 10763 10752 10751 10750 ] final  -58.75 input  -60.55 | X-H torsion
[ 11005 11000 10999 10996 ] final   27.31 input  -57.11 | X-H torsion

> <Gold.Protein.ActiveResidues>
 VAL166  LYS551  ARG553  GLY616  TRP617  ASP618  TYR619  PRO620  LYS621  CYS622 
 ASP623  PHE694  ASN695  SER759  ASP760  ASP761  ALA762  ILE779  LEU786  VAL792 
 PHE793  MET794  SER795  GLU796  ALA797  LYS798  CYS799  TRP800  GLU811  SER814 

> <Gold.Protein.RotatedAtoms>
  152.3736  134.6697  160.0167 H   0  0  0  0  0  0  0  0  0  0  0  0  # atno 6907 bound_to 6896
  151.6982  133.3305  159.3268 H   0  0  0  0  0  0  0  0  0  0  0  0  # atno 6908 bound_to 6896
  150.7692  134.6574  159.6366 H   0  0  0  0  0  0  0  0  0  0  0  0  # atno 6909 bound_to 6896
  145.5326  140.9519  143.1594 H   0  0  0  0  0  0  0  0  0  0  0  0  # atno 7974 bound_to 7965
  156.0661  140.3290  155.7519 H   0  0  0  0  0  0  0  0  0  0  0  0  # atno 8008 bound_to 7997
  155.5379  140.0599  157.2893 H   0  0  0  0  0  0  0  0  0  0  0  0  # atno 8009 bound_to 7997
  154.4506  140.1916  156.0550 H   0  0  0  0  0  0  0  0  0  0  0  0  # atno 8010 bound_to 7997
  139.8039  144.6802  150.9729 H   0  0  0  0  0  0  0  0  0  0  0  0  # atno 10167 bound_to 10162
  157.6879  131.0665  150.4925 H   0  0  0  0  0  0  0  0  0  0  0  0  # atno 10718 bound_to 10713
  154.2430  135.6340  153.5214 H   0  0  0  0  0  0  0  0  0  0  0  0  # atno 10763 bound_to 10752
  152.9926  135.5546  154.5890 H   0  0  0  0  0  0  0  0  0  0  0  0  # atno 10764 bound_to 10752
  154.5399  135.2894  155.1079 H   0  0  0  0  0  0  0  0  0  0  0  0  # atno 10765 bound_to 10752
  140.3277  134.2473  155.7707 H   0  0  0  0  0  0  0  0  0  0  0  0  # atno 11005 bound_to 11000
  144.7618  139.6939  143.7231 LP  0  0  0  0  0  0  0  0  0  0  0  0  # atno 17320 bound_to 7965
  146.2034  139.5343  142.9728 LP  0  0  0  0  0  0  0  0  0  0  0  0  # atno 17321 bound_to 7965
  140.7819  143.4254  151.0777 LP  0  0  0  0  0  0  0  0  0  0  0  0  # atno 17342 bound_to 10162
  139.7924  143.8199  152.3153 LP  0  0  0  0  0  0  0  0  0  0  0  0  # atno 17343 bound_to 10162
  156.5251  130.4171  149.6230 LP  0  0  0  0  0  0  0  0  0  0  0  0  # atno 17370 bound_to 10713
  156.3119  130.7234  151.2128 LP  0  0  0  0  0  0  0  0  0  0  0  0  # atno 17371 bound_to 10713
  141.2071  133.7814  157.0137 LP  0  0  0  0  0  0  0  0  0  0  0  0  # atno 17394 bound_to 11000
  140.0888  134.9605  157.1742 LP  0  0  0  0  0  0  0  0  0  0  0  0  # atno 17395 bound_to 11000

$$$$
