AV-unprocessed.smi:1507|AV-procd|sdf|6081|dock3
  -GOLD-   22720 6203D 1   1.00000     0.00000
 Structure written by MMmdl.
 33 34  0  0  0  0  0  0  0  0  2 V2000
  149.8250  135.2090  154.5762 N   0  0  0  0  0  0  0  0  0  0  0  0
  150.5291  136.0122  155.9296 S   0  0  0  0  0  0  0  0  0  0  0  0
  149.4411  136.8173  156.5050 O   0  0  0  0  0  0  0  0  0  0  0  0
  151.1295  134.9589  156.7660 O   0  0  0  0  0  0  0  0  0  0  0  0
  151.5990  136.9252  155.1105 N   0  5  0  0  0  0  0  0  0  0  0  0
  151.2298  138.2216  154.5571 C   0  0  0  0  0  0  0  0  0  0  0  0
  151.2921  139.3167  155.6117 C   0  0  0  0  0  0  0  0  0  0  0  0
  150.9030  140.6405  155.3133 C   0  0  0  0  0  0  0  0  0  0  0  0
  150.9811  141.6201  156.3227 C   0  0  0  0  0  0  0  0  0  0  0  0
  151.4475  141.2537  157.6071 C   0  0  0  0  0  0  0  0  0  0  0  0
  151.5383  142.2217  158.6304 N   0  0  0  0  0  0  0  0  0  0  0  0
  151.0735  143.5761  158.3384 C   0  0  0  0  0  0  0  0  0  0  0  0
  150.9640  144.3936  159.6363 C   0  0  0  0  0  0  0  0  0  0  0  0
  152.2125  144.3758  160.3205 O   0  0  0  0  0  0  0  0  0  0  0  0
  152.5958  143.0554  160.6909 C   0  0  0  0  0  0  0  0  0  0  0  0
  152.7588  142.1864  159.4315 C   0  0  0  0  0  0  0  0  0  0  0  0
  151.8248  139.9826  157.8899 N   0  0  0  0  0  0  0  0  0  0  0  0
  151.7481  139.0450  156.9206 C   0  0  0  0  0  0  0  0  0  0  0  0
  149.7029  135.8317  153.7785 H   0  0  0  0  0  0  0  0  0  0  0  0
  148.9834  134.6922  154.8288 H   0  0  0  0  0  0  0  0  0  0  0  0
  151.8829  138.5078  153.7317 H   0  0  0  0  0  0  0  0  0  0  0  0
  150.2221  138.2118  154.1402 H   0  0  0  0  0  0  0  0  0  0  0  0
  150.5530  140.9207  154.3290 H   0  0  0  0  0  0  0  0  0  0  0  0
  150.7013  142.6376  156.0948 H   0  0  0  0  0  0  0  0  0  0  0  0
  151.7701  144.0576  157.6506 H   0  0  0  0  0  0  0  0  0  0  0  0
  150.0995  143.5441  157.8485 H   0  0  0  0  0  0  0  0  0  0  0  0
  150.6976  145.4257  159.4086 H   0  0  0  0  0  0  0  0  0  0  0  0
  150.1777  143.9963  160.2802 H   0  0  0  0  0  0  0  0  0  0  0  0
  153.5364  143.1003  161.2397 H   0  0  0  0  0  0  0  0  0  0  0  0
  151.8541  142.6254  161.3660 H   0  0  0  0  0  0  0  0  0  0  0  0
  153.0176  141.1718  159.7308 H   0  0  0  0  0  0  0  0  0  0  0  0
  153.5864  142.5588  158.8263 H   0  0  0  0  0  0  0  0  0  0  0  0
  152.0652  138.0539  157.2157 H   0  0  0  0  0  0  0  0  0  0  0  0
  1  2  1  0  0  0  0
  1 19  1  0  0  0  0
  1 20  1  0  0  0  0
  2  3  2  0  0  0  0
  2  4  2  0  0  0  0
  2  5  1  0  0  0  0
  5  6  1  0  0  0  0
  6  7  1  0  0  0  0
  6 21  1  0  0  0  0
  6 22  1  0  0  0  0
  7 18  1  0  0  0  0
  7  8  2  0  0  0  0
  8  9  1  0  0  0  0
  8 23  1  0  0  0  0
  9 10  2  0  0  0  0
  9 24  1  0  0  0  0
 10 11  1  0  0  0  0
 10 17  1  0  0  0  0
 11 16  1  0  0  0  0
 11 12  1  0  0  0  0
 12 13  1  0  0  0  0
 12 25  1  0  0  0  0
 12 26  1  0  0  0  0
 13 14  1  0  0  0  0
 13 27  1  0  0  0  0
 13 28  1  0  0  0  0
 14 15  1  0  0  0  0
 15 16  1  0  0  0  0
 15 29  1  0  0  0  0
 15 30  1  0  0  0  0
 16 31  1  0  0  0  0
 16 32  1  0  0  0  0
 17 18  2  0  0  0  0
 18 33  1  0  0  0  0
M  CHG  1   5  -1
M  END
> <s_m_source_file>
AV-unprocessed.smi

> <i_m_source_file_index>
1507

> <i_lp_mmshare_version>
43012

> <i_f3d_flags>
0

> <s_epik_input>
W05IMl1TKD1PKSg9TylbTkhdW0NIMl1jMVtjSF1bY0hdYyhuW2NIXTEpTjJbQ0gyXVtDSDJdT1tDSDJdW0NIMl0y

> <s_epik_cmdline>
J2VwaWtfcHl0aG9uJywgJy1waCcsICc3LjAnLCAnLXRuJywgJzgnLCAnLW1hJywgJzIwMCcsICctbWV0YWxfYmluZGluZycsICctaW1hZScsICc8aW5maWxlLm1hZT4nLCAnLW9tYWUnLCAnPG91dGZpbGUubWFlPic=

> <r_lp_tautomer_probability>
1

> <r_epik_Ionization_Penalty>
0.860968

> <r_epik_Ionization_Penalty_Charging>
0.789613

> <r_epik_Ionization_Penalty_Neutral>
0.071355

> <r_epik_State_Penalty>
0.836007

> <r_epik_Charging_Adjusted_Penalty>
1.62562

> <i_epik_Tot_Q>
-1

> <i_epik_Tot_abs_Q>
1

> <r_epik_Metal_State_Penalty>
0.647115

> <b_epik_Metal_Only>
0

> <s_lp_Force_Field>
OPLS_2005

> <r_lp_Energy>
17.6247

> <b_lp_Chiralities_Consistent>
1

> <s_lp_Variant>
AV-unprocessed.smi:1507-2

> <Gold.Version>
5.8.1

> <Gold.Id.Protein>
6NUR|6NUR_protein|mol2

> <Gold.PLP.Fitness>
39.6216

> <Gold.PLP.PLP>
-31.0688

> <Gold.PLP.part.hbond>
-2.1789

> <Gold.PLP.part.metal>
0.0000

> <Gold.PLP.part.buried>
-3.9998

> <Gold.PLP.part.nonpolar>
-25.2517

> <Gold.PLP.part.repulsive>
0.2044

> <Gold.PLP.ligand.clash>
0.0000

> <Gold.PLP.ligand.torsion>
0.8646

> <Gold.PLP.Chemscore.Hbond>
2.9913

> <Gold.PLP.Chemscore.CHOScore>
0.0000

> <Gold.PLP.Chemscore.Metal>
0.0000

> <Gold.Chemscore.Hbonds>
donor molecule, donor type, donor heavy atom, donor atom, acceptor molecule, acceptor atom, score
      L1  H     1    19       P1  7948  0.88
      P1  H 10752 10764       L1     5  2.00

> <Gold.PLP.Chemscore.Internal.Correction>
1.3084

> <Gold.Rescore>
     Score         DG    S(hbond)    S(metal)    S(lipo)     H(rot)  DE(clash)    DE(int)     intcor
     13.35     -15.37       1.68        0.00      77.62       1.88       1.18       0.84       ----

> <Gold.Chemscore.Fitness>
13.3471

> <Gold.Chemscore.DG>
-15.3674

> <Gold.Chemscore.ZeroCoef>
-5.4800

> <Gold.Chemscore.Hbond>
1.6832

> <Gold.Chemscore.Metal>
0.0000

> <Gold.Chemscore.Lipo>
77.6248

> <Gold.Chemscore.Internal_Hbond>
0.0000

> <Gold.Chemscore.DEClash>
1.1820

> <Gold.Chemscore.DEInternal>
0.8383

> <Gold.Chemscore.Rot>
1.8814

> <Gold.Chemscore.Internal.Correction>
   9.000000E+99

> <Gold.Chemscore.Hbonds>
donor molecule, donor type, donor heavy atom, donor atom, acceptor molecule, acceptor atom, score
      L1  H     1    19       P1  7948  0.18
      P1  H 10752 10764       L1     5  0.29

> <Gold.Chemscore.Hbond.Weighted>
-5.6218

> <Gold.Chemscore.Metal.Weighted>
-0.0000

> <Gold.Chemscore.Lipo.Weighted>
-9.0821

> <Gold.Chemscore.Internal_Hbond.Weighted>
0.0000

> <Gold.Chemscore.DEClash.Weighted>
1.1820

> <Gold.Chemscore.DEInternal.Weighted>
0.8383

> <Gold.Chemscore.Rot.Weighted>
4.8165

> <Gold.Chemscore.Internal.Correction.Weighted>
   9.000000E+99

> <Gold.Protein.RotatedTorsions>
[ 6907 6896 6895 6894 ] final   72.76 input  -60.11 | X-H torsion
[ 7974 7965 7964 7962 ] final    1.56 input  175.53 | X-H torsion
[ 8008 7997 7996 7995 ] final -136.64 input   59.86 | X-H torsion
[ 10167 10162 10161 10158 ] final -144.08 input  -65.29 | X-H torsion
[ 10718 10713 10712 10709 ] final  134.54 input   66.30 | X-H torsion
[ 10763 10752 10751 10750 ] final  -55.98 input  -60.55 | X-H torsion
[ 11005 11000 10999 10996 ] final   -6.53 input  -57.11 | X-H torsion

> <Gold.Protein.ActiveResidues>
 VAL166  LYS551  ARG553  GLY616  TRP617  ASP618  TYR619  PRO620  LYS621  CYS622 
 ASP623  PHE694  ASN695  SER759  ASP760  ASP761  ALA762  ILE779  LEU786  VAL792 
 PHE793  MET794  SER795  GLU796  ALA797  LYS798  CYS799  TRP800  GLU811  SER814 

> <Gold.Protein.RotatedAtoms>
  152.4886  134.4523  159.9578 H   0  0  0  0  0  0  0  0  0  0  0  0  # atno 6907 bound_to 6896
  151.4515  133.3610  159.2804 H   0  0  0  0  0  0  0  0  0  0  0  0  # atno 6908 bound_to 6896
  150.9018  134.8455  159.7426 H   0  0  0  0  0  0  0  0  0  0  0  0  # atno 6909 bound_to 6896
  146.2441  140.0969  142.8349 H   0  0  0  0  0  0  0  0  0  0  0  0  # atno 7974 bound_to 7965
  155.3986  140.0504  157.3037 H   0  0  0  0  0  0  0  0  0  0  0  0  # atno 8008 bound_to 7997
  154.5001  140.2153  155.9324 H   0  0  0  0  0  0  0  0  0  0  0  0  # atno 8009 bound_to 7997
  156.1457  140.3146  155.8571 H   0  0  0  0  0  0  0  0  0  0  0  0  # atno 8010 bound_to 7997
  139.7932  143.7937  152.2652 H   0  0  0  0  0  0  0  0  0  0  0  0  # atno 10167 bound_to 10162
  157.4662  131.1077  150.9859 H   0  0  0  0  0  0  0  0  0  0  0  0  # atno 10718 bound_to 10713
  154.1994  135.6413  153.5083 H   0  0  0  0  0  0  0  0  0  0  0  0  # atno 10763 bound_to 10752
  153.0015  135.5448  154.6331 H   0  0  0  0  0  0  0  0  0  0  0  0  # atno 10764 bound_to 10752
  154.5740  135.2919  155.0772 H   0  0  0  0  0  0  0  0  0  0  0  0  # atno 10765 bound_to 10752
  140.7029  133.8974  155.8696 H   0  0  0  0  0  0  0  0  0  0  0  0  # atno 11005 bound_to 11000
  145.0602  140.9082  143.4943 LP  0  0  0  0  0  0  0  0  0  0  0  0  # atno 17320 bound_to 7965
  145.1083  139.2775  143.5651 LP  0  0  0  0  0  0  0  0  0  0  0  0  # atno 17321 bound_to 7965
  139.8034  144.7365  150.9794 LP  0  0  0  0  0  0  0  0  0  0  0  0  # atno 17342 bound_to 10162
  140.7820  143.4322  151.0677 LP  0  0  0  0  0  0  0  0  0  0  0  0  # atno 17343 bound_to 10162
  157.0640  130.5837  149.5390 LP  0  0  0  0  0  0  0  0  0  0  0  0  # atno 17370 bound_to 10713
  156.0051  130.5137  150.7802 LP  0  0  0  0  0  0  0  0  0  0  0  0  # atno 17371 bound_to 10713
  141.0148  134.0970  157.4183 LP  0  0  0  0  0  0  0  0  0  0  0  0  # atno 17394 bound_to 11000
  139.8892  135.0103  156.6664 LP  0  0  0  0  0  0  0  0  0  0  0  0  # atno 17395 bound_to 11000

$$$$
