AV-unprocessed.smi:1642|AV-procd|sdf|6570|dock6
  -GOLD-   22720 7253D 1   1.00000     0.00000
 Structure written by MMmdl.
 35 36  0  0  0  0  0  0  0  0  2 V2000
  150.7776  142.5992  157.4539 C   0  0  0  0  0  0  0  0  0  0  0  0
  150.5804  141.5803  156.3840 C   0  0  0  0  0  0  0  0  0  0  0  0
  151.5923  140.8877  155.8472 N   0  0  0  0  0  0  0  0  0  0  0  0
  151.1625  139.9981  154.8727 N   0  0  0  0  0  0  0  0  0  0  0  0
  149.8339  140.0453  154.7037 C   0  0  0  0  0  0  0  0  0  0  0  0
  149.1283  139.2399  153.7703 N   0  0  0  0  0  0  0  0  0  0  0  0
  147.8124  139.2473  153.4925 C   0  0  0  0  0  0  0  0  0  0  0  0
  146.9753  139.9791  154.0213 O   0  0  0  0  0  0  0  0  0  0  0  0
  147.5060  138.3444  152.5510 N   0  0  0  0  0  0  0  0  0  0  0  0
  146.1578  138.1219  152.0464 C   0  0  0  0  0  0  0  0  0  0  0  0
  145.5727  136.8164  152.6058 C   0  0  0  0  0  0  0  0  0  0  0  0
  146.2552  135.6246  152.0504 N   0  3  0  0  0  0  0  0  0  0  0  0
  146.3008  134.4442  152.9478 C   0  0  0  0  0  0  0  0  0  0  0  0
  146.0095  133.2118  152.0799 C   0  0  0  0  0  0  0  0  0  0  0  0
  146.1443  133.7092  150.6443 C   0  0  0  0  0  0  0  0  0  0  0  0
  145.7219  135.1704  150.7507 C   0  0  0  0  0  0  0  0  0  0  0  0
  148.9925  141.1915  155.7331 S   0  0  0  0  0  0  0  0  0  0  0  0
  151.8210  142.9139  157.4966 H   0  0  0  0  0  0  0  0  0  0  0  0
  150.4974  142.1816  158.4209 H   0  0  0  0  0  0  0  0  0  0  0  0
  150.1583  143.4743  157.2566 H   0  0  0  0  0  0  0  0  0  0  0  0
  149.6934  138.5808  153.2556 H   0  0  0  0  0  0  0  0  0  0  0  0
  148.2478  137.7801  152.1629 H   0  0  0  0  0  0  0  0  0  0  0  0
  145.5243  138.9651  152.3267 H   0  0  0  0  0  0  0  0  0  0  0  0
  146.1902  138.0918  150.9562 H   0  0  0  0  0  0  0  0  0  0  0  0
  145.6311  136.8013  153.6954 H   0  0  0  0  0  0  0  0  0  0  0  0
  144.5140  136.7626  152.3470 H   0  0  0  0  0  0  0  0  0  0  0  0
  147.2916  134.3837  153.3994 H   0  0  0  0  0  0  0  0  0  0  0  0
  145.5727  134.5164  153.7574 H   0  0  0  0  0  0  0  0  0  0  0  0
  146.6753  132.3762  152.2978 H   0  0  0  0  0  0  0  0  0  0  0  0
  144.9870  132.8745  152.2546 H   0  0  0  0  0  0  0  0  0  0  0  0
  147.1854  133.6454  150.3245 H   0  0  0  0  0  0  0  0  0  0  0  0
  145.5379  133.1412  149.9381 H   0  0  0  0  0  0  0  0  0  0  0  0
  144.6323  135.2376  150.7541 H   0  0  0  0  0  0  0  0  0  0  0  0
  146.0969  135.7774  149.9261 H   0  0  0  0  0  0  0  0  0  0  0  0
  147.2160  135.8838  151.8765 H   0  0  0  0  0  0  0  0  0  0  0  0
  1  2  1  0  0  0  0
  1 18  1  0  0  0  0
  1 19  1  0  0  0  0
  1 20  1  0  0  0  0
  2 17  1  0  0  0  0
  2  3  2  0  0  0  0
  3  4  1  0  0  0  0
  4  5  2  0  0  0  0
  5  6  1  0  0  0  0
  5 17  1  0  0  0  0
  6  7  1  0  0  0  0
  6 21  1  0  0  0  0
  7  8  2  0  0  0  0
  7  9  1  0  0  0  0
  9 10  1  0  0  0  0
  9 22  1  0  0  0  0
 10 11  1  0  0  0  0
 10 23  1  0  0  0  0
 10 24  1  0  0  0  0
 11 12  1  0  0  0  0
 11 25  1  0  0  0  0
 11 26  1  0  0  0  0
 12 16  1  0  0  0  0
 12 13  1  0  0  0  0
 12 35  1  0  0  0  0
 13 14  1  0  0  0  0
 13 27  1  0  0  0  0
 13 28  1  0  0  0  0
 14 15  1  0  0  0  0
 14 29  1  0  0  0  0
 14 30  1  0  0  0  0
 15 16  1  0  0  0  0
 15 31  1  0  0  0  0
 15 32  1  0  0  0  0
 16 33  1  0  0  0  0
 16 34  1  0  0  0  0
M  CHG  1  12   1
M  END
> <s_m_source_file>
AV-unprocessed.smi

> <i_m_source_file_index>
1642

> <i_lp_mmshare_version>
43012

> <i_f3d_flags>
0

> <s_epik_input>
W0NIM11jMW5uYyhzMSlbTkhdQyg9TylbTkhdW0NIMl1bQ0gyXU4yW0NIMl1bQ0gyXVtDSDJdW0NIMl0y

> <s_epik_cmdline>
J2VwaWtfcHl0aG9uJywgJy1waCcsICc3LjAnLCAnLXRuJywgJzgnLCAnLW1hJywgJzIwMCcsICctbWV0YWxfYmluZGluZycsICctaW1hZScsICc8aW5maWxlLm1hZT4nLCAnLW9tYWUnLCAnPG91dGZpbGUubWFlPic=

> <r_lp_tautomer_probability>
1

> <r_epik_Ionization_Penalty>
0.00661496

> <r_epik_Ionization_Penalty_Charging>
0.0023443

> <r_epik_Ionization_Penalty_Neutral>
0.00427066

> <r_epik_State_Penalty>
0.00184107

> <r_epik_Charging_Adjusted_Penalty>
0.00418537

> <i_epik_Tot_Q>
1

> <i_epik_Tot_abs_Q>
1

> <r_epik_Metal_State_Penalty>
0.375387

> <b_epik_Metal_Only>
0

> <s_lp_Force_Field>
OPLS_2005

> <r_lp_Energy>
26.1101

> <b_lp_Chiralities_Consistent>
1

> <s_lp_Variant>
AV-unprocessed.smi:1642-1

> <Gold.Version>
5.8.1

> <Gold.Id.Protein>
6NUR|6NUR_protein|mol2

> <Gold.PLP.Fitness>
39.7329

> <Gold.PLP.PLP>
-28.7554

> <Gold.PLP.part.hbond>
-5.9660

> <Gold.PLP.part.metal>
0.0000

> <Gold.PLP.part.buried>
-0.8534

> <Gold.PLP.part.nonpolar>
-22.1211

> <Gold.PLP.part.repulsive>
0.4054

> <Gold.PLP.ligand.clash>
0.0000

> <Gold.PLP.ligand.torsion>
0.4433

> <Gold.PLP.Chemscore.Hbond>
3.9500

> <Gold.PLP.Chemscore.CHOScore>
0.0000

> <Gold.PLP.Chemscore.Metal>
0.0000

> <Gold.Chemscore.Hbonds>
donor molecule, donor type, donor heavy atom, donor atom, acceptor molecule, acceptor atom, score
      L1  H     9    22       P1  7948  1.00
      L1  H    12    35       P1  7948  2.00
      P1  H  7989  7998       L1     4  0.90

> <Gold.PLP.Chemscore.Internal.Correction>
0.0140

> <Gold.Rescore>
     Score         DG    S(hbond)    S(metal)    S(lipo)     H(rot)  DE(clash)    DE(int)     intcor
     14.25     -15.83       2.56        0.00      51.10       1.63       0.02       1.56       ----

> <Gold.Chemscore.Fitness>
14.2510

> <Gold.Chemscore.DG>
-15.8287

> <Gold.Chemscore.ZeroCoef>
-5.4800

> <Gold.Chemscore.Hbond>
2.5574

> <Gold.Chemscore.Metal>
0.0000

> <Gold.Chemscore.Lipo>
51.1026

> <Gold.Chemscore.Internal_Hbond>
0.0000

> <Gold.Chemscore.DEClash>
0.0208

> <Gold.Chemscore.DEInternal>
1.5568

> <Gold.Chemscore.Rot>
1.6297

> <Gold.Chemscore.Internal.Correction>
   9.000000E+99

> <Gold.Chemscore.Hbonds>
donor molecule, donor type, donor heavy atom, donor atom, acceptor molecule, acceptor atom, score
      L1  H     9    22       P1  7948  0.96
      L1  H    12    35       P1  7948  1.00
      P1  H  7989  7998       L1     4  0.05

> <Gold.Chemscore.Hbond.Weighted>
-8.5417

> <Gold.Chemscore.Metal.Weighted>
-0.0000

> <Gold.Chemscore.Lipo.Weighted>
-5.9790

> <Gold.Chemscore.Internal_Hbond.Weighted>
0.0000

> <Gold.Chemscore.DEClash.Weighted>
0.0208

> <Gold.Chemscore.DEInternal.Weighted>
1.5568

> <Gold.Chemscore.Rot.Weighted>
4.1720

> <Gold.Chemscore.Internal.Correction.Weighted>
   9.000000E+99

> <Gold.Protein.RotatedTorsions>
[ 6907 6896 6895 6894 ] final  136.65 input  -60.11 | X-H torsion
[ 7974 7965 7964 7962 ] final -104.89 input  175.53 | X-H torsion
[ 8008 7997 7996 7995 ] final  -44.24 input   59.86 | X-H torsion
[ 10167 10162 10161 10158 ] final  168.47 input  -65.29 | X-H torsion
[ 10718 10713 10712 10709 ] final   81.81 input   66.30 | X-H torsion
[ 10763 10752 10751 10750 ] final  134.05 input  -60.55 | X-H torsion
[ 11005 11000 10999 10996 ] final -163.81 input  -57.11 | X-H torsion

> <Gold.Protein.ActiveResidues>
 VAL166  LYS551  ARG553  GLY616  TRP617  ASP618  TYR619  PRO620  LYS621  CYS622 
 ASP623  PHE694  ASN695  SER759  ASP760  ASP761  ALA762  ILE779  LEU786  VAL792 
 PHE793  MET794  SER795  GLU796  ALA797  LYS798  CYS799  TRP800  GLU811  SER814 

> <Gold.Protein.RotatedAtoms>
  152.2870  133.5524  159.5533 H   0  0  0  0  0  0  0  0  0  0  0  0  # atno 6907 bound_to 6896
  150.7219  134.0483  159.3798 H   0  0  0  0  0  0  0  0  0  0  0  0  # atno 6908 bound_to 6896
  151.8391  135.0596  160.0497 H   0  0  0  0  0  0  0  0  0  0  0  0  # atno 6909 bound_to 6896
  145.2374  140.9193  143.3169 H   0  0  0  0  0  0  0  0  0  0  0  0  # atno 7974 bound_to 7965
  154.3997  140.1427  156.3650 H   0  0  0  0  0  0  0  0  0  0  0  0  # atno 8008 bound_to 7997
  155.8145  140.3471  155.5457 H   0  0  0  0  0  0  0  0  0  0  0  0  # atno 8009 bound_to 7997
  155.8352  140.0918  157.1759 H   0  0  0  0  0  0  0  0  0  0  0  0  # atno 8010 bound_to 7997
  139.4969  144.3810  151.9621 H   0  0  0  0  0  0  0  0  0  0  0  0  # atno 10167 bound_to 10162
  157.6842  131.0020  150.2281 H   0  0  0  0  0  0  0  0  0  0  0  0  # atno 10718 bound_to 10713
  153.8172  135.3121  155.3407 H   0  0  0  0  0  0  0  0  0  0  0  0  # atno 10763 bound_to 10752
  154.8027  135.4717  154.0319 H   0  0  0  0  0  0  0  0  0  0  0  0  # atno 10764 bound_to 10752
  153.1716  135.6878  153.8689 H   0  0  0  0  0  0  0  0  0  0  0  0  # atno 10765 bound_to 10752
  140.5940  134.5016  157.5196 H   0  0  0  0  0  0  0  0  0  0  0  0  # atno 11005 bound_to 11000
  144.9620  139.3969  143.6351 LP  0  0  0  0  0  0  0  0  0  0  0  0  # atno 17320 bound_to 7965
  146.3337  139.8678  142.8845 LP  0  0  0  0  0  0  0  0  0  0  0  0  # atno 17321 bound_to 7965
  140.3247  144.3387  150.6001 LP  0  0  0  0  0  0  0  0  0  0  0  0  # atno 17342 bound_to 10162
  140.5694  143.2182  151.7626 LP  0  0  0  0  0  0  0  0  0  0  0  0  # atno 17343 bound_to 10162
  156.2919  130.3747  149.7833 LP  0  0  0  0  0  0  0  0  0  0  0  0  # atno 17370 bound_to 10713
  156.5490  130.8333  151.3293 LP  0  0  0  0  0  0  0  0  0  0  0  0  # atno 17371 bound_to 10713
  139.9261  134.8052  156.1063 LP  0  0  0  0  0  0  0  0  0  0  0  0  # atno 17394 bound_to 11000
  141.0916  133.6712  156.2554 LP  0  0  0  0  0  0  0  0  0  0  0  0  # atno 17395 bound_to 11000

$$$$
