AV-unprocessed.smi:3032|AV-procd|sdf|11563|dock9
  -GOLD-   2272016533D 1   1.00000     0.00000
 Structure written by MMmdl.
 37 38  0  0  0  0  0  0  0  0  1 V2000
  153.8918  141.6939  160.8002 C   0  0  0  0  0  0  0  0  0  0  0  0
  153.1551  142.4293  159.6718 C   0  0  2  0  0  0  0  0  0  0  0  0
  152.5481  143.7564  160.1672 C   0  0  0  0  0  0  0  0  0  0  0  0
  151.8038  144.4918  159.0414 C   0  0  0  0  0  0  0  0  0  0  0  0
  150.7240  143.5983  158.4120 C   0  0  0  0  0  0  0  0  0  0  0  0
  151.3257  142.2745  157.8977 C   0  0  2  0  0  0  0  0  0  0  0  0
  150.2368  141.3865  157.2819 C   0  0  0  0  0  0  0  0  0  0  0  0
  150.1123  140.2147  157.6395 O   0  0  0  0  0  0  0  0  0  0  0  0
  149.4458  141.9621  156.3638 N   0  0  0  0  0  0  0  0  0  0  0  0
  148.3137  141.3153  155.7076 C   0  0  0  0  0  0  0  0  0  0  0  0
  148.6614  140.7728  154.3064 C   0  0  0  0  0  0  0  0  0  0  0  0
  149.7941  139.7951  154.3057 C   0  0  0  0  0  0  0  0  0  0  0  0
  151.0064  140.1470  154.7373 N   0  0  0  0  0  0  0  0  0  0  0  0
  151.7182  139.0176  154.5334 N   0  0  0  0  0  0  0  0  0  0  0  0
  150.9174  138.0959  154.0010 C   0  0  0  0  0  0  0  0  0  0  0  0
  149.6742  138.5205  153.8200 N   0  0  0  0  0  0  0  0  0  0  0  0
  152.0649  141.5422  159.0384 C   0  0  0  0  0  0  0  0  0  0  0  0
  153.2122  141.4292  161.6111 H   0  0  0  0  0  0  0  0  0  0  0  0
  154.6856  142.3126  161.2195 H   0  0  0  0  0  0  0  0  0  0  0  0
  154.3495  140.7739  160.4360 H   0  0  0  0  0  0  0  0  0  0  0  0
  153.8890  142.6629  158.8992 H   0  0  0  0  0  0  0  0  0  0  0  0
  151.8589  143.5621  160.9902 H   0  0  0  0  0  0  0  0  0  0  0  0
  153.3323  144.4000  160.5674 H   0  0  0  0  0  0  0  0  0  0  0  0
  151.3506  145.4040  159.4306 H   0  0  0  0  0  0  0  0  0  0  0  0
  152.5142  144.8027  158.2745 H   0  0  0  0  0  0  0  0  0  0  0  0
  149.9473  143.3974  159.1518 H   0  0  0  0  0  0  0  0  0  0  0  0
  150.2398  144.1338  157.5940 H   0  0  0  0  0  0  0  0  0  0  0  0
  152.0540  142.5125  157.1200 H   0  0  0  0  0  0  0  0  0  0  0  0
  149.6178  142.9290  156.1289 H   0  0  0  0  0  0  0  0  0  0  0  0
  147.9935  140.4910  156.3453 H   0  0  0  0  0  0  0  0  0  0  0  0
  147.4696  142.0041  155.6487 H   0  0  0  0  0  0  0  0  0  0  0  0
  147.7818  140.2985  153.8697 H   0  0  0  0  0  0  0  0  0  0  0  0
  148.9153  141.6006  153.6432 H   0  0  0  0  0  0  0  0  0  0  0  0
  151.2483  137.1018  153.7392 H   0  0  0  0  0  0  0  0  0  0  0  0
  152.5160  140.6254  158.6559 H   0  0  0  0  0  0  0  0  0  0  0  0
  151.3554  141.2369  159.8094 H   0  0  0  0  0  0  0  0  0  0  0  0
  152.6989  138.9310  154.7591 H   0  0  0  0  0  0  0  0  0  0  0  0
  1  2  1  0  0  0  0
  1 18  1  0  0  0  0
  1 19  1  0  0  0  0
  1 20  1  0  0  0  0
  2 17  1  0  0  0  0
  2  3  1  0  0  0  0
  2 21  1  0  0  0  0
  3  4  1  0  0  0  0
  3 22  1  0  0  0  0
  3 23  1  0  0  0  0
  4  5  1  0  0  0  0
  4 24  1  0  0  0  0
  4 25  1  0  0  0  0
  5  6  1  0  0  0  0
  5 26  1  0  0  0  0
  5 27  1  0  0  0  0
  6  7  1  0  0  0  0
  6 17  1  0  0  0  0
  6 28  1  0  0  0  0
  7  8  2  0  0  0  0
  7  9  1  0  0  0  0
  9 10  1  0  0  0  0
  9 29  1  0  0  0  0
 10 11  1  0  0  0  0
 10 30  1  0  0  0  0
 10 31  1  0  0  0  0
 11 32  1  0  0  0  0
 11 33  1  0  0  0  0
 11 12  1  0  0  0  0
 12 16  1  0  0  0  0
 12 13  2  0  0  0  0
 13 14  1  0  0  0  0
 14 15  1  0  0  0  0
 14 37  1  0  0  0  0
 15 16  2  0  0  0  0
 15 34  1  0  0  0  0
 17 35  1  0  0  0  0
 17 36  1  0  0  0  0
M  END
> <s_m_source_file>
AV-unprocessed.smi

> <i_m_source_file_index>
3032

> <i_lp_mmshare_version>
43012

> <i_f3d_flags>
0

> <s_epik_input>
W0NIM11bQ0BASF0xW0NIMl1bQ0gyXVtDSDJdW0NASF0oW0NIMl0xKUMoPU8pW05IXVtDSDJdW0NIMl1jMm5uW2NIXVtuSF0y

> <s_epik_cmdline>
J2VwaWtfcHl0aG9uJywgJy1waCcsICc3LjAnLCAnLXRuJywgJzgnLCAnLW1hJywgJzIwMCcsICctbWV0YWxfYmluZGluZycsICctaW1hZScsICc8aW5maWxlLm1hZT4nLCAnLW9tYWUnLCAnPG91dGZpbGUubWFlPic=

> <r_epik_Ionization_Penalty>
0.000752022

> <r_epik_Ionization_Penalty_Charging>
0

> <r_epik_Ionization_Penalty_Neutral>
0.000752022

> <r_epik_State_Penalty>
0.639926

> <r_epik_Charging_Adjusted_Penalty>
0.639926

> <i_epik_Tot_Q>
0

> <i_epik_Tot_abs_Q>
0

> <r_epik_Metal_State_Penalty>
0.76532

> <b_epik_Metal_Only>
0

> <s_lp_Force_Field>
OPLS_2005

> <r_lp_Energy>
8.90132

> <b_lp_Chiralities_Consistent>
1

> <s_lp_Variant>
AV-unprocessed.smi:3032-7

> <Gold.Version>
5.8.1

> <Gold.Id.Protein>
6NUR|6NUR_protein|mol2

> <Gold.PLP.Fitness>
44.0957

> <Gold.PLP.PLP>
-37.3468

> <Gold.PLP.part.hbond>
-2.0000

> <Gold.PLP.part.metal>
0.0000

> <Gold.PLP.part.buried>
-5.4541

> <Gold.PLP.part.nonpolar>
-31.8658

> <Gold.PLP.part.repulsive>
0.8938

> <Gold.PLP.ligand.clash>
0.0000

> <Gold.PLP.ligand.torsion>
0.2581

> <Gold.PLP.Chemscore.Hbond>
1.8480

> <Gold.PLP.Chemscore.CHOScore>
0.5670

> <Gold.PLP.Chemscore.Metal>
0.0000

> <Gold.Chemscore.Hbonds>
donor molecule, donor type, donor heavy atom, donor atom, acceptor molecule, acceptor atom, score
      L1  H     9    29       P1  8028  0.98
      P1  H  7989  7998       L1    13  0.65
      L1  C    15    34       P1  7949  0.96

> <Gold.PLP.Chemscore.Internal.Correction>
0.0199

> <Gold.Rescore>
     Score         DG    S(hbond)    S(metal)    S(lipo)     H(rot)  DE(clash)    DE(int)     intcor
     15.48     -15.97       1.70        0.00      90.34       2.25       0.04       0.45       ----

> <Gold.Chemscore.Fitness>
15.4798

> <Gold.Chemscore.DG>
-15.9655

> <Gold.Chemscore.ZeroCoef>
-5.4800

> <Gold.Chemscore.Hbond>
1.6995

> <Gold.Chemscore.Metal>
0.0000

> <Gold.Chemscore.Lipo>
90.3380

> <Gold.Chemscore.Internal_Hbond>
0.0000

> <Gold.Chemscore.DEClash>
0.0402

> <Gold.Chemscore.DEInternal>
0.4454

> <Gold.Chemscore.Rot>
2.2501

> <Gold.Chemscore.Internal.Correction>
   9.000000E+99

> <Gold.Chemscore.Hbonds>
donor molecule, donor type, donor heavy atom, donor atom, acceptor molecule, acceptor atom, score
      L1  H     9    29       P1  8028  0.90
      P1  H  7989  7998       L1    13  0.02

> <Gold.Chemscore.Hbond.Weighted>
-5.6763

> <Gold.Chemscore.Metal.Weighted>
-0.0000

> <Gold.Chemscore.Lipo.Weighted>
-10.5695

> <Gold.Chemscore.Internal_Hbond.Weighted>
0.0000

> <Gold.Chemscore.DEClash.Weighted>
0.0402

> <Gold.Chemscore.DEInternal.Weighted>
0.4454

> <Gold.Chemscore.Rot.Weighted>
5.7603

> <Gold.Chemscore.Internal.Correction.Weighted>
   9.000000E+99

> <Gold.Protein.RotatedTorsions>
[ 6907 6896 6895 6894 ] final  -56.55 input  -60.11 | X-H torsion
[ 7974 7965 7964 7962 ] final -165.20 input  175.53 | X-H torsion
[ 8008 7997 7996 7995 ] final -157.08 input   59.86 | X-H torsion
[ 10167 10162 10161 10158 ] final   80.92 input  -65.29 | X-H torsion
[ 10718 10713 10712 10709 ] final -122.23 input   66.30 | X-H torsion
[ 10763 10752 10751 10750 ] final  -13.09 input  -60.55 | X-H torsion
[ 11005 11000 10999 10996 ] final   51.77 input  -57.11 | X-H torsion

> <Gold.Protein.ActiveResidues>
 VAL166  LYS551  ARG553  GLY616  TRP617  ASP618  TYR619  PRO620  LYS621  CYS622 
 ASP623  PHE694  ASN695  SER759  ASP760  ASP761  ALA762  ILE779  LEU786  VAL792 
 PHE793  MET794  SER795  GLU796  ALA797  LYS798  CYS799  TRP800  GLU811  SER814 

> <Gold.Protein.RotatedAtoms>
  150.8158  134.7339  159.6728 H   0  0  0  0  0  0  0  0  0  0  0  0  # atno 6907 bound_to 6896
  152.4277  134.5834  159.9964 H   0  0  0  0  0  0  0  0  0  0  0  0  # atno 6908 bound_to 6896
  151.6031  133.3317  159.3087 H   0  0  0  0  0  0  0  0  0  0  0  0  # atno 6909 bound_to 6896
  144.7276  140.2849  143.6230 H   0  0  0  0  0  0  0  0  0  0  0  0  # atno 7974 bound_to 7965
  155.7270  140.0797  157.2305 H   0  0  0  0  0  0  0  0  0  0  0  0  # atno 8008 bound_to 7997
  154.4037  140.1602  156.2521 H   0  0  0  0  0  0  0  0  0  0  0  0  # atno 8009 bound_to 7997
  155.9144  140.3402  155.6126 H   0  0  0  0  0  0  0  0  0  0  0  0  # atno 8010 bound_to 7997
  139.9447  144.6066  150.8218 H   0  0  0  0  0  0  0  0  0  0  0  0  # atno 10167 bound_to 10162
  156.1401  130.6460  150.9758 H   0  0  0  0  0  0  0  0  0  0  0  0  # atno 10718 bound_to 10713
  153.5081  135.7016  153.5796 H   0  0  0  0  0  0  0  0  0  0  0  0  # atno 10763 bound_to 10752
  153.3898  135.3899  155.1915 H   0  0  0  0  0  0  0  0  0  0  0  0  # atno 10764 bound_to 10752
  154.8705  135.3855  154.4558 H   0  0  0  0  0  0  0  0  0  0  0  0  # atno 10765 bound_to 10752
  140.0905  134.5216  155.8857 H   0  0  0  0  0  0  0  0  0  0  0  0  # atno 11005 bound_to 11000
  145.7912  139.1928  143.2101 LP  0  0  0  0  0  0  0  0  0  0  0  0  # atno 17320 bound_to 7965
  146.0754  140.7823  142.9667 LP  0  0  0  0  0  0  0  0  0  0  0  0  # atno 17321 bound_to 7965
  140.7600  143.3142  151.2772 LP  0  0  0  0  0  0  0  0  0  0  0  0  # atno 17342 bound_to 10162
  139.6676  144.0077  152.2733 LP  0  0  0  0  0  0  0  0  0  0  0  0  # atno 17343 bound_to 10162
  157.6568  131.0888  150.7929 LP  0  0  0  0  0  0  0  0  0  0  0  0  # atno 17370 bound_to 10713
  156.8005  130.4919  149.5370 LP  0  0  0  0  0  0  0  0  0  0  0  0  # atno 17371 bound_to 10713
  141.2076  133.6666  156.6317 LP  0  0  0  0  0  0  0  0  0  0  0  0  # atno 17394 bound_to 11000
  140.3359  134.7889  157.4362 LP  0  0  0  0  0  0  0  0  0  0  0  0  # atno 17395 bound_to 11000

$$$$
