AV-unprocessed.smi:2567|AV-procd|sdf|10080|dock10
  -GOLD-   2272014103D 1   1.00000     0.00000
 Structure written by MMmdl.
 33 34  0  0  0  0  0  0  0  0  1 V2000
  150.7580  145.0602  158.9364 C   0  0  0  0  0  0  0  0  0  0  0  0
  151.7837  143.9371  158.6885 C   0  0  0  0  0  0  0  0  0  0  0  0
  153.0461  144.5223  158.0266 C   0  0  0  0  0  0  0  0  0  0  0  0
  152.1858  143.3481  160.0592 C   0  0  0  0  0  0  0  0  0  0  0  0
  151.1799  142.8877  157.7856 C   0  0  0  0  0  0  0  0  0  0  0  0
  150.0084  143.0380  157.1577 N   0  0  0  0  0  0  0  0  0  0  0  0
  149.7247  141.9254  156.4494 N   0  0  0  0  0  0  0  0  0  0  0  0
  150.7856  141.1603  156.6987 C   0  0  0  0  0  0  0  0  0  0  0  0
  150.8818  139.7751  156.1389 C   0  0  2  0  0  0  0  0  0  0  0  0
  152.2606  139.1383  156.4014 C   0  0  0  0  0  0  0  0  0  0  0  0
  152.3466  137.8307  155.7527 N   0  0  0  0  0  0  0  0  0  0  0  0
  152.0462  137.9290  154.3249 C   0  0  0  0  0  0  0  0  0  0  0  0
  150.6772  138.5995  154.1092 C   0  0  0  0  0  0  0  0  0  0  0  0
  150.6678  139.8791  154.7330 O   0  0  0  0  0  0  0  0  0  0  0  0
  151.7199  141.6954  157.5431 N   0  0  0  0  0  0  0  0  0  0  0  0
  151.1621  145.8305  159.5940 H   0  0  0  0  0  0  0  0  0  0  0  0
  149.8512  144.6720  159.4020 H   0  0  0  0  0  0  0  0  0  0  0  0
  150.4655  145.5489  158.0063 H   0  0  0  0  0  0  0  0  0  0  0  0
  152.8152  144.9915  157.0695 H   0  0  0  0  0  0  0  0  0  0  0  0
  153.7905  143.7472  157.8407 H   0  0  0  0  0  0  0  0  0  0  0  0
  153.5110  145.2810  158.6570 H   0  0  0  0  0  0  0  0  0  0  0  0
  152.6123  144.1130  160.7093 H   0  0  0  0  0  0  0  0  0  0  0  0
  152.9339  142.5612  159.9546 H   0  0  0  0  0  0  0  0  0  0  0  0
  151.3267  142.9238  160.5801 H   0  0  0  0  0  0  0  0  0  0  0  0
  150.0929  139.1624  156.5804 H   0  0  0  0  0  0  0  0  0  0  0  0
  153.0469  139.7913  156.0199 H   0  0  0  0  0  0  0  0  0  0  0  0
  152.4306  139.0363  157.4734 H   0  0  0  0  0  0  0  0  0  0  0  0
  152.8202  138.5100  153.8219 H   0  0  0  0  0  0  0  0  0  0  0  0
  152.0538  136.9375  153.8718 H   0  0  0  0  0  0  0  0  0  0  0  0
  150.4860  138.7265  153.0436 H   0  0  0  0  0  0  0  0  0  0  0  0
  149.8713  137.9796  154.5052 H   0  0  0  0  0  0  0  0  0  0  0  0
  153.2790  137.4497  155.8784 H   0  0  0  0  0  0  0  0  0  0  0  0
  149.3972  143.8413  157.1889 H   0  0  0  0  0  0  0  0  0  0  0  0
  1  2  1  0  0  0  0
  1 16  1  0  0  0  0
  1 17  1  0  0  0  0
  1 18  1  0  0  0  0
  2  3  1  0  0  0  0
  2  4  1  0  0  0  0
  2  5  1  0  0  0  0
  3 19  1  0  0  0  0
  3 20  1  0  0  0  0
  3 21  1  0  0  0  0
  4 22  1  0  0  0  0
  4 23  1  0  0  0  0
  4 24  1  0  0  0  0
  5 15  2  0  0  0  0
  5  6  1  0  0  0  0
  6  7  1  0  0  0  0
  6 33  1  0  0  0  0
  7  8  2  0  0  0  0
  8  9  1  0  0  0  0
  8 15  1  0  0  0  0
  9 14  1  0  0  0  0
  9 10  1  0  0  0  0
  9 25  1  0  0  0  0
 10 11  1  0  0  0  0
 10 26  1  0  0  0  0
 10 27  1  0  0  0  0
 11 12  1  0  0  0  0
 11 32  1  0  0  0  0
 12 13  1  0  0  0  0
 12 28  1  0  0  0  0
 12 29  1  0  0  0  0
 13 14  1  0  0  0  0
 13 30  1  0  0  0  0
 13 31  1  0  0  0  0
M  END
> <s_m_source_file>
AV-unprocessed.smi

> <i_m_source_file_index>
2567

> <i_lp_mmshare_version>
43012

> <i_f3d_flags>
0

> <s_epik_input>
W0NIM11DKFtDSDNdKShbQ0gzXSljMW5bbkhdYyhuMSlbQ0BASF0yW0NIMl1bTkhdW0NIMl1bQ0gyXU8y

> <s_epik_cmdline>
J2VwaWtfcHl0aG9uJywgJy1waCcsICc3LjAnLCAnLXRuJywgJzgnLCAnLW1hJywgJzIwMCcsICctbWV0YWxfYmluZGluZycsICctaW1hZScsICc8aW5maWxlLm1hZT4nLCAnLW9tYWUnLCAnPG91dGZpbGUubWFlPic=

> <r_lp_tautomer_probability>
0.948284

> <r_epik_Ionization_Penalty>
1.10045

> <r_epik_Ionization_Penalty_Charging>
0

> <r_epik_Ionization_Penalty_Neutral>
1.10045

> <r_epik_State_Penalty>
1.2625

> <r_epik_Charging_Adjusted_Penalty>
1.2625

> <i_epik_Tot_Q>
0

> <i_epik_Tot_abs_Q>
0

> <r_epik_Metal_State_Penalty>
1.57133

> <b_epik_Metal_Only>
0

> <s_lp_Force_Field>
OPLS_2005

> <r_lp_Energy>
14.8987

> <b_lp_Chiralities_Consistent>
1

> <s_lp_Variant>
AV-unprocessed.smi:2567-5

> <Gold.Version>
5.8.1

> <Gold.Id.Protein>
6NUR|6NUR_protein|mol2

> <Gold.PLP.Fitness>
34.3669

> <Gold.PLP.PLP>
-30.9944

> <Gold.PLP.part.hbond>
-2.1355

> <Gold.PLP.part.metal>
0.0000

> <Gold.PLP.part.buried>
-3.9724

> <Gold.PLP.part.nonpolar>
-25.9234

> <Gold.PLP.part.repulsive>
0.5816

> <Gold.PLP.ligand.clash>
0.0000

> <Gold.PLP.ligand.torsion>
0.4235

> <Gold.PLP.Chemscore.Hbond>
1.4000

> <Gold.PLP.Chemscore.CHOScore>
0.0000

> <Gold.PLP.Chemscore.Metal>
0.0000

> <Gold.Chemscore.Hbonds>
donor molecule, donor type, donor heavy atom, donor atom, acceptor molecule, acceptor atom, score
      L1  H     6    33       P1  8028  0.46
      P1  H  7989  7998       L1    14  1.00

> <Gold.PLP.Chemscore.Internal.Correction>
0.0195

> <Gold.Rescore>
     Score         DG    S(hbond)    S(metal)    S(lipo)     H(rot)  DE(clash)    DE(int)     intcor
     15.21     -15.93       1.39        0.00      77.03       1.25       0.45       0.27       ----

> <Gold.Chemscore.Fitness>
15.2119

> <Gold.Chemscore.DG>
-15.9342

> <Gold.Chemscore.ZeroCoef>
-5.4800

> <Gold.Chemscore.Hbond>
1.3859

> <Gold.Chemscore.Metal>
0.0000

> <Gold.Chemscore.Lipo>
77.0308

> <Gold.Chemscore.Internal_Hbond>
0.0000

> <Gold.Chemscore.DEClash>
0.4511

> <Gold.Chemscore.DEInternal>
0.2712

> <Gold.Chemscore.Rot>
1.2450

> <Gold.Chemscore.Internal.Correction>
   9.000000E+99

> <Gold.Chemscore.Hbonds>
donor molecule, donor type, donor heavy atom, donor atom, acceptor molecule, acceptor atom, score
      L1  H     6    33       P1  8028  0.25
      P1  H  7989  7998       L1    14  0.30

> <Gold.Chemscore.Hbond.Weighted>
-4.6288

> <Gold.Chemscore.Metal.Weighted>
-0.0000

> <Gold.Chemscore.Lipo.Weighted>
-9.0126

> <Gold.Chemscore.Internal_Hbond.Weighted>
0.0000

> <Gold.Chemscore.DEClash.Weighted>
0.4511

> <Gold.Chemscore.DEInternal.Weighted>
0.2712

> <Gold.Chemscore.Rot.Weighted>
3.1872

> <Gold.Chemscore.Internal.Correction.Weighted>
   9.000000E+99

> <Gold.Protein.RotatedTorsions>
[ 6907 6896 6895 6894 ] final  140.97 input  -60.11 | X-H torsion
[ 7974 7965 7964 7962 ] final -168.04 input  175.53 | X-H torsion
[ 8008 7997 7996 7995 ] final  -30.80 input   59.86 | X-H torsion
[ 10167 10162 10161 10158 ] final  -67.25 input  -65.29 | X-H torsion
[ 10718 10713 10712 10709 ] final -167.03 input   66.30 | X-H torsion
[ 10763 10752 10751 10750 ] final    2.39 input  -60.55 | X-H torsion
[ 11005 11000 10999 10996 ] final -177.55 input  -57.11 | X-H torsion

> <Gold.Protein.ActiveResidues>
 VAL166  LYS551  ARG553  GLY616  TRP617  ASP618  TYR619  PRO620  LYS621  CYS622 
 ASP623  PHE694  ASN695  SER759  ASP760  ASP761  ALA762  ILE779  LEU786  VAL792 
 PHE793  MET794  SER795  GLU796  ALA797  LYS798  CYS799  TRP800  GLU811  SER814 

> <Gold.Protein.RotatedAtoms>
  152.2367  133.5101  159.5246 H   0  0  0  0  0  0  0  0  0  0  0  0  # atno 6907 bound_to 6896
  150.7052  134.1144  159.4021 H   0  0  0  0  0  0  0  0  0  0  0  0  # atno 6908 bound_to 6896
  151.9065  135.0356  160.0561 H   0  0  0  0  0  0  0  0  0  0  0  0  # atno 6909 bound_to 6896
  144.7211  140.2428  143.6289 H   0  0  0  0  0  0  0  0  0  0  0  0  # atno 7974 bound_to 7965
  154.4237  140.1781  156.1464 H   0  0  0  0  0  0  0  0  0  0  0  0  # atno 8008 bound_to 7997
  155.9950  140.3365  155.6765 H   0  0  0  0  0  0  0  0  0  0  0  0  # atno 8009 bound_to 7997
  155.6321  140.0671  157.2636 H   0  0  0  0  0  0  0  0  0  0  0  0  # atno 8010 bound_to 7997
  140.5597  143.2312  151.6753 H   0  0  0  0  0  0  0  0  0  0  0  0  # atno 10167 bound_to 10162
  156.6765  130.9105  151.3051 H   0  0  0  0  0  0  0  0  0  0  0  0  # atno 10718 bound_to 10713
  153.2962  135.6952  153.7246 H   0  0  0  0  0  0  0  0  0  0  0  0  # atno 10763 bound_to 10752
  153.6178  135.3432  155.3001 H   0  0  0  0  0  0  0  0  0  0  0  0  # atno 10764 bound_to 10752
  154.8538  135.4379  154.2059 H   0  0  0  0  0  0  0  0  0  0  0  0  # atno 10765 bound_to 10752
  140.4397  134.6443  157.4751 H   0  0  0  0  0  0  0  0  0  0  0  0  # atno 11005 bound_to 11000
  145.8303  139.2083  143.1887 LP  0  0  0  0  0  0  0  0  0  0  0  0  # atno 17320 bound_to 7965
  146.0437  140.8139  142.9816 LP  0  0  0  0  0  0  0  0  0  0  0  0  # atno 17321 bound_to 7965
  139.5064  144.3683  152.0495 LP  0  0  0  0  0  0  0  0  0  0  0  0  # atno 17342 bound_to 10162
  140.2808  144.3862  150.6119 LP  0  0  0  0  0  0  0  0  0  0  0  0  # atno 17343 bound_to 10162
  157.7059  130.9384  150.0929 LP  0  0  0  0  0  0  0  0  0  0  0  0  # atno 17370 bound_to 10713
  156.1899  130.3654  149.8923 LP  0  0  0  0  0  0  0  0  0  0  0  0  # atno 17371 bound_to 10713
  140.0078  134.6736  155.9427 LP  0  0  0  0  0  0  0  0  0  0  0  0  # atno 17394 bound_to 11000
  141.1711  133.6537  156.4655 LP  0  0  0  0  0  0  0  0  0  0  0  0  # atno 17395 bound_to 11000

$$$$
