AV-unprocessed.smi:2563|AV-procd|sdf|10060|dock1
  -GOLD-   2272014 93D 1   1.00000     0.00000
 Structure written by MMmdl.
 34 35  0  0  0  0  0  0  0  0  1 V2000
  151.4339  144.7533  159.3607 C   0  0  0  0  0  0  0  0  0  0  0  0
  151.6028  144.1355  157.9664 C   0  0  0  0  0  0  0  0  0  0  0  0
  151.4655  142.6791  157.9878 N   0  0  0  0  0  0  0  0  0  0  0  0
  150.3454  142.0711  157.2716 C   0  0  0  0  0  0  0  0  0  0  0  0
  150.8086  141.1578  156.1229 C   0  0  2  0  0  0  0  0  0  0  0  0
  149.8061  141.1705  154.9517 C   0  0  0  0  0  0  0  0  0  0  0  0
  150.2330  140.2453  153.9030 N   0  0  0  0  0  0  0  0  0  0  0  0
  150.4278  138.8972  154.4327 C   0  0  0  0  0  0  0  0  0  0  0  0
  151.3994  138.9287  155.6250 C   0  0  0  0  0  0  0  0  0  0  0  0
  150.9028  139.8228  156.6147 O   0  0  0  0  0  0  0  0  0  0  0  0
  152.4440  141.8731  158.6194 C   0  0  0  0  0  0  0  0  0  0  0  0
  153.0659  142.2632  159.8313 C   0  0  0  0  0  0  0  0  0  0  0  0
  154.0268  141.4045  160.3914 C   0  0  0  0  0  0  0  0  0  0  0  0
  154.3051  140.2106  159.7053 C   0  0  0  0  0  0  0  0  0  0  0  0
  153.6886  139.8776  158.5514 N   0  0  0  0  0  0  0  0  0  0  0  0
  152.7755  140.6983  158.0217 N   0  0  0  0  0  0  0  0  0  0  0  0
  151.5584  145.8356  159.3202 H   0  0  0  0  0  0  0  0  0  0  0  0
  152.1719  144.3607  160.0606 H   0  0  0  0  0  0  0  0  0  0  0  0
  150.4433  144.5492  159.7680 H   0  0  0  0  0  0  0  0  0  0  0  0
  150.9005  144.5834  157.2630 H   0  0  0  0  0  0  0  0  0  0  0  0
  152.5933  144.3855  157.5854 H   0  0  0  0  0  0  0  0  0  0  0  0
  149.7413  141.4934  157.9724 H   0  0  0  0  0  0  0  0  0  0  0  0
  149.6807  142.8507  156.8997 H   0  0  0  0  0  0  0  0  0  0  0  0
  151.7856  141.4881  155.7647 H   0  0  0  0  0  0  0  0  0  0  0  0
  148.8143  140.8918  155.3108 H   0  0  0  0  0  0  0  0  0  0  0  0
  149.7196  142.1781  154.5440 H   0  0  0  0  0  0  0  0  0  0  0  0
  149.5378  140.2233  153.1639 H   0  0  0  0  0  0  0  0  0  0  0  0
  149.4708  138.4824  154.7514 H   0  0  0  0  0  0  0  0  0  0  0  0
  150.8111  138.2388  153.6530 H   0  0  0  0  0  0  0  0  0  0  0  0
  151.4896  137.9341  156.0616 H   0  0  0  0  0  0  0  0  0  0  0  0
  152.3996  139.2297  155.3096 H   0  0  0  0  0  0  0  0  0  0  0  0
  152.8368  143.1915  160.3312 H   0  0  0  0  0  0  0  0  0  0  0  0
  154.5331  141.6535  161.3121 H   0  0  0  0  0  0  0  0  0  0  0  0
  155.0347  139.5113  160.0862 H   0  0  0  0  0  0  0  0  0  0  0  0
  1  2  1  0  0  0  0
  1 17  1  0  0  0  0
  1 18  1  0  0  0  0
  1 19  1  0  0  0  0
  2  3  1  0  0  0  0
  2 20  1  0  0  0  0
  2 21  1  0  0  0  0
  3  4  1  0  0  0  0
  3 11  1  0  0  0  0
  4  5  1  0  0  0  0
  4 22  1  0  0  0  0
  4 23  1  0  0  0  0
  5 10  1  0  0  0  0
  5  6  1  0  0  0  0
  5 24  1  0  0  0  0
  6  7  1  0  0  0  0
  6 25  1  0  0  0  0
  6 26  1  0  0  0  0
  7  8  1  0  0  0  0
  7 27  1  0  0  0  0
  8  9  1  0  0  0  0
  8 28  1  0  0  0  0
  8 29  1  0  0  0  0
  9 10  1  0  0  0  0
  9 30  1  0  0  0  0
  9 31  1  0  0  0  0
 11 16  1  0  0  0  0
 11 12  2  0  0  0  0
 12 13  1  0  0  0  0
 12 32  1  0  0  0  0
 13 14  2  0  0  0  0
 13 33  1  0  0  0  0
 14 15  1  0  0  0  0
 14 34  1  0  0  0  0
 15 16  2  0  0  0  0
M  END
> <s_m_source_file>
AV-unprocessed.smi

> <i_m_source_file_index>
2563

> <i_lp_mmshare_version>
43012

> <i_f3d_flags>
0

> <s_epik_input>
bjFuW2NIXVtjSF1bY0hdYzFOKFtDSDJdW0NIM10pW0NIMl1bQ0BASF0yW0NIMl1bTkhdW0NIMl1bQ0gyXU8y

> <s_epik_cmdline>
J2VwaWtfcHl0aG9uJywgJy1waCcsICc3LjAnLCAnLXRuJywgJzgnLCAnLW1hJywgJzIwMCcsICctbWV0YWxfYmluZGluZycsICctaW1hZScsICc8aW5maWxlLm1hZT4nLCAnLW9tYWUnLCAnPG91dGZpbGUubWFlPic=

> <r_lp_tautomer_probability>
1

> <r_epik_Ionization_Penalty>
2.34719

> <r_epik_Ionization_Penalty_Charging>
0

> <r_epik_Ionization_Penalty_Neutral>
2.34719

> <r_epik_State_Penalty>
2.60452

> <r_epik_Charging_Adjusted_Penalty>
2.60452

> <i_epik_Tot_Q>
0

> <i_epik_Tot_abs_Q>
0

> <r_epik_Metal_State_Penalty>
2.56937

> <b_epik_Metal_Only>
0

> <s_lp_Force_Field>
OPLS_2005

> <r_lp_Energy>
25.5001

> <b_lp_Chiralities_Consistent>
1

> <s_lp_Variant>
AV-unprocessed.smi:2563-5

> <Gold.Version>
5.8.1

> <Gold.Id.Protein>
6NUR|6NUR_protein|mol2

> <Gold.PLP.Fitness>
43.6792

> <Gold.PLP.PLP>
-38.3240

> <Gold.PLP.part.hbond>
-3.8017

> <Gold.PLP.part.metal>
0.0000

> <Gold.PLP.part.buried>
-0.7186

> <Gold.PLP.part.nonpolar>
-32.2681

> <Gold.PLP.part.repulsive>
0.0000

> <Gold.PLP.ligand.clash>
0.0000

> <Gold.PLP.ligand.torsion>
1.0130

> <Gold.PLP.Chemscore.Hbond>
2.4464

> <Gold.PLP.Chemscore.CHOScore>
0.0000

> <Gold.PLP.Chemscore.Metal>
0.0000

> <Gold.Chemscore.Hbonds>
donor molecule, donor type, donor heavy atom, donor atom, acceptor molecule, acceptor atom, score
      L1  H     7    27       P1  7957  0.69
      P1  H  7989  7998       L1     7  0.85
      P1  H  7997  8010       L1    15  0.90

> <Gold.PLP.Chemscore.Internal.Correction>
0.0420

> <Gold.Rescore>
     Score         DG    S(hbond)    S(metal)    S(lipo)     H(rot)  DE(clash)    DE(int)     intcor
     11.18     -15.71       0.97        0.00      89.54       1.36       0.68       3.84       ----

> <Gold.Chemscore.Fitness>
11.1835

> <Gold.Chemscore.DG>
-15.7056

> <Gold.Chemscore.ZeroCoef>
-5.4800

> <Gold.Chemscore.Hbond>
0.9687

> <Gold.Chemscore.Metal>
0.0000

> <Gold.Chemscore.Lipo>
89.5395

> <Gold.Chemscore.Internal_Hbond>
0.0000

> <Gold.Chemscore.DEClash>
0.6804

> <Gold.Chemscore.DEInternal>
3.8417

> <Gold.Chemscore.Rot>
1.3618

> <Gold.Chemscore.Internal.Correction>
   9.000000E+99

> <Gold.Chemscore.Hbonds>
donor molecule, donor type, donor heavy atom, donor atom, acceptor molecule, acceptor atom, score
      L1  H     7    27       P1  7957  0.65
      P1  H  7989  7998       L1     7  0.20
      P1  H  7997  8010       L1    15  0.10

> <Gold.Chemscore.Hbond.Weighted>
-3.2356

> <Gold.Chemscore.Metal.Weighted>
-0.0000

> <Gold.Chemscore.Lipo.Weighted>
-10.4761

> <Gold.Chemscore.Internal_Hbond.Weighted>
0.0000

> <Gold.Chemscore.DEClash.Weighted>
0.6804

> <Gold.Chemscore.DEInternal.Weighted>
3.8417

> <Gold.Chemscore.Rot.Weighted>
3.4861

> <Gold.Chemscore.Internal.Correction.Weighted>
   9.000000E+99

> <Gold.Protein.RotatedTorsions>
[ 6907 6896 6895 6894 ] final  178.59 input  -60.11 | X-H torsion
[ 7974 7965 7964 7962 ] final   88.09 input  175.53 | X-H torsion
[ 8008 7997 7996 7995 ] final    7.60 input   59.86 | X-H torsion
[ 10167 10162 10161 10158 ] final   75.02 input  -65.29 | X-H torsion
[ 10718 10713 10712 10709 ] final  -18.60 input   66.30 | X-H torsion
[ 10763 10752 10751 10750 ] final  -45.04 input  -60.55 | X-H torsion
[ 11005 11000 10999 10996 ] final -159.39 input  -57.11 | X-H torsion

> <Gold.Protein.ActiveResidues>
 VAL166  LYS551  ARG553  GLY616  TRP617  ASP618  TYR619  PRO620  LYS621  CYS622 
 ASP623  PHE694  ASN695  SER759  ASP760  ASP761  ALA762  ILE779  LEU786  VAL792 
 PHE793  MET794  SER795  GLU796  ALA797  LYS798  CYS799  TRP800  GLU811  SER814 

> <Gold.Protein.RotatedAtoms>
  151.6853  133.3311  159.3229 H   0  0  0  0  0  0  0  0  0  0  0  0  # atno 6907 bound_to 6896
  150.7804  134.6745  159.6419 H   0  0  0  0  0  0  0  0  0  0  0  0  # atno 6908 bound_to 6896
  152.3859  134.6521  160.0178 H   0  0  0  0  0  0  0  0  0  0  0  0  # atno 6909 bound_to 6896
  145.5503  139.2295  143.2516 H   0  0  0  0  0  0  0  0  0  0  0  0  # atno 7974 bound_to 7965
  154.7559  140.2775  155.6253 H   0  0  0  0  0  0  0  0  0  0  0  0  # atno 8008 bound_to 7997
  156.2905  140.2669  156.2252 H   0  0  0  0  0  0  0  0  0  0  0  0  # atno 8009 bound_to 7997
  155.0078  140.0372  157.2376 H   0  0  0  0  0  0  0  0  0  0  0  0  # atno 8010 bound_to 7997
  140.0075  144.5639  150.7686 H   0  0  0  0  0  0  0  0  0  0  0  0  # atno 10167 bound_to 10162
  156.5574  130.4717  149.6423 H   0  0  0  0  0  0  0  0  0  0  0  0  # atno 10718 bound_to 10713
  154.0220  135.6668  153.4773 H   0  0  0  0  0  0  0  0  0  0  0  0  # atno 10763 bound_to 10752
  153.0576  135.5047  154.8014 H   0  0  0  0  0  0  0  0  0  0  0  0  # atno 10764 bound_to 10752
  154.6931  135.3065  154.9415 H   0  0  0  0  0  0  0  0  0  0  0  0  # atno 10765 bound_to 10752
  140.6432  134.4529  157.5234 H   0  0  0  0  0  0  0  0  0  0  0  0  # atno 11005 bound_to 11000
  146.1921  140.6326  142.9141 LP  0  0  0  0  0  0  0  0  0  0  0  0  # atno 17320 bound_to 7965
  144.7532  140.5244  143.6787 LP  0  0  0  0  0  0  0  0  0  0  0  0  # atno 17321 bound_to 7965
  140.7394  143.2791  151.3651 LP  0  0  0  0  0  0  0  0  0  0  0  0  # atno 17342 bound_to 10162
  139.6228  144.0873  152.2407 LP  0  0  0  0  0  0  0  0  0  0  0  0  # atno 17343 bound_to 10162
  156.2830  130.7081  151.1910 LP  0  0  0  0  0  0  0  0  0  0  0  0  # atno 17370 bound_to 10713
  157.7375  131.0550  150.5348 LP  0  0  0  0  0  0  0  0  0  0  0  0  # atno 17371 bound_to 10713
  139.9073  134.8422  156.1659 LP  0  0  0  0  0  0  0  0  0  0  0  0  # atno 17394 bound_to 11000
  141.0592  133.6850  156.1919 LP  0  0  0  0  0  0  0  0  0  0  0  0  # atno 17395 bound_to 11000

$$$$
