AV-unprocessed.smi:1129|AV-procd|sdf|4847|dock3
  -GOLD-   22720 3413D 1   1.00000     0.00000
 Structure written by MMmdl.
 40 41  0  0  0  0  0  0  0  0  1 V2000
  151.8579  144.9957  159.0334 C   0  0  0  0  0  0  0  0  0  0  0  0
  151.3225  143.7004  158.8258 O   0  0  0  0  0  0  0  0  0  0  0  0
  151.3570  143.3105  157.4629 C   0  0  0  0  0  0  0  0  0  0  0  0
  151.0152  141.8213  157.3563 C   0  0  0  0  0  0  0  0  0  0  0  0
  150.9485  141.4628  155.9793 O   0  0  0  0  0  0  0  0  0  0  0  0
  150.5614  140.1800  155.6502 C   0  0  0  0  0  0  0  0  0  0  0  0
  150.1995  139.2990  156.6885 C   0  0  0  0  0  0  0  0  0  0  0  0
  149.8047  137.9874  156.3627 C   0  0  0  0  0  0  0  0  0  0  0  0
  149.7917  137.5950  155.0032 C   0  0  0  0  0  0  0  0  0  0  0  0
  149.3923  136.3092  154.5495 N   0  0  0  0  0  0  0  0  0  0  0  0
  149.2705  135.1736  155.2618 C   0  0  0  0  0  0  0  0  0  0  0  0
  149.5143  135.0834  156.4651 O   0  0  0  0  0  0  0  0  0  0  0  0
  148.8002  133.9367  154.4713 C   0  0  1  0  0  0  0  0  0  0  0  0
  148.7845  132.6590  155.3314 C   0  0  0  0  0  0  0  0  0  0  0  0
  147.6625  132.6486  156.3872 C   0  0  0  0  0  0  0  0  0  0  0  0
  146.3142  133.1670  155.8644 C   0  0  0  0  0  0  0  0  0  0  0  0
  145.2911  132.9409  156.5063 O   0  0  0  0  0  0  0  0  0  0  0  0
  146.2871  133.8960  154.7348 N   0  0  0  0  0  0  0  0  0  0  0  0
  147.4099  134.1336  153.8256 C   0  0  0  0  0  0  0  0  0  0  0  0
  150.1548  138.5574  154.0386 C   0  0  0  0  0  0  0  0  0  0  0  0
  150.5366  139.8153  154.3443 N   0  0  0  0  0  0  0  0  0  0  0  0
  151.8050  145.2482  160.0922 H   0  0  0  0  0  0  0  0  0  0  0  0
  151.2957  145.7484  158.4791 H   0  0  0  0  0  0  0  0  0  0  0  0
  152.9040  145.0443  158.7280 H   0  0  0  0  0  0  0  0  0  0  0  0
  150.6627  143.9052  156.8670 H   0  0  0  0  0  0  0  0  0  0  0  0
  152.3589  143.4824  157.0669 H   0  0  0  0  0  0  0  0  0  0  0  0
  151.7988  141.2401  157.8450 H   0  0  0  0  0  0  0  0  0  0  0  0
  150.0737  141.6122  157.8672 H   0  0  0  0  0  0  0  0  0  0  0  0
  150.2205  139.6250  157.7178 H   0  0  0  0  0  0  0  0  0  0  0  0
  149.5072  137.3181  157.1548 H   0  0  0  0  0  0  0  0  0  0  0  0
  149.2483  136.2255  153.5534 H   0  0  0  0  0  0  0  0  0  0  0  0
  149.5152  133.7859  153.6607 H   0  0  0  0  0  0  0  0  0  0  0  0
  148.6627  131.7945  154.6775 H   0  0  0  0  0  0  0  0  0  0  0  0
  149.7490  132.5235  155.8226 H   0  0  0  0  0  0  0  0  0  0  0  0
  147.5341  131.6393  156.7798 H   0  0  0  0  0  0  0  0  0  0  0  0
  147.9487  133.2716  157.2352 H   0  0  0  0  0  0  0  0  0  0  0  0
  145.3913  134.2605  154.4438 H   0  0  0  0  0  0  0  0  0  0  0  0
  147.3156  135.1373  153.4091 H   0  0  0  0  0  0  0  0  0  0  0  0
  147.3016  133.4472  152.9851 H   0  0  0  0  0  0  0  0  0  0  0  0
  150.1449  138.3104  152.9869 H   0  0  0  0  0  0  0  0  0  0  0  0
  1  2  1  0  0  0  0
  1 22  1  0  0  0  0
  1 23  1  0  0  0  0
  1 24  1  0  0  0  0
  2  3  1  0  0  0  0
  3  4  1  0  0  0  0
  3 25  1  0  0  0  0
  3 26  1  0  0  0  0
  4  5  1  0  0  0  0
  4 27  1  0  0  0  0
  4 28  1  0  0  0  0
  5  6  1  0  0  0  0
  6 21  1  0  0  0  0
  6  7  2  0  0  0  0
  7  8  1  0  0  0  0
  7 29  1  0  0  0  0
  8  9  2  0  0  0  0
  8 30  1  0  0  0  0
  9 10  1  0  0  0  0
  9 20  1  0  0  0  0
 10 11  1  0  0  0  0
 10 31  1  0  0  0  0
 11 12  2  0  0  0  0
 11 13  1  0  0  0  0
 13 19  1  0  0  0  0
 13 14  1  0  0  0  0
 13 32  1  0  0  0  0
 14 15  1  0  0  0  0
 14 33  1  0  0  0  0
 14 34  1  0  0  0  0
 15 16  1  0  0  0  0
 15 35  1  0  0  0  0
 15 36  1  0  0  0  0
 16 17  2  0  0  0  0
 16 18  1  0  0  0  0
 18 19  1  0  0  0  0
 18 37  1  0  0  0  0
 19 38  1  0  0  0  0
 19 39  1  0  0  0  0
 20 21  2  0  0  0  0
 20 40  1  0  0  0  0
M  END
> <s_m_source_file>
AV-unprocessed.smi

> <i_m_source_file_index>
1129

> <i_lp_mmshare_version>
43012

> <i_f3d_flags>
0

> <s_epik_input>
W0NIM11PW0NIMl1bQ0gyXU9jMVtjSF1bY0hdYyhbY0hdbjEpW05IXUMoPU8pW0NAQEhdMltDSDJdW0NIMl1DKD1PKVtOSF1bQ0gyXTI=

> <s_epik_cmdline>
J2VwaWtfcHl0aG9uJywgJy1waCcsICc3LjAnLCAnLXRuJywgJzgnLCAnLW1hJywgJzIwMCcsICctbWV0YWxfYmluZGluZycsICctaW1hZScsICc8aW5maWxlLm1hZT4nLCAnLW9tYWUnLCAnPG91dGZpbGUubWFlPic=

> <r_lp_tautomer_probability>
1

> <r_epik_Ionization_Penalty>
1.79985e-05

> <r_epik_Ionization_Penalty_Charging>
0

> <r_epik_Ionization_Penalty_Neutral>
1.79985e-05

> <r_epik_State_Penalty>
-0

> <r_epik_Charging_Adjusted_Penalty>
0

> <i_epik_Tot_Q>
0

> <i_epik_Tot_abs_Q>
0

> <r_epik_Metal_State_Penalty>
-0

> <b_epik_Metal_Only>
0

> <s_lp_Force_Field>
OPLS_2005

> <r_lp_Energy>
14.8931

> <b_lp_Chiralities_Consistent>
1

> <s_lp_Variant>
AV-unprocessed.smi:1129-2

> <Gold.Version>
5.8.1

> <Gold.Id.Protein>
6NUR|6NUR_protein|mol2

> <Gold.PLP.Fitness>
41.0631

> <Gold.PLP.PLP>
-29.9905

> <Gold.PLP.part.hbond>
-2.6407

> <Gold.PLP.part.metal>
0.0000

> <Gold.PLP.part.buried>
-5.3407

> <Gold.PLP.part.nonpolar>
-23.3997

> <Gold.PLP.part.repulsive>
0.2988

> <Gold.PLP.ligand.clash>
0.5902

> <Gold.PLP.ligand.torsion>
0.1181

> <Gold.PLP.Chemscore.Hbond>
2.0000

> <Gold.PLP.Chemscore.CHOScore>
1.9441

> <Gold.PLP.Chemscore.Metal>
0.0000

> <Gold.Chemscore.Hbonds>
donor molecule, donor type, donor heavy atom, donor atom, acceptor molecule, acceptor atom, score
      L1  H    10    31       P1  7948  1.00
      P1  H  7989  7998       L1    21  1.00
      L1  C    20    40       P1  7948  0.81
      L1  C    20    40       P1  7957  0.83

> <Gold.PLP.Chemscore.Internal.Correction>
0.0669

> <Gold.Rescore>
     Score         DG    S(hbond)    S(metal)    S(lipo)     H(rot)  DE(clash)    DE(int)     intcor
     12.22     -14.22       1.88        0.00      65.25       2.03       0.02       1.98       ----

> <Gold.Chemscore.Fitness>
12.2221

> <Gold.Chemscore.DG>
-14.2185

> <Gold.Chemscore.ZeroCoef>
-5.4800

> <Gold.Chemscore.Hbond>
1.8833

> <Gold.Chemscore.Metal>
0.0000

> <Gold.Chemscore.Lipo>
65.2454

> <Gold.Chemscore.Internal_Hbond>
0.0000

> <Gold.Chemscore.DEClash>
0.0208

> <Gold.Chemscore.DEInternal>
1.9756

> <Gold.Chemscore.Rot>
2.0255

> <Gold.Chemscore.Internal.Correction>
   9.000000E+99

> <Gold.Chemscore.Hbonds>
donor molecule, donor type, donor heavy atom, donor atom, acceptor molecule, acceptor atom, score
      L1  H    10    31       P1  7948  0.88
      P1  H  7989  7998       L1    21  0.65

> <Gold.Chemscore.Hbond.Weighted>
-6.2901

> <Gold.Chemscore.Metal.Weighted>
-0.0000

> <Gold.Chemscore.Lipo.Weighted>
-7.6337

> <Gold.Chemscore.Internal_Hbond.Weighted>
0.0000

> <Gold.Chemscore.DEClash.Weighted>
0.0208

> <Gold.Chemscore.DEInternal.Weighted>
1.9756

> <Gold.Chemscore.Rot.Weighted>
5.1853

> <Gold.Chemscore.Internal.Correction.Weighted>
   9.000000E+99

> <Gold.Protein.RotatedTorsions>
[ 6907 6896 6895 6894 ] final  147.52 input  -60.11 | X-H torsion
[ 7974 7965 7964 7962 ] final  -99.24 input  175.53 | X-H torsion
[ 8008 7997 7996 7995 ] final  -53.72 input   59.86 | X-H torsion
[ 10167 10162 10161 10158 ] final  107.64 input  -65.29 | X-H torsion
[ 10718 10713 10712 10709 ] final    5.51 input   66.30 | X-H torsion
[ 10763 10752 10751 10750 ] final   45.48 input  -60.55 | X-H torsion
[ 11005 11000 10999 10996 ] final -175.58 input  -57.11 | X-H torsion

> <Gold.Protein.ActiveResidues>
 VAL166  LYS551  ARG553  GLY616  TRP617  ASP618  TYR619  PRO620  LYS621  CYS622 
 ASP623  PHE694  ASN695  SER759  ASP760  ASP761  ALA762  ILE779  LEU786  VAL792 
 PHE793  MET794  SER795  GLU796  ALA797  LYS798  CYS799  TRP800  GLU811  SER814 

> <Gold.Protein.RotatedAtoms>
  152.1537  133.4538  159.4825 H   0  0  0  0  0  0  0  0  0  0  0  0  # atno 6907 bound_to 6896
  150.6898  134.2157  159.4386 H   0  0  0  0  0  0  0  0  0  0  0  0  # atno 6908 bound_to 6896
  152.0055  134.9904  160.0617 H   0  0  0  0  0  0  0  0  0  0  0  0  # atno 6909 bound_to 6896
  145.3101  140.9398  143.2774 H   0  0  0  0  0  0  0  0  0  0  0  0  # atno 7974 bound_to 7965
  154.4141  140.1193  156.5199 H   0  0  0  0  0  0  0  0  0  0  0  0  # atno 8008 bound_to 7997
  155.6713  140.3496  155.4800 H   0  0  0  0  0  0  0  0  0  0  0  0  # atno 8009 bound_to 7997
  155.9631  140.1127  157.0868 H   0  0  0  0  0  0  0  0  0  0  0  0  # atno 8010 bound_to 7997
  139.6911  144.7107  151.1347 H   0  0  0  0  0  0  0  0  0  0  0  0  # atno 10167 bound_to 10162
  156.9085  130.5747  149.5647 H   0  0  0  0  0  0  0  0  0  0  0  0  # atno 10718 bound_to 10713
  152.9824  135.6038  154.3444 H   0  0  0  0  0  0  0  0  0  0  0  0  # atno 10763 bound_to 10752
  154.3138  135.2770  155.2555 H   0  0  0  0  0  0  0  0  0  0  0  0  # atno 10764 bound_to 10752
  154.4752  135.5931  153.6406 H   0  0  0  0  0  0  0  0  0  0  0  0  # atno 10765 bound_to 10752
  140.4617  134.6248  157.4845 H   0  0  0  0  0  0  0  0  0  0  0  0  # atno 11005 bound_to 11000
  144.9023  139.4634  143.6627 LP  0  0  0  0  0  0  0  0  0  0  0  0  # atno 17320 bound_to 7965
  146.3121  139.7783  142.9012 LP  0  0  0  0  0  0  0  0  0  0  0  0  # atno 17321 bound_to 7965
  140.7683  143.5558  150.9153 LP  0  0  0  0  0  0  0  0  0  0  0  0  # atno 17342 bound_to 10162
  139.9236  143.6577  152.3091 LP  0  0  0  0  0  0  0  0  0  0  0  0  # atno 17343 bound_to 10162
  156.0547  130.5611  150.9067 LP  0  0  0  0  0  0  0  0  0  0  0  0  # atno 17370 bound_to 10713
  157.5982  131.0942  150.9004 LP  0  0  0  0  0  0  0  0  0  0  0  0  # atno 17371 bound_to 10713
  139.9941  134.6939  155.9640 LP  0  0  0  0  0  0  0  0  0  0  0  0  # atno 17394 bound_to 11000
  141.1618  133.6538  156.4344 LP  0  0  0  0  0  0  0  0  0  0  0  0  # atno 17395 bound_to 11000

$$$$
