AV-unprocessed.smi:2134|AV-procd|sdf|8694|dock5
  -GOLD-   2272011453D 1   1.00000     0.00000
 Structure written by MMmdl.
 35 36  0  0  0  0  0  0  0  0  1 V2000
  148.9739  139.9620  154.3869 C   0  0  0  0  0  0  0  0  0  0  0  0
  149.8445  138.8400  154.7320 N   0  0  0  0  0  0  0  0  0  0  0  0
  149.2157  137.6128  154.7811 N   0  0  0  0  0  0  0  0  0  0  0  0
  149.7870  136.5665  155.2905 C   0  0  0  0  0  0  0  0  0  0  0  0
  149.0568  135.2726  155.3449 C   0  0  0  0  0  0  0  0  0  0  0  0
  148.9004  134.6777  156.4116 O   0  0  0  0  0  0  0  0  0  0  0  0
  148.5710  134.8214  154.1731 N   0  0  0  0  0  0  0  0  0  0  0  0
  147.7441  133.6306  153.9950 C   0  0  0  0  0  0  0  0  0  0  0  0
  147.8383  133.0742  152.5613 C   0  0  0  0  0  0  0  0  0  0  0  0
  146.5443  133.1983  151.7755 C   0  0  0  0  0  0  0  0  0  0  0  0
  145.8361  132.0526  151.3563 C   0  0  0  0  0  0  0  0  0  0  0  0
  144.6564  132.2209  150.6065 C   0  0  0  0  0  0  0  0  0  0  0  0
  144.2328  133.5317  150.3091 C   0  0  0  0  0  0  0  0  0  0  0  0
  144.9007  134.6357  150.7073 N   0  0  0  0  0  0  0  0  0  0  0  0
  146.0322  134.4654  151.4243 C   0  0  0  0  0  0  0  0  0  0  0  0
  151.1843  136.6566  155.8711 C   0  0  0  0  0  0  0  0  0  0  0  0
  152.0090  137.7874  155.2248 C   0  0  0  0  0  0  0  0  0  0  0  0
  151.1675  139.0382  154.9555 C   0  0  0  0  0  0  0  0  0  0  0  0
  151.7080  140.1437  154.9274 O   0  0  0  0  0  0  0  0  0  0  0  0
  149.3340  140.4681  153.4900 H   0  0  0  0  0  0  0  0  0  0  0  0
  148.9457  140.6884  155.2005 H   0  0  0  0  0  0  0  0  0  0  0  0
  147.9483  139.6419  154.1947 H   0  0  0  0  0  0  0  0  0  0  0  0
  148.7530  135.3746  153.3478 H   0  0  0  0  0  0  0  0  0  0  0  0
  148.0777  132.8726  154.7039 H   0  0  0  0  0  0  0  0  0  0  0  0
  146.7033  133.8411  154.2458 H   0  0  0  0  0  0  0  0  0  0  0  0
  148.6327  133.5905  152.0206 H   0  0  0  0  0  0  0  0  0  0  0  0
  148.1286  132.0234  152.5938 H   0  0  0  0  0  0  0  0  0  0  0  0
  146.1942  131.0618  151.5946 H   0  0  0  0  0  0  0  0  0  0  0  0
  144.0912  131.3664  150.2651 H   0  0  0  0  0  0  0  0  0  0  0  0
  143.3330  133.6972  149.7351 H   0  0  0  0  0  0  0  0  0  0  0  0
  146.5489  135.3669  151.7195 H   0  0  0  0  0  0  0  0  0  0  0  0
  151.1160  136.8145  156.9480 H   0  0  0  0  0  0  0  0  0  0  0  0
  151.7201  135.7167  155.7318 H   0  0  0  0  0  0  0  0  0  0  0  0
  152.8652  138.0381  155.8520 H   0  0  0  0  0  0  0  0  0  0  0  0
  152.4080  137.4490  154.2679 H   0  0  0  0  0  0  0  0  0  0  0  0
  1  2  1  0  0  0  0
  1 20  1  0  0  0  0
  1 21  1  0  0  0  0
  1 22  1  0  0  0  0
  2 18  1  0  0  0  0
  2  3  1  0  0  0  0
  3  4  2  0  0  0  0
  4  5  1  0  0  0  0
  4 16  1  0  0  0  0
  5  6  2  0  0  0  0
  5  7  1  0  0  0  0
  7  8  1  0  0  0  0
  7 23  1  0  0  0  0
  8  9  1  0  0  0  0
  8 24  1  0  0  0  0
  8 25  1  0  0  0  0
  9 10  1  0  0  0  0
  9 26  1  0  0  0  0
  9 27  1  0  0  0  0
 10 15  1  0  0  0  0
 10 11  2  0  0  0  0
 11 12  1  0  0  0  0
 11 28  1  0  0  0  0
 12 13  2  0  0  0  0
 12 29  1  0  0  0  0
 13 14  1  0  0  0  0
 13 30  1  0  0  0  0
 14 15  2  0  0  0  0
 15 31  1  0  0  0  0
 16 17  1  0  0  0  0
 16 32  1  0  0  0  0
 16 33  1  0  0  0  0
 17 18  1  0  0  0  0
 17 34  1  0  0  0  0
 17 35  1  0  0  0  0
 18 19  2  0  0  0  0
M  END
> <s_m_source_file>
AV-unprocessed.smi

> <i_m_source_file_index>
2134

> <i_lp_mmshare_version>
43012

> <i_f3d_flags>
0

> <s_epik_input>
Tz1DMVtDSDJdW0NIMl1DKD1OTjFbQ0gzXSlDKD1PKVtOSF1bQ0gyXVtDSDJdYzJbY0hdW2NIXVtjSF1uW2NIXTI=

> <s_epik_cmdline>
J2VwaWtfcHl0aG9uJywgJy1waCcsICc3LjAnLCAnLXRuJywgJzgnLCAnLW1hJywgJzIwMCcsICctbWV0YWxfYmluZGluZycsICctaW1hZScsICc8aW5maWxlLm1hZT4nLCAnLW9tYWUnLCAnPG91dGZpbGUubWFlPic=

> <r_epik_Ionization_Penalty>
0.00938916

> <r_epik_Ionization_Penalty_Charging>
0

> <r_epik_Ionization_Penalty_Neutral>
0.00938916

> <r_epik_State_Penalty>
0.00707201

> <r_epik_Charging_Adjusted_Penalty>
0.00707201

> <i_epik_Tot_Q>
0

> <i_epik_Tot_abs_Q>
0

> <r_epik_Metal_State_Penalty>
0.0638513

> <b_epik_Metal_Only>
0

> <s_epik_Chemistry_Notes>
This compound has an imine and may undergo hydrolysis.

> <s_lp_Force_Field>
OPLS_2005

> <r_lp_Energy>
16.2415

> <b_lp_Chiralities_Consistent>
1

> <s_lp_Variant>
AV-unprocessed.smi:2134-1

> <Gold.Version>
5.8.1

> <Gold.Id.Protein>
6NUR|6NUR_protein|mol2

> <Gold.PLP.Fitness>
41.2628

> <Gold.PLP.PLP>
-32.4209

> <Gold.PLP.part.hbond>
-1.9868

> <Gold.PLP.part.metal>
0.0000

> <Gold.PLP.part.buried>
-6.2030

> <Gold.PLP.part.nonpolar>
-26.3589

> <Gold.PLP.part.repulsive>
0.4460

> <Gold.PLP.ligand.clash>
0.0000

> <Gold.PLP.ligand.torsion>
1.5505

> <Gold.PLP.Chemscore.Hbond>
1.9760

> <Gold.PLP.Chemscore.CHOScore>
2.0000

> <Gold.PLP.Chemscore.Metal>
0.0000

> <Gold.Chemscore.Hbonds>
donor molecule, donor type, donor heavy atom, donor atom, acceptor molecule, acceptor atom, score
      L1  H     7    23       P1  7948  1.00
      P1  H  7989  7998       L1    19  0.98
      L1  C    13    30       P1 10186  1.00
      L1  C    15    31       P1  7948  1.00

> <Gold.PLP.Chemscore.Internal.Correction>
0.0150

> <Gold.Rescore>
     Score         DG    S(hbond)    S(metal)    S(lipo)     H(rot)  DE(clash)    DE(int)     intcor
     14.50     -16.03       1.94        0.00      66.41       1.45       0.00       1.52       ----

> <Gold.Chemscore.Fitness>
14.5032

> <Gold.Chemscore.DG>
-16.0295

> <Gold.Chemscore.ZeroCoef>
-5.4800

> <Gold.Chemscore.Hbond>
1.9422

> <Gold.Chemscore.Metal>
0.0000

> <Gold.Chemscore.Lipo>
66.4073

> <Gold.Chemscore.Internal_Hbond>
0.0000

> <Gold.Chemscore.DEClash>
0.0033

> <Gold.Chemscore.DEInternal>
1.5230

> <Gold.Chemscore.Rot>
1.4480

> <Gold.Chemscore.Internal.Correction>
   9.000000E+99

> <Gold.Chemscore.Hbonds>
donor molecule, donor type, donor heavy atom, donor atom, acceptor molecule, acceptor atom, score
      L1  H     7    23       P1  7948  0.85
      P1  H  7989  7998       L1    19  0.82

> <Gold.Chemscore.Hbond.Weighted>
-6.4869

> <Gold.Chemscore.Metal.Weighted>
-0.0000

> <Gold.Chemscore.Lipo.Weighted>
-7.7697

> <Gold.Chemscore.Internal_Hbond.Weighted>
0.0000

> <Gold.Chemscore.DEClash.Weighted>
0.0033

> <Gold.Chemscore.DEInternal.Weighted>
1.5230

> <Gold.Chemscore.Rot.Weighted>
3.7070

> <Gold.Chemscore.Internal.Correction.Weighted>
   9.000000E+99

> <Gold.Protein.RotatedTorsions>
[ 6907 6896 6895 6894 ] final -109.91 input  -60.11 | X-H torsion
[ 7974 7965 7964 7962 ] final -124.42 input  175.53 | X-H torsion
[ 8008 7997 7996 7995 ] final -131.98 input   59.86 | X-H torsion
[ 10167 10162 10161 10158 ] final  -67.05 input  -65.29 | X-H torsion
[ 10718 10713 10712 10709 ] final    2.51 input   66.30 | X-H torsion
[ 10763 10752 10751 10750 ] final  -55.27 input  -60.55 | X-H torsion
[ 11005 11000 10999 10996 ] final   -2.43 input  -57.11 | X-H torsion

> <Gold.Protein.ActiveResidues>
 VAL166  LYS551  ARG553  GLY616  TRP617  ASP618  TYR619  PRO620  LYS621  CYS622 
 ASP623  PHE694  ASN695  SER759  ASP760  ASP761  ALA762  ILE779  LEU786  VAL792 
 PHE793  MET794  SER795  GLU796  ALA797  LYS798  CYS799  TRP800  GLU811  SER814 

> <Gold.Protein.RotatedAtoms>
  150.7592  133.9459  159.3470 H   0  0  0  0  0  0  0  0  0  0  0  0  # atno 6907 bound_to 6896
  151.7371  135.0860  160.0319 H   0  0  0  0  0  0  0  0  0  0  0  0  # atno 6908 bound_to 6896
  152.3552  133.6191  159.6010 H   0  0  0  0  0  0  0  0  0  0  0  0  # atno 6909 bound_to 6896
  145.0083  140.7882  143.4454 H   0  0  0  0  0  0  0  0  0  0  0  0  # atno 7974 bound_to 7965
  155.3213  140.0462  157.3039 H   0  0  0  0  0  0  0  0  0  0  0  0  # atno 8008 bound_to 7997
  154.5379  140.2278  155.8658 H   0  0  0  0  0  0  0  0  0  0  0  0  # atno 8009 bound_to 7997
  156.1852  140.3064  155.9231 H   0  0  0  0  0  0  0  0  0  0  0  0  # atno 8010 bound_to 7997
  140.5612  143.2313  151.6724 H   0  0  0  0  0  0  0  0  0  0  0  0  # atno 10167 bound_to 10162
  156.8641  130.5597  149.5661 H   0  0  0  0  0  0  0  0  0  0  0  0  # atno 10718 bound_to 10713
  154.1881  135.6432  153.5052 H   0  0  0  0  0  0  0  0  0  0  0  0  # atno 10763 bound_to 10752
  153.0042  135.5422  154.6443 H   0  0  0  0  0  0  0  0  0  0  0  0  # atno 10764 bound_to 10752
  154.5825  135.2926  155.0691 H   0  0  0  0  0  0  0  0  0  0  0  0  # atno 10765 bound_to 10752
  140.6582  133.9343  155.8420 H   0  0  0  0  0  0  0  0  0  0  0  0  # atno 11005 bound_to 11000
  145.2058  139.2229  143.5169 LP  0  0  0  0  0  0  0  0  0  0  0  0  # atno 17320 bound_to 7965
  146.3465  140.1886  142.8589 LP  0  0  0  0  0  0  0  0  0  0  0  0  # atno 17321 bound_to 7965
  139.5071  144.3658  152.0518 LP  0  0  0  0  0  0  0  0  0  0  0  0  # atno 17342 bound_to 10162
  140.2785  144.3886  150.6127 LP  0  0  0  0  0  0  0  0  0  0  0  0  # atno 17343 bound_to 10162
  156.0761  130.5783  150.9476 LP  0  0  0  0  0  0  0  0  0  0  0  0  # atno 17370 bound_to 10713
  157.6233  131.0928  150.8581 LP  0  0  0  0  0  0  0  0  0  0  0  0  # atno 17371 bound_to 10713
  141.0485  134.0519  157.3813 LP  0  0  0  0  0  0  0  0  0  0  0  0  # atno 17394 bound_to 11000
  139.9022  135.0168  156.7321 LP  0  0  0  0  0  0  0  0  0  0  0  0  # atno 17395 bound_to 11000

$$$$
