AV-unprocessed.smi:258|AV-procd|sdf|1969|dock9
  -GOLD-   2262021133D 1   1.00000     0.00000
 Structure written by MMmdl.
 57 60  0  0  0  0  0  0  0  0  1 V2000
  150.2243  144.1281  161.7046 O   0  0  0  0  0  0  0  0  0  0  0  0
  151.6257  144.1951  161.5476 C   0  0  0  0  0  0  0  0  0  0  0  0
  152.2004  142.7918  161.3187 C   0  0  0  0  0  0  0  0  0  0  0  0
  153.1854  142.8575  160.2977 O   0  0  0  0  0  0  0  0  0  0  0  0
  152.7213  142.4949  159.0038 C   0  0  2  0  0  0  0  0  0  0  0  0
  151.3344  143.1048  158.7211 C   0  0  0  0  0  0  0  0  0  0  0  0
  150.7887  142.5832  157.3834 C   0  0  0  0  0  0  0  0  0  0  0  0
  150.7595  141.0464  157.3561 C   0  0  0  0  0  0  0  0  0  0  0  0
  152.0701  140.4913  157.6991 N   0  0  0  0  0  0  0  0  0  0  0  0
  152.2976  139.2095  157.3091 C   0  0  0  0  0  0  0  0  0  0  0  0
  153.4650  138.6370  157.7049 N   0  0  0  0  0  0  0  0  0  0  0  0
  153.7513  137.3751  157.3737 C   0  0  0  0  0  0  0  0  0  0  0  0
  153.0234  136.5143  156.6620 N   0  0  0  0  0  0  0  0  0  0  0  0
  151.8531  137.0803  156.2522 C   0  0  0  0  0  0  0  0  0  0  0  0
  151.4113  138.4077  156.5261 C   0  0  0  0  0  0  0  0  0  0  0  0
  150.1708  138.6137  155.9291 N   0  0  0  0  0  0  0  0  0  0  0  0
  149.8941  137.4786  155.3494 C   0  0  0  0  0  0  0  0  0  0  0  0
  150.8535  136.5032  155.4898 N   0  0  0  0  0  0  0  0  0  0  0  0
  150.8102  135.1542  154.9551 C   0  0  0  0  0  0  0  0  0  0  0  0
  149.5889  134.8841  154.0423 C   0  0  2  0  0  0  0  0  0  0  0  0
  148.2380  134.9513  154.8009 C   0  0  0  0  0  0  0  0  0  0  0  0
  147.1628  135.2179  153.9242 O   0  0  0  0  0  0  0  0  0  0  0  0
  149.7919  133.5555  153.2696 C   0  0  1  0  0  0  0  0  0  0  0  0
  149.8450  132.2880  154.1156 C   0  0  0  0  0  0  0  0  0  0  0  0
  149.3797  131.2264  153.1291 C   0  0  0  0  0  0  0  0  0  0  0  0
  148.3367  131.8849  152.4299 O   0  0  0  0  0  0  0  0  0  0  0  0
  148.7250  133.2367  152.2072 C   0  0  0  0  0  0  0  0  0  0  0  0
  152.6470  140.9589  158.9586 C   0  0  0  0  0  0  0  0  0  0  0  0
  150.0138  143.3469  162.1929 H   0  0  0  0  0  0  0  0  0  0  0  0
  151.8294  144.8234  160.6803 H   0  0  0  0  0  0  0  0  0  0  0  0
  152.0850  144.6772  162.4110 H   0  0  0  0  0  0  0  0  0  0  0  0
  152.5937  142.3771  162.2474 H   0  0  0  0  0  0  0  0  0  0  0  0
  151.3993  142.1310  160.9844 H   0  0  0  0  0  0  0  0  0  0  0  0
  153.4329  142.8256  158.2446 H   0  0  0  0  0  0  0  0  0  0  0  0
  150.6459  142.8440  159.5259 H   0  0  0  0  0  0  0  0  0  0  0  0
  151.3848  144.1928  158.6926 H   0  0  0  0  0  0  0  0  0  0  0  0
  149.7877  142.9776  157.2073 H   0  0  0  0  0  0  0  0  0  0  0  0
  151.4140  142.9492  156.5680 H   0  0  0  0  0  0  0  0  0  0  0  0
  150.0272  140.6755  158.0741 H   0  0  0  0  0  0  0  0  0  0  0  0
  150.4270  140.7158  156.3719 H   0  0  0  0  0  0  0  0  0  0  0  0
  154.6989  137.0009  157.7326 H   0  0  0  0  0  0  0  0  0  0  0  0
  148.9800  137.3238  154.7950 H   0  0  0  0  0  0  0  0  0  0  0  0
  151.7367  134.9888  154.4041 H   0  0  0  0  0  0  0  0  0  0  0  0
  150.8200  134.4527  155.7902 H   0  0  0  0  0  0  0  0  0  0  0  0
  149.5743  135.6653  153.2805 H   0  0  0  0  0  0  0  0  0  0  0  0
  148.0153  134.0090  155.2996 H   0  0  0  0  0  0  0  0  0  0  0  0
  148.2646  135.7165  155.5772 H   0  0  0  0  0  0  0  0  0  0  0  0
  147.1139  134.5219  153.2867 H   0  0  0  0  0  0  0  0  0  0  0  0
  150.7403  133.6226  152.7333 H   0  0  0  0  0  0  0  0  0  0  0  0
  150.8382  132.0847  154.5167 H   0  0  0  0  0  0  0  0  0  0  0  0
  149.1460  132.3315  154.9505 H   0  0  0  0  0  0  0  0  0  0  0  0
  150.1776  130.9599  152.4342 H   0  0  0  0  0  0  0  0  0  0  0  0
  149.0269  130.3181  153.6181 H   0  0  0  0  0  0  0  0  0  0  0  0
  147.8512  133.8853  152.2601 H   0  0  0  0  0  0  0  0  0  0  0  0
  149.1434  133.3359  151.2049 H   0  0  0  0  0  0  0  0  0  0  0  0
  153.6509  140.5519  159.0862 H   0  0  0  0  0  0  0  0  0  0  0  0
  152.0374  140.5929  159.7859 H   0  0  0  0  0  0  0  0  0  0  0  0
  1  2  1  0  0  0  0
  1 29  1  0  0  0  0
  2  3  1  0  0  0  0
  2 30  1  0  0  0  0
  2 31  1  0  0  0  0
  3  4  1  0  0  0  0
  3 32  1  0  0  0  0
  3 33  1  0  0  0  0
  4  5  1  0  0  0  0
  5 28  1  0  0  0  0
  5  6  1  0  0  0  0
  5 34  1  0  0  0  0
  6  7  1  0  0  0  0
  6 35  1  0  0  0  0
  6 36  1  0  0  0  0
  7  8  1  0  0  0  0
  7 37  1  0  0  0  0
  7 38  1  0  0  0  0
  8  9  1  0  0  0  0
  8 39  1  0  0  0  0
  8 40  1  0  0  0  0
  9 10  1  0  0  0  0
  9 28  1  0  0  0  0
 10 15  1  0  0  0  0
 10 11  2  0  0  0  0
 11 12  1  0  0  0  0
 12 13  2  0  0  0  0
 12 41  1  0  0  0  0
 13 14  1  0  0  0  0
 14 18  1  0  0  0  0
 14 15  2  0  0  0  0
 15 16  1  0  0  0  0
 16 17  2  0  0  0  0
 17 18  1  0  0  0  0
 17 42  1  0  0  0  0
 18 19  1  0  0  0  0
 19 20  1  0  0  0  0
 19 43  1  0  0  0  0
 19 44  1  0  0  0  0
 20 21  1  0  0  0  0
 20 23  1  0  0  0  0
 20 45  1  0  0  0  0
 21 22  1  0  0  0  0
 21 46  1  0  0  0  0
 21 47  1  0  0  0  0
 22 48  1  0  0  0  0
 23 27  1  0  0  0  0
 23 24  1  0  0  0  0
 23 49  1  0  0  0  0
 24 25  1  0  0  0  0
 24 50  1  0  0  0  0
 24 51  1  0  0  0  0
 25 26  1  0  0  0  0
 25 52  1  0  0  0  0
 25 53  1  0  0  0  0
 26 27  1  0  0  0  0
 27 54  1  0  0  0  0
 27 55  1  0  0  0  0
 28 56  1  0  0  0  0
 28 57  1  0  0  0  0
M  END
> <s_m_source_file>
AV-unprocessed.smi

> <i_m_source_file_index>
258

> <i_lp_mmshare_version>
43012

> <i_f3d_flags>
0

> <s_epik_input>
W09IXVtDSDJdW0NIMl1PW0NAQEhdMVtDSDJdW0NIMl1bQ0gyXU4oW0NIMl0xKWMobltjSF1uMiljKGMyMyluW2NIXW4zW0NIMl1bQ0BIXShbQ0gyXVtPSF0pW0NAQEhdNFtDSDJdW0NIMl1PW0NIMl00

> <s_epik_cmdline>
J2VwaWtfcHl0aG9uJywgJy1waCcsICc3LjAnLCAnLXRuJywgJzgnLCAnLW1hJywgJzIwMCcsICctbWV0YWxfYmluZGluZycsICctaW1hZScsICc8aW5maWxlLm1hZT4nLCAnLW9tYWUnLCAnPG91dGZpbGUubWFlPic=

> <r_lp_tautomer_probability>
1

> <r_epik_Ionization_Penalty>
0.00349036

> <r_epik_Ionization_Penalty_Charging>
0

> <r_epik_Ionization_Penalty_Neutral>
0.00349036

> <r_epik_State_Penalty>
0.00229798

> <r_epik_Charging_Adjusted_Penalty>
0.00229798

> <i_epik_Tot_Q>
0

> <i_epik_Tot_abs_Q>
0

> <r_epik_Metal_State_Penalty>
-0

> <b_epik_Metal_Only>
0

> <s_lp_Force_Field>
OPLS_2005

> <r_lp_Energy>
47.936

> <b_lp_Chiralities_Consistent>
1

> <s_lp_Variant>
AV-unprocessed.smi:258-5

> <Gold.Version>
5.8.1

> <Gold.Id.Protein>
6NUR|6NUR_protein|mol2

> <Gold.PLP.Fitness>
50.0710

> <Gold.PLP.PLP>
-46.1675

> <Gold.PLP.part.hbond>
-5.0000

> <Gold.PLP.part.metal>
0.0000

> <Gold.PLP.part.buried>
-5.7824

> <Gold.PLP.part.nonpolar>
-36.0790

> <Gold.PLP.part.repulsive>
0.0995

> <Gold.PLP.ligand.clash>
0.0000

> <Gold.PLP.ligand.torsion>
1.1766

> <Gold.PLP.Chemscore.Hbond>
1.8640

> <Gold.PLP.Chemscore.CHOScore>
0.0000

> <Gold.PLP.Chemscore.Metal>
0.0000

> <Gold.Chemscore.Hbonds>
donor molecule, donor type, donor heavy atom, donor atom, acceptor molecule, acceptor atom, score
      P1  H  7997  8008       L1    11  0.85
      P1  H 10752 10765       L1    13  1.00

> <Gold.PLP.Chemscore.Internal.Correction>
0.6648

> <Gold.Rescore>
     Score         DG    S(hbond)    S(metal)    S(lipo)     H(rot)  DE(clash)    DE(int)     intcor
      7.43     -12.74       1.34        0.00     110.08       3.94       1.49       3.83       ----

> <Gold.Chemscore.Fitness>
7.4264

> <Gold.Chemscore.DG>
-12.7437

> <Gold.Chemscore.ZeroCoef>
-5.4800

> <Gold.Chemscore.Hbond>
1.3352

> <Gold.Chemscore.Metal>
0.0000

> <Gold.Chemscore.Lipo>
110.0782

> <Gold.Chemscore.Internal_Hbond>
0.0000

> <Gold.Chemscore.DEClash>
1.4878

> <Gold.Chemscore.DEInternal>
3.8295

> <Gold.Chemscore.Rot>
3.9356

> <Gold.Chemscore.Internal.Correction>
   9.000000E+99

> <Gold.Chemscore.Hbonds>
donor molecule, donor type, donor heavy atom, donor atom, acceptor molecule, acceptor atom, score
      P1  H  7997  8008       L1    11  0.33
      P1  H 10752 10765       L1    13  0.29

> <Gold.Chemscore.Hbond.Weighted>
-4.4597

> <Gold.Chemscore.Metal.Weighted>
-0.0000

> <Gold.Chemscore.Lipo.Weighted>
-12.8791

> <Gold.Chemscore.Internal_Hbond.Weighted>
0.0000

> <Gold.Chemscore.DEClash.Weighted>
1.4878

> <Gold.Chemscore.DEInternal.Weighted>
3.8295

> <Gold.Chemscore.Rot.Weighted>
10.0751

> <Gold.Chemscore.Internal.Correction.Weighted>
   9.000000E+99

> <Gold.Protein.RotatedTorsions>
[ 6907 6896 6895 6894 ] final  -45.33 input  -60.11 | X-H torsion
[ 7974 7965 7964 7962 ] final  169.78 input  175.53 | X-H torsion
[ 8008 7997 7996 7995 ] final -106.89 input   59.86 | X-H torsion
[ 10167 10162 10161 10158 ] final  -87.78 input  -65.29 | X-H torsion
[ 10718 10713 10712 10709 ] final  135.79 input   66.30 | X-H torsion
[ 10763 10752 10751 10750 ] final -131.97 input  -60.55 | X-H torsion
[ 11005 11000 10999 10996 ] final   46.56 input  -57.11 | X-H torsion

> <Gold.Protein.ActiveResidues>
 VAL166  LYS551  ARG553  GLY616  TRP617  ASP618  TYR619  PRO620  LYS621  CYS622 
 ASP623  PHE694  ASN695  SER759  ASP760  ASP761  ALA762  ILE779  LEU786  VAL792 
 PHE793  MET794  SER795  GLU796  ALA797  LYS798  CYS799  TRP800  GLU811  SER814 

> <Gold.Protein.RotatedAtoms>
  150.9231  134.8648  159.7501 H   0  0  0  0  0  0  0  0  0  0  0  0  # atno 6907 bound_to 6896
  152.5002  134.4189  159.9484 H   0  0  0  0  0  0  0  0  0  0  0  0  # atno 6908 bound_to 6896
  151.4222  133.3655  159.2792 H   0  0  0  0  0  0  0  0  0  0  0  0  # atno 6909 bound_to 6896
  144.7344  139.9105  143.6414 H   0  0  0  0  0  0  0  0  0  0  0  0  # atno 7974 bound_to 7965
  154.9212  140.0407  157.1998 H   0  0  0  0  0  0  0  0  0  0  0  0  # atno 8008 bound_to 7997
  154.8252  140.2890  155.5738 H   0  0  0  0  0  0  0  0  0  0  0  0  # atno 8009 bound_to 7997
  156.2983  140.2511  156.3167 H   0  0  0  0  0  0  0  0  0  0  0  0  # atno 8010 bound_to 7997
  140.3811  143.2748  151.9383 H   0  0  0  0  0  0  0  0  0  0  0  0  # atno 10167 bound_to 10162
  157.4534  131.1068  151.0006 H   0  0  0  0  0  0  0  0  0  0  0  0  # atno 10718 bound_to 10713
  154.8747  135.3813  154.4334 H   0  0  0  0  0  0  0  0  0  0  0  0  # atno 10763 bound_to 10752
  153.5026  135.7030  153.5829 H   0  0  0  0  0  0  0  0  0  0  0  0  # atno 10764 bound_to 10752
  153.4154  135.3914  155.2043 H   0  0  0  0  0  0  0  0  0  0  0  0  # atno 10765 bound_to 10752
  140.1358  134.4647  155.8487 H   0  0  0  0  0  0  0  0  0  0  0  0  # atno 11005 bound_to 11000
  146.1004  139.4000  143.0350 LP  0  0  0  0  0  0  0  0  0  0  0  0  # atno 17320 bound_to 7965
  145.7586  140.9944  143.1212 LP  0  0  0  0  0  0  0  0  0  0  0  0  # atno 17321 bound_to 7965
  139.4795  144.5818  151.7920 LP  0  0  0  0  0  0  0  0  0  0  0  0  # atno 17342 bound_to 10162
  140.4937  144.1273  150.5955 LP  0  0  0  0  0  0  0  0  0  0  0  0  # atno 17343 bound_to 10162
  157.0828  130.5910  149.5424 LP  0  0  0  0  0  0  0  0  0  0  0  0  # atno 17370 bound_to 10713
  155.9997  130.5073  150.7615 LP  0  0  0  0  0  0  0  0  0  0  0  0  # atno 17371 bound_to 10713
  141.2178  133.6813  156.7154 LP  0  0  0  0  0  0  0  0  0  0  0  0  # atno 17394 bound_to 11000
  140.2784  134.8336  157.3911 LP  0  0  0  0  0  0  0  0  0  0  0  0  # atno 17395 bound_to 11000

$$$$
