AV-unprocessed.smi:2755|AV-procd|sdf|10617|dock4
  -GOLD-   2272015 63D 1   1.00000     0.00000
 Structure written by MMmdl.
 32 32  0  0  0  0  0  0  0  0  1 V2000
  150.9682  145.2363  159.7602 C   0  0  0  0  0  0  0  0  0  0  0  0
  152.1870  144.3540  159.4690 C   0  0  0  0  0  0  0  0  0  0  0  0
  152.1488  143.7394  158.0625 C   0  0  0  0  0  0  0  0  0  0  0  0
  150.9085  142.8633  157.8365 C   0  0  0  0  0  0  0  0  0  0  0  0
  150.9802  142.0675  156.5266 C   0  0  0  0  0  0  0  0  0  0  0  0
  149.7750  142.2802  155.7389 N   0  0  0  0  0  0  0  0  0  0  0  0
  149.3521  141.4768  154.7493 C   0  0  0  0  0  0  0  0  0  0  0  0
  149.9549  140.4560  154.4201 O   0  0  0  0  0  0  0  0  0  0  0  0
  148.0619  141.8561  154.0022 C   0  0  0  0  0  0  0  0  0  0  0  0
  146.9188  142.1733  154.8641 N   0  0  0  0  0  0  0  0  0  0  0  0
  146.8858  141.5894  156.1079 N   0  0  0  0  0  0  0  0  0  0  0  0
  145.8189  142.0006  156.6972 C   0  0  0  0  0  0  0  0  0  0  0  0
  145.4035  141.6547  157.9666 N   0  0  0  0  0  0  0  0  0  0  0  0
  144.7347  143.1230  155.8464 S   0  0  0  0  0  0  0  0  0  0  0  0
  145.8782  143.0314  154.4917 C   0  0  0  0  0  0  0  0  0  0  0  0
  145.7315  143.6468  153.4372 O   0  0  0  0  0  0  0  0  0  0  0  0
  151.0241  145.6562  160.7648 H   0  0  0  0  0  0  0  0  0  0  0  0
  150.0423  144.6647  159.6896 H   0  0  0  0  0  0  0  0  0  0  0  0
  150.9053  146.0662  159.0560 H   0  0  0  0  0  0  0  0  0  0  0  0
  153.0949  144.9469  159.5851 H   0  0  0  0  0  0  0  0  0  0  0  0
  152.2400  143.5596  160.2144 H   0  0  0  0  0  0  0  0  0  0  0  0
  152.1701  144.5367  157.3184 H   0  0  0  0  0  0  0  0  0  0  0  0
  153.0479  143.1430  157.9019 H   0  0  0  0  0  0  0  0  0  0  0  0
  150.7944  142.1746  158.6747 H   0  0  0  0  0  0  0  0  0  0  0  0
  150.0173  143.4926  157.8294 H   0  0  0  0  0  0  0  0  0  0  0  0
  151.8543  142.3754  155.9502 H   0  0  0  0  0  0  0  0  0  0  0  0
  151.0879  141.0022  156.7364 H   0  0  0  0  0  0  0  0  0  0  0  0
  149.2241  143.0987  155.9542 H   0  0  0  0  0  0  0  0  0  0  0  0
  148.2749  142.7113  153.3588 H   0  0  0  0  0  0  0  0  0  0  0  0
  147.7999  141.0356  153.3320 H   0  0  0  0  0  0  0  0  0  0  0  0
  145.9172  141.0263  158.5675 H   0  0  0  0  0  0  0  0  0  0  0  0
  144.5518  141.9967  158.3878 H   0  0  0  0  0  0  0  0  0  0  0  0
  1  2  1  0  0  0  0
  1 17  1  0  0  0  0
  1 18  1  0  0  0  0
  1 19  1  0  0  0  0
  2  3  1  0  0  0  0
  2 20  1  0  0  0  0
  2 21  1  0  0  0  0
  3  4  1  0  0  0  0
  3 22  1  0  0  0  0
  3 23  1  0  0  0  0
  4  5  1  0  0  0  0
  4 24  1  0  0  0  0
  4 25  1  0  0  0  0
  5  6  1  0  0  0  0
  5 26  1  0  0  0  0
  5 27  1  0  0  0  0
  6  7  1  0  0  0  0
  6 28  1  0  0  0  0
  7  8  2  0  0  0  0
  7  9  1  0  0  0  0
  9 10  1  0  0  0  0
  9 29  1  0  0  0  0
  9 30  1  0  0  0  0
 10 15  1  0  0  0  0
 10 11  1  0  0  0  0
 11 12  2  0  0  0  0
 12 13  1  0  0  0  0
 12 14  1  0  0  0  0
 13 31  1  0  0  0  0
 13 32  1  0  0  0  0
 14 15  1  0  0  0  0
 15 16  2  0  0  0  0
M  END
> <s_m_source_file>
AV-unprocessed.smi

> <i_m_source_file_index>
2755

> <i_lp_mmshare_version>
43012

> <i_f3d_flags>
0

> <s_epik_input>
W0NIM11bQ0gyXVtDSDJdW0NIMl1bQ0gyXVtOSF1DKD1PKVtDSDJdbjFuYyhbTkgyXSlzYzE9Tw==

> <s_epik_cmdline>
J2VwaWtfcHl0aG9uJywgJy1waCcsICc3LjAnLCAnLXRuJywgJzgnLCAnLW1hJywgJzIwMCcsICctbWV0YWxfYmluZGluZycsICctaW1hZScsICc8aW5maWxlLm1hZT4nLCAnLW9tYWUnLCAnPG91dGZpbGUubWFlPic=

> <r_lp_tautomer_probability>
1

> <r_epik_Ionization_Penalty>
4.62415e-07

> <r_epik_Ionization_Penalty_Charging>
1.84682e-08

> <r_epik_Ionization_Penalty_Neutral>
4.43947e-07

> <r_epik_State_Penalty>
-0

> <r_epik_Charging_Adjusted_Penalty>
1.84682e-08

> <i_epik_Tot_Q>
0

> <i_epik_Tot_abs_Q>
0

> <r_epik_Metal_State_Penalty>
-0

> <b_epik_Metal_Only>
0

> <s_lp_Force_Field>
OPLS_2005

> <r_lp_Energy>
7.41943

> <b_lp_Chiralities_Consistent>
1

> <s_lp_Variant>
AV-unprocessed.smi:2755-1

> <Gold.Version>
5.8.1

> <Gold.Id.Protein>
6NUR|6NUR_protein|mol2

> <Gold.PLP.Fitness>
38.8523

> <Gold.PLP.PLP>
-35.2662

> <Gold.PLP.part.hbond>
-2.0000

> <Gold.PLP.part.metal>
0.0000

> <Gold.PLP.part.buried>
-5.7931

> <Gold.PLP.part.nonpolar>
-28.3345

> <Gold.PLP.part.repulsive>
0.6290

> <Gold.PLP.ligand.clash>
0.0000

> <Gold.PLP.ligand.torsion>
0.9832

> <Gold.PLP.Chemscore.Hbond>
1.8400

> <Gold.PLP.Chemscore.CHOScore>
0.0000

> <Gold.PLP.Chemscore.Metal>
0.0000

> <Gold.Chemscore.Hbonds>
donor molecule, donor type, donor heavy atom, donor atom, acceptor molecule, acceptor atom, score
      L1  H     6    28       P1  8028  0.98
      P1  H  7989  7998       L1     8  0.86

> <Gold.PLP.Chemscore.Internal.Correction>
0.0325

> <Gold.Rescore>
     Score         DG    S(hbond)    S(metal)    S(lipo)     H(rot)  DE(clash)    DE(int)     intcor
     10.64     -11.52       1.64        0.00      66.14       2.81       0.01       0.87       ----

> <Gold.Chemscore.Fitness>
10.6391

> <Gold.Chemscore.DG>
-11.5205

> <Gold.Chemscore.ZeroCoef>
-5.4800

> <Gold.Chemscore.Hbond>
1.6429

> <Gold.Chemscore.Metal>
0.0000

> <Gold.Chemscore.Lipo>
66.1436

> <Gold.Chemscore.Internal_Hbond>
0.0000

> <Gold.Chemscore.DEClash>
0.0141

> <Gold.Chemscore.DEInternal>
0.8673

> <Gold.Chemscore.Rot>
2.8069

> <Gold.Chemscore.Internal.Correction>
   9.000000E+99

> <Gold.Chemscore.Hbonds>
donor molecule, donor type, donor heavy atom, donor atom, acceptor molecule, acceptor atom, score
      L1  H     6    28       P1  8028  0.93
      P1  H  7989  7998       L1     8  0.66

> <Gold.Chemscore.Hbond.Weighted>
-5.4873

> <Gold.Chemscore.Metal.Weighted>
-0.0000

> <Gold.Chemscore.Lipo.Weighted>
-7.7388

> <Gold.Chemscore.Internal_Hbond.Weighted>
0.0000

> <Gold.Chemscore.DEClash.Weighted>
0.0141

> <Gold.Chemscore.DEInternal.Weighted>
0.8673

> <Gold.Chemscore.Rot.Weighted>
7.1856

> <Gold.Chemscore.Internal.Correction.Weighted>
   9.000000E+99

> <Gold.Protein.RotatedTorsions>
[ 6907 6896 6895 6894 ] final -156.42 input  -60.11 | X-H torsion
[ 7974 7965 7964 7962 ] final  128.24 input  175.53 | X-H torsion
[ 8008 7997 7996 7995 ] final -141.00 input   59.86 | X-H torsion
[ 10167 10162 10161 10158 ] final    1.53 input  -65.29 | X-H torsion
[ 10718 10713 10712 10709 ] final  108.94 input   66.30 | X-H torsion
[ 10763 10752 10751 10750 ] final  104.01 input  -60.55 | X-H torsion
[ 11005 11000 10999 10996 ] final  149.58 input  -57.11 | X-H torsion

> <Gold.Protein.ActiveResidues>
 VAL166  LYS551  ARG553  GLY616  TRP617  ASP618  TYR619  PRO620  LYS621  CYS622 
 ASP623  PHE694  ASN695  SER759  ASP760  ASP761  ALA762  ILE779  LEU786  VAL792 
 PHE793  MET794  SER795  GLU796  ALA797  LYS798  CYS799  TRP800  GLU811  SER814 

> <Gold.Protein.RotatedAtoms>
  151.2873  133.4181  159.2630 H   0  0  0  0  0  0  0  0  0  0  0  0  # atno 6907 bound_to 6896
  151.0308  134.9538  159.8120 H   0  0  0  0  0  0  0  0  0  0  0  0  # atno 6908 bound_to 6896
  152.5345  134.2834  159.9068 H   0  0  0  0  0  0  0  0  0  0  0  0  # atno 6909 bound_to 6896
  145.0417  139.3957  143.5098 H   0  0  0  0  0  0  0  0  0  0  0  0  # atno 7974 bound_to 7965
  155.4707  140.0552  157.2980 H   0  0  0  0  0  0  0  0  0  0  0  0  # atno 8008 bound_to 7997
  154.4700  140.2036  155.9974 H   0  0  0  0  0  0  0  0  0  0  0  0  # atno 8009 bound_to 7997
  156.1039  140.3215  155.7984 H   0  0  0  0  0  0  0  0  0  0  0  0  # atno 8010 bound_to 7997
  140.6678  143.7132  150.7862 H   0  0  0  0  0  0  0  0  0  0  0  0  # atno 10167 bound_to 10162
  157.6564  131.0904  150.6379 H   0  0  0  0  0  0  0  0  0  0  0  0  # atno 10718 bound_to 10713
  153.3602  135.3957  155.1712 H   0  0  0  0  0  0  0  0  0  0  0  0  # atno 10763 bound_to 10752
  154.8678  135.3677  154.5109 H   0  0  0  0  0  0  0  0  0  0  0  0  # atno 10764 bound_to 10752
  153.5568  135.7082  153.5626 H   0  0  0  0  0  0  0  0  0  0  0  0  # atno 10765 bound_to 10752
  140.1057  134.8955  157.1862 H   0  0  0  0  0  0  0  0  0  0  0  0  # atno 11005 bound_to 11000
  146.3510  140.0022  142.8675 LP  0  0  0  0  0  0  0  0  0  0  0  0  # atno 17320 bound_to 7965
  145.1639  140.9687  143.4361 LP  0  0  0  0  0  0  0  0  0  0  0  0  # atno 17321 bound_to 7965
  140.0812  143.4967  152.2529 LP  0  0  0  0  0  0  0  0  0  0  0  0  # atno 17342 bound_to 10162
  139.5934  144.7558  151.3346 LP  0  0  0  0  0  0  0  0  0  0  0  0  # atno 17343 bound_to 10162
  156.6686  130.4533  149.5664 LP  0  0  0  0  0  0  0  0  0  0  0  0  # atno 17370 bound_to 10713
  156.2014  130.6622  151.1172 LP  0  0  0  0  0  0  0  0  0  0  0  0  # atno 17371 bound_to 10713
  140.3159  134.2971  155.7256 LP  0  0  0  0  0  0  0  0  0  0  0  0  # atno 17394 bound_to 11000
  141.2117  133.7679  156.9842 LP  0  0  0  0  0  0  0  0  0  0  0  0  # atno 17395 bound_to 11000

$$$$
