AV-unprocessed.smi:2078|AV-procd|sdf|8465|dock4
  -GOLD-   2272011163D 1   1.00000     0.00000
 Structure written by MMmdl.
 42 43  0  0  0  0  0  0  0  0  2 V2000
  153.4597  137.6400  157.2697 C   0  0  0  0  0  0  0  0  0  0  0  0
  152.4683  138.1261  156.2690 C   0  0  0  0  0  0  0  0  0  0  0  0
  151.5882  137.4853  155.4426 C   0  0  0  0  0  0  0  0  0  0  0  0
  150.9499  138.5572  154.7637 C   0  0  0  0  0  0  0  0  0  0  0  0
  149.9376  138.3117  153.8009 N   0  0  0  0  0  0  0  0  0  0  0  0
  148.8422  139.0531  153.5625 C   0  0  0  0  0  0  0  0  0  0  0  0
  148.5614  140.1089  154.1308 O   0  0  0  0  0  0  0  0  0  0  0  0
  148.0691  138.4994  152.6170 N   0  0  0  0  0  0  0  0  0  0  0  0
  146.8120  139.0656  152.1411 C   0  0  0  0  0  0  0  0  0  0  0  0
  146.1076  138.1252  151.1430 C   0  0  0  0  0  0  0  0  0  0  0  0
  146.0193  136.7324  151.6478 N   0  3  1  0  0  0  0  0  0  0  0  0
  145.3289  136.6515  152.9607 C   0  0  0  0  0  0  0  0  0  0  0  0
  145.3882  135.2256  153.5312 C   0  0  0  0  0  0  0  0  0  0  0  0
  144.8083  134.2082  152.5379 C   0  0  0  0  0  0  0  0  0  0  0  0
  145.4758  134.3322  151.1557 C   0  0  2  0  0  0  0  0  0  0  0  0
  146.9041  133.7602  151.1275 C   0  0  0  0  0  0  0  0  0  0  0  0
  145.4231  135.7918  150.6599 C   0  0  0  0  0  0  0  0  0  0  0  0
  151.4015  139.7439  155.1393 N   0  0  0  0  0  0  0  0  0  0  0  0
  152.3773  139.4737  156.1057 O   0  0  0  0  0  0  0  0  0  0  0  0
  153.4600  136.5512  157.3219 H   0  0  0  0  0  0  0  0  0  0  0  0
  153.2265  138.0258  158.2622 H   0  0  0  0  0  0  0  0  0  0  0  0
  154.4660  137.9666  157.0072 H   0  0  0  0  0  0  0  0  0  0  0  0
  151.4275  136.4221  155.3450 H   0  0  0  0  0  0  0  0  0  0  0  0
  150.0502  137.4725  153.2513 H   0  0  0  0  0  0  0  0  0  0  0  0
  148.3730  137.6337  152.1950 H   0  0  0  0  0  0  0  0  0  0  0  0
  146.1783  139.2902  152.9994 H   0  0  0  0  0  0  0  0  0  0  0  0
  147.0299  140.0195  151.6603 H   0  0  0  0  0  0  0  0  0  0  0  0
  145.1027  138.5134  150.9706 H   0  0  0  0  0  0  0  0  0  0  0  0
  146.6063  138.1273  150.1725 H   0  0  0  0  0  0  0  0  0  0  0  0
  145.7968  137.3364  153.6691 H   0  0  0  0  0  0  0  0  0  0  0  0
  144.2916  136.9713  152.8482 H   0  0  0  0  0  0  0  0  0  0  0  0
  146.4203  134.9675  153.7697 H   0  0  0  0  0  0  0  0  0  0  0  0
  144.8373  135.1797  154.4710 H   0  0  0  0  0  0  0  0  0  0  0  0
  144.9149  133.1945  152.9260 H   0  0  0  0  0  0  0  0  0  0  0  0
  143.7367  134.3838  152.4348 H   0  0  0  0  0  0  0  0  0  0  0  0
  144.8915  133.7297  150.4588 H   0  0  0  0  0  0  0  0  0  0  0  0
  147.5777  134.3124  151.7826 H   0  0  0  0  0  0  0  0  0  0  0  0
  147.3201  133.7995  150.1203 H   0  0  0  0  0  0  0  0  0  0  0  0
  146.9144  132.7168  151.4441 H   0  0  0  0  0  0  0  0  0  0  0  0
  144.3865  136.0800  150.4768 H   0  0  0  0  0  0  0  0  0  0  0  0
  145.9338  135.8641  149.7002 H   0  0  0  0  0  0  0  0  0  0  0  0
  146.9681  136.4270  151.8109 H   0  0  0  0  0  0  0  0  0  0  0  0
  1  2  1  0  0  0  0
  1 20  1  0  0  0  0
  1 21  1  0  0  0  0
  1 22  1  0  0  0  0
  2 19  1  0  0  0  0
  2  3  2  0  0  0  0
  3  4  1  0  0  0  0
  3 23  1  0  0  0  0
  4  5  1  0  0  0  0
  4 18  2  0  0  0  0
  5  6  1  0  0  0  0
  5 24  1  0  0  0  0
  6  7  2  0  0  0  0
  6  8  1  0  0  0  0
  8  9  1  0  0  0  0
  8 25  1  0  0  0  0
  9 10  1  0  0  0  0
  9 26  1  0  0  0  0
  9 27  1  0  0  0  0
 10 11  1  0  0  0  0
 10 28  1  0  0  0  0
 10 29  1  0  0  0  0
 11 17  1  0  0  0  0
 11 12  1  0  0  0  0
 11 42  1  0  0  0  0
 12 13  1  0  0  0  0
 12 30  1  0  0  0  0
 12 31  1  0  0  0  0
 13 14  1  0  0  0  0
 13 32  1  0  0  0  0
 13 33  1  0  0  0  0
 14 15  1  0  0  0  0
 14 34  1  0  0  0  0
 14 35  1  0  0  0  0
 15 16  1  0  0  0  0
 15 17  1  0  0  0  0
 15 36  1  0  0  0  0
 16 37  1  0  0  0  0
 16 38  1  0  0  0  0
 16 39  1  0  0  0  0
 17 40  1  0  0  0  0
 17 41  1  0  0  0  0
 18 19  1  0  0  0  0
M  CHG  1  11   1
M  END
> <s_m_source_file>
AV-unprocessed.smi

> <i_m_source_file_index>
2078

> <i_lp_mmshare_version>
43012

> <i_f3d_flags>
0

> <s_epik_input>
W0NIM11jMVtjSF1jKG5vMSlbTkhdQyg9TylbTkhdW0NIMl1bQ0gyXU4yW0NIMl1bQ0gyXVtDSDJdW0NAQEhdKFtDSDNdKVtDSDJdMg==

> <s_epik_cmdline>
J2VwaWtfcHl0aG9uJywgJy1waCcsICc3LjAnLCAnLXRuJywgJzgnLCAnLW1hJywgJzIwMCcsICctbWV0YWxfYmluZGluZycsICctaW1hZScsICc8aW5maWxlLm1hZT4nLCAnLW9tYWUnLCAnPG91dGZpbGUubWFlPic=

> <r_epik_Ionization_Penalty>
0.00216453

> <r_epik_Ionization_Penalty_Charging>
0.00212879

> <r_epik_Ionization_Penalty_Neutral>
3.57418e-05

> <r_epik_State_Penalty>
0.00146033

> <r_epik_Charging_Adjusted_Penalty>
0.00358912

> <i_epik_Tot_Q>
1

> <i_epik_Tot_abs_Q>
1

> <r_epik_Metal_State_Penalty>
0.0215827

> <b_epik_Metal_Only>
0

> <s_lp_Force_Field>
OPLS_2005

> <r_lp_Energy>
15.3695

> <b_lp_Chiralities_Consistent>
1

> <s_lp_Variant>
AV-unprocessed.smi:2078-3

> <Gold.Version>
5.8.1

> <Gold.Id.Protein>
6NUR|6NUR_protein|mol2

> <Gold.PLP.Fitness>
45.5336

> <Gold.PLP.PLP>
-28.9921

> <Gold.PLP.part.hbond>
-6.8279

> <Gold.PLP.part.metal>
0.0000

> <Gold.PLP.part.buried>
1.7904

> <Gold.PLP.part.nonpolar>
-25.9773

> <Gold.PLP.part.repulsive>
1.0446

> <Gold.PLP.ligand.clash>
0.0000

> <Gold.PLP.ligand.torsion>
0.2990

> <Gold.PLP.Chemscore.Hbond>
5.7078

> <Gold.PLP.Chemscore.CHOScore>
0.0000

> <Gold.PLP.Chemscore.Metal>
0.0000

> <Gold.Chemscore.Hbonds>
donor molecule, donor type, donor heavy atom, donor atom, acceptor molecule, acceptor atom, score
      L1  H     5    24       P1  7948  0.66
      L1  H     8    25       P1  7948  0.99
      L1  H    11    42       P1  7948  2.00
      P1  H  7989  7998       L1    18  1.00
      P1  H  7997  8009       L1    19  0.89

> <Gold.PLP.Chemscore.Internal.Correction>
0.0162

> <Gold.Rescore>
     Score         DG    S(hbond)    S(metal)    S(lipo)     H(rot)  DE(clash)    DE(int)     intcor
     17.99     -20.57       3.70        0.00      57.85       1.57       2.09       0.49       ----

> <Gold.Chemscore.Fitness>
17.9908

> <Gold.Chemscore.DG>
-20.5725

> <Gold.Chemscore.ZeroCoef>
-5.4800

> <Gold.Chemscore.Hbond>
3.6953

> <Gold.Chemscore.Metal>
0.0000

> <Gold.Chemscore.Lipo>
57.8523

> <Gold.Chemscore.Internal_Hbond>
0.0000

> <Gold.Chemscore.DEClash>
2.0938

> <Gold.Chemscore.DEInternal>
0.4879

> <Gold.Chemscore.Rot>
1.5697

> <Gold.Chemscore.Internal.Correction>
   9.000000E+99

> <Gold.Chemscore.Hbonds>
donor molecule, donor type, donor heavy atom, donor atom, acceptor molecule, acceptor atom, score
      L1  H     5    24       P1  7948  0.17
      L1  H     8    25       P1  7948  0.92
      L1  H    11    42       P1  7948  0.98
      P1  H  7989  7998       L1    18  0.62
      P1  H  7997  8009       L1    19  0.38

> <Gold.Chemscore.Hbond.Weighted>
-12.3423

> <Gold.Chemscore.Metal.Weighted>
-0.0000

> <Gold.Chemscore.Lipo.Weighted>
-6.7687

> <Gold.Chemscore.Internal_Hbond.Weighted>
0.0000

> <Gold.Chemscore.DEClash.Weighted>
2.0938

> <Gold.Chemscore.DEInternal.Weighted>
0.4879

> <Gold.Chemscore.Rot.Weighted>
4.0185

> <Gold.Chemscore.Internal.Correction.Weighted>
   9.000000E+99

> <Gold.Protein.RotatedTorsions>
[ 6907 6896 6895 6894 ] final  -11.48 input  -60.11 | X-H torsion
[ 7974 7965 7964 7962 ] final  -44.11 input  175.53 | X-H torsion
[ 8008 7997 7996 7995 ] final -158.00 input   59.86 | X-H torsion
[ 10167 10162 10161 10158 ] final   90.01 input  -65.29 | X-H torsion
[ 10718 10713 10712 10709 ] final  127.25 input   66.30 | X-H torsion
[ 10763 10752 10751 10750 ] final  138.33 input  -60.55 | X-H torsion
[ 11005 11000 10999 10996 ] final  160.71 input  -57.11 | X-H torsion

> <Gold.Protein.ActiveResidues>
 VAL166  LYS551  ARG553  GLY616  TRP617  ASP618  TYR619  PRO620  LYS621  CYS622 
 ASP623  PHE694  ASN695  SER759  ASP760  ASP761  ALA762  ILE779  LEU786  VAL792 
 PHE793  MET794  SER795  GLU796  ALA797  LYS798  CYS799  TRP800  GLU811  SER814 

> <Gold.Protein.RotatedAtoms>
  151.3855  135.0947  159.9509 H   0  0  0  0  0  0  0  0  0  0  0  0  # atno 6907 bound_to 6896
  152.5095  133.9030  159.7461 H   0  0  0  0  0  0  0  0  0  0  0  0  # atno 6908 bound_to 6896
  150.9473  133.6533  159.2807 H   0  0  0  0  0  0  0  0  0  0  0  0  # atno 6909 bound_to 6896
  145.9953  140.7135  142.9297 H   0  0  0  0  0  0  0  0  0  0  0  0  # atno 7974 bound_to 7965
  155.7409  140.0814  157.2246 H   0  0  0  0  0  0  0  0  0  0  0  0  # atno 8008 bound_to 7997
  154.4022  140.1578  156.2670 H   0  0  0  0  0  0  0  0  0  0  0  0  # atno 8009 bound_to 7997
  155.9021  140.3409  155.6037 H   0  0  0  0  0  0  0  0  0  0  0  0  # atno 8010 bound_to 7997
  139.8516  144.6591  150.9163 H   0  0  0  0  0  0  0  0  0  0  0  0  # atno 10167 bound_to 10162
  157.5349  131.1098  150.8951 H   0  0  0  0  0  0  0  0  0  0  0  0  # atno 10718 bound_to 10713
  153.8878  135.3036  155.3447 H   0  0  0  0  0  0  0  0  0  0  0  0  # atno 10763 bound_to 10752
  154.7731  135.4875  153.9692 H   0  0  0  0  0  0  0  0  0  0  0  0  # atno 10764 bound_to 10752
  153.1315  135.6805  153.9269 H   0  0  0  0  0  0  0  0  0  0  0  0  # atno 10765 bound_to 10752
  140.2086  134.8284  157.3096 H   0  0  0  0  0  0  0  0  0  0  0  0  # atno 11005 bound_to 11000
  144.6902  140.3140  143.7243 LP  0  0  0  0  0  0  0  0  0  0  0  0  # atno 17320 bound_to 7965
  145.7569  139.1812  143.2289 LP  0  0  0  0  0  0  0  0  0  0  0  0  # atno 17321 bound_to 7965
  140.7787  143.3822  151.1456 LP  0  0  0  0  0  0  0  0  0  0  0  0  # atno 17342 bound_to 10162
  139.7460  143.8851  152.3063 LP  0  0  0  0  0  0  0  0  0  0  0  0  # atno 17343 bound_to 10162
  156.9521  130.5423  149.5283 LP  0  0  0  0  0  0  0  0  0  0  0  0  # atno 17370 bound_to 10713
  156.0451  130.5528  150.8862 LP  0  0  0  0  0  0  0  0  0  0  0  0  # atno 17371 bound_to 10713
  140.1975  134.4295  155.7681 LP  0  0  0  0  0  0  0  0  0  0  0  0  # atno 17394 bound_to 11000
  141.2226  133.7056  156.8129 LP  0  0  0  0  0  0  0  0  0  0  0  0  # atno 17395 bound_to 11000

$$$$
