AV-unprocessed.smi:2083|AV-procd|sdf|8492|dock5
  -GOLD-   2272011203D 1   1.00000     0.00000
 Structure written by MMmdl.
 45 46  0  0  0  0  0  0  0  0  2 V2000
  148.5232  132.0808  153.8411 C   0  0  0  0  0  0  0  0  0  0  0  0
  149.1608  133.1610  154.6462 C   0  0  0  0  0  0  0  0  0  0  0  0
  148.9324  134.5048  154.7486 C   0  0  0  0  0  0  0  0  0  0  0  0
  149.9067  134.9231  155.6936 C   0  0  0  0  0  0  0  0  0  0  0  0
  150.0075  136.2833  156.0827 N   0  0  0  0  0  0  0  0  0  0  0  0
  151.1249  137.0220  156.1909 C   0  0  0  0  0  0  0  0  0  0  0  0
  152.2670  136.6218  155.9632 O   0  0  0  0  0  0  0  0  0  0  0  0
  150.8483  138.2743  156.5831 N   0  0  0  0  0  0  0  0  0  0  0  0
  151.8415  139.3290  156.7677 C   0  0  0  0  0  0  0  0  0  0  0  0
  151.2122  140.7174  157.0768 C   0  0  2  0  0  0  0  0  0  0  0  0
  150.8416  141.4395  155.7614 C   0  0  0  0  0  0  0  0  0  0  0  0
  152.0731  141.6096  157.9222 N   0  3  2  0  0  0  0  0  0  0  0  0
  152.8735  140.9327  158.9846 C   0  0  0  0  0  0  0  0  0  0  0  0
  153.8241  141.9131  159.6919 C   0  0  0  0  0  0  0  0  0  0  0  0
  153.0676  143.1181  160.2621 C   0  0  0  0  0  0  0  0  0  0  0  0
  152.2114  143.7917  159.1776 C   0  0  1  0  0  0  0  0  0  0  0  0
  153.0453  144.5939  158.1629 C   0  0  0  0  0  0  0  0  0  0  0  0
  151.3013  142.7519  158.4944 C   0  0  0  0  0  0  0  0  0  0  0  0
  150.6595  133.9254  156.1309 N   0  0  0  0  0  0  0  0  0  0  0  0
  150.1854  132.7911  155.4614 O   0  0  0  0  0  0  0  0  0  0  0  0
  147.6069  132.4350  153.3688 H   0  0  0  0  0  0  0  0  0  0  0  0
  148.2702  131.2271  154.4698 H   0  0  0  0  0  0  0  0  0  0  0  0
  149.1970  131.7360  153.0567 H   0  0  0  0  0  0  0  0  0  0  0  0
  148.1894  135.0903  154.2277 H   0  0  0  0  0  0  0  0  0  0  0  0
  149.1346  136.7437  156.2935 H   0  0  0  0  0  0  0  0  0  0  0  0
  149.8834  138.5204  156.7517 H   0  0  0  0  0  0  0  0  0  0  0  0
  152.5074  139.0066  157.5694 H   0  0  0  0  0  0  0  0  0  0  0  0
  152.4424  139.3826  155.8591 H   0  0  0  0  0  0  0  0  0  0  0  0
  150.2934  140.5330  157.6362 H   0  0  0  0  0  0  0  0  0  0  0  0
  150.1605  140.8456  155.1521 H   0  0  0  0  0  0  0  0  0  0  0  0
  151.7296  141.6400  155.1612 H   0  0  0  0  0  0  0  0  0  0  0  0
  150.3402  142.3910  155.9296 H   0  0  0  0  0  0  0  0  0  0  0  0
  152.2030  140.4642  159.7069 H   0  0  0  0  0  0  0  0  0  0  0  0
  153.4986  140.1473  158.5624 H   0  0  0  0  0  0  0  0  0  0  0  0
  154.3548  141.3991  160.4938 H   0  0  0  0  0  0  0  0  0  0  0  0
  154.5886  142.2515  158.9919 H   0  0  0  0  0  0  0  0  0  0  0  0
  152.4214  142.7813  161.0737 H   0  0  0  0  0  0  0  0  0  0  0  0
  153.7646  143.8322  160.7022 H   0  0  0  0  0  0  0  0  0  0  0  0
  151.5640  144.5121  159.6794 H   0  0  0  0  0  0  0  0  0  0  0  0
  153.7120  143.9544  157.5846 H   0  0  0  0  0  0  0  0  0  0  0  0
  153.6575  145.3437  158.6647 H   0  0  0  0  0  0  0  0  0  0  0  0
  152.4009  145.1187  157.4568 H   0  0  0  0  0  0  0  0  0  0  0  0
  150.7123  143.2547  157.7296 H   0  0  0  0  0  0  0  0  0  0  0  0
  150.5846  142.3628  159.2195 H   0  0  0  0  0  0  0  0  0  0  0  0
  152.7533  142.0083  157.2909 H   0  0  0  0  0  0  0  0  0  0  0  0
  1  2  1  0  0  0  0
  1 21  1  0  0  0  0
  1 22  1  0  0  0  0
  1 23  1  0  0  0  0
  2 20  1  0  0  0  0
  2  3  2  0  0  0  0
  3  4  1  0  0  0  0
  3 24  1  0  0  0  0
  4  5  1  0  0  0  0
  4 19  2  0  0  0  0
  5  6  1  0  0  0  0
  5 25  1  0  0  0  0
  6  7  2  0  0  0  0
  6  8  1  0  0  0  0
  8  9  1  0  0  0  0
  8 26  1  0  0  0  0
  9 10  1  0  0  0  0
  9 27  1  0  0  0  0
  9 28  1  0  0  0  0
 10 11  1  0  0  0  0
 10 12  1  0  0  0  0
 10 29  1  0  0  0  0
 11 30  1  0  0  0  0
 11 31  1  0  0  0  0
 11 32  1  0  0  0  0
 12 18  1  0  0  0  0
 12 13  1  0  0  0  0
 12 45  1  0  0  0  0
 13 14  1  0  0  0  0
 13 33  1  0  0  0  0
 13 34  1  0  0  0  0
 14 15  1  0  0  0  0
 14 35  1  0  0  0  0
 14 36  1  0  0  0  0
 15 16  1  0  0  0  0
 15 37  1  0  0  0  0
 15 38  1  0  0  0  0
 16 17  1  0  0  0  0
 16 18  1  0  0  0  0
 16 39  1  0  0  0  0
 17 40  1  0  0  0  0
 17 41  1  0  0  0  0
 17 42  1  0  0  0  0
 18 43  1  0  0  0  0
 18 44  1  0  0  0  0
 19 20  1  0  0  0  0
M  CHG  1  12   1
M  END
> <s_m_source_file>
AV-unprocessed.smi

> <i_m_source_file_index>
2083

> <i_lp_mmshare_version>
43012

> <i_f3d_flags>
0

> <s_epik_input>
W0NIM11jMVtjSF1jKG5vMSlbTkhdQyg9TylbTkhdW0NIMl1bQ0BIXShbQ0gzXSlOMltDSDJdW0NIMl1bQ0gyXVtDQEBIXShbQ0gzXSlbQ0gyXTI=

> <s_epik_cmdline>
J2VwaWtfcHl0aG9uJywgJy1waCcsICc3LjAnLCAnLXRuJywgJzgnLCAnLW1hJywgJzIwMCcsICctbWV0YWxfYmluZGluZycsICctaW1hZScsICc8aW5maWxlLm1hZT4nLCAnLW9tYWUnLCAnPG91dGZpbGUubWFlPic=

> <r_epik_Ionization_Penalty>
0.00216453

> <r_epik_Ionization_Penalty_Charging>
0.00212879

> <r_epik_Ionization_Penalty_Neutral>
3.57418e-05

> <r_epik_State_Penalty>
0.00146033

> <r_epik_Charging_Adjusted_Penalty>
0.00358912

> <i_epik_Tot_Q>
1

> <i_epik_Tot_abs_Q>
1

> <r_epik_Metal_State_Penalty>
0.0215827

> <b_epik_Metal_Only>
0

> <s_lp_Force_Field>
OPLS_2005

> <r_lp_Energy>
21.6248

> <b_lp_Chiralities_Consistent>
1

> <s_lp_Variant>
AV-unprocessed.smi:2083-3

> <Gold.Version>
5.8.1

> <Gold.Id.Protein>
6NUR|6NUR_protein|mol2

> <Gold.PLP.Fitness>
38.9164

> <Gold.PLP.PLP>
-38.4786

> <Gold.PLP.part.hbond>
-1.0000

> <Gold.PLP.part.metal>
0.0000

> <Gold.PLP.part.buried>
-4.7462

> <Gold.PLP.part.nonpolar>
-32.5900

> <Gold.PLP.part.repulsive>
0.1594

> <Gold.PLP.ligand.clash>
0.0000

> <Gold.PLP.ligand.torsion>
1.2938

> <Gold.PLP.Chemscore.Hbond>
0.9920

> <Gold.PLP.Chemscore.CHOScore>
0.0000

> <Gold.PLP.Chemscore.Metal>
0.0000

> <Gold.Chemscore.Hbonds>
donor molecule, donor type, donor heavy atom, donor atom, acceptor molecule, acceptor atom, score
      P1  H 10752 10765       L1     7  1.00

> <Gold.PLP.Chemscore.Internal.Correction>
0.0494

> <Gold.Rescore>
     Score         DG    S(hbond)    S(metal)    S(lipo)     H(rot)  DE(clash)    DE(int)     intcor
     15.82     -16.89       0.98        0.00     103.28       1.55       0.03       1.04       ----

> <Gold.Chemscore.Fitness>
15.8245

> <Gold.Chemscore.DG>
-16.8915

> <Gold.Chemscore.ZeroCoef>
-5.4800

> <Gold.Chemscore.Hbond>
0.9848

> <Gold.Chemscore.Metal>
0.0000

> <Gold.Chemscore.Lipo>
103.2786

> <Gold.Chemscore.Internal_Hbond>
0.0000

> <Gold.Chemscore.DEClash>
0.0305

> <Gold.Chemscore.DEInternal>
1.0365

> <Gold.Chemscore.Rot>
1.5474

> <Gold.Chemscore.Internal.Correction>
   9.000000E+99

> <Gold.Chemscore.Hbonds>
donor molecule, donor type, donor heavy atom, donor atom, acceptor molecule, acceptor atom, score
      P1  H 10752 10765       L1     7  0.98

> <Gold.Chemscore.Hbond.Weighted>
-3.2891

> <Gold.Chemscore.Metal.Weighted>
-0.0000

> <Gold.Chemscore.Lipo.Weighted>
-12.0836

> <Gold.Chemscore.Internal_Hbond.Weighted>
0.0000

> <Gold.Chemscore.DEClash.Weighted>
0.0305

> <Gold.Chemscore.DEInternal.Weighted>
1.0365

> <Gold.Chemscore.Rot.Weighted>
3.9612

> <Gold.Chemscore.Internal.Correction.Weighted>
   9.000000E+99

> <Gold.Protein.RotatedTorsions>
[ 6907 6896 6895 6894 ] final  107.14 input  -60.11 | X-H torsion
[ 7974 7965 7964 7962 ] final   -7.35 input  175.53 | X-H torsion
[ 8008 7997 7996 7995 ] final  -36.63 input   59.86 | X-H torsion
[ 10167 10162 10161 10158 ] final   71.43 input  -65.29 | X-H torsion
[ 10718 10713 10712 10709 ] final    3.58 input   66.30 | X-H torsion
[ 10763 10752 10751 10750 ] final -148.82 input  -60.55 | X-H torsion
[ 11005 11000 10999 10996 ] final   39.74 input  -57.11 | X-H torsion

> <Gold.Protein.ActiveResidues>
 VAL166  LYS551  ARG553  GLY616  TRP617  ASP618  TYR619  PRO620  LYS621  CYS622 
 ASP623  PHE694  ASN695  SER759  ASP760  ASP761  ALA762  ILE779  LEU786  VAL792 
 PHE793  MET794  SER795  GLU796  ALA797  LYS798  CYS799  TRP800  GLU811  SER814 

> <Gold.Protein.RotatedAtoms>
  152.5166  133.9278  159.7565 H   0  0  0  0  0  0  0  0  0  0  0  0  # atno 6907 bound_to 6896
  150.9635  133.6411  159.2757 H   0  0  0  0  0  0  0  0  0  0  0  0  # atno 6908 bound_to 6896
  151.3648  135.0916  159.9499 H   0  0  0  0  0  0  0  0  0  0  0  0  # atno 6909 bound_to 6896
  146.2309  140.2307  142.8340 H   0  0  0  0  0  0  0  0  0  0  0  0  # atno 7974 bound_to 7965
  154.4069  140.1625  156.2405 H   0  0  0  0  0  0  0  0  0  0  0  0  # atno 8008 bound_to 7997
  155.9205  140.3421  155.6146 H   0  0  0  0  0  0  0  0  0  0  0  0  # atno 8009 bound_to 7997
  155.7227  140.0770  157.2314 H   0  0  0  0  0  0  0  0  0  0  0  0  # atno 8010 bound_to 7997
  140.0462  144.5349  150.7397 H   0  0  0  0  0  0  0  0  0  0  0  0  # atno 10167 bound_to 10162
  156.8799  130.5650  149.5653 H   0  0  0  0  0  0  0  0  0  0  0  0  # atno 10718 bound_to 10713
  154.8212  135.3325  154.7033 H   0  0  0  0  0  0  0  0  0  0  0  0  # atno 10763 bound_to 10752
  153.7665  135.6929  153.4919 H   0  0  0  0  0  0  0  0  0  0  0  0  # atno 10764 bound_to 10752
  153.2074  135.4494  155.0288 H   0  0  0  0  0  0  0  0  0  0  0  0  # atno 10765 bound_to 10752
  140.1998  134.3884  155.8102 H   0  0  0  0  0  0  0  0  0  0  0  0  # atno 11005 bound_to 11000
  144.9560  140.8227  143.5542 LP  0  0  0  0  0  0  0  0  0  0  0  0  # atno 17320 bound_to 7965
  145.2272  139.2131  143.5062 LP  0  0  0  0  0  0  0  0  0  0  0  0  # atno 17321 bound_to 7965
  140.7238  143.2615  151.4191 LP  0  0  0  0  0  0  0  0  0  0  0  0  # atno 17342 bound_to 10162
  139.5982  144.1352  152.2168 LP  0  0  0  0  0  0  0  0  0  0  0  0  # atno 17343 bound_to 10162
  156.0683  130.5721  150.9332 LP  0  0  0  0  0  0  0  0  0  0  0  0  # atno 17370 bound_to 10713
  157.6146  131.0934  150.8733 LP  0  0  0  0  0  0  0  0  0  0  0  0  # atno 17371 bound_to 10713
  141.2227  133.7088  156.8238 LP  0  0  0  0  0  0  0  0  0  0  0  0  # atno 17394 bound_to 11000
  140.2067  134.8858  157.3229 LP  0  0  0  0  0  0  0  0  0  0  0  0  # atno 17395 bound_to 11000

$$$$
