AV-unprocessed.smi:113|AV-procd|sdf|1092|dock5
  -GOLD-   2262018193D 1   1.00000     0.00000
 Structure written by MMmdl.
 52 55  0  0  0  0  0  0  0  0  1 V2000
  154.9791  140.2198  162.4398 C   0  0  0  0  0  0  0  0  0  0  0  0
  154.1490  140.5549  161.2181 C   0  0  0  0  0  0  0  0  0  0  0  0
  153.8705  139.5763  160.2477 C   0  0  0  0  0  0  0  0  0  0  0  0
  153.0959  139.9299  159.1189 C   0  0  0  0  0  0  0  0  0  0  0  0
  152.7658  138.9020  158.0308 C   0  0  0  0  0  0  0  0  0  0  0  0
  151.3753  138.4831  157.9236 N   0  0  0  0  0  0  0  0  0  0  0  0
  150.8698  137.6158  158.9212 C   0  0  0  0  0  0  0  0  0  0  0  0
  151.5777  137.2168  159.8485 O   0  0  0  0  0  0  0  0  0  0  0  0
  149.4593  137.2524  158.7716 C   0  0  0  0  0  0  0  0  0  0  0  0
  148.8568  136.2979  159.7912 C   0  0  0  0  0  0  0  0  0  0  0  0
  148.7347  137.7640  157.7467 C   0  0  0  0  0  0  0  0  0  0  0  0
  149.2461  138.6396  156.7986 N   0  0  0  0  0  0  0  0  0  0  0  0
  148.4121  139.2510  155.6875 C   0  0  1  0  0  0  0  0  0  0  0  0
  148.9632  139.0956  154.2725 C   0  0  0  0  0  0  0  0  0  0  0  0
  147.7075  139.3786  153.4737 C   0  0  1  0  0  0  0  0  0  0  0  0
  147.8024  138.8405  152.1694 O   0  0  0  0  0  0  0  0  0  0  0  0
  146.5896  138.7803  154.3597 C   0  0  1  0  0  0  0  0  0  0  0  0
  146.0153  137.4199  153.9201 C   0  0  0  0  0  0  0  0  0  0  0  0
  147.0283  136.4356  153.8866 O   0  0  0  0  0  0  0  0  0  0  0  0
  147.1895  138.5866  155.6416 O   0  0  0  0  0  0  0  0  0  0  0  0
  150.6044  139.0168  156.8670 C   0  0  0  0  0  0  0  0  0  0  0  0
  151.0872  139.7939  156.0392 O   0  0  0  0  0  0  0  0  0  0  0  0
  152.6326  141.2699  159.0239 C   0  0  0  0  0  0  0  0  0  0  0  0
  151.8477  141.7050  157.9287 C   0  0  0  0  0  0  0  0  0  0  0  0
  151.4011  143.0363  157.8520 C   0  0  0  0  0  0  0  0  0  0  0  0
  151.7348  143.9468  158.8680 C   0  0  0  0  0  0  0  0  0  0  0  0
  152.5129  143.5225  159.9601 C   0  0  0  0  0  0  0  0  0  0  0  0
  152.9710  142.1910  160.0591 C   0  0  0  0  0  0  0  0  0  0  0  0
  153.7144  141.8267  161.1271 N   0  0  0  0  0  0  0  0  0  0  0  0
  155.0112  139.1428  162.6088 H   0  0  0  0  0  0  0  0  0  0  0  0
  154.5624  140.6884  163.3320 H   0  0  0  0  0  0  0  0  0  0  0  0
  156.0011  140.5762  162.3087 H   0  0  0  0  0  0  0  0  0  0  0  0
  154.2528  138.5756  160.3809 H   0  0  0  0  0  0  0  0  0  0  0  0
  153.0712  139.2792  157.0537 H   0  0  0  0  0  0  0  0  0  0  0  0
  153.3639  138.0000  158.1697 H   0  0  0  0  0  0  0  0  0  0  0  0
  147.8050  136.0938  159.5890 H   0  0  0  0  0  0  0  0  0  0  0  0
  148.9254  136.7209  160.7941 H   0  0  0  0  0  0  0  0  0  0  0  0
  149.3882  135.3456  159.7839 H   0  0  0  0  0  0  0  0  0  0  0  0
  147.7080  137.4432  157.6822 H   0  0  0  0  0  0  0  0  0  0  0  0
  148.2773  140.2991  155.9642 H   0  0  0  0  0  0  0  0  0  0  0  0
  149.7883  139.7813  154.0765 H   0  0  0  0  0  0  0  0  0  0  0  0
  149.2729  138.0651  154.0958 H   0  0  0  0  0  0  0  0  0  0  0  0
  147.5661  140.4576  153.3970 H   0  0  0  0  0  0  0  0  0  0  0  0
  148.3020  138.0389  152.2102 H   0  0  0  0  0  0  0  0  0  0  0  0
  145.7808  139.5037  154.4721 H   0  0  0  0  0  0  0  0  0  0  0  0
  145.2001  137.1028  154.5715 H   0  0  0  0  0  0  0  0  0  0  0  0
  145.6038  137.4995  152.9134 H   0  0  0  0  0  0  0  0  0  0  0  0
  147.4142  136.4302  153.0238 H   0  0  0  0  0  0  0  0  0  0  0  0
  151.5735  141.0316  157.1311 H   0  0  0  0  0  0  0  0  0  0  0  0
  150.8026  143.3583  157.0125 H   0  0  0  0  0  0  0  0  0  0  0  0
  151.3943  144.9702  158.8113 H   0  0  0  0  0  0  0  0  0  0  0  0
  152.7621  144.2320  160.7357 H   0  0  0  0  0  0  0  0  0  0  0  0
  1  2  1  0  0  0  0
  1 30  1  0  0  0  0
  1 31  1  0  0  0  0
  1 32  1  0  0  0  0
  2 29  1  0  0  0  0
  2  3  2  0  0  0  0
  3  4  1  0  0  0  0
  3 33  1  0  0  0  0
  4  5  1  0  0  0  0
  4 23  2  0  0  0  0
  5  6  1  0  0  0  0
  5 34  1  0  0  0  0
  5 35  1  0  0  0  0
  6 21  1  0  0  0  0
  6  7  1  0  0  0  0
  7  8  2  0  0  0  0
  7  9  1  0  0  0  0
  9 10  1  0  0  0  0
  9 11  2  0  0  0  0
 10 36  1  0  0  0  0
 10 37  1  0  0  0  0
 10 38  1  0  0  0  0
 11 12  1  0  0  0  0
 11 39  1  0  0  0  0
 12 13  1  0  0  0  0
 12 21  1  0  0  0  0
 13 20  1  0  0  0  0
 13 14  1  0  0  0  0
 13 40  1  0  0  0  0
 14 15  1  0  0  0  0
 14 41  1  0  0  0  0
 14 42  1  0  0  0  0
 15 16  1  0  0  0  0
 15 17  1  0  0  0  0
 15 43  1  0  0  0  0
 16 44  1  0  0  0  0
 17 18  1  0  0  0  0
 17 20  1  0  0  0  0
 17 45  1  0  0  0  0
 18 19  1  0  0  0  0
 18 46  1  0  0  0  0
 18 47  1  0  0  0  0
 19 48  1  0  0  0  0
 21 22  2  0  0  0  0
 23 28  1  0  0  0  0
 23 24  1  0  0  0  0
 24 25  2  0  0  0  0
 24 49  1  0  0  0  0
 25 26  1  0  0  0  0
 25 50  1  0  0  0  0
 26 27  2  0  0  0  0
 26 51  1  0  0  0  0
 27 28  1  0  0  0  0
 27 52  1  0  0  0  0
 28 29  2  0  0  0  0
M  END
> <s_m_source_file>
AV-unprocessed.smi

> <i_m_source_file_index>
113

> <i_lp_mmshare_version>
43012

> <i_f3d_flags>
0

> <s_epik_input>
W2NIXTFbY0hdW2NIXVtjSF1jKGMxMiluYyhbQ0gzXSlbY0hdYzJbQ0gyXW4zYyg9TyljKFtDSDNdKVtjSF1uKGMzPU8pW0NAQEhdNFtDSDJdW0NAQEhdKFtPSF0pW0NASF0oTzQpW0NIMl1bT0hd

> <s_epik_cmdline>
J2VwaWtfcHl0aG9uJywgJy1waCcsICc3LjAnLCAnLXRuJywgJzgnLCAnLW1hJywgJzIwMCcsICctbWV0YWxfYmluZGluZycsICctaW1hZScsICc8aW5maWxlLm1hZT4nLCAnLW9tYWUnLCAnPG91dGZpbGUubWFlPic=

> <r_lp_tautomer_probability>
1

> <r_epik_Ionization_Penalty>
0.214728

> <r_epik_Ionization_Penalty_Charging>
3.04883e-08

> <r_epik_Ionization_Penalty_Neutral>
0.214728

> <r_epik_State_Penalty>
0.204913

> <r_epik_Charging_Adjusted_Penalty>
0.204913

> <i_epik_Tot_Q>
0

> <i_epik_Tot_abs_Q>
0

> <r_epik_Metal_State_Penalty>
0.000244761

> <b_epik_Metal_Only>
0

> <s_epik_Chemistry_Notes>
This compound contains an acetal/aminal-like group ( X-CH(R)-Y where X, Y are N, S, or O) that may be acid/base labile, releasing an aldehyde.

> <s_lp_Force_Field>
OPLS_2005

> <r_lp_Energy>
43.3088

> <b_lp_Chiralities_Consistent>
1

> <s_lp_Variant>
AV-unprocessed.smi:113-2

> <Gold.Version>
5.8.1

> <Gold.Id.Protein>
6NUR|6NUR_protein|mol2

> <Gold.PLP.Fitness>
53.6425

> <Gold.PLP.PLP>
-45.4893

> <Gold.PLP.part.hbond>
-3.5923

> <Gold.PLP.part.metal>
0.0000

> <Gold.PLP.part.buried>
-6.9566

> <Gold.PLP.part.nonpolar>
-35.1021

> <Gold.PLP.part.repulsive>
0.0066

> <Gold.PLP.ligand.clash>
0.0000

> <Gold.PLP.ligand.torsion>
0.4259

> <Gold.PLP.Chemscore.Hbond>
2.9913

> <Gold.PLP.Chemscore.CHOScore>
0.0000

> <Gold.PLP.Chemscore.Metal>
0.0000

> <Gold.Chemscore.Hbonds>
donor molecule, donor type, donor heavy atom, donor atom, acceptor molecule, acceptor atom, score
      L1  H    16    44       P1  7948  1.00
      L1  H    19    48       P1  7948  1.00
      P1  H  6896  6908       L1     8  0.96

> <Gold.PLP.Chemscore.Internal.Correction>
0.0314

> <Gold.Rescore>
     Score         DG    S(hbond)    S(metal)    S(lipo)     H(rot)  DE(clash)    DE(int)     intcor
     18.44     -21.70       2.83        0.00     122.34       2.95       0.03       3.23       ----

> <Gold.Chemscore.Fitness>
18.4381

> <Gold.Chemscore.DG>
-21.7023

> <Gold.Chemscore.ZeroCoef>
-5.4800

> <Gold.Chemscore.Hbond>
2.8302

> <Gold.Chemscore.Metal>
0.0000

> <Gold.Chemscore.Lipo>
122.3361

> <Gold.Chemscore.Internal_Hbond>
0.0000

> <Gold.Chemscore.DEClash>
0.0350

> <Gold.Chemscore.DEInternal>
3.2292

> <Gold.Chemscore.Rot>
2.9469

> <Gold.Chemscore.Internal.Correction>
   9.000000E+99

> <Gold.Chemscore.Hbonds>
donor molecule, donor type, donor heavy atom, donor atom, acceptor molecule, acceptor atom, score
      L1  H    16    44       P1  7948  0.99
      L1  H    19    48       P1  7948  0.95
      P1  H  6896  6908       L1     8  0.72

> <Gold.Chemscore.Hbond.Weighted>
-9.4529

> <Gold.Chemscore.Metal.Weighted>
-0.0000

> <Gold.Chemscore.Lipo.Weighted>
-14.3133

> <Gold.Chemscore.Internal_Hbond.Weighted>
0.0000

> <Gold.Chemscore.DEClash.Weighted>
0.0350

> <Gold.Chemscore.DEInternal.Weighted>
3.2292

> <Gold.Chemscore.Rot.Weighted>
7.5439

> <Gold.Chemscore.Internal.Correction.Weighted>
   9.000000E+99

> <Gold.Protein.RotatedTorsions>
[ 6907 6896 6895 6894 ] final -122.46 input  -60.11 | X-H torsion
[ 7974 7965 7964 7962 ] final   87.32 input  175.53 | X-H torsion
[ 8008 7997 7996 7995 ] final  102.52 input   59.86 | X-H torsion
[ 10167 10162 10161 10158 ] final -142.24 input  -65.29 | X-H torsion
[ 10718 10713 10712 10709 ] final  -19.94 input   66.30 | X-H torsion
[ 10763 10752 10751 10750 ] final  127.25 input  -60.55 | X-H torsion
[ 11005 11000 10999 10996 ] final   72.95 input  -57.11 | X-H torsion

> <Gold.Protein.ActiveResidues>
 VAL166  LYS551  ARG553  GLY616  TRP617  ASP618  TYR619  PRO620  LYS621  CYS622 
 ASP623  PHE694  ASN695  SER759  ASP760  ASP761  ALA762  ILE779  LEU786  VAL792 
 PHE793  MET794  SER795  GLU796  ALA797  LYS798  CYS799  TRP800  GLU811  SER814 

> <Gold.Protein.RotatedAtoms>
  150.8578  133.7689  159.3002 H   0  0  0  0  0  0  0  0  0  0  0  0  # atno 6907 bound_to 6896
  151.5341  135.1067  159.9919 H   0  0  0  0  0  0  0  0  0  0  0  0  # atno 6908 bound_to 6896
  152.4603  133.7764  159.6883 H   0  0  0  0  0  0  0  0  0  0  0  0  # atno 6909 bound_to 6896
  145.5605  139.2303  143.2462 H   0  0  0  0  0  0  0  0  0  0  0  0  # atno 7974 bound_to 7965
  156.1400  140.3180  155.8481 H   0  0  0  0  0  0  0  0  0  0  0  0  # atno 8008 bound_to 7997
  155.4172  140.0510  157.3045 H   0  0  0  0  0  0  0  0  0  0  0  0  # atno 8009 bound_to 7997
  154.4968  140.2114  155.9442 H   0  0  0  0  0  0  0  0  0  0  0  0  # atno 8010 bound_to 7997
  139.8108  143.7706  152.2663 H   0  0  0  0  0  0  0  0  0  0  0  0  # atno 10167 bound_to 10162
  156.5386  130.4673  149.6510 H   0  0  0  0  0  0  0  0  0  0  0  0  # atno 10718 bound_to 10713
  153.7064  135.3275  155.3236 H   0  0  0  0  0  0  0  0  0  0  0  0  # atno 10763 bound_to 10752
  154.8398  135.4466  154.1358 H   0  0  0  0  0  0  0  0  0  0  0  0  # atno 10764 bound_to 10752
  153.2440  135.6974  153.7830 H   0  0  0  0  0  0  0  0  0  0  0  0  # atno 10765 bound_to 10752
  139.9464  134.7305  156.0968 H   0  0  0  0  0  0  0  0  0  0  0  0  # atno 11005 bound_to 11000
  146.1854  140.6430  142.9170 LP  0  0  0  0  0  0  0  0  0  0  0  0  # atno 17320 bound_to 7965
  144.7485  140.5130  143.6818 LP  0  0  0  0  0  0  0  0  0  0  0  0  # atno 17321 bound_to 7965
  139.7854  144.7429  151.0029 LP  0  0  0  0  0  0  0  0  0  0  0  0  # atno 17342 bound_to 10162
  140.7818  143.4498  151.0430 LP  0  0  0  0  0  0  0  0  0  0  0  0  # atno 17343 bound_to 10162
  156.2992  130.7167  151.2035 LP  0  0  0  0  0  0  0  0  0  0  0  0  # atno 17370 bound_to 10713
  157.7409  131.0511  150.5133 LP  0  0  0  0  0  0  0  0  0  0  0  0  # atno 17371 bound_to 10713
  141.1116  133.6641  156.2992 LP  0  0  0  0  0  0  0  0  0  0  0  0  # atno 17394 bound_to 11000
  140.5824  134.5733  157.5482 LP  0  0  0  0  0  0  0  0  0  0  0  0  # atno 17395 bound_to 11000

$$$$
