AV-unprocessed.smi:39|AV-procd|sdf|360|dock4
  -GOLD-   2262016203D 1   1.00000     0.00000
 Structure written by MMmdl.
 31 32  0  0  0  0  0  0  0  0  4 V2000
  151.0087  142.2429  159.1567 C   0  0  0  0  0  0  0  0  0  0  0  0
  151.2071  141.5202  157.8356 C   0  0  0  0  0  0  0  0  0  0  0  0
  150.3435  141.6526  156.8041 C   0  0  0  0  0  0  0  0  0  0  0  0
  150.5295  140.9929  155.6003 N   0  0  0  0  0  0  0  0  0  0  0  0
  149.5608  141.1468  154.4442 C   0  0  2  0  0  0  0  0  0  0  0  0
  148.2831  141.8687  154.9030 C   0  0  0  0  0  0  0  0  0  0  0  0
  147.1829  140.9558  154.3861 C   0  0  2  0  0  0  0  0  0  0  0  0
  145.9618  141.0190  155.1927 N   0  0  0  0  0  0  0  0  0  0  0  0
  145.9678  141.8161  156.1399 N   0  3  0  0  0  0  0  0  0  0  0  0
  146.0092  142.4520  157.0828 N   0  5  0  0  0  0  0  0  0  0  0  0
  147.8610  139.5874  154.4577 C   0  0  1  0  0  0  0  0  0  0  0  0
  147.2106  138.5261  153.5581 C   0  0  0  0  0  0  0  0  0  0  0  0
  147.1955  138.9752  152.2202 O   0  0  0  0  0  0  0  0  0  0  0  0
  149.1671  139.8881  153.9778 O   0  0  0  0  0  0  0  0  0  0  0  0
  151.6519  140.1391  155.4375 C   0  0  0  0  0  0  0  0  0  0  0  0
  151.7853  139.5600  154.3590 O   0  0  0  0  0  0  0  0  0  0  0  0
  152.5284  139.9995  156.4722 N   0  5  0  0  0  0  0  0  0  0  0  0
  152.3725  140.6448  157.6634 C   0  0  0  0  0  0  0  0  0  0  0  0
  153.1741  140.5134  158.5877 O   0  0  0  0  0  0  0  0  0  0  0  0
  150.1141  141.6659  153.6598 H   0  0  0  0  0  0  0  0  0  0  0  0
  146.9778  141.1967  153.3408 H   0  0  0  0  0  0  0  0  0  0  0  0
  147.9063  139.2517  155.4958 H   0  0  0  0  0  0  0  0  0  0  0  0
  150.1100  142.8596  159.1407 H   0  0  0  0  0  0  0  0  0  0  0  0
  151.8597  142.8914  159.3673 H   0  0  0  0  0  0  0  0  0  0  0  0
  150.9120  141.5259  159.9724 H   0  0  0  0  0  0  0  0  0  0  0  0
  149.4877  142.2956  156.9394 H   0  0  0  0  0  0  0  0  0  0  0  0
  148.2605  141.9314  155.9926 H   0  0  0  0  0  0  0  0  0  0  0  0
  148.2351  142.8768  154.4904 H   0  0  0  0  0  0  0  0  0  0  0  0
  147.7880  137.6016  153.5871 H   0  0  0  0  0  0  0  0  0  0  0  0
  146.2000  138.2883  153.8911 H   0  0  0  0  0  0  0  0  0  0  0  0
  148.0139  139.4147  152.0452 H   0  0  0  0  0  0  0  0  0  0  0  0
  1  2  1  0  0  0  0
  1 23  1  0  0  0  0
  1 24  1  0  0  0  0
  1 25  1  0  0  0  0
  2 18  1  0  0  0  0
  2  3  2  0  0  0  0
  3  4  1  0  0  0  0
  3 26  1  0  0  0  0
  4  5  1  0  0  0  0
  4 15  1  0  0  0  0
  5 20  1  0  0  0  0
  5 14  1  0  0  0  0
  5  6  1  0  0  0  0
  6  7  1  0  0  0  0
  6 27  1  0  0  0  0
  6 28  1  0  0  0  0
  7 21  1  0  0  0  0
  7  8  1  0  0  0  0
  7 11  1  0  0  0  0
  8  9  2  0  0  0  0
  9 10  2  0  0  0  0
 11 22  1  0  0  0  0
 11 12  1  0  0  0  0
 11 14  1  0  0  0  0
 12 13  1  0  0  0  0
 12 29  1  0  0  0  0
 12 30  1  0  0  0  0
 13 31  1  0  0  0  0
 15 16  2  0  0  0  0
 15 17  1  0  0  0  0
 17 18  1  0  0  0  0
 18 19  2  0  0  0  0
M  CHG  1   9   1
M  CHG  1  10  -1
M  CHG  1  17  -1
M  END
> <s_m_source_file>
AV-unprocessed.smi

> <i_m_source_file_index>
39

> <i_lp_mmshare_version>
43012

> <i_f3d_flags>
0

> <s_epik_input>
Tz1jMVtuSF1jKD1PKW4oW2NIXWMxW0NIM10pW0NASF0yW0NIMl1bQ0BIXShOPVtOK109W04tXSlbQ0BIXShPMilbQ0gyXVtPSF0=

> <s_epik_cmdline>
J2VwaWtfcHl0aG9uJywgJy1waCcsICc3LjAnLCAnLXRuJywgJzgnLCAnLW1hJywgJzIwMCcsICctbWV0YWxfYmluZGluZycsICctaW1hZScsICc8aW5maWxlLm1hZT4nLCAnLW9tYWUnLCAnPG91dGZpbGUubWFlPic=

> <r_lp_tautomer_probability>
0.999537

> <r_epik_Ionization_Penalty>
3.6393

> <r_epik_Ionization_Penalty_Charging>
9.76484e-08

> <r_epik_Ionization_Penalty_Neutral>
3.6393

> <r_epik_State_Penalty>
3.63887

> <r_epik_Charging_Adjusted_Penalty>
3.63887

> <i_epik_Tot_Q>
-1

> <i_epik_Tot_abs_Q>
3

> <r_epik_Metal_State_Penalty>
0.225911

> <b_epik_Metal_Only>
1

> <s_epik_Chemistry_Notes>
This compound contains an acetal/aminal-like group ( X-CH(R)-Y where X, Y are N, S, or O) that may be acid/base labile, releasing an aldehyde.

> <s_lp_Force_Field>
OPLS_2005

> <r_lp_Energy>
32.3737

> <b_lp_Chiralities_Consistent>
1

> <s_lp_Variant>
AV-unprocessed.smi:39-10

> <Gold.Version>
5.8.1

> <Gold.Id.Protein>
6NUR|6NUR_protein|mol2

> <Gold.PLP.Fitness>
39.5933

> <Gold.PLP.PLP>
-25.8675

> <Gold.PLP.part.hbond>
-4.0000

> <Gold.PLP.part.metal>
0.0000

> <Gold.PLP.part.buried>
-0.1701

> <Gold.PLP.part.nonpolar>
-20.9511

> <Gold.PLP.part.repulsive>
1.5671

> <Gold.PLP.ligand.clash>
0.0000

> <Gold.PLP.ligand.torsion>
0.2055

> <Gold.PLP.Chemscore.Hbond>
3.7000

> <Gold.PLP.Chemscore.CHOScore>
1.0000

> <Gold.PLP.Chemscore.Metal>
0.0000

> <Gold.Chemscore.Hbonds>
donor molecule, donor type, donor heavy atom, donor atom, acceptor molecule, acceptor atom, score
      L1  H    13    31       P1  7957  1.00
      P1  H  7989  7998       L1    16  0.75
      P1  H  7997  8010       L1    17  0.99
      L1  C     3    26       P1  8028  0.31

> <Gold.PLP.Chemscore.Internal.Correction>
0.0369

> <Gold.Rescore>
     Score         DG    S(hbond)    S(metal)    S(lipo)     H(rot)  DE(clash)    DE(int)     intcor
      6.45      -9.80       1.89        0.00      42.36       2.72       1.53       1.82       ----

> <Gold.Chemscore.Fitness>
6.4531

> <Gold.Chemscore.DG>
-9.7975

> <Gold.Chemscore.ZeroCoef>
-5.4800

> <Gold.Chemscore.Hbond>
1.8901

> <Gold.Chemscore.Metal>
0.0000

> <Gold.Chemscore.Lipo>
42.3582

> <Gold.Chemscore.Internal_Hbond>
0.0000

> <Gold.Chemscore.DEClash>
1.5259

> <Gold.Chemscore.DEInternal>
1.8185

> <Gold.Chemscore.Rot>
2.7153

> <Gold.Chemscore.Internal.Correction>
   9.000000E+99

> <Gold.Chemscore.Hbonds>
donor molecule, donor type, donor heavy atom, donor atom, acceptor molecule, acceptor atom, score
      L1  H    13    31       P1  7957  1.00
      P1  H  7989  7998       L1    16  0.09
      P1  H  7997  8010       L1    17  0.02

> <Gold.Chemscore.Hbond.Weighted>
-6.3128

> <Gold.Chemscore.Metal.Weighted>
-0.0000

> <Gold.Chemscore.Lipo.Weighted>
-4.9559

> <Gold.Chemscore.Internal_Hbond.Weighted>
0.0000

> <Gold.Chemscore.DEClash.Weighted>
1.5259

> <Gold.Chemscore.DEInternal.Weighted>
1.8185

> <Gold.Chemscore.Rot.Weighted>
6.9512

> <Gold.Chemscore.Internal.Correction.Weighted>
   9.000000E+99

> <Gold.Protein.RotatedTorsions>
[ 6907 6896 6895 6894 ] final   30.24 input  -60.11 | X-H torsion
[ 7974 7965 7964 7962 ] final   42.56 input  175.53 | X-H torsion
[ 8008 7997 7996 7995 ] final   57.57 input   59.86 | X-H torsion
[ 10167 10162 10161 10158 ] final  -85.77 input  -65.29 | X-H torsion
[ 10718 10713 10712 10709 ] final -164.20 input   66.30 | X-H torsion
[ 10763 10752 10751 10750 ] final -139.25 input  -60.55 | X-H torsion
[ 11005 11000 10999 10996 ] final  -89.60 input  -57.11 | X-H torsion

> <Gold.Protein.ActiveResidues>
 VAL166  LYS551  ARG553  GLY616  TRP617  ASP618  TYR619  PRO620  LYS621  CYS622 
 ASP623  PHE694  ASN695  SER759  ASP760  ASP761  ALA762  ILE779  LEU786  VAL792 
 PHE793  MET794  SER795  GLU796  ALA797  LYS798  CYS799  TRP800  GLU811  SER814 

> <Gold.Protein.RotatedAtoms>
  152.0431  134.9699  160.0573 H   0  0  0  0  0  0  0  0  0  0  0  0  # atno 6907 bound_to 6896
  152.1130  133.4306  159.4648 H   0  0  0  0  0  0  0  0  0  0  0  0  # atno 6908 bound_to 6896
  150.6844  134.2544  159.4567 H   0  0  0  0  0  0  0  0  0  0  0  0  # atno 6909 bound_to 6896
  146.0730  139.5286  142.9586 H   0  0  0  0  0  0  0  0  0  0  0  0  # atno 7974 bound_to 7965
  155.5359  140.3483  155.4436 H   0  0  0  0  0  0  0  0  0  0  0  0  # atno 8008 bound_to 7997
  156.0685  140.1357  156.9883 H   0  0  0  0  0  0  0  0  0  0  0  0  # atno 8009 bound_to 7997
  154.4516  140.0970  156.6608 H   0  0  0  0  0  0  0  0  0  0  0  0  # atno 8010 bound_to 7997
  140.4005  143.2665  151.9148 H   0  0  0  0  0  0  0  0  0  0  0  0  # atno 10167 bound_to 10162
  156.6356  130.8947  151.2986 H   0  0  0  0  0  0  0  0  0  0  0  0  # atno 10718 bound_to 10713
  154.8614  135.3588  154.5516 H   0  0  0  0  0  0  0  0  0  0  0  0  # atno 10763 bound_to 10752
  153.6134  135.7008  153.5343 H   0  0  0  0  0  0  0  0  0  0  0  0  # atno 10764 bound_to 10752
  153.3190  135.4156  155.1361 H   0  0  0  0  0  0  0  0  0  0  0  0  # atno 10765 bound_to 10752
  141.1581  133.7640  156.9618 H   0  0  0  0  0  0  0  0  0  0  0  0  # atno 11005 bound_to 11000
  145.6357  141.0295  143.1839 LP  0  0  0  0  0  0  0  0  0  0  0  0  # atno 17320 bound_to 7965
  144.7243  139.7925  143.7370 LP  0  0  0  0  0  0  0  0  0  0  0  0  # atno 17321 bound_to 7965
  139.4785  144.5638  151.8197 LP  0  0  0  0  0  0  0  0  0  0  0  0  # atno 17342 bound_to 10162
  140.4745  144.1539  150.5923 LP  0  0  0  0  0  0  0  0  0  0  0  0  # atno 17343 bound_to 10162
  157.7187  130.9530  150.1352 LP  0  0  0  0  0  0  0  0  0  0  0  0  # atno 17370 bound_to 10713
  156.2200  130.3673  149.8567 LP  0  0  0  0  0  0  0  0  0  0  0  0  # atno 17371 bound_to 10713
  140.1188  134.9430  157.2173 LP  0  0  0  0  0  0  0  0  0  0  0  0  # atno 17394 bound_to 11000
  140.3099  134.3035  155.7269 LP  0  0  0  0  0  0  0  0  0  0  0  0  # atno 17395 bound_to 11000

$$$$
