AV-unprocessed.smi:72|AV-procd|sdf|676|dock3
  -GOLD-   2262016583D 1   1.00000     0.00000
 Structure written by MMmdl.
 29 30  0  0  0  0  0  0  0  0  1 V2000
  152.6167  136.7188  159.4443 N   0  0  0  0  0  0  0  0  0  0  0  0
  152.1810  137.6436  158.6654 C   0  0  0  0  0  0  0  0  0  0  0  0
  151.0633  138.4535  158.9147 N   0  0  0  0  0  0  0  0  0  0  0  0
  150.7449  139.3622  158.0454 C   0  0  0  0  0  0  0  0  0  0  0  0
  151.5194  139.5819  156.8298 N   0  0  0  0  0  0  0  0  0  0  0  0
  151.1524  140.6355  155.7971 C   0  0  1  0  0  0  0  0  0  0  0  0
  150.7196  140.0187  154.6179 O   0  0  0  0  0  0  0  0  0  0  0  0
  149.2956  139.9931  154.5802 C   0  0  2  0  0  0  0  0  0  0  0  0
  148.7787  139.7269  153.1559 C   0  0  0  0  0  0  0  0  0  0  0  0
  148.1885  138.4463  153.0920 O   0  0  0  0  0  0  0  0  0  0  0  0
  148.9412  141.3591  155.1751 C   0  0  2  0  0  0  0  0  0  0  0  0
  149.0550  142.3729  154.1894 O   0  0  0  0  0  0  0  0  0  0  0  0
  149.9752  141.5058  156.2915 C   0  0  2  0  0  0  0  0  0  0  0  0
  150.3316  142.8557  156.5247 O   0  0  0  0  0  0  0  0  0  0  0  0
  152.6272  138.7441  156.5479 C   0  0  0  0  0  0  0  0  0  0  0  0
  153.2917  138.8543  155.5175 O   0  0  0  0  0  0  0  0  0  0  0  0
  152.9145  137.8147  157.4845 N   0  0  0  0  0  0  0  0  0  0  0  0
  152.0758  141.1853  155.6051 H   0  0  0  0  0  0  0  0  0  0  0  0
  148.9262  139.2224  155.2594 H   0  0  0  0  0  0  0  0  0  0  0  0
  147.9234  141.3790  155.5662 H   0  0  0  0  0  0  0  0  0  0  0  0
  149.5694  141.0791  157.2101 H   0  0  0  0  0  0  0  0  0  0  0  0
  153.4315  136.2746  159.0472 H   0  0  0  0  0  0  0  0  0  0  0  0
  149.8783  140.0097  158.1783 H   0  0  0  0  0  0  0  0  0  0  0  0
  148.0105  140.4549  152.8934 H   0  0  0  0  0  0  0  0  0  0  0  0
  149.5763  139.8117  152.4172 H   0  0  0  0  0  0  0  0  0  0  0  0
  148.7733  137.8712  152.6225 H   0  0  0  0  0  0  0  0  0  0  0  0
  148.7327  143.1811  154.5587 H   0  0  0  0  0  0  0  0  0  0  0  0
  149.6529  143.4089  156.1675 H   0  0  0  0  0  0  0  0  0  0  0  0
  153.7041  137.2097  157.3124 H   0  0  0  0  0  0  0  0  0  0  0  0
  1  2  2  0  0  0  0
  1 22  1  0  0  0  0
  2 17  1  0  0  0  0
  2  3  1  0  0  0  0
  3  4  2  0  0  0  0
  4  5  1  0  0  0  0
  4 23  1  0  0  0  0
  5  6  1  0  0  0  0
  5 15  1  0  0  0  0
  6 18  1  0  0  0  0
  6 13  1  0  0  0  0
  6  7  1  0  0  0  0
  7  8  1  0  0  0  0
  8 19  1  0  0  0  0
  8  9  1  0  0  0  0
  8 11  1  0  0  0  0
  9 10  1  0  0  0  0
  9 24  1  0  0  0  0
  9 25  1  0  0  0  0
 10 26  1  0  0  0  0
 11 20  1  0  0  0  0
 11 12  1  0  0  0  0
 11 13  1  0  0  0  0
 12 27  1  0  0  0  0
 13 21  1  0  0  0  0
 13 14  1  0  0  0  0
 14 28  1  0  0  0  0
 15 16  2  0  0  0  0
 15 17  1  0  0  0  0
 17 29  1  0  0  0  0
M  END
> <s_m_source_file>
AV-unprocessed.smi

> <i_m_source_file_index>
72

> <i_lp_mmshare_version>
43012

> <i_f3d_flags>
0

> <s_epik_input>
W05IMl1jMW5bY0hdbihjKD1PKW4xKVtDQEBIXTJPW0NASF0oW0NIMl1bT0hdKVtDQEBIXShbT0hdKVtDQEhdMltPSF0=

> <s_epik_cmdline>
J2VwaWtfcHl0aG9uJywgJy1waCcsICc3LjAnLCAnLXRuJywgJzgnLCAnLW1hJywgJzIwMCcsICctbWV0YWxfYmluZGluZycsICctaW1hZScsICc8aW5maWxlLm1hZT4nLCAnLW9tYWUnLCAnPG91dGZpbGUubWFlPic=

> <r_lp_tautomer_probability>
7.17554e-07

> <r_epik_Ionization_Penalty>
0.0066451

> <r_epik_Ionization_Penalty_Charging>
0.00663793

> <r_epik_Ionization_Penalty_Neutral>
7.17052e-06

> <r_epik_State_Penalty>
0.419231

> <r_epik_Charging_Adjusted_Penalty>
0.425868

> <i_epik_Tot_Q>
0

> <i_epik_Tot_abs_Q>
0

> <r_epik_Metal_State_Penalty>
1.44144

> <b_epik_Metal_Only>
0

> <s_epik_Chemistry_Notes>
This compound contains an acetal/aminal-like group ( X-CH(R)-Y where X, Y are N, S, or O) that may be acid/base labile, releasing an aldehyde.

> <s_lp_Force_Field>
OPLS_2005

> <r_lp_Energy>
42.8821

> <b_lp_Chiralities_Consistent>
1

> <s_lp_Variant>
AV-unprocessed.smi:72-14

> <Gold.Version>
5.8.1

> <Gold.Id.Protein>
6NUR|6NUR_protein|mol2

> <Gold.PLP.Fitness>
39.9535

> <Gold.PLP.PLP>
-23.4978

> <Gold.PLP.part.hbond>
-8.0000

> <Gold.PLP.part.metal>
0.0000

> <Gold.PLP.part.buried>
1.0311

> <Gold.PLP.part.nonpolar>
-16.6666

> <Gold.PLP.part.repulsive>
0.2253

> <Gold.PLP.ligand.clash>
0.0000

> <Gold.PLP.ligand.torsion>
0.7598

> <Gold.PLP.Chemscore.Hbond>
5.9843

> <Gold.PLP.Chemscore.CHOScore>
0.0000

> <Gold.PLP.Chemscore.Metal>
0.0000

> <Gold.Chemscore.Hbonds>
donor molecule, donor type, donor heavy atom, donor atom, acceptor molecule, acceptor atom, score
      L1  H    10    26       P1  7948  0.93
      L1  H    12    27       P1  8028  1.00
      L1  H    14    28       P1  8028  1.00
      P1  H  6896  6907       L1     1  0.30
      P1  H  7989  7998       L1     7  1.00
      P1  H  7997  8010       L1    16  0.90
      P1  H  8011  8017       L1    12  0.19

> <Gold.PLP.Chemscore.Internal.Correction>
0.0222

> <Gold.Rescore>
     Score         DG    S(hbond)    S(metal)    S(lipo)     H(rot)  DE(clash)    DE(int)     intcor
     10.84     -13.81       4.67        0.00      26.59       4.06       1.92       1.05       ----

> <Gold.Chemscore.Fitness>
10.8406

> <Gold.Chemscore.DG>
-13.8086

> <Gold.Chemscore.ZeroCoef>
-5.4800

> <Gold.Chemscore.Hbond>
4.6738

> <Gold.Chemscore.Metal>
0.0000

> <Gold.Chemscore.Lipo>
26.5948

> <Gold.Chemscore.Internal_Hbond>
0.0000

> <Gold.Chemscore.DEClash>
1.9228

> <Gold.Chemscore.DEInternal>
1.0452

> <Gold.Chemscore.Rot>
4.0600

> <Gold.Chemscore.Internal.Correction>
   9.000000E+99

> <Gold.Chemscore.Hbonds>
donor molecule, donor type, donor heavy atom, donor atom, acceptor molecule, acceptor atom, score
      L1  H    10    26       P1  7948  0.90
      L1  H    12    27       P1  8028  0.98
      L1  H    14    28       P1  8028  0.98
      P1  H  7989  7998       L1     7  0.25
      P1  H  7997  8010       L1    16  0.53
      P1  H  8011  8017       L1    12  0.19

> <Gold.Chemscore.Hbond.Weighted>
-15.6106

> <Gold.Chemscore.Metal.Weighted>
-0.0000

> <Gold.Chemscore.Lipo.Weighted>
-3.1116

> <Gold.Chemscore.Internal_Hbond.Weighted>
0.0000

> <Gold.Chemscore.DEClash.Weighted>
1.9228

> <Gold.Chemscore.DEInternal.Weighted>
1.0452

> <Gold.Chemscore.Rot.Weighted>
10.3936

> <Gold.Chemscore.Internal.Correction.Weighted>
   9.000000E+99

> <Gold.Protein.RotatedTorsions>
[ 6907 6896 6895 6894 ] final   35.43 input  -60.11 | X-H torsion
[ 7974 7965 7964 7962 ] final -101.88 input  175.53 | X-H torsion
[ 8008 7997 7996 7995 ] final  110.31 input   59.86 | X-H torsion
[ 10167 10162 10161 10158 ] final  156.11 input  -65.29 | X-H torsion
[ 10718 10713 10712 10709 ] final  -69.21 input   66.30 | X-H torsion
[ 10763 10752 10751 10750 ] final  -48.18 input  -60.55 | X-H torsion
[ 11005 11000 10999 10996 ] final   89.17 input  -57.11 | X-H torsion

> <Gold.Protein.ActiveResidues>
 VAL166  LYS551  ARG553  GLY616  TRP617  ASP618  TYR619  PRO620  LYS621  CYS622 
 ASP623  PHE694  ASN695  SER759  ASP760  ASP761  ALA762  ILE779  LEU786  VAL792 
 PHE793  MET794  SER795  GLU796  ALA797  LYS798  CYS799  TRP800  GLU811  SER814 

> <Gold.Protein.RotatedAtoms>
  152.1160  134.9240  160.0564 H   0  0  0  0  0  0  0  0  0  0  0  0  # atno 6907 bound_to 6896
  152.0399  133.3968  159.4341 H   0  0  0  0  0  0  0  0  0  0  0  0  # atno 6908 bound_to 6896
  150.6846  134.3347  159.4886 H   0  0  0  0  0  0  0  0  0  0  0  0  # atno 6909 bound_to 6896
  145.2759  140.9312  143.2959 H   0  0  0  0  0  0  0  0  0  0  0  0  # atno 7974 bound_to 7965
  156.2043  140.3041  155.9594 H   0  0  0  0  0  0  0  0  0  0  0  0  # atno 8008 bound_to 7997
  155.2878  140.0440  157.3037 H   0  0  0  0  0  0  0  0  0  0  0  0  # atno 8009 bound_to 7997
  154.5613  140.2321  155.8340 H   0  0  0  0  0  0  0  0  0  0  0  0  # atno 8010 bound_to 7997
  139.4821  144.5038  151.8128 H   0  0  0  0  0  0  0  0  0  0  0  0  # atno 10167 bound_to 10162
  156.0466  130.4308  150.2115 H   0  0  0  0  0  0  0  0  0  0  0  0  # atno 10718 bound_to 10713
  154.0736  135.6601  153.4827 H   0  0  0  0  0  0  0  0  0  0  0  0  # atno 10763 bound_to 10752
  153.0382  135.5163  154.7543 H   0  0  0  0  0  0  0  0  0  0  0  0  # atno 10764 bound_to 10752
  154.6616  135.3016  154.9826 H   0  0  0  0  0  0  0  0  0  0  0  0  # atno 10765 bound_to 10752
  139.8881  134.8534  156.3103 H   0  0  0  0  0  0  0  0  0  0  0  0  # atno 11005 bound_to 11000
  144.9295  139.4316  143.6502 LP  0  0  0  0  0  0  0  0  0  0  0  0  # atno 17320 bound_to 7965
  146.3232  139.8198  142.8929 LP  0  0  0  0  0  0  0  0  0  0  0  0  # atno 17321 bound_to 7965
  140.4534  144.1823  150.5899 LP  0  0  0  0  0  0  0  0  0  0  0  0  # atno 17342 bound_to 10162
  140.4561  143.2467  151.9283 LP  0  0  0  0  0  0  0  0  0  0  0  0  # atno 17343 bound_to 10162
  157.0203  130.9977  151.3341 LP  0  0  0  0  0  0  0  0  0  0  0  0  # atno 17370 bound_to 10713
  157.5349  130.8082  149.7959 LP  0  0  0  0  0  0  0  0  0  0  0  0  # atno 17371 bound_to 10713
  140.9854  133.7241  156.0734 LP  0  0  0  0  0  0  0  0  0  0  0  0  # atno 17394 bound_to 11000
  140.7695  134.3849  157.5510 LP  0  0  0  0  0  0  0  0  0  0  0  0  # atno 17395 bound_to 11000

$$$$
