AV-unprocessed.smi:3106|AV-procd|sdf|11823|dock2
  -GOLD-   2272017193D 1   1.00000     0.00000
 Structure written by MMmdl.
 29 30  0  0  0  0  0  0  0  0  1 V2000
  152.8044  144.1026  162.2974 C   0  0  0  0  0  0  0  0  0  0  0  0
  152.1979  143.7473  160.9564 C   0  0  0  0  0  0  0  0  0  0  0  0
  151.4494  144.6905  160.2274 C   0  0  0  0  0  0  0  0  0  0  0  0
  150.9079  144.3121  158.9838 C   0  0  0  0  0  0  0  0  0  0  0  0
  151.1268  143.0032  158.4986 C   0  0  0  0  0  0  0  0  0  0  0  0
  150.5374  142.7238  157.2374 N   0  0  0  0  0  0  0  0  0  0  0  0
  150.6456  141.6084  156.4903 C   0  0  0  0  0  0  0  0  0  0  0  0
  151.2899  140.6112  156.8174 O   0  0  0  0  0  0  0  0  0  0  0  0
  149.8797  141.6099  155.1597 C   0  0  2  0  0  0  0  0  0  0  0  0
  148.3579  141.6941  155.3095 C   0  0  0  0  0  0  0  0  0  0  0  0
  147.8883  141.0347  154.0326 C   0  0  0  0  0  0  0  0  0  0  0  0
  148.9116  139.9173  153.8595 C   0  0  0  0  0  0  0  0  0  0  0  0
  150.1192  140.3954  154.4465 O   0  0  0  0  0  0  0  0  0  0  0  0
  151.8511  142.1019  159.2079 N   0  0  0  0  0  0  0  0  0  0  0  0
  152.3701  142.4651  160.3995 C   0  0  0  0  0  0  0  0  0  0  0  0
  152.1820  144.8265  162.8243 H   0  0  0  0  0  0  0  0  0  0  0  0
  153.7950  144.5359  162.1589 H   0  0  0  0  0  0  0  0  0  0  0  0
  152.9003  143.2173  162.9267 H   0  0  0  0  0  0  0  0  0  0  0  0
  151.2913  145.6875  160.6116 H   0  0  0  0  0  0  0  0  0  0  0  0
  150.3305  145.0236  158.4115 H   0  0  0  0  0  0  0  0  0  0  0  0
  149.9712  143.4630  156.8473 H   0  0  0  0  0  0  0  0  0  0  0  0
  150.2350  142.4371  154.5434 H   0  0  0  0  0  0  0  0  0  0  0  0
  148.0112  141.1249  156.1741 H   0  0  0  0  0  0  0  0  0  0  0  0
  147.9985  142.7189  155.4070 H   0  0  0  0  0  0  0  0  0  0  0  0
  146.8624  140.6696  154.0883 H   0  0  0  0  0  0  0  0  0  0  0  0
  147.9570  141.7391  153.2025 H   0  0  0  0  0  0  0  0  0  0  0  0
  148.5949  139.0252  154.4013 H   0  0  0  0  0  0  0  0  0  0  0  0
  149.0568  139.6446  152.8139 H   0  0  0  0  0  0  0  0  0  0  0  0
  152.9390  141.7096  160.9211 H   0  0  0  0  0  0  0  0  0  0  0  0
  1  2  1  0  0  0  0
  1 16  1  0  0  0  0
  1 17  1  0  0  0  0
  1 18  1  0  0  0  0
  2 15  1  0  0  0  0
  2  3  2  0  0  0  0
  3  4  1  0  0  0  0
  3 19  1  0  0  0  0
  4  5  2  0  0  0  0
  4 20  1  0  0  0  0
  5  6  1  0  0  0  0
  5 14  1  0  0  0  0
  6  7  1  0  0  0  0
  6 21  1  0  0  0  0
  7  8  2  0  0  0  0
  7  9  1  0  0  0  0
  9 13  1  0  0  0  0
  9 10  1  0  0  0  0
  9 22  1  0  0  0  0
 10 11  1  0  0  0  0
 10 23  1  0  0  0  0
 10 24  1  0  0  0  0
 11 12  1  0  0  0  0
 11 25  1  0  0  0  0
 11 26  1  0  0  0  0
 12 13  1  0  0  0  0
 12 27  1  0  0  0  0
 12 28  1  0  0  0  0
 14 15  2  0  0  0  0
 15 29  1  0  0  0  0
M  END
> <s_m_source_file>
AV-unprocessed.smi

> <i_m_source_file_index>
3106

> <i_lp_mmshare_version>
43012

> <i_f3d_flags>
0

> <s_epik_input>
W0NIM11jMVtjSF1bY0hdYyhuW2NIXTEpW05IXUMoPU8pW0NAQEhdMltDSDJdW0NIMl1bQ0gyXU8y

> <s_epik_cmdline>
J2VwaWtfcHl0aG9uJywgJy1waCcsICc3LjAnLCAnLXRuJywgJzgnLCAnLW1hJywgJzIwMCcsICctbWV0YWxfYmluZGluZycsICctaW1hZScsICc8aW5maWxlLm1hZT4nLCAnLW9tYWUnLCAnPG91dGZpbGUubWFlPic=

> <r_epik_Ionization_Penalty>
0.00356606

> <r_epik_Ionization_Penalty_Charging>
0

> <r_epik_Ionization_Penalty_Neutral>
0.00356606

> <r_epik_State_Penalty>
0.00372088

> <r_epik_Charging_Adjusted_Penalty>
0.00372088

> <i_epik_Tot_Q>
0

> <i_epik_Tot_abs_Q>
0

> <r_epik_Metal_State_Penalty>
-0

> <b_epik_Metal_Only>
0

> <s_lp_Force_Field>
OPLS_2005

> <r_lp_Energy>
20.8335

> <b_lp_Chiralities_Consistent>
1

> <s_lp_Variant>
AV-unprocessed.smi:3106-1

> <Gold.Version>
5.8.1

> <Gold.Id.Protein>
6NUR|6NUR_protein|mol2

> <Gold.PLP.Fitness>
36.8140

> <Gold.PLP.PLP>
-31.0931

> <Gold.PLP.part.hbond>
-2.0000

> <Gold.PLP.part.metal>
0.0000

> <Gold.PLP.part.buried>
-1.2934

> <Gold.PLP.part.nonpolar>
-27.0437

> <Gold.PLP.part.repulsive>
0.1276

> <Gold.PLP.ligand.clash>
0.0000

> <Gold.PLP.ligand.torsion>
0.0338

> <Gold.PLP.Chemscore.Hbond>
1.9280

> <Gold.PLP.Chemscore.CHOScore>
0.0000

> <Gold.PLP.Chemscore.Metal>
0.0000

> <Gold.Chemscore.Hbonds>
donor molecule, donor type, donor heavy atom, donor atom, acceptor molecule, acceptor atom, score
      L1  H     6    21       P1  8028  0.99
      P1  H  7989  7998       L1    13  0.93

> <Gold.PLP.Chemscore.Internal.Correction>
0.0044

> <Gold.Rescore>
     Score         DG    S(hbond)    S(metal)    S(lipo)     H(rot)  DE(clash)    DE(int)     intcor
     15.08     -18.12       1.67        0.00      82.33       1.00       1.63       1.41       ----

> <Gold.Chemscore.Fitness>
15.0800

> <Gold.Chemscore.DG>
-18.1188

> <Gold.Chemscore.ZeroCoef>
-5.4800

> <Gold.Chemscore.Hbond>
1.6665

> <Gold.Chemscore.Metal>
0.0000

> <Gold.Chemscore.Lipo>
82.3308

> <Gold.Chemscore.Internal_Hbond>
0.0000

> <Gold.Chemscore.DEClash>
1.6286

> <Gold.Chemscore.DEInternal>
1.4102

> <Gold.Chemscore.Rot>
1.0000

> <Gold.Chemscore.Internal.Correction>
   9.000000E+99

> <Gold.Chemscore.Hbonds>
donor molecule, donor type, donor heavy atom, donor atom, acceptor molecule, acceptor atom, score
      L1  H     6    21       P1  8028  0.92
      P1  H  7989  7998       L1    13  0.23

> <Gold.Chemscore.Hbond.Weighted>
-5.5660

> <Gold.Chemscore.Metal.Weighted>
-0.0000

> <Gold.Chemscore.Lipo.Weighted>
-9.6327

> <Gold.Chemscore.Internal_Hbond.Weighted>
0.0000

> <Gold.Chemscore.DEClash.Weighted>
1.6286

> <Gold.Chemscore.DEInternal.Weighted>
1.4102

> <Gold.Chemscore.Rot.Weighted>
2.5600

> <Gold.Chemscore.Internal.Correction.Weighted>
   9.000000E+99

> <Gold.Protein.RotatedTorsions>
[ 6907 6896 6895 6894 ] final   67.30 input  -60.11 | X-H torsion
[ 7974 7965 7964 7962 ] final  108.23 input  175.53 | X-H torsion
[ 8008 7997 7996 7995 ] final -144.17 input   59.86 | X-H torsion
[ 10167 10162 10161 10158 ] final  152.78 input  -65.29 | X-H torsion
[ 10718 10713 10712 10709 ] final  135.08 input   66.30 | X-H torsion
[ 10763 10752 10751 10750 ] final  -26.48 input  -60.55 | X-H torsion
[ 11005 11000 10999 10996 ] final   44.36 input  -57.11 | X-H torsion

> <Gold.Protein.ActiveResidues>
 VAL166  LYS551  ARG553  GLY616  TRP617  ASP618  TYR619  PRO620  LYS621  CYS622 
 ASP623  PHE694  ASN695  SER759  ASP760  ASP761  ALA762  ILE779  LEU786  VAL792 
 PHE793  MET794  SER795  GLU796  ALA797  LYS798  CYS799  TRP800  GLU811  SER814 

> <Gold.Protein.RotatedAtoms>
  152.4542  134.5327  159.9815 H   0  0  0  0  0  0  0  0  0  0  0  0  # atno 6907 bound_to 6896
  151.5392  133.3430  159.2940 H   0  0  0  0  0  0  0  0  0  0  0  0  # atno 6908 bound_to 6896
  150.8481  134.7828  159.7050 H   0  0  0  0  0  0  0  0  0  0  0  0  # atno 6909 bound_to 6896
  145.2834  139.2625  143.3903 H   0  0  0  0  0  0  0  0  0  0  0  0  # atno 7974 bound_to 7965
  155.5226  140.0593  157.2904 H   0  0  0  0  0  0  0  0  0  0  0  0  # atno 8008 bound_to 7997
  154.4512  140.1950  156.0459 H   0  0  0  0  0  0  0  0  0  0  0  0  # atno 8009 bound_to 7997
  156.0708  140.3260  155.7577 H   0  0  0  0  0  0  0  0  0  0  0  0  # atno 8010 bound_to 7997
  139.4831  144.5328  151.7694 H   0  0  0  0  0  0  0  0  0  0  0  0  # atno 10167 bound_to 10162
  157.4607  131.1073  150.9923 H   0  0  0  0  0  0  0  0  0  0  0  0  # atno 10718 bound_to 10713
  153.7166  135.6947  153.5023 H   0  0  0  0  0  0  0  0  0  0  0  0  # atno 10763 bound_to 10752
  153.2234  135.4362  155.0514 H   0  0  0  0  0  0  0  0  0  0  0  0  # atno 10764 bound_to 10752
  154.8298  135.3466  154.6701 H   0  0  0  0  0  0  0  0  0  0  0  0  # atno 10765 bound_to 10752
  140.1559  134.4402  155.8350 H   0  0  0  0  0  0  0  0  0  0  0  0  # atno 11005 bound_to 11000
  146.3209  140.3306  142.8640 LP  0  0  0  0  0  0  0  0  0  0  0  0  # atno 17320 bound_to 7965
  144.9234  140.7894  143.5734 LP  0  0  0  0  0  0  0  0  0  0  0  0  # atno 17321 bound_to 7965
  140.4857  144.1384  150.5940 LP  0  0  0  0  0  0  0  0  0  0  0  0  # atno 17342 bound_to 10162
  140.4228  143.2604  151.9694 LP  0  0  0  0  0  0  0  0  0  0  0  0  # atno 17343 bound_to 10162
  157.0721  130.5868  149.5404 LP  0  0  0  0  0  0  0  0  0  0  0  0  # atno 17370 bound_to 10713
  156.0027  130.5109  150.7722 LP  0  0  0  0  0  0  0  0  0  0  0  0  # atno 17371 bound_to 10713
  141.2204  133.6892  156.7506 LP  0  0  0  0  0  0  0  0  0  0  0  0  # atno 17394 bound_to 11000
  140.2548  134.8512  157.3702 LP  0  0  0  0  0  0  0  0  0  0  0  0  # atno 17395 bound_to 11000

$$$$
