AV-unprocessed.smi:1473|AV-procd|sdf|5973|dock3
  -GOLD-   22720 6 63D 1   1.00000     0.00000
 Structure written by MMmdl.
 34 35  0  0  0  0  0  0  0  0  3 V2000
  151.8731  136.9149  158.9938 N   0  5  0  0  0  0  0  0  0  0  0  0
  152.7047  137.1884  157.6371 S   0  0  0  0  0  0  0  0  0  0  0  0
  153.4024  138.4832  157.6297 O   0  0  0  0  0  0  0  0  0  0  0  0
  153.4153  135.9981  157.1457 O   0  0  0  0  0  0  0  0  0  0  0  0
  151.3367  137.3748  156.6053 N   0  0  0  0  0  0  0  0  0  0  0  0
  151.4329  138.2138  155.4107 C   0  0  0  0  0  0  0  0  0  0  0  0
  150.8519  139.5914  155.6453 C   0  0  0  0  0  0  0  0  0  0  0  0
  149.8951  140.1180  154.7517 C   0  0  0  0  0  0  0  0  0  0  0  0
  149.3830  141.4103  154.9782 C   0  0  0  0  0  0  0  0  0  0  0  0
  149.8135  142.1273  156.0395 N   0  3  0  0  0  0  0  0  0  0  0  0
  150.7292  141.6670  156.9210 C   0  0  0  0  0  0  0  0  0  0  0  0
  151.0960  142.5209  157.9693 N   0  0  0  0  0  0  0  0  0  0  0  0
  151.9710  141.9001  158.9560 C   0  0  0  0  0  0  0  0  0  0  0  0
  152.2307  142.8773  160.1155 C   0  0  0  0  0  0  0  0  0  0  0  0
  152.7708  144.0909  159.6006 O   0  0  0  0  0  0  0  0  0  0  0  0
  151.8785  144.7322  158.6936 C   0  0  0  0  0  0  0  0  0  0  0  0
  151.6036  143.8031  157.4986 C   0  0  0  0  0  0  0  0  0  0  0  0
  151.2761  140.3750  156.7401 C   0  0  0  0  0  0  0  0  0  0  0  0
  151.8649  137.7810  159.5457 H   0  0  0  0  0  0  0  0  0  0  0  0
  150.4737  137.5121  157.1299 H   0  0  0  0  0  0  0  0  0  0  0  0
  152.4753  138.3169  155.1065 H   0  0  0  0  0  0  0  0  0  0  0  0
  150.9172  137.7180  154.5881 H   0  0  0  0  0  0  0  0  0  0  0  0
  149.5637  139.5393  153.9006 H   0  0  0  0  0  0  0  0  0  0  0  0
  148.6508  141.8894  154.3447 H   0  0  0  0  0  0  0  0  0  0  0  0
  151.5124  140.9849  159.3324 H   0  0  0  0  0  0  0  0  0  0  0  0
  152.9182  141.6214  158.4927 H   0  0  0  0  0  0  0  0  0  0  0  0
  151.3120  143.0808  160.6682 H   0  0  0  0  0  0  0  0  0  0  0  0
  152.9386  142.4444  160.8223 H   0  0  0  0  0  0  0  0  0  0  0  0
  150.9507  144.9951  159.2041 H   0  0  0  0  0  0  0  0  0  0  0  0
  152.3285  145.6638  158.3504 H   0  0  0  0  0  0  0  0  0  0  0  0
  152.5219  143.6490  156.9299 H   0  0  0  0  0  0  0  0  0  0  0  0
  150.8800  144.2641  156.8250 H   0  0  0  0  0  0  0  0  0  0  0  0
  152.0185  139.9900  157.4241 H   0  0  0  0  0  0  0  0  0  0  0  0
  149.4297  143.0620  156.1808 H   0  0  0  0  0  0  0  0  0  0  0  0
  1  2  1  0  0  0  0
  1 19  1  0  0  0  0
  2  3  2  0  0  0  0
  2  4  2  0  0  0  0
  2  5  1  0  0  0  0
  5  6  1  0  0  0  0
  5 20  1  0  0  0  0
  6  7  1  0  0  0  0
  6 21  1  0  0  0  0
  6 22  1  0  0  0  0
  7 18  1  0  0  0  0
  7  8  2  0  0  0  0
  8  9  1  0  0  0  0
  8 23  1  0  0  0  0
  9 10  2  0  0  0  0
  9 24  1  0  0  0  0
 10 11  1  0  0  0  0
 10 34  1  0  0  0  0
 11 12  1  0  0  0  0
 11 18  2  0  0  0  0
 12 17  1  0  0  0  0
 12 13  1  0  0  0  0
 13 14  1  0  0  0  0
 13 25  1  0  0  0  0
 13 26  1  0  0  0  0
 14 15  1  0  0  0  0
 14 27  1  0  0  0  0
 14 28  1  0  0  0  0
 15 16  1  0  0  0  0
 16 17  1  0  0  0  0
 16 29  1  0  0  0  0
 16 30  1  0  0  0  0
 17 31  1  0  0  0  0
 17 32  1  0  0  0  0
 18 33  1  0  0  0  0
M  CHG  1   1  -1
M  CHG  1  10   1
M  END
> <s_m_source_file>
AV-unprocessed.smi

> <i_m_source_file_index>
1473

> <i_lp_mmshare_version>
43012

> <i_f3d_flags>
0

> <s_epik_input>
W05IMl1TKD1PKSg9TylbTkhdW0NIMl1jMVtjSF1bY0hdbmMoW2NIXTEpTjJbQ0gyXVtDSDJdT1tDSDJdW0NIMl0y

> <s_epik_cmdline>
J2VwaWtfcHl0aG9uJywgJy1waCcsICc3LjAnLCAnLXRuJywgJzgnLCAnLW1hJywgJzIwMCcsICctbWV0YWxfYmluZGluZycsICctaW1hZScsICc8aW5maWxlLm1hZT4nLCAnLW9tYWUnLCAnPG91dGZpbGUubWFlPic=

> <r_lp_tautomer_probability>
0.999994

> <r_epik_Ionization_Penalty>
4.01131

> <r_epik_Ionization_Penalty_Charging>
4.01082

> <r_epik_Ionization_Penalty_Neutral>
0.000490975

> <r_epik_State_Penalty>
4.3422

> <r_epik_Charging_Adjusted_Penalty>
8.35301

> <i_epik_Tot_Q>
0

> <i_epik_Tot_abs_Q>
2

> <r_epik_Metal_State_Penalty>
2.5645

> <b_epik_Metal_Only>
1

> <s_lp_Force_Field>
OPLS_2005

> <r_lp_Energy>
15.7261

> <b_lp_Chiralities_Consistent>
1

> <s_lp_Variant>
AV-unprocessed.smi:1473-8

> <Gold.Version>
5.8.1

> <Gold.Id.Protein>
6NUR|6NUR_protein|mol2

> <Gold.PLP.Fitness>
49.8564

> <Gold.PLP.PLP>
-33.8674

> <Gold.PLP.part.hbond>
-4.0000

> <Gold.PLP.part.metal>
0.0000

> <Gold.PLP.part.buried>
-5.0829

> <Gold.PLP.part.nonpolar>
-26.6452

> <Gold.PLP.part.repulsive>
0.1789

> <Gold.PLP.ligand.clash>
0.0000

> <Gold.PLP.ligand.torsion>
0.9324

> <Gold.PLP.Chemscore.Hbond>
5.9032

> <Gold.PLP.Chemscore.CHOScore>
0.0000

> <Gold.PLP.Chemscore.Metal>
0.0000

> <Gold.Chemscore.Hbonds>
donor molecule, donor type, donor heavy atom, donor atom, acceptor molecule, acceptor atom, score
      L1  H    10    34       P1  8028  2.00
      P1  H  6896  6907       L1     1  1.92
      P1  H  7997  8009       L1     3  0.98
      P1  H 10752 10763       L1     4  1.00

> <Gold.PLP.Chemscore.Internal.Correction>
0.1440

> <Gold.Rescore>
     Score         DG    S(hbond)    S(metal)    S(lipo)     H(rot)  DE(clash)    DE(int)     intcor
     20.14     -21.12       3.82        0.00      79.01       2.49       0.01       0.98       ----

> <Gold.Chemscore.Fitness>
20.1354

> <Gold.Chemscore.DG>
-21.1169

> <Gold.Chemscore.ZeroCoef>
-5.4800

> <Gold.Chemscore.Hbond>
3.8239

> <Gold.Chemscore.Metal>
0.0000

> <Gold.Chemscore.Lipo>
79.0065

> <Gold.Chemscore.Internal_Hbond>
0.0000

> <Gold.Chemscore.DEClash>
0.0059

> <Gold.Chemscore.DEInternal>
0.9756

> <Gold.Chemscore.Rot>
2.4917

> <Gold.Chemscore.Internal.Correction>
   9.000000E+99

> <Gold.Chemscore.Hbonds>
donor molecule, donor type, donor heavy atom, donor atom, acceptor molecule, acceptor atom, score
      L1  H    10    34       P1  8028  0.98
      P1  H  6896  6907       L1     1  0.83
      P1  H  7997  8009       L1     3  0.90
      P1  H 10752 10763       L1     4  0.99

> <Gold.Chemscore.Hbond.Weighted>
-12.7718

> <Gold.Chemscore.Metal.Weighted>
-0.0000

> <Gold.Chemscore.Lipo.Weighted>
-9.2438

> <Gold.Chemscore.Internal_Hbond.Weighted>
0.0000

> <Gold.Chemscore.DEClash.Weighted>
0.0059

> <Gold.Chemscore.DEInternal.Weighted>
0.9756

> <Gold.Chemscore.Rot.Weighted>
6.3786

> <Gold.Chemscore.Internal.Correction.Weighted>
   9.000000E+99

> <Gold.Protein.RotatedTorsions>
[ 6907 6896 6895 6894 ] final    2.01 input  -60.11 | X-H torsion
[ 7974 7965 7964 7962 ] final  127.33 input  175.53 | X-H torsion
[ 8008 7997 7996 7995 ] final  167.17 input   59.86 | X-H torsion
[ 10167 10162 10161 10158 ] final   33.30 input  -65.29 | X-H torsion
[ 10718 10713 10712 10709 ] final  -66.22 input   66.30 | X-H torsion
[ 10763 10752 10751 10750 ] final  140.50 input  -60.55 | X-H torsion
[ 11005 11000 10999 10996 ] final   40.07 input  -57.11 | X-H torsion

> <Gold.Protein.ActiveResidues>
 VAL166  LYS551  ARG553  GLY616  TRP617  ASP618  TYR619  PRO620  LYS621  CYS622 
 ASP623  PHE694  ASN695  SER759  ASP760  ASP761  ALA762  ILE779  LEU786  VAL792 
 PHE793  MET794  SER795  GLU796  ALA797  LYS798  CYS799  TRP800  GLU811  SER814 

> <Gold.Protein.RotatedAtoms>
  151.6020  135.1046  160.0062 H   0  0  0  0  0  0  0  0  0  0  0  0  # atno 6907 bound_to 6896
  152.4253  133.7180  159.6528 H   0  0  0  0  0  0  0  0  0  0  0  0  # atno 6908 bound_to 6896
  150.8142  133.8295  159.3190 H   0  0  0  0  0  0  0  0  0  0  0  0  # atno 6909 bound_to 6896
  145.0517  139.3877  143.5050 H   0  0  0  0  0  0  0  0  0  0  0  0  # atno 7974 bound_to 7965
  156.1657  140.1624  156.8536 H   0  0  0  0  0  0  0  0  0  0  0  0  # atno 8008 bound_to 7997
  154.5205  140.0779  156.8197 H   0  0  0  0  0  0  0  0  0  0  0  0  # atno 8009 bound_to 7997
  155.3617  140.3395  155.4243 H   0  0  0  0  0  0  0  0  0  0  0  0  # atno 8010 bound_to 7997
  140.4420  144.1173  150.6176 H   0  0  0  0  0  0  0  0  0  0  0  0  # atno 10167 bound_to 10162
  156.0624  130.4259  150.1678 H   0  0  0  0  0  0  0  0  0  0  0  0  # atno 10718 bound_to 10713
  153.9237  135.2998  155.3447 H   0  0  0  0  0  0  0  0  0  0  0  0  # atno 10763 bound_to 10752
  154.7562  135.4956  153.9383 H   0  0  0  0  0  0  0  0  0  0  0  0  # atno 10764 bound_to 10752
  153.1128  135.6763  153.9574 H   0  0  0  0  0  0  0  0  0  0  0  0  # atno 10765 bound_to 10752
  140.1966  134.3921  155.8118 H   0  0  0  0  0  0  0  0  0  0  0  0  # atno 11005 bound_to 11000
  146.3518  140.0171  142.8662 LP  0  0  0  0  0  0  0  0  0  0  0  0  # atno 17320 bound_to 7965
  145.1518  140.9627  143.4428 LP  0  0  0  0  0  0  0  0  0  0  0  0  # atno 17321 bound_to 7965
  140.4307  143.2569  151.9599 LP  0  0  0  0  0  0  0  0  0  0  0  0  # atno 17342 bound_to 10162
  139.4790  144.5746  151.8032 LP  0  0  0  0  0  0  0  0  0  0  0  0  # atno 17343 bound_to 10162
  156.9743  130.9844  151.3452 LP  0  0  0  0  0  0  0  0  0  0  0  0  # atno 17370 bound_to 10713
  157.5643  130.8267  149.8307 LP  0  0  0  0  0  0  0  0  0  0  0  0  # atno 17371 bound_to 10713
  141.2227  133.7073  156.8186 LP  0  0  0  0  0  0  0  0  0  0  0  0  # atno 17394 bound_to 11000
  140.2100  134.8834  157.3264 LP  0  0  0  0  0  0  0  0  0  0  0  0  # atno 17395 bound_to 11000

$$$$
