AV-unprocessed.smi:2078|AV-procd|sdf|8468|dock7
  -GOLD-   2272011173D 1   1.00000     0.00000
 Structure written by MMmdl.
 41 42  0  0  0  0  0  0  0  0  3 V2000
  151.8982  141.4130  158.1556 C   0  0  0  0  0  0  0  0  0  0  0  0
  151.6233  140.5893  156.9443 C   0  0  0  0  0  0  0  0  0  0  0  0
  150.5485  140.5041  156.1055 C   0  0  0  0  0  0  0  0  0  0  0  0
  150.9540  139.5271  155.1559 C   0  0  0  0  0  0  0  0  0  0  0  0
  150.2220  139.0809  154.1230 N   0  5  0  0  0  0  0  0  0  0  0  0
  148.8816  138.9474  154.2449 C   0  0  0  0  0  0  0  0  0  0  0  0
  148.2560  138.7434  155.2877 O   0  0  0  0  0  0  0  0  0  0  0  0
  148.2231  139.0542  153.0834 N   0  0  0  0  0  0  0  0  0  0  0  0
  146.7799  138.9424  152.9245 C   0  0  0  0  0  0  0  0  0  0  0  0
  146.4445  138.1523  151.6501 C   0  0  0  0  0  0  0  0  0  0  0  0
  146.2311  136.7083  151.9192 N   0  3  2  0  0  0  0  0  0  0  0  0
  145.5588  136.0203  150.7869 C   0  0  0  0  0  0  0  0  0  0  0  0
  145.4871  134.5030  151.0209 C   0  0  0  0  0  0  0  0  0  0  0  0
  144.7896  134.1836  152.3502 C   0  0  0  0  0  0  0  0  0  0  0  0
  145.4458  134.9395  153.5203 C   0  0  1  0  0  0  0  0  0  0  0  0
  146.8073  134.3472  153.9244 C   0  0  0  0  0  0  0  0  0  0  0  0
  145.5351  136.4484  153.2092 C   0  0  0  0  0  0  0  0  0  0  0  0
  152.1616  139.0495  155.4058 N   0  0  0  0  0  0  0  0  0  0  0  0
  152.6006  139.7307  156.5476 O   0  0  0  0  0  0  0  0  0  0  0  0
  151.0577  141.3716  158.8482 H   0  0  0  0  0  0  0  0  0  0  0  0
  152.0615  142.4555  157.8826 H   0  0  0  0  0  0  0  0  0  0  0  0
  152.7852  141.0574  158.6803 H   0  0  0  0  0  0  0  0  0  0  0  0
  149.6214  141.0544  156.1600 H   0  0  0  0  0  0  0  0  0  0  0  0
  148.7706  139.2245  152.2523 H   0  0  0  0  0  0  0  0  0  0  0  0
  146.3528  138.4414  153.7951 H   0  0  0  0  0  0  0  0  0  0  0  0
  146.3605  139.9478  152.8905 H   0  0  0  0  0  0  0  0  0  0  0  0
  145.5687  138.5701  151.1512 H   0  0  0  0  0  0  0  0  0  0  0  0
  147.2789  138.2683  150.9566 H   0  0  0  0  0  0  0  0  0  0  0  0
  144.5562  136.4301  150.6539 H   0  0  0  0  0  0  0  0  0  0  0  0
  146.1041  136.2106  149.8616 H   0  0  0  0  0  0  0  0  0  0  0  0
  144.9522  134.0259  150.1992 H   0  0  0  0  0  0  0  0  0  0  0  0
  146.4926  134.0809  151.0155 H   0  0  0  0  0  0  0  0  0  0  0  0
  143.7402  134.4731  152.2789 H   0  0  0  0  0  0  0  0  0  0  0  0
  144.7971  133.1087  152.5344 H   0  0  0  0  0  0  0  0  0  0  0  0
  144.7932  134.8234  154.3864 H   0  0  0  0  0  0  0  0  0  0  0  0
  147.5465  134.4404  153.1286 H   0  0  0  0  0  0  0  0  0  0  0  0
  146.7162  133.2887  154.1703 H   0  0  0  0  0  0  0  0  0  0  0  0
  147.2072  134.8528  154.8039 H   0  0  0  0  0  0  0  0  0  0  0  0
  146.0433  136.9536  154.0298 H   0  0  0  0  0  0  0  0  0  0  0  0
  144.5311  136.8732  153.1614 H   0  0  0  0  0  0  0  0  0  0  0  0
  147.1504  136.2960  151.9923 H   0  0  0  0  0  0  0  0  0  0  0  0
  1  2  1  0  0  0  0
  1 20  1  0  0  0  0
  1 21  1  0  0  0  0
  1 22  1  0  0  0  0
  2 19  1  0  0  0  0
  2  3  2  0  0  0  0
  3  4  1  0  0  0  0
  3 23  1  0  0  0  0
  4  5  1  0  0  0  0
  4 18  2  0  0  0  0
  5  6  1  0  0  0  0
  6  7  2  0  0  0  0
  6  8  1  0  0  0  0
  8  9  1  0  0  0  0
  8 24  1  0  0  0  0
  9 10  1  0  0  0  0
  9 25  1  0  0  0  0
  9 26  1  0  0  0  0
 10 11  1  0  0  0  0
 10 27  1  0  0  0  0
 10 28  1  0  0  0  0
 11 17  1  0  0  0  0
 11 12  1  0  0  0  0
 11 41  1  0  0  0  0
 12 13  1  0  0  0  0
 12 29  1  0  0  0  0
 12 30  1  0  0  0  0
 13 14  1  0  0  0  0
 13 31  1  0  0  0  0
 13 32  1  0  0  0  0
 14 15  1  0  0  0  0
 14 33  1  0  0  0  0
 14 34  1  0  0  0  0
 15 16  1  0  0  0  0
 15 17  1  0  0  0  0
 15 35  1  0  0  0  0
 16 36  1  0  0  0  0
 16 37  1  0  0  0  0
 16 38  1  0  0  0  0
 17 39  1  0  0  0  0
 17 40  1  0  0  0  0
 18 19  1  0  0  0  0
M  CHG  1   5  -1
M  CHG  1  11   1
M  END
> <s_m_source_file>
AV-unprocessed.smi

> <i_m_source_file_index>
2078

> <i_lp_mmshare_version>
43012

> <i_f3d_flags>
0

> <s_epik_input>
W0NIM11jMVtjSF1jKG5vMSlbTkhdQyg9TylbTkhdW0NIMl1bQ0gyXU4yW0NIMl1bQ0gyXVtDSDJdW0NAQEhdKFtDSDNdKVtDSDJdMg==

> <s_epik_cmdline>
J2VwaWtfcHl0aG9uJywgJy1waCcsICc3LjAnLCAnLXRuJywgJzgnLCAnLW1hJywgJzIwMCcsICctbWV0YWxfYmluZGluZycsICctaW1hZScsICc8aW5maWxlLm1hZT4nLCAnLW9tYWUnLCAnPG91dGZpbGUubWFlPic=

> <r_epik_Ionization_Penalty>
6.22434

> <r_epik_Ionization_Penalty_Charging>
6.22425

> <r_epik_Ionization_Penalty_Neutral>
9.37855e-05

> <r_epik_State_Penalty>
6.22423

> <r_epik_Charging_Adjusted_Penalty>
12.4485

> <i_epik_Tot_Q>
0

> <i_epik_Tot_abs_Q>
2

> <r_epik_Metal_State_Penalty>
2.16764

> <b_epik_Metal_Only>
1

> <s_lp_Force_Field>
OPLS_2005

> <r_lp_Energy>
8.87897

> <b_lp_Chiralities_Consistent>
1

> <s_lp_Variant>
AV-unprocessed.smi:2078-6

> <Gold.Version>
5.8.1

> <Gold.Id.Protein>
6NUR|6NUR_protein|mol2

> <Gold.PLP.Fitness>
40.4472

> <Gold.PLP.PLP>
-30.3273

> <Gold.PLP.part.hbond>
-3.8297

> <Gold.PLP.part.metal>
0.0000

> <Gold.PLP.part.buried>
-3.2562

> <Gold.PLP.part.nonpolar>
-23.7767

> <Gold.PLP.part.repulsive>
0.3935

> <Gold.PLP.ligand.clash>
0.0000

> <Gold.PLP.ligand.torsion>
0.9564

> <Gold.PLP.Chemscore.Hbond>
4.0000

> <Gold.PLP.Chemscore.CHOScore>
0.0000

> <Gold.PLP.Chemscore.Metal>
0.0000

> <Gold.Chemscore.Hbonds>
donor molecule, donor type, donor heavy atom, donor atom, acceptor molecule, acceptor atom, score
      L1  H     8    24       P1  7957  1.00
      L1  H    11    41       P1  7948  2.00
      P1  H  7997  8008       L1    19  1.00

> <Gold.PLP.Chemscore.Internal.Correction>
0.0327

> <Gold.Rescore>
     Score         DG    S(hbond)    S(metal)    S(lipo)     H(rot)  DE(clash)    DE(int)     intcor
     17.46     -18.40       2.95        0.00      59.94       1.54       0.01       0.94       ----

> <Gold.Chemscore.Fitness>
17.4567

> <Gold.Chemscore.DG>
-18.4044

> <Gold.Chemscore.ZeroCoef>
-5.4800

> <Gold.Chemscore.Hbond>
2.9510

> <Gold.Chemscore.Metal>
0.0000

> <Gold.Chemscore.Lipo>
59.9362

> <Gold.Chemscore.Internal_Hbond>
0.0000

> <Gold.Chemscore.DEClash>
0.0060

> <Gold.Chemscore.DEInternal>
0.9418

> <Gold.Chemscore.Rot>
1.5409

> <Gold.Chemscore.Internal.Correction>
   9.000000E+99

> <Gold.Chemscore.Hbonds>
donor molecule, donor type, donor heavy atom, donor atom, acceptor molecule, acceptor atom, score
      L1  H     8    24       P1  7957  0.97
      L1  H    11    41       P1  7948  0.99
      P1  H  7997  8008       L1    19  0.88

> <Gold.Chemscore.Hbond.Weighted>
-9.8565

> <Gold.Chemscore.Metal.Weighted>
-0.0000

> <Gold.Chemscore.Lipo.Weighted>
-7.0125

> <Gold.Chemscore.Internal_Hbond.Weighted>
0.0000

> <Gold.Chemscore.DEClash.Weighted>
0.0060

> <Gold.Chemscore.DEInternal.Weighted>
0.9418

> <Gold.Chemscore.Rot.Weighted>
3.9446

> <Gold.Chemscore.Internal.Correction.Weighted>
   9.000000E+99

> <Gold.Protein.RotatedTorsions>
[ 6907 6896 6895 6894 ] final   83.54 input  -60.11 | X-H torsion
[ 7974 7965 7964 7962 ] final   24.40 input  175.53 | X-H torsion
[ 8008 7997 7996 7995 ] final  -56.06 input   59.86 | X-H torsion
[ 10167 10162 10161 10158 ] final  -66.68 input  -65.29 | X-H torsion
[ 10718 10713 10712 10709 ] final  137.68 input   66.30 | X-H torsion
[ 10763 10752 10751 10750 ] final  -35.64 input  -60.55 | X-H torsion
[ 11005 11000 10999 10996 ] final -122.89 input  -57.11 | X-H torsion

> <Gold.Protein.ActiveResidues>
 VAL166  LYS551  ARG553  GLY616  TRP617  ASP618  TYR619  PRO620  LYS621  CYS622 
 ASP623  PHE694  ASN695  SER759  ASP760  ASP761  ALA762  ILE779  LEU786  VAL792 
 PHE793  MET794  SER795  GLU796  ALA797  LYS798  CYS799  TRP800  GLU811  SER814 

> <Gold.Protein.RotatedAtoms>
  152.5330  134.2880  159.9032 H   0  0  0  0  0  0  0  0  0  0  0  0  # atno 6907 bound_to 6896
  151.2833  133.4193  159.2636 H   0  0  0  0  0  0  0  0  0  0  0  0  # atno 6908 bound_to 6896
  151.0265  134.9523  159.8144 H   0  0  0  0  0  0  0  0  0  0  0  0  # atno 6909 bound_to 6896
  146.1939  139.7610  142.8811 H   0  0  0  0  0  0  0  0  0  0  0  0  # atno 7974 bound_to 7965
  154.4216  140.1138  156.5577 H   0  0  0  0  0  0  0  0  0  0  0  0  # atno 8008 bound_to 7997
  155.6344  140.3496  155.4674 H   0  0  0  0  0  0  0  0  0  0  0  0  # atno 8009 bound_to 7997
  155.9922  140.1182  157.0617 H   0  0  0  0  0  0  0  0  0  0  0  0  # atno 8010 bound_to 7997
  140.5639  143.2314  151.6674 H   0  0  0  0  0  0  0  0  0  0  0  0  # atno 10167 bound_to 10162
  157.4335  131.1051  151.0224 H   0  0  0  0  0  0  0  0  0  0  0  0  # atno 10718 bound_to 10713
  153.8665  135.6835  153.4778 H   0  0  0  0  0  0  0  0  0  0  0  0  # atno 10763 bound_to 10752
  153.1311  135.4697  154.9349 H   0  0  0  0  0  0  0  0  0  0  0  0  # atno 10764 bound_to 10752
  154.7734  135.3245  154.8093 H   0  0  0  0  0  0  0  0  0  0  0  0  # atno 10765 bound_to 10752
  140.9961  134.0470  157.3596 H   0  0  0  0  0  0  0  0  0  0  0  0  # atno 11005 bound_to 11000
  145.3705  141.0342  143.3233 LP  0  0  0  0  0  0  0  0  0  0  0  0  # atno 17320 bound_to 7965
  144.8541  139.5276  143.6843 LP  0  0  0  0  0  0  0  0  0  0  0  0  # atno 17321 bound_to 7965
  139.5083  144.3615  152.0557 LP  0  0  0  0  0  0  0  0  0  0  0  0  # atno 17342 bound_to 10162
  140.2745  144.3928  150.6140 LP  0  0  0  0  0  0  0  0  0  0  0  0  # atno 17343 bound_to 10162
  157.1112  130.6022  149.5482 LP  0  0  0  0  0  0  0  0  0  0  0  0  # atno 17370 bound_to 10713
  155.9922  130.4979  150.7329 LP  0  0  0  0  0  0  0  0  0  0  0  0  # atno 17371 bound_to 10713
  139.9015  135.0166  156.7291 LP  0  0  0  0  0  0  0  0  0  0  0  0  # atno 17394 bound_to 11000
  140.6964  133.9345  155.7997 LP  0  0  0  0  0  0  0  0  0  0  0  0  # atno 17395 bound_to 11000

$$$$
