AV-unprocessed.smi:3031|AV-procd|sdf|11553|dock2
  -GOLD-   2272016513D 1   1.00000     0.00000
 Structure written by MMmdl.
 46 47  0  0  0  0  0  0  0  0  1 V2000
  145.9120  131.7141  149.5258 C   0  0  0  0  0  0  0  0  0  0  0  0
  145.2032  132.6883  150.4217 C   0  0  0  0  0  0  0  0  0  0  0  0
  144.2584  132.4019  151.4475 C   0  0  0  0  0  0  0  0  0  0  0  0
  143.8174  133.4887  152.0592 N   0  0  0  0  0  0  0  0  0  0  0  0
  144.4649  134.5044  151.4500 N   0  0  0  0  0  0  0  0  0  0  0  0
  144.2261  135.8725  151.8750 C   0  0  0  0  0  0  0  0  0  0  0  0
  145.5303  136.6253  152.2053 C   0  0  2  0  0  0  0  0  0  0  0  0
  146.0517  136.2206  153.5961 C   0  0  0  0  0  0  0  0  0  0  0  0
  145.3139  138.0730  152.1055 N   0  0  0  0  0  0  0  0  0  0  0  0
  146.5227  138.8955  152.1481 C   0  0  0  0  0  0  0  0  0  0  0  0
  146.8138  139.3907  153.5751 C   0  0  2  0  0  0  0  0  0  0  0  0
  145.6168  139.8689  154.1516 O   0  0  0  0  0  0  0  0  0  0  0  0
  147.9141  140.4658  153.7529 C   0  0  0  0  0  0  0  0  0  0  0  0
  149.0418  140.1294  154.6311 N   0  0  0  0  0  0  0  0  0  0  0  0
  149.7806  141.3094  155.0835 C   0  0  0  0  0  0  0  0  0  0  0  0
  150.9739  140.9353  155.9792 C   0  0  0  0  0  0  0  0  0  0  0  0
  151.8384  140.0489  155.2775 O   0  0  0  0  0  0  0  0  0  0  0  0
  151.1751  138.8659  154.8463 C   0  0  0  0  0  0  0  0  0  0  0  0
  149.9820  139.2425  153.9507 C   0  0  0  0  0  0  0  0  0  0  0  0
  145.3046  134.0504  150.4553 C   0  0  0  0  0  0  0  0  0  0  0  0
  146.5964  131.0780  150.0872 H   0  0  0  0  0  0  0  0  0  0  0  0
  146.4993  132.2196  148.7588 H   0  0  0  0  0  0  0  0  0  0  0  0
  145.2102  131.0573  149.0115 H   0  0  0  0  0  0  0  0  0  0  0  0
  143.8827  131.4401  151.7643 H   0  0  0  0  0  0  0  0  0  0  0  0
  143.6721  136.3915  151.0913 H   0  0  0  0  0  0  0  0  0  0  0  0
  143.5740  135.8440  152.7492 H   0  0  0  0  0  0  0  0  0  0  0  0
  146.2797  136.3281  151.4703 H   0  0  0  0  0  0  0  0  0  0  0  0
  146.1517  135.1376  153.6724 H   0  0  0  0  0  0  0  0  0  0  0  0
  145.3721  136.5450  154.3848 H   0  0  0  0  0  0  0  0  0  0  0  0
  147.0349  136.6419  153.8038 H   0  0  0  0  0  0  0  0  0  0  0  0
  144.8002  138.2762  151.2538 H   0  0  0  0  0  0  0  0  0  0  0  0
  147.3852  138.3638  151.7517 H   0  0  0  0  0  0  0  0  0  0  0  0
  146.3874  139.7632  151.5011 H   0  0  0  0  0  0  0  0  0  0  0  0
  147.1094  138.5240  154.1676 H   0  0  0  0  0  0  0  0  0  0  0  0
  144.9722  139.9551  153.4657 H   0  0  0  0  0  0  0  0  0  0  0  0
  148.2979  140.6679  152.7515 H   0  0  0  0  0  0  0  0  0  0  0  0
  147.4658  141.4073  154.0736 H   0  0  0  0  0  0  0  0  0  0  0  0
  150.1441  141.8713  154.2218 H   0  0  0  0  0  0  0  0  0  0  0  0
  149.1387  141.9854  155.6389 H   0  0  0  0  0  0  0  0  0  0  0  0
  151.5315  141.8288  156.2598 H   0  0  0  0  0  0  0  0  0  0  0  0
  150.6317  140.4670  156.9033 H   0  0  0  0  0  0  0  0  0  0  0  0
  151.8801  138.2418  154.2969 H   0  0  0  0  0  0  0  0  0  0  0  0
  150.8424  138.2902  155.7114 H   0  0  0  0  0  0  0  0  0  0  0  0
  149.4712  138.3305  153.6396 H   0  0  0  0  0  0  0  0  0  0  0  0
  150.3496  139.7197  153.0407 H   0  0  0  0  0  0  0  0  0  0  0  0
  145.9023  134.7273  149.8626 H   0  0  0  0  0  0  0  0  0  0  0  0
  1  2  1  0  0  0  0
  1 21  1  0  0  0  0
  1 22  1  0  0  0  0
  1 23  1  0  0  0  0
  2 20  2  0  0  0  0
  2  3  1  0  0  0  0
  3  4  2  0  0  0  0
  3 24  1  0  0  0  0
  4  5  1  0  0  0  0
  5  6  1  0  0  0  0
  5 20  1  0  0  0  0
  6  7  1  0  0  0  0
  6 25  1  0  0  0  0
  6 26  1  0  0  0  0
  7  8  1  0  0  0  0
  7  9  1  0  0  0  0
  7 27  1  0  0  0  0
  8 28  1  0  0  0  0
  8 29  1  0  0  0  0
  8 30  1  0  0  0  0
  9 10  1  0  0  0  0
  9 31  1  0  0  0  0
 10 11  1  0  0  0  0
 10 32  1  0  0  0  0
 10 33  1  0  0  0  0
 11 12  1  0  0  0  0
 11 13  1  0  0  0  0
 11 34  1  0  0  0  0
 12 35  1  0  0  0  0
 13 14  1  0  0  0  0
 13 36  1  0  0  0  0
 13 37  1  0  0  0  0
 14 19  1  0  0  0  0
 14 15  1  0  0  0  0
 15 16  1  0  0  0  0
 15 38  1  0  0  0  0
 15 39  1  0  0  0  0
 16 17  1  0  0  0  0
 16 40  1  0  0  0  0
 16 41  1  0  0  0  0
 17 18  1  0  0  0  0
 18 19  1  0  0  0  0
 18 42  1  0  0  0  0
 18 43  1  0  0  0  0
 19 44  1  0  0  0  0
 19 45  1  0  0  0  0
 20 46  1  0  0  0  0
M  END
> <s_m_source_file>
AV-unprocessed.smi

> <i_m_source_file_index>
3031

> <i_lp_mmshare_version>
43012

> <i_f3d_flags>
0

> <s_epik_input>
W0NIM11jMVtjSF1ubihbY0hdMSlbQ0gyXVtDQEhdKFtDSDNdKVtOSF1bQ0gyXVtDQEhdKFtPSF0pW0NIMl1OMltDSDJdW0NIMl1PW0NIMl1bQ0gyXTI=

> <s_epik_cmdline>
J2VwaWtfcHl0aG9uJywgJy1waCcsICc3LjAnLCAnLXRuJywgJzgnLCAnLW1hJywgJzIwMCcsICctbWV0YWxfYmluZGluZycsICctaW1hZScsICc8aW5maWxlLm1hZT4nLCAnLW9tYWUnLCAnPG91dGZpbGUubWFlPic=

> <r_lp_tautomer_probability>
1

> <r_epik_Ionization_Penalty>
2.8101

> <r_epik_Ionization_Penalty_Charging>
0

> <r_epik_Ionization_Penalty_Neutral>
2.8101

> <r_epik_State_Penalty>
2.12351

> <r_epik_Charging_Adjusted_Penalty>
2.12351

> <i_epik_Tot_Q>
0

> <i_epik_Tot_abs_Q>
0

> <r_epik_Metal_State_Penalty>
2.12345

> <b_epik_Metal_Only>
0

> <s_lp_Force_Field>
OPLS_2005

> <r_lp_Energy>
35.4854

> <b_lp_Chiralities_Consistent>
1

> <s_lp_Variant>
AV-unprocessed.smi:3031-13

> <Gold.Version>
5.8.1

> <Gold.Id.Protein>
6NUR|6NUR_protein|mol2

> <Gold.PLP.Fitness>
47.0778

> <Gold.PLP.PLP>
-39.4649

> <Gold.PLP.part.hbond>
-4.0000

> <Gold.PLP.part.metal>
0.0000

> <Gold.PLP.part.buried>
-1.2008

> <Gold.PLP.part.nonpolar>
-34.8653

> <Gold.PLP.part.repulsive>
0.2705

> <Gold.PLP.ligand.clash>
0.0000

> <Gold.PLP.ligand.torsion>
1.4991

> <Gold.PLP.Chemscore.Hbond>
2.5242

> <Gold.PLP.Chemscore.CHOScore>
0.9710

> <Gold.PLP.Chemscore.Metal>
0.0000

> <Gold.Chemscore.Hbonds>
donor molecule, donor type, donor heavy atom, donor atom, acceptor molecule, acceptor atom, score
      L1  H     9    31       P1 10171  1.00
      L1  H    12    35       P1 10175  1.00
      P1  H  7989  7998       L1    17  0.46
      L1  C    20    46       P1  7921  0.99

> <Gold.PLP.Chemscore.Internal.Correction>
0.1257

> <Gold.Rescore>
     Score         DG    S(hbond)    S(metal)    S(lipo)     H(rot)  DE(clash)    DE(int)     intcor
     15.28     -16.84       2.00        0.00      95.45       2.53       0.05       1.51       ----

> <Gold.Chemscore.Fitness>
15.2820

> <Gold.Chemscore.DG>
-16.8383

> <Gold.Chemscore.ZeroCoef>
-5.4800

> <Gold.Chemscore.Hbond>
1.9986

> <Gold.Chemscore.Metal>
0.0000

> <Gold.Chemscore.Lipo>
95.4543

> <Gold.Chemscore.Internal_Hbond>
0.0000

> <Gold.Chemscore.DEClash>
0.0506

> <Gold.Chemscore.DEInternal>
1.5057

> <Gold.Chemscore.Rot>
2.5333

> <Gold.Chemscore.Internal.Correction>
   9.000000E+99

> <Gold.Chemscore.Hbonds>
donor molecule, donor type, donor heavy atom, donor atom, acceptor molecule, acceptor atom, score
      L1  H     9    31       P1 10171  1.00
      L1  H    12    35       P1 10175  1.00
      P1  H  7989  7998       L1    17  0.01

> <Gold.Chemscore.Hbond.Weighted>
-6.6753

> <Gold.Chemscore.Metal.Weighted>
-0.0000

> <Gold.Chemscore.Lipo.Weighted>
-11.1682

> <Gold.Chemscore.Internal_Hbond.Weighted>
0.0000

> <Gold.Chemscore.DEClash.Weighted>
0.0506

> <Gold.Chemscore.DEInternal.Weighted>
1.5057

> <Gold.Chemscore.Rot.Weighted>
6.4852

> <Gold.Chemscore.Internal.Correction.Weighted>
   9.000000E+99

> <Gold.Protein.RotatedTorsions>
[ 6907 6896 6895 6894 ] final  -33.52 input  -60.11 | X-H torsion
[ 7974 7965 7964 7962 ] final  -40.81 input  175.53 | X-H torsion
[ 8008 7997 7996 7995 ] final  -56.75 input   59.86 | X-H torsion
[ 10167 10162 10161 10158 ] final   40.22 input  -65.29 | X-H torsion
[ 10718 10713 10712 10709 ] final  115.57 input   66.30 | X-H torsion
[ 10763 10752 10751 10750 ] final -121.22 input  -60.55 | X-H torsion
[ 11005 11000 10999 10996 ] final -140.19 input  -57.11 | X-H torsion

> <Gold.Protein.ActiveResidues>
 VAL166  LYS551  ARG553  GLY616  TRP617  ASP618  TYR619  PRO620  LYS621  CYS622 
 ASP623  PHE694  ASN695  SER759  ASP760  ASP761  ALA762  ILE779  LEU786  VAL792 
 PHE793  MET794  SER795  GLU796  ALA797  LYS798  CYS799  TRP800  GLU811  SER814 

> <Gold.Protein.RotatedAtoms>
  151.0645  134.9758  159.8277 H   0  0  0  0  0  0  0  0  0  0  0  0  # atno 6907 bound_to 6896
  152.5400  134.2376  159.8859 H   0  0  0  0  0  0  0  0  0  0  0  0  # atno 6908 bound_to 6896
  151.2397  133.4363  159.2640 H   0  0  0  0  0  0  0  0  0  0  0  0  # atno 6909 bound_to 6896
  146.0270  140.6780  142.9151 H   0  0  0  0  0  0  0  0  0  0  0  0  # atno 7974 bound_to 7965
  154.4242  140.1122  156.5688 H   0  0  0  0  0  0  0  0  0  0  0  0  # atno 8008 bound_to 7997
  155.6234  140.3495  155.4640 H   0  0  0  0  0  0  0  0  0  0  0  0  # atno 8009 bound_to 7997
  156.0006  140.1198  157.0541 H   0  0  0  0  0  0  0  0  0  0  0  0  # atno 8010 bound_to 7997
  140.3763  144.2039  150.6131 H   0  0  0  0  0  0  0  0  0  0  0  0  # atno 10167 bound_to 10162
  157.6214  131.1014  150.7349 H   0  0  0  0  0  0  0  0  0  0  0  0  # atno 10718 bound_to 10713
  154.8663  135.4175  154.2585 H   0  0  0  0  0  0  0  0  0  0  0  0  # atno 10763 bound_to 10752
  153.3518  135.6999  153.6788 H   0  0  0  0  0  0  0  0  0  0  0  0  # atno 10764 bound_to 10752
  153.5725  135.3588  155.2816 H   0  0  0  0  0  0  0  0  0  0  0  0  # atno 10765 bound_to 10752
  140.8446  134.2360  157.4792 H   0  0  0  0  0  0  0  0  0  0  0  0  # atno 11005 bound_to 11000
  144.7013  140.3667  143.7153 LP  0  0  0  0  0  0  0  0  0  0  0  0  # atno 17320 bound_to 7965
  145.7103  139.1683  143.2543 LP  0  0  0  0  0  0  0  0  0  0  0  0  # atno 17321 bound_to 7965
  140.4983  143.2326  151.8717 LP  0  0  0  0  0  0  0  0  0  0  0  0  # atno 17342 bound_to 10162
  139.4799  144.5088  151.8960 LP  0  0  0  0  0  0  0  0  0  0  0  0  # atno 17343 bound_to 10162
  156.7706  130.4827  149.5419 LP  0  0  0  0  0  0  0  0  0  0  0  0  # atno 17370 bound_to 10713
  156.1361  130.6212  151.0402 LP  0  0  0  0  0  0  0  0  0  0  0  0  # atno 17371 bound_to 10713
  139.8703  134.9653  156.4523 LP  0  0  0  0  0  0  0  0  0  0  0  0  # atno 17394 bound_to 11000
  140.8857  133.7885  155.9516 LP  0  0  0  0  0  0  0  0  0  0  0  0  # atno 17395 bound_to 11000

$$$$
