AV-unprocessed.smi:3200|AV-procd|sdf|12236|dock10
  -GOLD-   2272018 73D 1   1.00000     0.00000
 Structure written by MMmdl.
 38 39  0  0  0  0  0  0  0  0  2 V2000
  152.3559  137.6585  159.2876 C   0  0  0  0  0  0  0  0  0  0  0  0
  152.3587  138.4642  158.0333 C   0  0  0  0  0  0  0  0  0  0  0  0
  153.3102  138.3159  157.1194 N   0  0  0  0  0  0  0  0  0  0  0  0
  152.9472  139.2323  156.1221 O   0  0  0  0  0  0  0  0  0  0  0  0
  151.8234  139.8402  156.5716 C   0  0  0  0  0  0  0  0  0  0  0  0
  151.1507  140.8470  155.7004 C   0  0  0  0  0  0  0  0  0  0  0  0
  150.1459  141.7081  156.4753 C   0  0  0  0  0  0  0  0  0  0  0  0
  150.7899  142.9268  157.0057 N   0  3  0  0  0  0  0  0  0  0  0  0
  151.1244  142.8746  158.4467 C   0  0  1  0  0  0  0  0  0  0  0  0
  152.2030  141.8356  158.7866 C   0  0  0  0  0  0  0  0  0  0  0  0
  152.8781  142.3476  160.0657 C   0  0  0  0  0  0  0  0  0  0  0  0
  152.3053  143.7487  160.3251 C   0  0  0  0  0  0  0  0  0  0  0  0
  151.6654  144.2093  159.0030 C   0  0  0  0  0  0  0  0  0  0  0  0
  152.7414  144.8477  158.0938 C   0  0  0  0  0  0  0  0  0  0  0  0
  150.5362  145.2255  159.2571 C   0  0  0  0  0  0  0  0  0  0  0  0
  151.3999  139.3880  157.7490 N   0  0  0  0  0  0  0  0  0  0  0  0
  152.9352  136.7432  159.1618 H   0  0  0  0  0  0  0  0  0  0  0  0
  151.3367  137.3836  159.5609 H   0  0  0  0  0  0  0  0  0  0  0  0
  152.7903  138.2347  160.1047 H   0  0  0  0  0  0  0  0  0  0  0  0
  151.9151  141.4779  155.2451 H   0  0  0  0  0  0  0  0  0  0  0  0
  150.6501  140.3224  154.8855 H   0  0  0  0  0  0  0  0  0  0  0  0
  149.3186  141.9926  155.8235 H   0  0  0  0  0  0  0  0  0  0  0  0
  149.7245  141.1300  157.2985 H   0  0  0  0  0  0  0  0  0  0  0  0
  151.6369  143.1057  156.4854 H   0  0  0  0  0  0  0  0  0  0  0  0
  150.2183  142.6163  158.9986 H   0  0  0  0  0  0  0  0  0  0  0  0
  151.7821  140.8383  158.9187 H   0  0  0  0  0  0  0  0  0  0  0  0
  152.9421  141.7731  157.9866 H   0  0  0  0  0  0  0  0  0  0  0  0
  152.6883  141.6875  160.9127 H   0  0  0  0  0  0  0  0  0  0  0  0
  153.9586  142.3934  159.9249 H   0  0  0  0  0  0  0  0  0  0  0  0
  151.5406  143.6721  161.0995 H   0  0  0  0  0  0  0  0  0  0  0  0
  153.0603  144.4427  160.6962 H   0  0  0  0  0  0  0  0  0  0  0  0
  153.1855  145.7228  158.5692 H   0  0  0  0  0  0  0  0  0  0  0  0
  152.3213  145.1802  157.1442 H   0  0  0  0  0  0  0  0  0  0  0  0
  153.5535  144.1559  157.8698 H   0  0  0  0  0  0  0  0  0  0  0  0
  150.9193  146.1264  159.7379 H   0  0  0  0  0  0  0  0  0  0  0  0
  149.7614  144.8139  159.9049 H   0  0  0  0  0  0  0  0  0  0  0  0
  150.0581  145.5274  158.3248 H   0  0  0  0  0  0  0  0  0  0  0  0
  150.1559  143.6999  156.8626 H   0  0  0  0  0  0  0  0  0  0  0  0
  1  2  1  0  0  0  0
  1 17  1  0  0  0  0
  1 18  1  0  0  0  0
  1 19  1  0  0  0  0
  2 16  1  0  0  0  0
  2  3  2  0  0  0  0
  3  4  1  0  0  0  0
  4  5  1  0  0  0  0
  5  6  1  0  0  0  0
  5 16  2  0  0  0  0
  6  7  1  0  0  0  0
  6 20  1  0  0  0  0
  6 21  1  0  0  0  0
  7  8  1  0  0  0  0
  7 22  1  0  0  0  0
  7 23  1  0  0  0  0
  8  9  1  0  0  0  0
  8 24  1  0  0  0  0
  8 38  1  0  0  0  0
  9 13  1  0  0  0  0
  9 10  1  0  0  0  0
  9 25  1  0  0  0  0
 10 11  1  0  0  0  0
 10 26  1  0  0  0  0
 10 27  1  0  0  0  0
 11 12  1  0  0  0  0
 11 28  1  0  0  0  0
 11 29  1  0  0  0  0
 12 13  1  0  0  0  0
 12 30  1  0  0  0  0
 12 31  1  0  0  0  0
 13 14  1  0  0  0  0
 13 15  1  0  0  0  0
 14 32  1  0  0  0  0
 14 33  1  0  0  0  0
 14 34  1  0  0  0  0
 15 35  1  0  0  0  0
 15 36  1  0  0  0  0
 15 37  1  0  0  0  0
M  CHG  1   8   1
M  END
> <s_m_source_file>
AV-unprocessed.smi

> <i_m_source_file_index>
3200

> <i_lp_mmshare_version>
43012

> <i_f3d_flags>
0

> <s_epik_input>
W0NIM11jMW5vYyhuMSlbQ0gyXVtDSDJdW05IXVtDQEBIXShDMihbQ0gzXSlbQ0gzXSlbQ0gyXVtDSDJdW0NIMl0y

> <s_epik_cmdline>
J2VwaWtfcHl0aG9uJywgJy1waCcsICc3LjAnLCAnLXRuJywgJzgnLCAnLW1hJywgJzIwMCcsICctbWV0YWxfYmluZGluZycsICctaW1hZScsICc8aW5maWxlLm1hZT4nLCAnLW9tYWUnLCAnPG91dGZpbGUubWFlPic=

> <r_lp_tautomer_probability>
1

> <r_epik_Ionization_Penalty>
0.000953161

> <r_epik_Ionization_Penalty_Charging>
0.000953161

> <r_epik_Ionization_Penalty_Neutral>
4.23223e-13

> <r_epik_State_Penalty>
0.000619331

> <r_epik_Charging_Adjusted_Penalty>
0.00157249

> <i_epik_Tot_Q>
1

> <i_epik_Tot_abs_Q>
1

> <r_epik_Metal_State_Penalty>
-0

> <b_epik_Metal_Only>
0

> <s_lp_Force_Field>
OPLS_2005

> <r_lp_Energy>
25.6419

> <b_lp_Chiralities_Consistent>
1

> <s_lp_Variant>
AV-unprocessed.smi:3200-2

> <Gold.Version>
5.8.1

> <Gold.Id.Protein>
6NUR|6NUR_protein|mol2

> <Gold.PLP.Fitness>
43.6529

> <Gold.PLP.PLP>
-36.1447

> <Gold.PLP.part.hbond>
-2.3702

> <Gold.PLP.part.metal>
0.0000

> <Gold.PLP.part.buried>
-4.6132

> <Gold.PLP.part.nonpolar>
-29.8475

> <Gold.PLP.part.repulsive>
0.0222

> <Gold.PLP.ligand.clash>
0.0000

> <Gold.PLP.ligand.torsion>
0.7525

> <Gold.PLP.Chemscore.Hbond>
3.0000

> <Gold.PLP.Chemscore.CHOScore>
0.0000

> <Gold.PLP.Chemscore.Metal>
0.0000

> <Gold.Chemscore.Hbonds>
donor molecule, donor type, donor heavy atom, donor atom, acceptor molecule, acceptor atom, score
      L1  H     8    38       P1  8028  2.00
      P1  H  7997  8009       L1     4  1.00

> <Gold.PLP.Chemscore.Internal.Correction>
0.0132

> <Gold.Rescore>
     Score         DG    S(hbond)    S(metal)    S(lipo)     H(rot)  DE(clash)    DE(int)     intcor
     17.13     -18.12       1.83        0.00      94.80       1.79       0.06       0.93       ----

> <Gold.Chemscore.Fitness>
17.1292

> <Gold.Chemscore.DG>
-18.1184

> <Gold.Chemscore.ZeroCoef>
-5.4800

> <Gold.Chemscore.Hbond>
1.8331

> <Gold.Chemscore.Metal>
0.0000

> <Gold.Chemscore.Lipo>
94.7957

> <Gold.Chemscore.Internal_Hbond>
0.0000

> <Gold.Chemscore.DEClash>
0.0575

> <Gold.Chemscore.DEInternal>
0.9317

> <Gold.Chemscore.Rot>
1.7872

> <Gold.Chemscore.Internal.Correction>
   9.000000E+99

> <Gold.Chemscore.Hbonds>
donor molecule, donor type, donor heavy atom, donor atom, acceptor molecule, acceptor atom, score
      L1  H     8    38       P1  8028  0.91
      P1  H  7997  8009       L1     4  0.24

> <Gold.Chemscore.Hbond.Weighted>
-6.1226

> <Gold.Chemscore.Metal.Weighted>
-0.0000

> <Gold.Chemscore.Lipo.Weighted>
-11.0911

> <Gold.Chemscore.Internal_Hbond.Weighted>
0.0000

> <Gold.Chemscore.DEClash.Weighted>
0.0575

> <Gold.Chemscore.DEInternal.Weighted>
0.9317

> <Gold.Chemscore.Rot.Weighted>
4.5753

> <Gold.Chemscore.Internal.Correction.Weighted>
   9.000000E+99

> <Gold.Protein.RotatedTorsions>
[ 6907 6896 6895 6894 ] final  -17.50 input  -60.11 | X-H torsion
[ 7974 7965 7964 7962 ] final  123.65 input  175.53 | X-H torsion
[ 8008 7997 7996 7995 ] final -143.53 input   59.86 | X-H torsion
[ 10167 10162 10161 10158 ] final  144.04 input  -65.29 | X-H torsion
[ 10718 10713 10712 10709 ] final  179.02 input   66.30 | X-H torsion
[ 10763 10752 10751 10750 ] final    9.83 input  -60.55 | X-H torsion
[ 11005 11000 10999 10996 ] final  111.61 input  -57.11 | X-H torsion

> <Gold.Protein.ActiveResidues>
 VAL166  LYS551  ARG553  GLY616  TRP617  ASP618  TYR619  PRO620  LYS621  CYS622 
 ASP623  PHE694  ASN695  SER759  ASP760  ASP761  ALA762  ILE779  LEU786  VAL792 
 PHE793  MET794  SER795  GLU796  ALA797  LYS798  CYS799  TRP800  GLU811  SER814 

> <Gold.Protein.RotatedAtoms>
  151.2923  135.0745  159.9208 H   0  0  0  0  0  0  0  0  0  0  0  0  # atno 6907 bound_to 6896
  152.5314  133.9919  159.7865 H   0  0  0  0  0  0  0  0  0  0  0  0  # atno 6908 bound_to 6896
  151.0191  133.5842  159.2704 H   0  0  0  0  0  0  0  0  0  0  0  0  # atno 6909 bound_to 6896
  145.0934  139.3570  143.4849 H   0  0  0  0  0  0  0  0  0  0  0  0  # atno 7974 bound_to 7965
  155.5122  140.0584  157.2921 H   0  0  0  0  0  0  0  0  0  0  0  0  # atno 8008 bound_to 7997
  154.4548  140.1967  156.0361 H   0  0  0  0  0  0  0  0  0  0  0  0  # atno 8009 bound_to 7997
  156.0776  140.3251  155.7658 H   0  0  0  0  0  0  0  0  0  0  0  0  # atno 8010 bound_to 7997
  139.4956  144.5999  151.6503 H   0  0  0  0  0  0  0  0  0  0  0  0  # atno 10167 bound_to 10162
  156.8820  130.9819  151.3061 H   0  0  0  0  0  0  0  0  0  0  0  0  # atno 10718 bound_to 10713
  153.2098  135.6867  153.8128 H   0  0  0  0  0  0  0  0  0  0  0  0  # atno 10763 bound_to 10752
  153.7365  135.3244  155.3297 H   0  0  0  0  0  0  0  0  0  0  0  0  # atno 10764 bound_to 10752
  154.8216  135.4648  154.0900 H   0  0  0  0  0  0  0  0  0  0  0  0  # atno 10765 bound_to 10752
  139.8908  134.9512  156.6459 H   0  0  0  0  0  0  0  0  0  0  0  0  # atno 11005 bound_to 11000
  146.3531  140.0779  142.8619 LP  0  0  0  0  0  0  0  0  0  0  0  0  # atno 17320 bound_to 7965
  145.1039  140.9363  143.4696 LP  0  0  0  0  0  0  0  0  0  0  0  0  # atno 17321 bound_to 7965
  140.5646  144.0211  150.6186 LP  0  0  0  0  0  0  0  0  0  0  0  0  # atno 17342 bound_to 10162
  140.3308  143.3079  152.0689 LP  0  0  0  0  0  0  0  0  0  0  0  0  # atno 17343 bound_to 10162
  157.6135  130.8600  149.8989 LP  0  0  0  0  0  0  0  0  0  0  0  0  # atno 17370 bound_to 10713
  156.0672  130.3690  150.0852 LP  0  0  0  0  0  0  0  0  0  0  0  0  # atno 17371 bound_to 10713
  140.7558  133.8859  155.8381 LP  0  0  0  0  0  0  0  0  0  0  0  0  # atno 17394 bound_to 11000
  140.9963  134.1210  157.4360 LP  0  0  0  0  0  0  0  0  0  0  0  0  # atno 17395 bound_to 11000

$$$$
