AV-unprocessed.smi:2695|AV-procd|sdf|10407|dock10
  -GOLD-   2272014443D 1   1.00000     0.00000
 Structure written by MMmdl.
 41 42  0  0  0  0  0  0  0  0  2 V2000
  150.7597  137.3531  155.1686 C   0  0  0  0  0  0  0  0  0  0  0  0
  150.0243  138.6867  155.1084 C   0  0  0  0  0  0  0  0  0  0  0  0
  148.8667  138.8004  154.4207 C   0  0  0  0  0  0  0  0  0  0  0  0
  148.1589  139.9943  154.3735 C   0  0  0  0  0  0  0  0  0  0  0  0
  147.0885  140.1059  153.7360 O   0  5  0  0  0  0  0  0  0  0  0  0
  148.7100  141.0542  155.0820 C   0  0  0  0  0  0  0  0  0  0  0  0
  149.9497  140.9907  155.8467 C   0  0  0  0  0  0  0  0  0  0  0  0
  150.3855  141.9606  156.4697 O   0  0  0  0  0  0  0  0  0  0  0  0
  150.5844  139.7852  155.8133 N   0  0  0  0  0  0  0  0  0  0  0  0
  151.8788  139.6462  156.5198 C   0  0  0  0  0  0  0  0  0  0  0  0
  151.8113  140.0171  158.0089 C   0  0  0  0  0  0  0  0  0  0  0  0
  150.9693  139.5112  158.7522 O   0  0  0  0  0  0  0  0  0  0  0  0
  152.7231  140.9091  158.4252 N   0  0  0  0  0  0  0  0  0  0  0  0
  152.8541  141.4408  159.7830 C   0  0  2  0  0  0  0  0  0  0  0  0
  152.7379  142.9865  159.7407 C   0  0  0  0  0  0  0  0  0  0  0  0
  152.1054  143.6263  160.9826 C   0  0  0  0  0  0  0  0  0  0  0  0
  151.6533  145.0207  160.5365 C   0  0  0  0  0  0  0  0  0  0  0  0
  151.4889  144.9531  159.0117 C   0  0  0  0  0  0  0  0  0  0  0  0
  151.8535  143.5220  158.6054 C   0  0  0  0  0  0  0  0  0  0  0  0
  154.1780  140.9266  160.3936 C   0  0  0  0  0  0  0  0  0  0  0  0
  154.1631  139.5941  160.4457 F   0  0  0  0  0  0  0  0  0  0  0  0
  155.2192  141.3130  159.6551 F   0  0  0  0  0  0  0  0  0  0  0  0
  154.3388  141.3786  161.6365 F   0  0  0  0  0  0  0  0  0  0  0  0
  150.1306  136.5472  154.7888 H   0  0  0  0  0  0  0  0  0  0  0  0
  151.0305  137.0863  156.1902 H   0  0  0  0  0  0  0  0  0  0  0  0
  151.6602  137.3824  154.5549 H   0  0  0  0  0  0  0  0  0  0  0  0
  148.4805  137.9372  153.8974 H   0  0  0  0  0  0  0  0  0  0  0  0
  148.1901  142.0013  155.0748 H   0  0  0  0  0  0  0  0  0  0  0  0
  152.2991  138.6466  156.4249 H   0  0  0  0  0  0  0  0  0  0  0  0
  152.6318  140.2782  156.0447 H   0  0  0  0  0  0  0  0  0  0  0  0
  153.3789  141.2590  157.7420 H   0  0  0  0  0  0  0  0  0  0  0  0
  152.0412  141.0616  160.4048 H   0  0  0  0  0  0  0  0  0  0  0  0
  153.7345  143.4127  159.6126 H   0  0  0  0  0  0  0  0  0  0  0  0
  151.2361  143.0468  161.2965 H   0  0  0  0  0  0  0  0  0  0  0  0
  152.7924  143.6776  161.8276 H   0  0  0  0  0  0  0  0  0  0  0  0
  150.7302  145.3183  161.0348 H   0  0  0  0  0  0  0  0  0  0  0  0
  152.4133  145.7602  160.7917 H   0  0  0  0  0  0  0  0  0  0  0  0
  150.4764  145.2089  158.6979 H   0  0  0  0  0  0  0  0  0  0  0  0
  152.1669  145.6632  158.5362 H   0  0  0  0  0  0  0  0  0  0  0  0
  152.3476  143.4855  157.6336 H   0  0  0  0  0  0  0  0  0  0  0  0
  150.9439  142.9236  158.5321 H   0  0  0  0  0  0  0  0  0  0  0  0
  1  2  1  0  0  0  0
  1 24  1  0  0  0  0
  1 25  1  0  0  0  0
  1 26  1  0  0  0  0
  2  9  1  0  0  0  0
  2  3  2  0  0  0  0
  3  4  1  0  0  0  0
  3 27  1  0  0  0  0
  4  5  1  0  0  0  0
  4  6  2  0  0  0  0
  6  7  1  0  0  0  0
  6 28  1  0  0  0  0
  7  8  2  0  0  0  0
  7  9  1  0  0  0  0
  9 10  1  0  0  0  0
 10 11  1  0  0  0  0
 10 29  1  0  0  0  0
 10 30  1  0  0  0  0
 11 12  2  0  0  0  0
 11 13  1  0  0  0  0
 13 14  1  0  0  0  0
 13 31  1  0  0  0  0
 14 15  1  0  0  0  0
 14 20  1  0  0  0  0
 14 32  1  0  0  0  0
 15 19  1  0  0  0  0
 15 16  1  0  0  0  0
 15 33  1  0  0  0  0
 16 17  1  0  0  0  0
 16 34  1  0  0  0  0
 16 35  1  0  0  0  0
 17 18  1  0  0  0  0
 17 36  1  0  0  0  0
 17 37  1  0  0  0  0
 18 19  1  0  0  0  0
 18 38  1  0  0  0  0
 18 39  1  0  0  0  0
 19 40  1  0  0  0  0
 19 41  1  0  0  0  0
 20 21  1  0  0  0  0
 20 22  1  0  0  0  0
 20 23  1  0  0  0  0
M  CHG  1   5  -1
M  END
> <s_m_source_file>
AV-unprocessed.smi

> <i_m_source_file_index>
2695

> <i_lp_mmshare_version>
43012

> <i_f3d_flags>
0

> <s_epik_input>
W0NIM11jMVtjSF1jKFtPSF0pW2NIXWMoPU8pbjFbQ0gyXUMoPU8pW05IXVtDQEBIXShDKEYpKEYpRilbQ0hdMltDSDJdW0NIMl1bQ0gyXVtDSDJdMg==

> <s_epik_cmdline>
J2VwaWtfcHl0aG9uJywgJy1waCcsICc3LjAnLCAnLXRuJywgJzgnLCAnLW1hJywgJzIwMCcsICctbWV0YWxfYmluZGluZycsICctaW1hZScsICc8aW5maWxlLm1hZT4nLCAnLW9tYWUnLCAnPG91dGZpbGUubWFlPic=

> <r_lp_tautomer_probability>
1

> <r_epik_Ionization_Penalty>
0.176977

> <r_epik_Ionization_Penalty_Charging>
0.176977

> <r_epik_Ionization_Penalty_Neutral>
1.44272e-07

> <r_epik_State_Penalty>
0.160849

> <r_epik_Charging_Adjusted_Penalty>
0.337826

> <i_epik_Tot_Q>
-1

> <i_epik_Tot_abs_Q>
1

> <r_epik_Metal_State_Penalty>
0.16085

> <b_epik_Metal_Only>
0

> <s_lp_Force_Field>
OPLS_2005

> <r_lp_Energy>
43.1089

> <b_lp_Chiralities_Consistent>
1

> <s_lp_Variant>
AV-unprocessed.smi:2695-1

> <Gold.Version>
5.8.1

> <Gold.Id.Protein>
6NUR|6NUR_protein|mol2

> <Gold.PLP.Fitness>
52.7744

> <Gold.PLP.PLP>
-54.2043

> <Gold.PLP.part.hbond>
0.0000

> <Gold.PLP.part.metal>
0.0000

> <Gold.PLP.part.buried>
-2.8010

> <Gold.PLP.part.nonpolar>
-51.6902

> <Gold.PLP.part.repulsive>
1.1199

> <Gold.PLP.ligand.clash>
0.0000

> <Gold.PLP.ligand.torsion>
0.8637

> <Gold.PLP.Chemscore.Hbond>
0.0000

> <Gold.PLP.Chemscore.CHOScore>
0.0000

> <Gold.PLP.Chemscore.Metal>
0.0000

> <Gold.PLP.Chemscore.Internal.Correction>
0.2975

> <Gold.Rescore>
     Score         DG    S(hbond)    S(metal)    S(lipo)     H(rot)  DE(clash)    DE(int)     intcor
     11.14     -14.45       0.00        0.00     115.01       1.75       0.51       2.79       ----

> <Gold.Chemscore.Fitness>
11.1431

> <Gold.Chemscore.DG>
-14.4468

> <Gold.Chemscore.ZeroCoef>
-5.4800

> <Gold.Chemscore.Hbond>
0.0000

> <Gold.Chemscore.Metal>
0.0000

> <Gold.Chemscore.Lipo>
115.0141

> <Gold.Chemscore.Internal_Hbond>
0.0000

> <Gold.Chemscore.DEClash>
0.5127

> <Gold.Chemscore.DEInternal>
2.7910

> <Gold.Chemscore.Rot>
1.7539

> <Gold.Chemscore.Internal.Correction>
   9.000000E+99

> <Gold.Chemscore.Hbond.Weighted>
-0.0000

> <Gold.Chemscore.Metal.Weighted>
-0.0000

> <Gold.Chemscore.Lipo.Weighted>
-13.4566

> <Gold.Chemscore.Internal_Hbond.Weighted>
0.0000

> <Gold.Chemscore.DEClash.Weighted>
0.5127

> <Gold.Chemscore.DEInternal.Weighted>
2.7910

> <Gold.Chemscore.Rot.Weighted>
4.4899

> <Gold.Chemscore.Internal.Correction.Weighted>
   9.000000E+99

> <Gold.Protein.RotatedTorsions>
[ 6907 6896 6895 6894 ] final   23.38 input  -60.11 | X-H torsion
[ 7974 7965 7964 7962 ] final  -99.95 input  175.53 | X-H torsion
[ 8008 7997 7996 7995 ] final  125.61 input   59.86 | X-H torsion
[ 10167 10162 10161 10158 ] final   72.28 input  -65.29 | X-H torsion
[ 10718 10713 10712 10709 ] final -110.85 input   66.30 | X-H torsion
[ 10763 10752 10751 10750 ] final   32.53 input  -60.55 | X-H torsion
[ 11005 11000 10999 10996 ] final  -78.78 input  -57.11 | X-H torsion

> <Gold.Protein.ActiveResidues>
 VAL166  LYS551  ARG553  GLY616  TRP617  ASP618  TYR619  PRO620  LYS621  CYS622 
 ASP623  PHE694  ASN695  SER759  ASP760  ASP761  ALA762  ILE779  LEU786  VAL792 
 PHE793  MET794  SER795  GLU796  ALA797  LYS798  CYS799  TRP800  GLU811  SER814 

> <Gold.Protein.RotatedAtoms>
  151.9415  135.0211  160.0535 H   0  0  0  0  0  0  0  0  0  0  0  0  # atno 6907 bound_to 6896
  152.2032  133.4852  159.5078 H   0  0  0  0  0  0  0  0  0  0  0  0  # atno 6908 bound_to 6896
  150.6959  134.1480  159.4172 H   0  0  0  0  0  0  0  0  0  0  0  0  # atno 6909 bound_to 6896
  145.3009  140.9377  143.2824 H   0  0  0  0  0  0  0  0  0  0  0  0  # atno 7974 bound_to 7965
  156.2839  140.2712  156.1977 H   0  0  0  0  0  0  0  0  0  0  0  0  # atno 8008 bound_to 7997
  155.0393  140.0386  157.2521 H   0  0  0  0  0  0  0  0  0  0  0  0  # atno 8009 bound_to 7997
  154.7288  140.2702  155.6480 H   0  0  0  0  0  0  0  0  0  0  0  0  # atno 8010 bound_to 7997
  140.0370  144.5420  150.7463 H   0  0  0  0  0  0  0  0  0  0  0  0  # atno 10167 bound_to 10162
  156.0614  130.5837  150.8294 H   0  0  0  0  0  0  0  0  0  0  0  0  # atno 10718 bound_to 10713
  153.0258  135.6411  154.1369 H   0  0  0  0  0  0  0  0  0  0  0  0  # atno 10763 bound_to 10752
  154.1099  135.2853  155.3234 H   0  0  0  0  0  0  0  0  0  0  0  0  # atno 10764 bound_to 10752
  154.6339  135.5483  153.7774 H   0  0  0  0  0  0  0  0  0  0  0  0  # atno 10765 bound_to 10752
  141.1666  133.7078  156.8024 H   0  0  0  0  0  0  0  0  0  0  0  0  # atno 11005 bound_to 11000
  144.9094  139.4547  143.6594 LP  0  0  0  0  0  0  0  0  0  0  0  0  # atno 17320 bound_to 7965
  146.3152  139.7894  142.8989 LP  0  0  0  0  0  0  0  0  0  0  0  0  # atno 17321 bound_to 7965
  140.7277  143.2654  151.4063 LP  0  0  0  0  0  0  0  0  0  0  0  0  # atno 17342 bound_to 10162
  139.6038  144.1239  152.2227 LP  0  0  0  0  0  0  0  0  0  0  0  0  # atno 17343 bound_to 10162
  157.5625  131.0946  150.9538 LP  0  0  0  0  0  0  0  0  0  0  0  0  # atno 17370 bound_to 10713
  156.9772  130.5513  149.5294 LP  0  0  0  0  0  0  0  0  0  0  0  0  # atno 17371 bound_to 10713
  140.2247  134.8731  157.3414 LP  0  0  0  0  0  0  0  0  0  0  0  0  # atno 17394 bound_to 11000
  140.1952  134.4322  155.7693 LP  0  0  0  0  0  0  0  0  0  0  0  0  # atno 17395 bound_to 11000

$$$$
