#       Name:                AV-unprocessed.smi:1701
#       Creating user name   scv26
#       Creation time:       Fri Mar 27 08:01:44 2020


#       File generated by GOLD software.
#

@<TRIPOS>MOLECULE
AV-unprocessed.smi:1701
    57    59     1
SMALL
NO_CHARGES


@<TRIPOS>ATOM
      1 ****        -6.7586  -2.0548  -0.8532 C.3            1 S1                 0.0000
      2 ****        -6.4198  -1.2205   0.3891 C.3            1 S1                 0.0000
      3 ****        -5.6200  -0.0413   0.0609 N.pl3          1 S1                 0.0000
      4 ****        -6.3002   1.1821  -0.3562 C.3            1 S1                 0.0000
      5 ****        -6.6334   2.0926   0.8325 C.3            1 S1                 0.0000
      6 ****        -4.2074  -0.1082   0.0693 C.ar           1 S1                 0.0000
      7 ****        -3.3731   1.0303  -0.0476 C.ar           1 S1                 0.0000
      8 ****        -1.9720   0.8781  -0.0370 C.ar           1 S1                 0.0000
      9 ****        -1.4009  -0.4051   0.0874 C.ar           1 S1                 0.0000
     10 ****         0.0206  -0.4798   0.0781 N.am           1 S1                 0.0000
     11 ****         0.8567  -1.5453   0.1613 C.2            1 S1                 0.0000
     12 ****         0.3902  -2.6703   0.3211 O.2            1 S1                 0.0000
     13 ****         2.2078  -1.3518   0.0682 N.pl3          1 S1                -1.0000
     14 ****         2.9568  -0.0997  -0.1117 C.3            1 S1                 0.0000
     15 ****         2.9388   0.3764  -1.5773 C.3            1 S1                 0.0000
     16 ****         4.3250   1.0011  -1.8260 C.3            1 S1                 0.0000
     17 ****         5.0682   0.8335  -0.5619 N.4            1 S1                 1.0000
     18 ****         6.5414   0.7299  -0.6502 C.3            1 S1                 0.0000
     19 ****         7.1332   0.6757   0.7732 C.3            1 S1                 0.0000
     20 ****         6.4851  -0.4366   1.6236 C.3            1 S1                 0.0000
     21 ****         4.9473  -0.3267   1.6082 C.3            1 S1                 0.0000
     22 ****         4.4547  -0.3015   0.1465 C.3            1 S1                 0.0000
     23 ****        -2.2758  -1.5117   0.2064 C.ar           1 S1                 0.0000
     24 ****        -3.6126  -1.3197   0.1939 N.pl3          1 S1                 1.0000
     25 ****        -7.3671  -2.9182  -0.5837 H              1 S1                 0.0000
     26 ****        -5.8569  -2.4249  -1.3419 H              1 S1                 0.0000
     27 ****        -7.3190  -1.4701  -1.5829 H              1 S1                 0.0000
     28 ****        -7.3458  -0.8896   0.8606 H              1 S1                 0.0000
     29 ****        -5.9157  -1.8355   1.1349 H              1 S1                 0.0000
     30 ****        -5.7142   1.7186  -1.1022 H              1 S1                 0.0000
     31 ****        -7.2270   0.9080  -0.8609 H              1 S1                 0.0000
     32 ****        -7.1482   2.9926   0.4958 H              1 S1                 0.0000
     33 ****        -5.7326   2.4041   1.3620 H              1 S1                 0.0000
     34 ****        -7.2838   1.5877   1.5472 H              1 S1                 0.0000
     35 ****        -3.7821   2.0249  -0.1378 H              1 S1                 0.0000
     36 ****        -1.3390   1.7490  -0.1257 H              1 S1                 0.0000
     37 ****         0.4876   0.4082  -0.0306 H              1 S1                 0.0000
     38 ****         2.5942   0.7062   0.5292 H              1 S1                 0.0000
     39 ****         2.7923  -0.4586  -2.2650 H              1 S1                 0.0000
     40 ****         2.1318   1.0880  -1.7547 H              1 S1                 0.0000
     41 ****         4.8319   0.4803  -2.6404 H              1 S1                 0.0000
     42 ****         4.2617   2.0574  -2.0899 H              1 S1                 0.0000
     43 ****         6.8171  -0.1626  -1.2140 H              1 S1                 0.0000
     44 ****         6.9377   1.5901  -1.1909 H              1 S1                 0.0000
     45 ****         8.2123   0.5268   0.7235 H              1 S1                 0.0000
     46 ****         6.9776   1.6373   1.2639 H              1 S1                 0.0000
     47 ****         6.7831  -1.4105   1.2332 H              1 S1                 0.0000
     48 ****         6.8541  -0.3891   2.6485 H              1 S1                 0.0000
     49 ****         4.5140  -1.1695   2.1497 H              1 S1                 0.0000
     50 ****         4.6439   0.5775   2.1399 H              1 S1                 0.0000
     51 ****         4.7752  -1.2208  -0.3504 H              1 S1                 0.0000
     52 ****        -1.9798  -2.5437   0.3080 H              1 S1                 0.0000
     53 ****         4.8576   1.6486  -0.0042 H              1 S1                 0.0000
     54 ****        -4.2109  -2.1413   0.2793 H              1 S1                 0.0000
     55 ****        -0.5996  -2.7961   0.3890 LP             1 S1                 0.0000
     56 ****         1.0001  -3.4603   0.3833 LP             1 S1                 0.0000
     57 ****         2.7650  -2.1797   0.1315 LP             1 S1                 0.0000
@<TRIPOS>BOND
    1    1    2 1     
    2    1   25 1     
    3    1   26 1     
    4    1   27 1     
    5    2    3 1     
    6    2   28 1     
    7    2   29 1     
    8    3    4 1     
    9    3    6 1     
   10    4    5 1     
   11    4   30 1     
   12    4   31 1     
   13    5   32 1     
   14    5   33 1     
   15    5   34 1     
   16    6   24 ar    
   17    6    7 ar    
   18    7    8 ar    
   19    7   35 1     
   20    8    9 ar    
   21    8   36 1     
   22    9   10 1     
   23    9   23 ar    
   24   10   11 am    
   25   10   37 1     
   26   11   12 2     
   27   11   13 1     
   28   13   14 1     
   29   14   22 1     
   30   14   15 1     
   31   14   38 1     
   32   15   16 1     
   33   15   39 1     
   34   15   40 1     
   35   16   17 1     
   36   16   41 1     
   37   16   42 1     
   38   17   22 1     
   39   17   18 1     
   40   17   53 1     
   41   18   19 1     
   42   18   43 1     
   43   18   44 1     
   44   19   20 1     
   45   19   45 1     
   46   19   46 1     
   47   20   21 1     
   48   20   47 1     
   49   20   48 1     
   50   21   22 1     
   51   21   49 1     
   52   21   50 1     
   53   22   51 1     
   54   23   24 ar    
   55   23   52 1     
   56   24   54 1     
   57   12   55 1     
   58   12   56 1     
   59   13   57 1     
@<TRIPOS>SUBSTRUCTURE
      1 S1             1
@<TRIPOS>SET
LONE_PAIRS      STATIC     ATOMS    <user>   **** ""
3 55 56 57
DONOR_HYDROGENS      STATIC     ATOMS    <user>   **** ""
3 37 53 54
ATOM$BLUE        STATIC     ATOMS    COLORGROUP SYSTEM
3 55 56 57
ATOM$RED        STATIC     ATOMS    COLORGROUP SYSTEM
3 37 53 54
