AV-unprocessed.smi:1033|AV-procd|sdf|4509|dock3
  -GOLD-   22720 2513D 1   1.00000     0.00000
 Structure written by MMmdl.
 57 59  0  0  0  0  0  0  0  0  3 V2000
  152.9818  142.3697  160.5524 C   0  0  0  0  0  0  0  0  0  0  0  0
  152.2113  142.0352  159.2872 C   0  0  0  0  0  0  0  0  0  0  0  0
  152.4447  140.7968  158.6479 C   0  0  0  0  0  0  0  0  0  0  0  0
  151.7486  140.4473  157.4701 C   0  0  0  0  0  0  0  0  0  0  0  0
  151.8155  139.3048  156.6913 N   0  0  0  0  0  0  0  0  0  0  0  0
  150.9282  139.5764  155.7390 C   0  0  0  0  0  0  0  0  0  0  0  0
  150.2888  140.7597  155.8108 N   0  0  0  0  0  0  0  0  0  0  0  0
  149.2826  141.2664  154.8941 C   0  0  0  0  0  0  0  0  0  0  0  0
  148.1052  140.2890  154.7109 C   0  0  1  0  0  0  0  0  0  0  0  0
  147.4299  140.1290  155.9443 O   0  0  0  0  0  0  0  0  0  0  0  0
  147.0963  140.8017  153.6639 C   0  0  0  0  0  0  0  0  0  0  0  0
  146.4383  139.6993  152.9151 N   0  3  2  0  0  0  0  0  0  0  0  0
  146.3078  138.4416  153.6936 C   0  0  0  0  0  0  0  0  0  0  0  0
  145.5294  137.3770  152.8990 C   0  0  0  0  0  0  0  0  0  0  0  0
  146.1571  137.1228  151.5762 N   0  3  1  0  0  0  0  0  0  0  0  0
  145.4776  136.0587  150.7925 C   0  0  0  0  0  0  0  0  0  0  0  0
  145.6415  134.6594  151.4180 C   0  0  1  0  0  0  0  0  0  0  0  0
  144.9761  133.5713  150.5657 C   0  0  0  0  0  0  0  0  0  0  0  0
  147.0188  134.3603  151.5181 O   0  0  0  0  0  0  0  0  0  0  0  0
  146.3017  138.3818  150.8039 C   0  0  0  0  0  0  0  0  0  0  0  0
  147.0792  139.4430  151.6023 C   0  0  0  0  0  0  0  0  0  0  0  0
  150.8047  141.3781  156.9452 C   0  0  0  0  0  0  0  0  0  0  0  0
  150.5647  142.6138  157.5717 C   0  0  0  0  0  0  0  0  0  0  0  0
  151.2692  142.9473  158.7474 C   0  0  0  0  0  0  0  0  0  0  0  0
  151.0024  144.2842  159.4165 C   0  0  0  0  0  0  0  0  0  0  0  0
  153.6199  141.5413  160.8615 H   0  0  0  0  0  0  0  0  0  0  0  0
  152.2970  142.5866  161.3725 H   0  0  0  0  0  0  0  0  0  0  0  0
  153.6177  143.2404  160.3916 H   0  0  0  0  0  0  0  0  0  0  0  0
  153.1625  140.1019  159.0587 H   0  0  0  0  0  0  0  0  0  0  0  0
  150.7286  138.8721  154.9445 H   0  0  0  0  0  0  0  0  0  0  0  0
  148.9296  142.2304  155.2633 H   0  0  0  0  0  0  0  0  0  0  0  0
  149.7631  141.4597  153.9340 H   0  0  0  0  0  0  0  0  0  0  0  0
  148.5042  139.3198  154.4127 H   0  0  0  0  0  0  0  0  0  0  0  0
  147.3137  139.2040  156.1058 H   0  0  0  0  0  0  0  0  0  0  0  0
  146.3389  141.3928  154.1815 H   0  0  0  0  0  0  0  0  0  0  0  0
  147.5819  141.4801  152.9608 H   0  0  0  0  0  0  0  0  0  0  0  0
  147.3001  138.0654  153.9479 H   0  0  0  0  0  0  0  0  0  0  0  0
  145.7917  138.6282  154.6347 H   0  0  0  0  0  0  0  0  0  0  0  0
  145.4895  136.4587  153.4838 H   0  0  0  0  0  0  0  0  0  0  0  0
  144.4981  137.7038  152.7549 H   0  0  0  0  0  0  0  0  0  0  0  0
  144.4210  136.3090  150.6853 H   0  0  0  0  0  0  0  0  0  0  0  0
  145.8857  136.0317  149.7805 H   0  0  0  0  0  0  0  0  0  0  0  0
  145.2078  134.6256  152.4169 H   0  0  0  0  0  0  0  0  0  0  0  0
  143.9043  133.7488  150.4729 H   0  0  0  0  0  0  0  0  0  0  0  0
  145.1073  132.5850  151.0121 H   0  0  0  0  0  0  0  0  0  0  0  0
  145.3954  133.5395  149.5594 H   0  0  0  0  0  0  0  0  0  0  0  0
  147.4921  135.1643  151.6742 H   0  0  0  0  0  0  0  0  0  0  0  0
  146.8253  138.1818  149.8682 H   0  0  0  0  0  0  0  0  0  0  0  0
  145.3132  138.7618  150.5397 H   0  0  0  0  0  0  0  0  0  0  0  0
  147.1201  140.3673  151.0243 H   0  0  0  0  0  0  0  0  0  0  0  0
  148.1098  139.1185  151.7570 H   0  0  0  0  0  0  0  0  0  0  0  0
  149.8428  143.2987  157.1521 H   0  0  0  0  0  0  0  0  0  0  0  0
  150.2844  144.8771  158.8494 H   0  0  0  0  0  0  0  0  0  0  0  0
  151.9228  144.8627  159.4974 H   0  0  0  0  0  0  0  0  0  0  0  0
  150.5973  144.1354  160.4175 H   0  0  0  0  0  0  0  0  0  0  0  0
  147.0945  136.7859  151.7482 H   0  0  0  0  0  0  0  0  0  0  0  0
  145.5025  140.0242  152.7141 H   0  0  0  0  0  0  0  0  0  0  0  0
  1  2  1  0  0  0  0
  1 26  1  0  0  0  0
  1 27  1  0  0  0  0
  1 28  1  0  0  0  0
  2 24  1  0  0  0  0
  2  3  2  0  0  0  0
  3  4  1  0  0  0  0
  3 29  1  0  0  0  0
  4 22  2  0  0  0  0
  4  5  1  0  0  0  0
  5  6  2  0  0  0  0
  6  7  1  0  0  0  0
  6 30  1  0  0  0  0
  7  8  1  0  0  0  0
  7 22  1  0  0  0  0
  8  9  1  0  0  0  0
  8 31  1  0  0  0  0
  8 32  1  0  0  0  0
  9 10  1  0  0  0  0
  9 11  1  0  0  0  0
  9 33  1  0  0  0  0
 10 34  1  0  0  0  0
 11 12  1  0  0  0  0
 11 35  1  0  0  0  0
 11 36  1  0  0  0  0
 12 21  1  0  0  0  0
 12 13  1  0  0  0  0
 12 57  1  0  0  0  0
 13 14  1  0  0  0  0
 13 37  1  0  0  0  0
 13 38  1  0  0  0  0
 14 15  1  0  0  0  0
 14 39  1  0  0  0  0
 14 40  1  0  0  0  0
 15 16  1  0  0  0  0
 15 20  1  0  0  0  0
 15 56  1  0  0  0  0
 16 17  1  0  0  0  0
 16 41  1  0  0  0  0
 16 42  1  0  0  0  0
 17 18  1  0  0  0  0
 17 19  1  0  0  0  0
 17 43  1  0  0  0  0
 18 44  1  0  0  0  0
 18 45  1  0  0  0  0
 18 46  1  0  0  0  0
 19 47  1  0  0  0  0
 20 21  1  0  0  0  0
 20 48  1  0  0  0  0
 20 49  1  0  0  0  0
 21 50  1  0  0  0  0
 21 51  1  0  0  0  0
 22 23  1  0  0  0  0
 23 24  2  0  0  0  0
 23 52  1  0  0  0  0
 24 25  1  0  0  0  0
 25 53  1  0  0  0  0
 25 54  1  0  0  0  0
 25 55  1  0  0  0  0
M  CHG  1  12   1
M  CHG  1  15   1
M  END
> <s_m_source_file>
AV-unprocessed.smi

> <i_m_source_file_index>
1033

> <i_lp_mmshare_version>
43012

> <i_f3d_flags>
0

> <s_epik_input>
W0NIM11jKFtjSF0xKWMoW0NIM10pW2NIXWMoYzEyKW4oW2NIXW4yKVtDSDJdW0NASF0oW09IXSlbQ0gyXU4zW0NIMl1bQ0gyXU4oW0NIMl1bQ0gyXTMpW0NIMl1bQ0BIXShbQ0gzXSlbT0hd

> <s_epik_cmdline>
J2VwaWtfcHl0aG9uJywgJy1waCcsICc3LjAnLCAnLXRuJywgJzgnLCAnLW1hJywgJzIwMCcsICctbWV0YWxfYmluZGluZycsICctaW1hZScsICc8aW5maWxlLm1hZT4nLCAnLW9tYWUnLCAnPG91dGZpbGUubWFlPic=

> <r_epik_Ionization_Penalty>
3.16016

> <r_epik_Ionization_Penalty_Charging>
3.07679

> <r_epik_Ionization_Penalty_Neutral>
0.083365

> <r_epik_State_Penalty>
2.09701

> <r_epik_Charging_Adjusted_Penalty>
5.1738

> <i_epik_Tot_Q>
2

> <i_epik_Tot_abs_Q>
2

> <r_epik_Metal_State_Penalty>
2.02534

> <b_epik_Metal_Only>
0

> <s_lp_Force_Field>
OPLS_2005

> <r_lp_Energy>
27.8385

> <b_lp_Chiralities_Consistent>
1

> <s_lp_Variant>
AV-unprocessed.smi:1033-20

> <Gold.Version>
5.8.1

> <Gold.Id.Protein>
6NUR|6NUR_protein|mol2

> <Gold.PLP.Fitness>
61.6309

> <Gold.PLP.PLP>
-48.2469

> <Gold.PLP.part.hbond>
-3.0868

> <Gold.PLP.part.metal>
0.0000

> <Gold.PLP.part.buried>
2.7846

> <Gold.PLP.part.nonpolar>
-48.4462

> <Gold.PLP.part.repulsive>
0.0647

> <Gold.PLP.ligand.clash>
0.0000

> <Gold.PLP.ligand.torsion>
0.9766

> <Gold.PLP.Chemscore.Hbond>
5.0000

> <Gold.PLP.Chemscore.CHOScore>
0.0000

> <Gold.PLP.Chemscore.Metal>
0.0000

> <Gold.Chemscore.Hbonds>
donor molecule, donor type, donor heavy atom, donor atom, acceptor molecule, acceptor atom, score
      L1  H    12    57       P1 10175  2.00
      L1  H    15    56       P1  7948  2.00
      L1  H    19    47       P1  7948  1.00

> <Gold.PLP.Chemscore.Internal.Correction>
0.3373

> <Gold.Rescore>
     Score         DG    S(hbond)    S(metal)    S(lipo)     H(rot)  DE(clash)    DE(int)     intcor
     20.18     -24.28       2.92        0.00     146.03       3.14       3.03       1.07       ----

> <Gold.Chemscore.Fitness>
20.1831

> <Gold.Chemscore.DG>
-24.2774

> <Gold.Chemscore.ZeroCoef>
-5.4800

> <Gold.Chemscore.Hbond>
2.9177

> <Gold.Chemscore.Metal>
0.0000

> <Gold.Chemscore.Lipo>
146.0299

> <Gold.Chemscore.Internal_Hbond>
0.0000

> <Gold.Chemscore.DEClash>
3.0260

> <Gold.Chemscore.DEInternal>
1.0683

> <Gold.Chemscore.Rot>
3.1380

> <Gold.Chemscore.Internal.Correction>
   9.000000E+99

> <Gold.Chemscore.Hbonds>
donor molecule, donor type, donor heavy atom, donor atom, acceptor molecule, acceptor atom, score
      L1  H    12    57       P1 10175  0.98
      L1  H    15    56       P1  7948  1.00
      L1  H    19    47       P1  7948  0.84

> <Gold.Chemscore.Hbond.Weighted>
-9.7451

> <Gold.Chemscore.Metal.Weighted>
-0.0000

> <Gold.Chemscore.Lipo.Weighted>
-17.0855

> <Gold.Chemscore.Internal_Hbond.Weighted>
0.0000

> <Gold.Chemscore.DEClash.Weighted>
3.0260

> <Gold.Chemscore.DEInternal.Weighted>
1.0683

> <Gold.Chemscore.Rot.Weighted>
8.0332

> <Gold.Chemscore.Internal.Correction.Weighted>
   9.000000E+99

> <Gold.Protein.RotatedTorsions>
[ 6907 6896 6895 6894 ] final  154.95 input  -60.11 | X-H torsion
[ 7974 7965 7964 7962 ] final   63.86 input  175.53 | X-H torsion
[ 8008 7997 7996 7995 ] final  146.43 input   59.86 | X-H torsion
[ 10167 10162 10161 10158 ] final  148.45 input  -65.29 | X-H torsion
[ 10718 10713 10712 10709 ] final -177.56 input   66.30 | X-H torsion
[ 10763 10752 10751 10750 ] final  -39.89 input  -60.55 | X-H torsion
[ 11005 11000 10999 10996 ] final  167.18 input  -57.11 | X-H torsion

> <Gold.Protein.ActiveResidues>
 VAL166  LYS551  ARG553  GLY616  TRP617  ASP618  TYR619  PRO620  LYS621  CYS622 
 ASP623  PHE694  ASN695  SER759  ASP760  ASP761  ALA762  ILE779  LEU786  VAL792 
 PHE793  MET794  SER795  GLU796  ALA797  LYS798  CYS799  TRP800  GLU811  SER814 

> <Gold.Protein.RotatedAtoms>
  152.0511  133.4019  159.4377 H   0  0  0  0  0  0  0  0  0  0  0  0  # atno 6907 bound_to 6896
  150.6870  134.3307  159.4835 H   0  0  0  0  0  0  0  0  0  0  0  0  # atno 6908 bound_to 6896
  152.1117  134.9269  160.0617 H   0  0  0  0  0  0  0  0  0  0  0  0  # atno 6909 bound_to 6896
  145.8569  139.3290  143.0842 H   0  0  0  0  0  0  0  0  0  0  0  0  # atno 7974 bound_to 7965
  156.2855  140.2182  156.5375 H   0  0  0  0  0  0  0  0  0  0  0  0  # atno 8008 bound_to 7997
  154.7397  140.0488  157.0822 H   0  0  0  0  0  0  0  0  0  0  0  0  # atno 8009 bound_to 7997
  155.0246  140.3128  155.4784 H   0  0  0  0  0  0  0  0  0  0  0  0  # atno 8010 bound_to 7997
  139.4875  144.5679  151.7111 H   0  0  0  0  0  0  0  0  0  0  0  0  # atno 10167 bound_to 10162
  156.8314  130.9654  151.3106 H   0  0  0  0  0  0  0  0  0  0  0  0  # atno 10718 bound_to 10713
  153.9368  135.6766  153.4745 H   0  0  0  0  0  0  0  0  0  0  0  0  # atno 10763 bound_to 10752
  153.0951  135.4855  154.8761 H   0  0  0  0  0  0  0  0  0  0  0  0  # atno 10764 bound_to 10752
  154.7398  135.3158  154.8705 H   0  0  0  0  0  0  0  0  0  0  0  0  # atno 10765 bound_to 10752
  140.2741  134.7803  157.3701 H   0  0  0  0  0  0  0  0  0  0  0  0  # atno 11005 bound_to 11000
  145.9293  140.9060  143.0365 LP  0  0  0  0  0  0  0  0  0  0  0  0  # atno 17320 bound_to 7965
  144.6727  140.1396  143.7438 LP  0  0  0  0  0  0  0  0  0  0  0  0  # atno 17321 bound_to 7965
  140.5260  144.0805  150.6038 LP  0  0  0  0  0  0  0  0  0  0  0  0  # atno 17342 bound_to 10162
  140.3779  143.2819  152.0204 LP  0  0  0  0  0  0  0  0  0  0  0  0  # atno 17343 bound_to 10162
  157.6405  130.8801  149.9439 LP  0  0  0  0  0  0  0  0  0  0  0  0  # atno 17370 bound_to 10713
  156.0932  130.3661  150.0355 LP  0  0  0  0  0  0  0  0  0  0  0  0  # atno 17371 bound_to 10713
  140.1345  134.5052  155.8079 LP  0  0  0  0  0  0  0  0  0  0  0  0  # atno 17394 bound_to 11000
  141.2173  133.6802  156.7099 LP  0  0  0  0  0  0  0  0  0  0  0  0  # atno 17395 bound_to 11000

$$$$
