AV-unprocessed.smi:3348|AV-procd|sdf|12927|dock5
  -GOLD-   2272019353D 1   1.00000     0.00000
 Structure written by MMmdl.
 46 47  0  0  0  0  0  0  0  0  1 V2000
  146.1458  134.2565  153.6119 C   0  0  0  0  0  0  0  0  0  0  0  0
  145.5232  135.5768  153.1263 C   0  0  2  0  0  0  0  0  0  0  0  0
  145.2512  135.5804  151.6018 C   0  0  0  0  0  0  0  0  0  0  0  0
  144.9129  134.2683  151.0796 N   0  0  0  0  0  0  0  0  0  0  0  0
  143.6926  133.8131  150.6254 C   0  0  0  0  0  0  0  0  0  0  0  0
  143.8604  132.5124  150.2450 C   0  0  0  0  0  0  0  0  0  0  0  0
  145.2344  132.2565  150.5131 C   0  0  0  0  0  0  0  0  0  0  0  0
  145.8606  133.3077  151.0165 N   0  0  0  0  0  0  0  0  0  0  0  0
  146.3873  136.6904  153.5299 N   0  0  0  0  0  0  0  0  0  0  0  0
  146.6993  136.7614  154.9573 C   0  0  0  0  0  0  0  0  0  0  0  0
  148.1157  137.3000  155.1832 C   0  0  0  0  0  0  0  0  0  0  0  0
  148.0925  138.7130  155.0464 O   0  0  0  0  0  0  0  0  0  0  0  0
  149.0697  139.2405  154.1556 C   0  0  2  0  0  0  0  0  0  0  0  0
  150.4543  138.6257  154.4523 C   0  0  0  0  0  0  0  0  0  0  0  0
  150.9670  139.0236  155.8464 C   0  0  0  0  0  0  0  0  0  0  0  0
  150.9946  140.5504  156.0146 C   0  0  0  0  0  0  0  0  0  0  0  0
  149.6187  141.1705  155.7231 C   0  0  0  0  0  0  0  0  0  0  0  0
  149.1061  140.7761  154.3232 C   0  0  2  0  0  0  0  0  0  0  0  0
  147.7480  141.4223  154.0077 C   0  0  0  0  0  0  0  0  0  0  0  0
  145.4831  133.4093  153.4349 H   0  0  0  0  0  0  0  0  0  0  0  0
  146.3449  134.2873  154.6837 H   0  0  0  0  0  0  0  0  0  0  0  0
  147.0894  134.0537  153.1039 H   0  0  0  0  0  0  0  0  0  0  0  0
  144.5656  135.6820  153.6379 H   0  0  0  0  0  0  0  0  0  0  0  0
  144.4297  136.2516  151.3508 H   0  0  0  0  0  0  0  0  0  0  0  0
  146.1282  135.9457  151.0658 H   0  0  0  0  0  0  0  0  0  0  0  0
  142.8174  134.4459  150.6092 H   0  0  0  0  0  0  0  0  0  0  0  0
  143.1153  131.8448  149.8384 H   0  0  0  0  0  0  0  0  0  0  0  0
  145.7913  131.3439  150.3595 H   0  0  0  0  0  0  0  0  0  0  0  0
  147.2501  136.6612  152.9961 H   0  0  0  0  0  0  0  0  0  0  0  0
  145.9834  137.3868  155.4903 H   0  0  0  0  0  0  0  0  0  0  0  0
  146.6318  135.7633  155.3913 H   0  0  0  0  0  0  0  0  0  0  0  0
  148.4443  137.0286  156.1863 H   0  0  0  0  0  0  0  0  0  0  0  0
  148.8167  136.8505  154.4779 H   0  0  0  0  0  0  0  0  0  0  0  0
  148.7878  139.0172  153.1247 H   0  0  0  0  0  0  0  0  0  0  0  0
  150.4262  137.5402  154.3628 H   0  0  0  0  0  0  0  0  0  0  0  0
  151.1657  138.9685  153.6999 H   0  0  0  0  0  0  0  0  0  0  0  0
  150.3271  138.5822  156.6117 H   0  0  0  0  0  0  0  0  0  0  0  0
  151.9653  138.6145  156.0052 H   0  0  0  0  0  0  0  0  0  0  0  0
  151.3116  140.8074  157.0258 H   0  0  0  0  0  0  0  0  0  0  0  0
  151.7377  140.9781  155.3402 H   0  0  0  0  0  0  0  0  0  0  0  0
  148.9051  140.8496  156.4834 H   0  0  0  0  0  0  0  0  0  0  0  0
  149.6851  142.2559  155.8036 H   0  0  0  0  0  0  0  0  0  0  0  0
  149.8182  141.1661  153.5943 H   0  0  0  0  0  0  0  0  0  0  0  0
  146.9787  141.0980  154.7092 H   0  0  0  0  0  0  0  0  0  0  0  0
  147.4134  141.1614  153.0033 H   0  0  0  0  0  0  0  0  0  0  0  0
  147.8093  142.5093  154.0624 H   0  0  0  0  0  0  0  0  0  0  0  0
  1  2  1  0  0  0  0
  1 20  1  0  0  0  0
  1 21  1  0  0  0  0
  1 22  1  0  0  0  0
  2  3  1  0  0  0  0
  2  9  1  0  0  0  0
  2 23  1  0  0  0  0
  3  4  1  0  0  0  0
  3 24  1  0  0  0  0
  3 25  1  0  0  0  0
  4  8  1  0  0  0  0
  4  5  1  0  0  0  0
  5  6  2  0  0  0  0
  5 26  1  0  0  0  0
  6  7  1  0  0  0  0
  6 27  1  0  0  0  0
  7  8  2  0  0  0  0
  7 28  1  0  0  0  0
  9 10  1  0  0  0  0
  9 29  1  0  0  0  0
 10 11  1  0  0  0  0
 10 30  1  0  0  0  0
 10 31  1  0  0  0  0
 11 12  1  0  0  0  0
 11 32  1  0  0  0  0
 11 33  1  0  0  0  0
 12 13  1  0  0  0  0
 13 18  1  0  0  0  0
 13 14  1  0  0  0  0
 13 34  1  0  0  0  0
 14 15  1  0  0  0  0
 14 35  1  0  0  0  0
 14 36  1  0  0  0  0
 15 16  1  0  0  0  0
 15 37  1  0  0  0  0
 15 38  1  0  0  0  0
 16 17  1  0  0  0  0
 16 39  1  0  0  0  0
 16 40  1  0  0  0  0
 17 18  1  0  0  0  0
 17 41  1  0  0  0  0
 17 42  1  0  0  0  0
 18 19  1  0  0  0  0
 18 43  1  0  0  0  0
 19 44  1  0  0  0  0
 19 45  1  0  0  0  0
 19 46  1  0  0  0  0
M  END
> <s_m_source_file>
AV-unprocessed.smi

> <i_m_source_file_index>
3348

> <i_lp_mmshare_version>
43012

> <i_f3d_flags>
0

> <s_epik_input>
bjFbY0hdW2NIXVtjSF1uMVtDSDJdW0NAQEhdKFtDSDNdKVtOSF1bQ0gyXVtDSDJdT1tDQEBIXTJbQ0gyXVtDSDJdW0NIMl1bQ0gyXVtDQEhdMltDSDNd

> <s_epik_cmdline>
J2VwaWtfcHl0aG9uJywgJy1waCcsICc3LjAnLCAnLXRuJywgJzgnLCAnLW1hJywgJzIwMCcsICctbWV0YWxfYmluZGluZycsICctaW1hZScsICc8aW5maWxlLm1hZT4nLCAnLW9tYWUnLCAnPG91dGZpbGUubWFlPic=

> <r_lp_tautomer_probability>
1

> <r_epik_Ionization_Penalty>
2.46945

> <r_epik_Ionization_Penalty_Charging>
0

> <r_epik_Ionization_Penalty_Neutral>
2.46945

> <r_epik_State_Penalty>
2.6322

> <r_epik_Charging_Adjusted_Penalty>
2.6322

> <i_epik_Tot_Q>
0

> <i_epik_Tot_abs_Q>
0

> <r_epik_Metal_State_Penalty>
2.63217

> <b_epik_Metal_Only>
0

> <s_lp_Force_Field>
OPLS_2005

> <r_lp_Energy>
16.5117

> <b_lp_Chiralities_Consistent>
1

> <s_lp_Variant>
AV-unprocessed.smi:3348-13

> <Gold.Version>
5.8.1

> <Gold.Id.Protein>
6NUR|6NUR_protein|mol2

> <Gold.PLP.Fitness>
42.7056

> <Gold.PLP.PLP>
-35.8104

> <Gold.PLP.part.hbond>
-1.0000

> <Gold.PLP.part.metal>
0.0000

> <Gold.PLP.part.buried>
-3.3679

> <Gold.PLP.part.nonpolar>
-32.7900

> <Gold.PLP.part.repulsive>
0.3084

> <Gold.PLP.ligand.clash>
0.0000

> <Gold.PLP.ligand.torsion>
1.1512

> <Gold.PLP.Chemscore.Hbond>
1.0000

> <Gold.PLP.Chemscore.CHOScore>
2.0000

> <Gold.PLP.Chemscore.Metal>
0.0000

> <Gold.Chemscore.Hbonds>
donor molecule, donor type, donor heavy atom, donor atom, acceptor molecule, acceptor atom, score
      L1  H     9    29       P1  7948  0.86
      L1  C     5    26       P1 10186  1.00

> <Gold.PLP.Chemscore.Internal.Correction>
0.1976

> <Gold.Rescore>
     Score         DG    S(hbond)    S(metal)    S(lipo)     H(rot)  DE(clash)    DE(int)     intcor
     12.50     -14.79       0.99        0.00      89.01       1.72       0.07       2.22       ----

> <Gold.Chemscore.Fitness>
12.4993

> <Gold.Chemscore.DG>
-14.7925

> <Gold.Chemscore.ZeroCoef>
-5.4800

> <Gold.Chemscore.Hbond>
0.9915

> <Gold.Chemscore.Metal>
0.0000

> <Gold.Chemscore.Lipo>
89.0054

> <Gold.Chemscore.Internal_Hbond>
0.0000

> <Gold.Chemscore.DEClash>
0.0727

> <Gold.Chemscore.DEInternal>
2.2206

> <Gold.Chemscore.Rot>
1.7237

> <Gold.Chemscore.Internal.Correction>
   9.000000E+99

> <Gold.Chemscore.Hbonds>
donor molecule, donor type, donor heavy atom, donor atom, acceptor molecule, acceptor atom, score
      L1  H     9    29       P1  7948  0.84

> <Gold.Chemscore.Hbond.Weighted>
-3.3115

> <Gold.Chemscore.Metal.Weighted>
-0.0000

> <Gold.Chemscore.Lipo.Weighted>
-10.4136

> <Gold.Chemscore.Internal_Hbond.Weighted>
0.0000

> <Gold.Chemscore.DEClash.Weighted>
0.0727

> <Gold.Chemscore.DEInternal.Weighted>
2.2206

> <Gold.Chemscore.Rot.Weighted>
4.4126

> <Gold.Chemscore.Internal.Correction.Weighted>
   9.000000E+99

> <Gold.Protein.RotatedTorsions>
[ 6907 6896 6895 6894 ] final -154.97 input  -60.11 | X-H torsion
[ 7974 7965 7964 7962 ] final  -51.87 input  175.53 | X-H torsion
[ 8008 7997 7996 7995 ] final  -96.86 input   59.86 | X-H torsion
[ 10167 10162 10161 10158 ] final -158.58 input  -65.29 | X-H torsion
[ 10718 10713 10712 10709 ] final  109.84 input   66.30 | X-H torsion
[ 10763 10752 10751 10750 ] final  152.77 input  -60.55 | X-H torsion
[ 11005 11000 10999 10996 ] final -110.95 input  -57.11 | X-H torsion

> <Gold.Protein.ActiveResidues>
 VAL166  LYS551  ARG553  GLY616  TRP617  ASP618  TYR619  PRO620  LYS621  CYS622 
 ASP623  PHE694  ASN695  SER759  ASP760  ASP761  ALA762  ILE779  LEU786  VAL792 
 PHE793  MET794  SER795  GLU796  ALA797  LYS798  CYS799  TRP800  GLU811  SER814 

> <Gold.Protein.RotatedAtoms>
  151.2654  133.4281  159.2618 H   0  0  0  0  0  0  0  0  0  0  0  0  # atno 6907 bound_to 6896
  151.0493  134.9662  159.8213 H   0  0  0  0  0  0  0  0  0  0  0  0  # atno 6908 bound_to 6896
  152.5379  134.2609  159.8987 H   0  0  0  0  0  0  0  0  0  0  0  0  # atno 6909 bound_to 6896
  145.9142  140.7889  142.9680 H   0  0  0  0  0  0  0  0  0  0  0  0  # atno 7974 bound_to 7965
  154.7800  140.0468  157.1119 H   0  0  0  0  0  0  0  0  0  0  0  0  # atno 8008 bound_to 7997
  154.9716  140.3090  155.4966 H   0  0  0  0  0  0  0  0  0  0  0  0  # atno 8009 bound_to 7997
  156.2935  140.2252  156.4809 H   0  0  0  0  0  0  0  0  0  0  0  0  # atno 8010 bound_to 7997
  139.6681  143.9794  152.2267 H   0  0  0  0  0  0  0  0  0  0  0  0  # atno 10167 bound_to 10162
  157.6522  131.0921  150.6513 H   0  0  0  0  0  0  0  0  0  0  0  0  # atno 10718 bound_to 10713
  154.1254  135.2830  155.3198 H   0  0  0  0  0  0  0  0  0  0  0  0  # atno 10763 bound_to 10752
  154.6393  135.5408  153.7774 H   0  0  0  0  0  0  0  0  0  0  0  0  # atno 10764 bound_to 10752
  153.0299  135.6482  154.1406 H   0  0  0  0  0  0  0  0  0  0  0  0  # atno 10765 bound_to 10752
  141.0762  133.9296  157.2384 H   0  0  0  0  0  0  0  0  0  0  0  0  # atno 11005 bound_to 11000
  144.6746  140.1873  143.7400 LP  0  0  0  0  0  0  0  0  0  0  0  0  # atno 17320 bound_to 7965
  145.8633  139.2234  143.1704 LP  0  0  0  0  0  0  0  0  0  0  0  0  # atno 17321 bound_to 7965
  139.9551  144.6595  150.8134 LP  0  0  0  0  0  0  0  0  0  0  0  0  # atno 17342 bound_to 10162
  140.7607  143.3158  151.2738 LP  0  0  0  0  0  0  0  0  0  0  0  0  # atno 17343 bound_to 10162
  156.6824  130.4571  149.5624 LP  0  0  0  0  0  0  0  0  0  0  0  0  # atno 17370 bound_to 10713
  156.1920  130.6566  151.1072 LP  0  0  0  0  0  0  0  0  0  0  0  0  # atno 17371 bound_to 10713
  139.9575  135.0162  156.9168 LP  0  0  0  0  0  0  0  0  0  0  0  0  # atno 17394 bound_to 11000
  140.5567  134.0574  155.7386 LP  0  0  0  0  0  0  0  0  0  0  0  0  # atno 17395 bound_to 11000

$$$$
