#       Name:                AV-unprocessed.smi:1845
#       Creating user name   scv26
#       Creation time:       Fri Mar 27 09:21:57 2020


#       File generated by GOLD software.
#

@<TRIPOS>MOLECULE
AV-unprocessed.smi:1845
    52    53     1
SMALL
NO_CHARGES


@<TRIPOS>ATOM
      1 ****        -1.6333   0.6579   2.3363 C.3            1 S1                 0.0000
      2 ****        -1.3685   1.0474   4.1155 S.o2           1 S1                 0.0000
      3 ****        -1.7902   2.4367   4.3485 O.2            1 S1                 0.0000
      4 ****        -1.9247  -0.0446   4.9289 O.2            1 S1                 0.0000
      5 ****         0.3482   0.9998   4.2744 N.3            1 S1                 0.0000
      6 ****         1.0618  -0.2794   4.2157 C.3            1 S1                 0.0000
      7 ****         2.5679  -0.0908   3.9453 C.3            1 S1                 0.0000
      8 ****         2.8535   0.5863   2.6014 C.2            1 S1                 0.0000
      9 ****         2.7084   1.8027   2.4793 O.2            1 S1                 0.0000
     10 ****         3.2442  -0.2173   1.5998 N.am           1 S1                 0.0000
     11 ****         3.4497   0.1921   0.2141 C.3            1 S1                 0.0000
     12 ****         2.2053  -0.0004  -0.6368 C.ar           1 S1                 0.0000
     13 ****         2.2010  -0.8944  -1.7254 C.ar           1 S1                 0.0000
     14 ****         1.0164  -1.0587  -2.4691 C.ar           1 S1                 0.0000
     15 ****        -0.1363  -0.3226  -2.1045 C.ar           1 S1                 0.0000
     16 ****        -1.3401  -0.4833  -2.8234 N.3            1 S1                 0.0000
     17 ****        -1.2430  -0.3055  -4.2699 C.3            1 S1                 0.0000
     18 ****        -2.5267  -0.8030  -4.9569 C.3            1 S1                 0.0000
     19 ****        -3.6606  -0.1531  -4.3919 O.3            1 S1                 0.0000
     20 ****        -3.7960  -0.4377  -3.0039 C.3            1 S1                 0.0000
     21 ****        -2.5607   0.0803  -2.2490 C.3            1 S1                 0.0000
     22 ****        -0.1249   0.5412  -1.0598 N.ar           1 S1                 0.0000
     23 ****         1.0141   0.6994  -0.3553 C.ar           1 S1                 0.0000
     24 ****        -2.7013   0.6731   2.1196 H              1 S1                 0.0000
     25 ****        -1.2354  -0.3291   2.1039 H              1 S1                 0.0000
     26 ****        -1.1338   1.4064   1.7224 H              1 S1                 0.0000
     27 ****         0.8234   1.7758   3.8127 H              1 S1                 0.0000
     28 ****         0.9104  -0.8077   5.1571 H              1 S1                 0.0000
     29 ****         0.6251  -0.9020   3.4345 H              1 S1                 0.0000
     30 ****         3.0143   0.5091   4.7394 H              1 S1                 0.0000
     31 ****         3.0682  -1.0598   3.9789 H              1 S1                 0.0000
     32 ****         3.3529  -1.2011   1.8009 H              1 S1                 0.0000
     33 ****         3.7661   1.2347   0.1547 H              1 S1                 0.0000
     34 ****         4.2695  -0.3987  -0.1954 H              1 S1                 0.0000
     35 ****         3.0862  -1.4569  -1.9835 H              1 S1                 0.0000
     36 ****         0.9999  -1.7583  -3.2915 H              1 S1                 0.0000
     37 ****        -1.0923   0.7532  -4.4843 H              1 S1                 0.0000
     38 ****        -0.3887  -0.8377  -4.6856 H              1 S1                 0.0000
     39 ****        -2.4890  -0.5860  -6.0245 H              1 S1                 0.0000
     40 ****        -2.6265  -1.8848  -4.8559 H              1 S1                 0.0000
     41 ****        -4.6968   0.0468  -2.6275 H              1 S1                 0.0000
     42 ****        -3.9242  -1.5106  -2.8516 H              1 S1                 0.0000
     43 ****        -2.6421  -0.1891  -1.1952 H              1 S1                 0.0000
     44 ****        -2.5179   1.1687  -2.3059 H              1 S1                 0.0000
     45 ****         0.9656   1.4022   0.4624 H              1 S1                 0.0000
     46 ****         0.4206   1.1424   5.2615 LP             1 S1                 0.0000
     47 ****         2.4036   2.3505   3.2584 LP             1 S1                 0.0000
     48 ****         2.8954   2.2429   1.6011 LP             1 S1                 0.0000
     49 ****        -1.4737  -1.4645  -2.6843 LP             1 S1                 0.0000
     50 ****        -4.4829  -0.4649  -4.8679 LP             1 S1                 0.0000
     51 ****        -3.5605   0.8346  -4.5115 LP             1 S1                 0.0000
     52 ****        -0.9483   1.0532  -0.8153 LP             1 S1                 0.0000
@<TRIPOS>BOND
    1    1    2 1     
    2    1   24 1     
    3    1   25 1     
    4    1   26 1     
    5    2    3 2     
    6    2    4 2     
    7    2    5 1     
    8    5    6 1     
    9    5   27 1     
   10    6    7 1     
   11    6   28 1     
   12    6   29 1     
   13    7    8 1     
   14    7   30 1     
   15    7   31 1     
   16    8    9 2     
   17    8   10 am    
   18   10   11 1     
   19   10   32 1     
   20   11   12 1     
   21   11   33 1     
   22   11   34 1     
   23   12   23 ar    
   24   12   13 ar    
   25   13   14 ar    
   26   13   35 1     
   27   14   15 ar    
   28   14   36 1     
   29   15   16 1     
   30   15   22 ar    
   31   16   21 1     
   32   16   17 1     
   33   17   18 1     
   34   17   37 1     
   35   17   38 1     
   36   18   19 1     
   37   18   39 1     
   38   18   40 1     
   39   19   20 1     
   40   20   21 1     
   41   20   41 1     
   42   20   42 1     
   43   21   43 1     
   44   21   44 1     
   45   22   23 ar    
   46   23   45 1     
   47    5   46 1     
   48    9   47 1     
   49    9   48 1     
   50   16   49 1     
   51   19   50 1     
   52   19   51 1     
   53   22   52 1     
@<TRIPOS>SUBSTRUCTURE
      1 S1             1
@<TRIPOS>SET
LONE_PAIRS      STATIC     ATOMS    <user>   **** ""
9 3 4 46 47 48 49 50 51 52
DONOR_HYDROGENS      STATIC     ATOMS    <user>   **** ""
2 27 32
ATOM$BLUE        STATIC     ATOMS    COLORGROUP SYSTEM
9 3 4 46 47 48 49 50 51 52
ATOM$RED        STATIC     ATOMS    COLORGROUP SYSTEM
2 27 32
