#       Name:                AV-unprocessed.smi:1453
#       Creating user name   scv26
#       Creation time:       Fri Mar 27 05:59:39 2020


#       File generated by GOLD software.
#

@<TRIPOS>MOLECULE
AV-unprocessed.smi:1453
    49    50     1
SMALL
NO_CHARGES


@<TRIPOS>ATOM
      1 ****        -4.3496  -0.9748  -1.1227 C.3            1 S1                 0.0000
      2 ****        -3.4355  -0.7970  -2.3458 C.3            1 S1                 0.0000
      3 ****        -1.9911  -1.2171  -2.0412 C.2            1 S1                 0.0000
      4 ****        -1.7599  -2.2459  -1.4055 O.2            1 S1                 0.0000
      5 ****        -1.0234  -0.4050  -2.4960 N.am           1 S1                 0.0000
      6 ****         0.4072  -0.6249  -2.3088 C.3            1 S1                 0.0000
      7 ****         0.9288  -0.2421  -0.9307 C.ar           1 S1                 0.0000
      8 ****         2.0341  -0.9190  -0.3800 C.ar           1 S1                 0.0000
      9 ****         2.5071  -0.5396   0.8907 C.ar           1 S1                 0.0000
     10 ****         1.8645   0.5157   1.5807 C.ar           1 S1                 0.0000
     11 ****         2.3239   0.9158   2.8547 N.3            1 S1                 0.0000
     12 ****         3.7494   1.2223   2.9455 C.3            1 S1                 0.0000
     13 ****         4.1795   1.3431   4.4175 C.3            1 S1                 0.0000
     14 ****         3.3649   2.3037   5.0811 O.3            1 S1                 0.0000
     15 ****         1.9926   1.9247   5.0787 C.3            1 S1                 0.0000
     16 ****         1.4844   1.8273   3.6304 C.3            1 S1                 0.0000
     17 ****         0.7992   1.1643   1.0481 N.ar           1 S1                 0.0000
     18 ****         0.3504   0.7969  -0.1704 C.ar           1 S1                 0.0000
     19 ****        -4.0958  -1.7760  -3.7758 S.o2           1 S1                 0.0000
     20 ****        -2.9865  -1.2862  -5.1630 C.3            1 S1                 0.0000
     21 ****        -3.8895  -3.2083  -3.5119 O.2            1 S1                 0.0000
     22 ****        -5.4498  -1.2866  -4.0767 O.2            1 S1                 0.0000
     23 ****        -3.9633  -0.4369  -0.2562 H              1 S1                 0.0000
     24 ****        -4.4514  -2.0253  -0.8474 H              1 S1                 0.0000
     25 ****        -5.3492  -0.5911  -1.3271 H              1 S1                 0.0000
     26 ****        -3.4507   0.2529  -2.6403 H              1 S1                 0.0000
     27 ****        -1.2944   0.4229  -3.0065 H              1 S1                 0.0000
     28 ****         0.6499  -1.6680  -2.5196 H              1 S1                 0.0000
     29 ****         0.9399  -0.0300  -3.0508 H              1 S1                 0.0000
     30 ****         2.5137  -1.7221  -0.9201 H              1 S1                 0.0000
     31 ****         3.3428  -1.0687   1.3235 H              1 S1                 0.0000
     32 ****         4.3586   0.4607   2.4612 H              1 S1                 0.0000
     33 ****         3.9408   2.1608   2.4236 H              1 S1                 0.0000
     34 ****         4.1091   0.3789   4.9235 H              1 S1                 0.0000
     35 ****         5.2211   1.6585   4.4787 H              1 S1                 0.0000
     36 ****         1.8650   0.9747   5.6004 H              1 S1                 0.0000
     37 ****         1.4175   2.6694   5.6289 H              1 S1                 0.0000
     38 ****         1.4944   2.8135   3.1645 H              1 S1                 0.0000
     39 ****         0.4514   1.4777   3.6339 H              1 S1                 0.0000
     40 ****        -0.4936   1.3570  -0.5449 H              1 S1                 0.0000
     41 ****        -3.3428  -1.7438  -6.0856 H              1 S1                 0.0000
     42 ****        -1.9711  -1.6287  -4.9661 H              1 S1                 0.0000
     43 ****        -2.9940  -0.2022  -5.2730 H              1 S1                 0.0000
     44 ****        -2.5162  -2.8152  -1.0832 LP             1 S1                 0.0000
     45 ****        -0.8157  -2.5123  -1.2114 LP             1 S1                 0.0000
     46 ****         2.2040   0.0505   3.3415 LP             1 S1                 0.0000
     47 ****         3.4585   3.1840   4.6161 LP             1 S1                 0.0000
     48 ****         3.6747   2.3922   6.0278 LP             1 S1                 0.0000
     49 ****         0.3527   1.9042   1.5511 LP             1 S1                 0.0000
@<TRIPOS>BOND
    1    1    2 1     
    2    1   23 1     
    3    1   24 1     
    4    1   25 1     
    5    2    3 1     
    6    2   19 1     
    7    2   26 1     
    8    3    4 2     
    9    3    5 am    
   10    5    6 1     
   11    5   27 1     
   12    6    7 1     
   13    6   28 1     
   14    6   29 1     
   15    7   18 ar    
   16    7    8 ar    
   17    8    9 ar    
   18    8   30 1     
   19    9   10 ar    
   20    9   31 1     
   21   10   11 1     
   22   10   17 ar    
   23   11   16 1     
   24   11   12 1     
   25   12   13 1     
   26   12   32 1     
   27   12   33 1     
   28   13   14 1     
   29   13   34 1     
   30   13   35 1     
   31   14   15 1     
   32   15   16 1     
   33   15   36 1     
   34   15   37 1     
   35   16   38 1     
   36   16   39 1     
   37   17   18 ar    
   38   18   40 1     
   39   19   20 1     
   40   19   21 2     
   41   19   22 2     
   42   20   41 1     
   43   20   42 1     
   44   20   43 1     
   45    4   44 1     
   46    4   45 1     
   47   11   46 1     
   48   14   47 1     
   49   14   48 1     
   50   17   49 1     
@<TRIPOS>SUBSTRUCTURE
      1 S1             1
@<TRIPOS>SET
LONE_PAIRS      STATIC     ATOMS    <user>   **** ""
8 44 45 46 47 48 49 21 22
DONOR_HYDROGENS      STATIC     ATOMS    <user>   **** ""
1 27
ATOM$BLUE        STATIC     ATOMS    COLORGROUP SYSTEM
8 44 45 46 47 48 49 21 22
ATOM$RED        STATIC     ATOMS    COLORGROUP SYSTEM
1 27
