#       Name:                AV-unprocessed.smi:798
#       Creating user name   scv26
#       Creation time:       Fri Mar 27 01:21:59 2020


#       File generated by GOLD software.
#

@<TRIPOS>MOLECULE
AV-unprocessed.smi:798
    40    42     1
SMALL
NO_CHARGES


@<TRIPOS>ATOM
      1 ****        -0.9508   2.2647  -0.0494 O.2            1 S1                 0.0000
      2 ****        -1.4517   1.1868  -0.3782 C.2            1 S1                 0.0000
      3 ****        -2.7634   0.9498  -0.6085 N.pl3          1 S1                -1.0000
      4 ****        -3.6598   1.9387  -0.4587 C.2            1 S1                 0.0000
      5 ****        -4.1291   2.6488  -1.4973 N.2            1 S1                 0.0000
      6 ****        -5.0491   3.6194  -1.1238 N.2            1 S1                 0.0000
      7 ****        -5.2566   3.6109   0.1928 C.2            1 S1                 0.0000
      8 ****        -4.3508   2.4147   1.0953 S.3            1 S1                 0.0000
      9 ****        -0.6731   0.1061  -0.5279 N.am           1 S1                 0.0000
     10 ****         0.7739   0.0615  -0.3208 C.3            1 S1                 0.0000
     11 ****         1.1884   0.1339   1.1721 C.3            1 S1                 0.0000
     12 ****         0.4203  -0.9001   2.0230 C.3            1 S1                 0.0000
     13 ****         1.0171  -2.2368   1.5453 C.3            1 S1                 0.0000
     14 ****         2.0738  -1.7902   0.5156 C.3            1 S1                 0.0000
     15 ****         2.5763  -0.4924   1.1376 C.3            1 S1                 0.0000
     16 ****         1.3665  -1.3012  -0.7701 C.3            1 S1                 0.0000
     17 ****         2.3280  -1.1887  -1.9695 C.3            1 S1                 0.0000
     18 ****         1.6154  -0.8520  -3.1408 O.3            1 S1                 0.0000
     19 ****        -5.9497   4.3107   0.6349 H              1 S1                 0.0000
     20 ****        -1.1219  -0.7550  -0.8031 H              1 S1                 0.0000
     21 ****         1.2429   0.8791  -0.8717 H              1 S1                 0.0000
     22 ****         1.1562   1.1431   1.5838 H              1 S1                 0.0000
     23 ****         0.6294  -0.7499   3.0830 H              1 S1                 0.0000
     24 ****        -0.6615  -0.8527   1.8978 H              1 S1                 0.0000
     25 ****         1.4830  -2.7663   2.3773 H              1 S1                 0.0000
     26 ****         0.2653  -2.8961   1.1101 H              1 S1                 0.0000
     27 ****         2.8427  -2.5426   0.3375 H              1 S1                 0.0000
     28 ****         3.2815   0.0538   0.5098 H              1 S1                 0.0000
     29 ****         3.0158  -0.6282   2.1275 H              1 S1                 0.0000
     30 ****         0.5793  -2.0099  -1.0346 H              1 S1                 0.0000
     31 ****         3.1025  -0.4422  -1.7938 H              1 S1                 0.0000
     32 ****         2.8314  -2.1406  -2.1395 H              1 S1                 0.0000
     33 ****         2.2284  -0.7775  -3.8558 H              1 S1                 0.0000
     34 ****        -1.5315   3.0700   0.0707 LP             1 S1                 0.0000
     35 ****         0.0360   2.3335   0.0971 LP             1 S1                 0.0000
     36 ****        -3.0655   0.0390  -0.8901 LP             1 S1                 0.0000
     37 ****        -3.8449   2.4943  -2.4435 LP             1 S1                 0.0000
     38 ****        -5.4987   4.2451  -1.7613 LP             1 S1                 0.0000
     39 ****         1.1437   0.0199  -3.0092 LP             1 S1                 0.0000
     40 ****         0.9454  -1.5659  -3.3445 LP             1 S1                 0.0000
@<TRIPOS>BOND
    1    1    2 2     
    2    2    3 1     
    3    2    9 am    
    4    3    4 1     
    5    4    8 1     
    6    4    5 2     
    7    5    6 1     
    8    6    7 2     
    9    7    8 1     
   10    7   19 1     
   11    9   10 1     
   12    9   20 1     
   13   10   16 1     
   14   10   11 1     
   15   10   21 1     
   16   11   15 1     
   17   11   12 1     
   18   11   22 1     
   19   12   13 1     
   20   12   23 1     
   21   12   24 1     
   22   13   14 1     
   23   13   25 1     
   24   13   26 1     
   25   14   15 1     
   26   14   16 1     
   27   14   27 1     
   28   15   28 1     
   29   15   29 1     
   30   16   17 1     
   31   16   30 1     
   32   17   18 1     
   33   17   31 1     
   34   17   32 1     
   35   18   33 1     
   36    1   34 1     
   37    1   35 1     
   38    3   36 1     
   39    5   37 1     
   40    6   38 1     
   41   18   39 1     
   42   18   40 1     
@<TRIPOS>SUBSTRUCTURE
      1 S1             1
@<TRIPOS>SET
LONE_PAIRS      STATIC     ATOMS    <user>   **** ""
7 34 35 36 37 38 39 40
DONOR_HYDROGENS      STATIC     ATOMS    <user>   **** ""
2 20 33
ATOM$BLUE        STATIC     ATOMS    COLORGROUP SYSTEM
7 34 35 36 37 38 39 40
ATOM$RED        STATIC     ATOMS    COLORGROUP SYSTEM
2 20 33
