AV-unprocessed.smi:102|AV-procd|sdf|950|dock10
  -GOLD-   2262017483D 1   1.00000     0.00000
 Structure written by MMmdl.
 44 45  0  0  0  0  0  0  0  0  1 V2000
  148.3999  135.3873  163.2934 C   0  0  0  0  0  0  0  0  0  0  0  0
  148.1697  135.7918  161.8435 C   0  0  0  0  0  0  0  0  0  0  0  0
  148.3273  136.9525  161.4648 O   0  0  0  0  0  0  0  0  0  0  0  0
  147.7897  134.7578  161.0807 O   0  0  0  0  0  0  0  0  0  0  0  0
  147.2463  134.9939  159.7905 C   0  0  0  0  0  0  0  0  0  0  0  0
  148.3415  135.4665  158.8204 C   0  0  1  0  0  0  0  0  0  0  0  0
  149.1655  134.3917  158.4030 O   0  0  0  0  0  0  0  0  0  0  0  0
  149.8344  134.7716  157.2444 C   0  0  1  0  0  0  0  0  0  0  0  0
  149.9566  133.5421  156.3733 N   0  0  0  0  0  0  0  0  0  0  0  0
  149.0947  133.3554  155.3000 C   0  0  0  0  0  0  0  0  0  0  0  0
  149.0956  132.2395  154.5341 C   0  0  0  0  0  0  0  0  0  0  0  0
  148.2296  132.1354  153.5118 F   0  0  0  0  0  0  0  0  0  0  0  0
  150.0105  131.1403  154.8242 C   0  0  0  0  0  0  0  0  0  0  0  0
  150.0969  130.0962  154.1812 O   0  0  0  0  0  0  0  0  0  0  0  0
  150.8197  131.3455  155.9452 N   0  0  0  0  0  0  0  0  0  0  0  0
  150.8193  132.4866  156.7502 C   0  0  0  0  0  0  0  0  0  0  0  0
  151.5581  132.5369  157.7325 O   0  0  0  0  0  0  0  0  0  0  0  0
  149.0435  135.9042  156.5595 C   0  0  2  0  0  0  0  0  0  0  0  0
  149.8682  137.0516  156.3989 O   0  0  0  0  0  0  0  0  0  0  0  0
  150.9118  137.0188  155.5520 C   0  0  0  0  0  0  0  0  0  0  0  0
  151.5122  138.3982  155.3167 C   0  0  0  0  0  0  0  0  0  0  0  0
  151.3660  136.0163  155.0003 O   0  0  0  0  0  0  0  0  0  0  0  0
  147.9004  136.1806  157.5324 C   0  0  1  0  0  0  0  0  0  0  0  0
  146.6980  135.6735  156.9625 O   0  0  0  0  0  0  0  0  0  0  0  0
  146.2336  136.1479  155.7925 C   0  0  0  0  0  0  0  0  0  0  0  0
  144.9630  135.4384  155.3446 C   0  0  0  0  0  0  0  0  0  0  0  0
  146.7290  137.0577  155.1279 O   0  0  0  0  0  0  0  0  0  0  0  0
  151.4509  130.5998  156.2006 H   0  0  0  0  0  0  0  0  0  0  0  0
  147.5042  134.9211  163.7042 H   0  0  0  0  0  0  0  0  0  0  0  0
  148.6452  136.2591  163.9001 H   0  0  0  0  0  0  0  0  0  0  0  0
  149.2237  134.6766  163.3612 H   0  0  0  0  0  0  0  0  0  0  0  0
  146.7784  134.0867  159.4051 H   0  0  0  0  0  0  0  0  0  0  0  0
  146.4675  135.7535  159.8682 H   0  0  0  0  0  0  0  0  0  0  0  0
  148.9908  136.1566  159.3617 H   0  0  0  0  0  0  0  0  0  0  0  0
  150.8397  135.0995  157.5122 H   0  0  0  0  0  0  0  0  0  0  0  0
  148.3733  134.1228  155.0623 H   0  0  0  0  0  0  0  0  0  0  0  0
  148.6777  135.5738  155.5863 H   0  0  0  0  0  0  0  0  0  0  0  0
  152.0134  138.7506  156.2182 H   0  0  0  0  0  0  0  0  0  0  0  0
  150.7328  139.1124  155.0505 H   0  0  0  0  0  0  0  0  0  0  0  0
  152.2413  138.3651  154.5067 H   0  0  0  0  0  0  0  0  0  0  0  0
  147.8094  137.2525  157.7146 H   0  0  0  0  0  0  0  0  0  0  0  0
  144.0943  135.8756  155.8371 H   0  0  0  0  0  0  0  0  0  0  0  0
  145.0073  134.3783  155.5950 H   0  0  0  0  0  0  0  0  0  0  0  0
  144.8340  135.5323  154.2663 H   0  0  0  0  0  0  0  0  0  0  0  0
  1  2  1  0  0  0  0
  1 29  1  0  0  0  0
  1 30  1  0  0  0  0
  1 31  1  0  0  0  0
  2  3  2  0  0  0  0
  2  4  1  0  0  0  0
  4  5  1  0  0  0  0
  5  6  1  0  0  0  0
  5 32  1  0  0  0  0
  5 33  1  0  0  0  0
  6 23  1  0  0  0  0
  6  7  1  0  0  0  0
  6 34  1  0  0  0  0
  7  8  1  0  0  0  0
  8  9  1  0  0  0  0
  8 18  1  0  0  0  0
  8 35  1  0  0  0  0
  9 16  1  0  0  0  0
  9 10  1  0  0  0  0
 10 11  2  0  0  0  0
 10 36  1  0  0  0  0
 11 12  1  0  0  0  0
 11 13  1  0  0  0  0
 13 14  2  0  0  0  0
 13 15  1  0  0  0  0
 15 28  1  0  0  0  0
 15 16  1  0  0  0  0
 16 17  2  0  0  0  0
 18 19  1  0  0  0  0
 18 23  1  0  0  0  0
 18 37  1  0  0  0  0
 19 20  1  0  0  0  0
 20 21  1  0  0  0  0
 20 22  2  0  0  0  0
 21 38  1  0  0  0  0
 21 39  1  0  0  0  0
 21 40  1  0  0  0  0
 23 24  1  0  0  0  0
 23 41  1  0  0  0  0
 24 25  1  0  0  0  0
 25 26  1  0  0  0  0
 25 27  2  0  0  0  0
 26 42  1  0  0  0  0
 26 43  1  0  0  0  0
 26 44  1  0  0  0  0
M  END
> <s_m_source_file>
AV-unprocessed.smi

> <i_m_source_file_index>
102

> <i_lp_mmshare_version>
43012

> <i_f3d_flags>
0

> <s_epik_input>
W0NIM11DKD1PKU9bQ0gyXVtDQEBIXTFPW0NASF0oW0NAQEhdKE9DKD1PKVtDSDNdKVtDQEhdMU9DKD1PKVtDSDNdKW4yW2NIXWMoRiljKD1PKVtuSF1jMj1P

> <s_epik_cmdline>
J2VwaWtfcHl0aG9uJywgJy1waCcsICc3LjAnLCAnLXRuJywgJzgnLCAnLW1hJywgJzIwMCcsICctbWV0YWxfYmluZGluZycsICctaW1hZScsICc8aW5maWxlLm1hZT4nLCAnLW9tYWUnLCAnPG91dGZpbGUubWFlPic=

> <r_lp_tautomer_probability>
0.999537

> <r_epik_Ionization_Penalty>
0.058267

> <r_epik_Ionization_Penalty_Charging>
0.058267

> <r_epik_Ionization_Penalty_Neutral>
6.57791e-16

> <r_epik_State_Penalty>
0.0503774

> <r_epik_Charging_Adjusted_Penalty>
0.108644

> <i_epik_Tot_Q>
0

> <i_epik_Tot_abs_Q>
0

> <r_epik_Metal_State_Penalty>
2.6644

> <b_epik_Metal_Only>
0

> <s_epik_Chemistry_Notes>
This compound has an ester and may undergo hydrolysis at high or low pH. This compound contains an acetal/aminal-like group ( X-CH(R)-Y where X, Y are N, S, or O) that may be acid/base labile, releasing an aldehyde.

> <s_lp_Force_Field>
OPLS_2005

> <r_lp_Energy>
13.4822

> <b_lp_Chiralities_Consistent>
1

> <s_lp_Variant>
AV-unprocessed.smi:102-6

> <Gold.Version>
5.8.1

> <Gold.Id.Protein>
6NUR|6NUR_protein|mol2

> <Gold.PLP.Fitness>
41.4949

> <Gold.PLP.PLP>
-31.6850

> <Gold.PLP.part.hbond>
-4.0723

> <Gold.PLP.part.metal>
0.0000

> <Gold.PLP.part.buried>
-4.1747

> <Gold.PLP.part.nonpolar>
-23.4176

> <Gold.PLP.part.repulsive>
0.4024

> <Gold.PLP.ligand.clash>
0.0000

> <Gold.PLP.ligand.torsion>
0.8306

> <Gold.PLP.Chemscore.Hbond>
3.7600

> <Gold.PLP.Chemscore.CHOScore>
0.0000

> <Gold.PLP.Chemscore.Metal>
0.0000

> <Gold.Chemscore.Hbonds>
donor molecule, donor type, donor heavy atom, donor atom, acceptor molecule, acceptor atom, score
      P1  H  6896  6908       L1    17  1.00
      P1  H  6896  6909       L1     7  0.26
      P1  H  6931  6943       L1     3  1.00
      P1  H  6934  6947       L1     3  0.02
      P1  H 10752 10763       L1    22  1.00

> <Gold.PLP.Chemscore.Internal.Correction>
0.1911

> <Gold.Rescore>
     Score         DG    S(hbond)    S(metal)    S(lipo)     H(rot)  DE(clash)    DE(int)     intcor
     10.98     -11.77       3.74        0.00      35.58       4.05       0.04       0.75       ----

> <Gold.Chemscore.Fitness>
10.9821

> <Gold.Chemscore.DG>
-11.7748

> <Gold.Chemscore.ZeroCoef>
-5.4800

> <Gold.Chemscore.Hbond>
3.7440

> <Gold.Chemscore.Metal>
0.0000

> <Gold.Chemscore.Lipo>
35.5809

> <Gold.Chemscore.Internal_Hbond>
0.0000

> <Gold.Chemscore.DEClash>
0.0402

> <Gold.Chemscore.DEInternal>
0.7526

> <Gold.Chemscore.Rot>
4.0520

> <Gold.Chemscore.Internal.Correction>
   9.000000E+99

> <Gold.Chemscore.Hbonds>
donor molecule, donor type, donor heavy atom, donor atom, acceptor molecule, acceptor atom, score
      P1  H  6896  6908       L1    17  0.99
      P1  H  6896  6909       L1     7  0.01
      P1  H  6931  6943       L1     3  0.94
      P1  H  6934  6947       L1     3  0.05
      P1  H 10752 10763       L1    22  1.00

> <Gold.Chemscore.Hbond.Weighted>
-12.5051

> <Gold.Chemscore.Metal.Weighted>
-0.0000

> <Gold.Chemscore.Lipo.Weighted>
-4.1630

> <Gold.Chemscore.Internal_Hbond.Weighted>
0.0000

> <Gold.Chemscore.DEClash.Weighted>
0.0402

> <Gold.Chemscore.DEInternal.Weighted>
0.7526

> <Gold.Chemscore.Rot.Weighted>
10.3732

> <Gold.Chemscore.Internal.Correction.Weighted>
   9.000000E+99

> <Gold.Protein.RotatedTorsions>
[ 6907 6896 6895 6894 ] final   67.39 input  -60.11 | X-H torsion
[ 7974 7965 7964 7962 ] final   55.04 input  175.53 | X-H torsion
[ 8008 7997 7996 7995 ] final -125.18 input   59.86 | X-H torsion
[ 10167 10162 10161 10158 ] final -139.07 input  -65.29 | X-H torsion
[ 10718 10713 10712 10709 ] final   63.64 input   66.30 | X-H torsion
[ 10763 10752 10751 10750 ] final   50.55 input  -60.55 | X-H torsion
[ 11005 11000 10999 10996 ] final -136.47 input  -57.11 | X-H torsion

> <Gold.Protein.ActiveResidues>
 VAL166  LYS551  ARG553  GLY616  TRP617  ASP618  TYR619  PRO620  LYS621  CYS622 
 ASP623  PHE694  ASN695  SER759  ASP760  ASP761  ALA762  ILE779  LEU786  VAL792 
 PHE793  MET794  SER795  GLU796  ALA797  LYS798  CYS799  TRP800  GLU811  SER814 

> <Gold.Protein.RotatedAtoms>
  152.4548  134.5314  159.9811 H   0  0  0  0  0  0  0  0  0  0  0  0  # atno 6907 bound_to 6896
  151.5378  133.3432  159.2938 H   0  0  0  0  0  0  0  0  0  0  0  0  # atno 6908 bound_to 6896
  150.8489  134.7838  159.7056 H   0  0  0  0  0  0  0  0  0  0  0  0  # atno 6909 bound_to 6896
  145.9545  139.4002  143.0286 H   0  0  0  0  0  0  0  0  0  0  0  0  # atno 7974 bound_to 7965
  155.2091  140.0418  157.2930 H   0  0  0  0  0  0  0  0  0  0  0  0  # atno 8008 bound_to 7997
  154.6023  140.2455  155.7747 H   0  0  0  0  0  0  0  0  0  0  0  0  # atno 8009 bound_to 7997
  156.2329  140.2932  156.0244 H   0  0  0  0  0  0  0  0  0  0  0  0  # atno 8010 bound_to 7997
  139.8416  143.7314  152.2663 H   0  0  0  0  0  0  0  0  0  0  0  0  # atno 10167 bound_to 10162
  157.5985  130.9116  149.9742 H   0  0  0  0  0  0  0  0  0  0  0  0  # atno 10718 bound_to 10713
  152.9784  135.5875  154.4270 H   0  0  0  0  0  0  0  0  0  0  0  0  # atno 10763 bound_to 10752
  154.3888  135.2767  155.2169 H   0  0  0  0  0  0  0  0  0  0  0  0  # atno 10764 bound_to 10752
  154.4050  135.6094  153.5974 H   0  0  0  0  0  0  0  0  0  0  0  0  # atno 10765 bound_to 10752
  140.8802  134.1941  157.4596 H   0  0  0  0  0  0  0  0  0  0  0  0  # atno 11005 bound_to 11000
  145.8125  140.9719  143.0941 LP  0  0  0  0  0  0  0  0  0  0  0  0  # atno 17320 bound_to 7965
  144.6802  139.9939  143.7484 LP  0  0  0  0  0  0  0  0  0  0  0  0  # atno 17321 bound_to 7965
  139.7553  144.7522  151.0444 LP  0  0  0  0  0  0  0  0  0  0  0  0  # atno 17342 bound_to 10162
  140.7797  143.4812  151.0015 LP  0  0  0  0  0  0  0  0  0  0  0  0  # atno 17343 bound_to 10162
  156.1053  130.3653  150.0145 LP  0  0  0  0  0  0  0  0  0  0  0  0  # atno 17370 bound_to 10713
  156.8253  130.9373  151.3639 LP  0  0  0  0  0  0  0  0  0  0  0  0  # atno 17371 bound_to 10713
  139.8719  134.9814  156.5114 LP  0  0  0  0  0  0  0  0  0  0  0  0  # atno 17394 bound_to 11000
  140.8470  133.8161  155.9131 LP  0  0  0  0  0  0  0  0  0  0  0  0  # atno 17395 bound_to 11000

$$$$
