AV-unprocessed.smi:2445|AV-procd|sdf|9633|dock3
  -GOLD-   2272013263D 1   1.00000     0.00000
 Structure written by MMmdl.
 40 41  0  0  0  0  0  0  0  0  1 V2000
  151.5734  143.1013  157.9568 C   0  0  0  0  0  0  0  0  0  0  0  0
  151.2403  141.9838  157.0278 C   0  0  0  0  0  0  0  0  0  0  0  0
  150.7121  142.0710  155.7637 C   0  0  0  0  0  0  0  0  0  0  0  0
  150.5143  140.8334  155.1475 N   0  0  0  0  0  0  0  0  0  0  0  0
  150.8844  139.8105  155.9225 C   0  0  0  0  0  0  0  0  0  0  0  0
  150.7743  138.3748  155.5034 C   0  0  2  0  0  0  0  0  0  0  0  0
  151.5681  138.0986  154.2188 C   0  0  0  0  0  0  0  0  0  0  0  0
  149.3138  137.8930  155.4010 C   0  0  0  0  0  0  0  0  0  0  0  0
  149.2030  136.6758  154.6047 N   0  0  0  0  0  0  0  0  0  0  0  0
  148.7407  135.5065  155.0643 C   0  0  0  0  0  0  0  0  0  0  0  0
  148.3302  135.3301  156.2114 O   0  0  0  0  0  0  0  0  0  0  0  0
  148.7844  134.5525  154.1251 N   0  0  0  0  0  0  0  0  0  0  0  0
  148.3629  133.1683  154.3172 C   0  0  2  0  0  0  0  0  0  0  0  0
  149.5197  132.2051  154.1504 C   0  0  0  0  0  0  0  0  0  0  0  0
  148.7989  130.9103  153.7959 C   0  0  0  0  0  0  0  0  0  0  0  0
  147.6539  131.3019  153.0474 O   0  0  0  0  0  0  0  0  0  0  0  0
  147.3988  132.6940  153.2197 C   0  0  1  0  0  0  0  0  0  0  0  0
  145.9165  132.9200  153.5414 C   0  0  0  0  0  0  0  0  0  0  0  0
  151.5047  140.3232  157.4901 S   0  0  0  0  0  0  0  0  0  0  0  0
  151.3921  144.0692  157.4886 H   0  0  0  0  0  0  0  0  0  0  0  0
  152.6225  143.0611  158.2503 H   0  0  0  0  0  0  0  0  0  0  0  0
  150.9670  143.0462  158.8609 H   0  0  0  0  0  0  0  0  0  0  0  0
  150.4470  142.9700  155.2268 H   0  0  0  0  0  0  0  0  0  0  0  0
  151.2435  137.7822  156.2906 H   0  0  0  0  0  0  0  0  0  0  0  0
  152.6168  138.3724  154.3394 H   0  0  0  0  0  0  0  0  0  0  0  0
  151.1707  138.6662  153.3767 H   0  0  0  0  0  0  0  0  0  0  0  0
  151.5311  137.0417  153.9539 H   0  0  0  0  0  0  0  0  0  0  0  0
  148.9219  137.7086  156.4030 H   0  0  0  0  0  0  0  0  0  0  0  0
  148.6889  138.6681  154.9554 H   0  0  0  0  0  0  0  0  0  0  0  0
  149.5181  136.7247  153.6466 H   0  0  0  0  0  0  0  0  0  0  0  0
  149.1375  134.7983  153.2117 H   0  0  0  0  0  0  0  0  0  0  0  0
  147.9222  133.0187  155.3051 H   0  0  0  0  0  0  0  0  0  0  0  0
  150.1592  132.5094  153.3200 H   0  0  0  0  0  0  0  0  0  0  0  0
  150.1380  132.1169  155.0445 H   0  0  0  0  0  0  0  0  0  0  0  0
  149.4281  130.2197  153.2341 H   0  0  0  0  0  0  0  0  0  0  0  0
  148.4638  130.4035  154.7018 H   0  0  0  0  0  0  0  0  0  0  0  0
  147.6457  133.1787  152.2738 H   0  0  0  0  0  0  0  0  0  0  0  0
  145.6931  133.9821  153.6405 H   0  0  0  0  0  0  0  0  0  0  0  0
  145.6351  132.4294  154.4734 H   0  0  0  0  0  0  0  0  0  0  0  0
  145.2821  132.5208  152.7499 H   0  0  0  0  0  0  0  0  0  0  0  0
  1  2  1  0  0  0  0
  1 20  1  0  0  0  0
  1 21  1  0  0  0  0
  1 22  1  0  0  0  0
  2 19  1  0  0  0  0
  2  3  2  0  0  0  0
  3  4  1  0  0  0  0
  3 23  1  0  0  0  0
  4  5  2  0  0  0  0
  5  6  1  0  0  0  0
  5 19  1  0  0  0  0
  6  7  1  0  0  0  0
  6  8  1  0  0  0  0
  6 24  1  0  0  0  0
  7 25  1  0  0  0  0
  7 26  1  0  0  0  0
  7 27  1  0  0  0  0
  8  9  1  0  0  0  0
  8 28  1  0  0  0  0
  8 29  1  0  0  0  0
  9 10  1  0  0  0  0
  9 30  1  0  0  0  0
 10 11  2  0  0  0  0
 10 12  1  0  0  0  0
 12 13  1  0  0  0  0
 12 31  1  0  0  0  0
 13 17  1  0  0  0  0
 13 14  1  0  0  0  0
 13 32  1  0  0  0  0
 14 15  1  0  0  0  0
 14 33  1  0  0  0  0
 14 34  1  0  0  0  0
 15 16  1  0  0  0  0
 15 35  1  0  0  0  0
 15 36  1  0  0  0  0
 16 17  1  0  0  0  0
 17 18  1  0  0  0  0
 17 37  1  0  0  0  0
 18 38  1  0  0  0  0
 18 39  1  0  0  0  0
 18 40  1  0  0  0  0
M  END
> <s_m_source_file>
AV-unprocessed.smi

> <i_m_source_file_index>
2445

> <i_lp_mmshare_version>
43012

> <i_f3d_flags>
0

> <s_epik_input>
W0NIM11jMVtjSF1uYyhzMSlbQ0BIXShbQ0gzXSlbQ0gyXVtOSF1DKD1PKVtOSF1bQ0BASF0yW0NIMl1bQ0gyXU9bQ0BIXTJbQ0gzXQ==

> <s_epik_cmdline>
J2VwaWtfcHl0aG9uJywgJy1waCcsICc3LjAnLCAnLXRuJywgJzgnLCAnLW1hJywgJzIwMCcsICctbWV0YWxfYmluZGluZycsICctaW1hZScsICc8aW5maWxlLm1hZT4nLCAnLW9tYWUnLCAnPG91dGZpbGUubWFlPic=

> <r_epik_Ionization_Penalty>
0.000649483

> <r_epik_Ionization_Penalty_Charging>
0

> <r_epik_Ionization_Penalty_Neutral>
0.000649483

> <r_epik_State_Penalty>
0.000379895

> <r_epik_Charging_Adjusted_Penalty>
0.000379895

> <i_epik_Tot_Q>
0

> <i_epik_Tot_abs_Q>
0

> <r_epik_Metal_State_Penalty>
-0

> <b_epik_Metal_Only>
0

> <s_lp_Force_Field>
OPLS_2005

> <r_lp_Energy>
5.96994

> <b_lp_Chiralities_Consistent>
1

> <s_lp_Variant>
AV-unprocessed.smi:2445-1

> <Gold.Version>
5.8.1

> <Gold.Id.Protein>
6NUR|6NUR_protein|mol2

> <Gold.PLP.Fitness>
37.7882

> <Gold.PLP.PLP>
-28.8217

> <Gold.PLP.part.hbond>
-3.0000

> <Gold.PLP.part.metal>
0.0000

> <Gold.PLP.part.buried>
-5.2383

> <Gold.PLP.part.nonpolar>
-20.6834

> <Gold.PLP.part.repulsive>
0.7390

> <Gold.PLP.ligand.clash>
0.0000

> <Gold.PLP.ligand.torsion>
0.3517

> <Gold.PLP.Chemscore.Hbond>
2.1847

> <Gold.PLP.Chemscore.CHOScore>
1.0000

> <Gold.PLP.Chemscore.Metal>
0.0000

> <Gold.Chemscore.Hbonds>
donor molecule, donor type, donor heavy atom, donor atom, acceptor molecule, acceptor atom, score
      L1  H     9    30       P1  7948  0.83
      L1  H    12    31       P1  7948  0.54
      P1  H  7989  7998       L1     4  0.82
      L1  C     3    23       P1  8028  1.00

> <Gold.PLP.Chemscore.Internal.Correction>
0.1160

> <Gold.Rescore>
     Score         DG    S(hbond)    S(metal)    S(lipo)     H(rot)  DE(clash)    DE(int)     intcor
     16.79     -17.76       2.29        0.00      73.06       1.53       0.48       0.49       ----

> <Gold.Chemscore.Fitness>
16.7853

> <Gold.Chemscore.DG>
-17.7585

> <Gold.Chemscore.ZeroCoef>
-5.4800

> <Gold.Chemscore.Hbond>
2.2914

> <Gold.Chemscore.Metal>
0.0000

> <Gold.Chemscore.Lipo>
73.0649

> <Gold.Chemscore.Internal_Hbond>
0.0000

> <Gold.Chemscore.DEClash>
0.4847

> <Gold.Chemscore.DEInternal>
0.4885

> <Gold.Chemscore.Rot>
1.5325

> <Gold.Chemscore.Internal.Correction>
   9.000000E+99

> <Gold.Chemscore.Hbonds>
donor molecule, donor type, donor heavy atom, donor atom, acceptor molecule, acceptor atom, score
      L1  H     9    30       P1  7948  0.68
      L1  H    12    31       P1  7948  0.05
      P1  H  7989  7998       L1     4  0.31

> <Gold.Chemscore.Hbond.Weighted>
-7.6532

> <Gold.Chemscore.Metal.Weighted>
-0.0000

> <Gold.Chemscore.Lipo.Weighted>
-8.5486

> <Gold.Chemscore.Internal_Hbond.Weighted>
0.0000

> <Gold.Chemscore.DEClash.Weighted>
0.4847

> <Gold.Chemscore.DEInternal.Weighted>
0.4885

> <Gold.Chemscore.Rot.Weighted>
3.9233

> <Gold.Chemscore.Internal.Correction.Weighted>
   9.000000E+99

> <Gold.Protein.RotatedTorsions>
[ 6907 6896 6895 6894 ] final  141.72 input  -60.11 | X-H torsion
[ 7974 7965 7964 7962 ] final   98.44 input  175.53 | X-H torsion
[ 8008 7997 7996 7995 ] final   55.17 input   59.86 | X-H torsion
[ 10167 10162 10161 10158 ] final  -88.53 input  -65.29 | X-H torsion
[ 10718 10713 10712 10709 ] final  141.69 input   66.30 | X-H torsion
[ 10763 10752 10751 10750 ] final   77.92 input  -60.55 | X-H torsion
[ 11005 11000 10999 10996 ] final   64.42 input  -57.11 | X-H torsion

> <Gold.Protein.ActiveResidues>
 VAL166  LYS551  ARG553  GLY616  TRP617  ASP618  TYR619  PRO620  LYS621  CYS622 
 ASP623  PHE694  ASN695  SER759  ASP760  ASP761  ALA762  ILE779  LEU786  VAL792 
 PHE793  MET794  SER795  GLU796  ALA797  LYS798  CYS799  TRP800  GLU811  SER814 

> <Gold.Protein.RotatedAtoms>
  152.2276  133.5032  159.5197 H   0  0  0  0  0  0  0  0  0  0  0  0  # atno 6907 bound_to 6896
  150.7029  134.1260  159.4061 H   0  0  0  0  0  0  0  0  0  0  0  0  # atno 6908 bound_to 6896
  151.9181  135.0310  160.0570 H   0  0  0  0  0  0  0  0  0  0  0  0  # atno 6909 bound_to 6896
  145.4122  139.2332  143.3242 H   0  0  0  0  0  0  0  0  0  0  0  0  # atno 7974 bound_to 7965
  155.4968  140.3473  155.4364 H   0  0  0  0  0  0  0  0  0  0  0  0  # atno 8008 bound_to 7997
  156.0940  140.1418  156.9582 H   0  0  0  0  0  0  0  0  0  0  0  0  # atno 8009 bound_to 7997
  154.4652  140.0920  156.6979 H   0  0  0  0  0  0  0  0  0  0  0  0  # atno 8010 bound_to 7997
  140.3737  143.2782  151.9469 H   0  0  0  0  0  0  0  0  0  0  0  0  # atno 10167 bound_to 10162
  157.3892  131.1002  151.0663 H   0  0  0  0  0  0  0  0  0  0  0  0  # atno 10718 bound_to 10713
  153.0835  135.4896  154.8550 H   0  0  0  0  0  0  0  0  0  0  0  0  # atno 10763 bound_to 10752
  154.7181  135.3033  154.9094 H   0  0  0  0  0  0  0  0  0  0  0  0  # atno 10764 bound_to 10752
  153.9767  135.6794  153.4802 H   0  0  0  0  0  0  0  0  0  0  0  0  # atno 10765 bound_to 10752
  139.9960  134.6517  156.0010 H   0  0  0  0  0  0  0  0  0  0  0  0  # atno 11005 bound_to 11000
  146.2699  140.4834  142.8818 LP  0  0  0  0  0  0  0  0  0  0  0  0  # atno 17320 bound_to 7965
  144.8301  140.6694  143.6296 LP  0  0  0  0  0  0  0  0  0  0  0  0  # atno 17321 bound_to 7965
  139.4801  144.5883  151.7816 LP  0  0  0  0  0  0  0  0  0  0  0  0  # atno 17342 bound_to 10162
  140.5007  144.1173  150.5970 LP  0  0  0  0  0  0  0  0  0  0  0  0  # atno 17343 bound_to 10162
  157.1704  130.6264  149.5638 LP  0  0  0  0  0  0  0  0  0  0  0  0  # atno 17370 bound_to 10713
  155.9794  130.4787  150.6713 LP  0  0  0  0  0  0  0  0  0  0  0  0  # atno 17371 bound_to 10713
  141.1604  133.6539  156.4301 LP  0  0  0  0  0  0  0  0  0  0  0  0  # atno 17394 bound_to 11000
  140.4818  134.6657  157.5174 LP  0  0  0  0  0  0  0  0  0  0  0  0  # atno 17395 bound_to 11000

$$$$
