AV-unprocessed.smi:2078|AV-procd|sdf|8468|dock8
  -GOLD-   2272011173D 1   1.00000     0.00000
 Structure written by MMmdl.
 41 42  0  0  0  0  0  0  0  0  3 V2000
  152.0900  141.1582  159.0856 C   0  0  0  0  0  0  0  0  0  0  0  0
  151.8381  140.7185  157.6840 C   0  0  0  0  0  0  0  0  0  0  0  0
  150.7807  140.8862  156.8357 C   0  0  0  0  0  0  0  0  0  0  0  0
  151.2032  140.2188  155.6537 C   0  0  0  0  0  0  0  0  0  0  0  0
  150.4916  140.0934  154.5226 N   0  5  0  0  0  0  0  0  0  0  0  0
  149.1704  139.8092  154.5766 C   0  0  0  0  0  0  0  0  0  0  0  0
  148.4520  139.8450  155.5781 O   0  0  0  0  0  0  0  0  0  0  0  0
  148.6475  139.4577  153.3946 N   0  0  0  0  0  0  0  0  0  0  0  0
  147.2561  139.0928  153.1684 C   0  0  0  0  0  0  0  0  0  0  0  0
  146.9014  137.8278  153.9653 C   0  0  0  0  0  0  0  0  0  0  0  0
  146.6062  136.6692  153.0858 N   0  3  2  0  0  0  0  0  0  0  0  0
  145.8044  137.0577  151.8968 C   0  0  0  0  0  0  0  0  0  0  0  0
  145.6424  135.8782  150.9250 C   0  0  0  0  0  0  0  0  0  0  0  0
  145.0245  134.6639  151.6315 C   0  0  0  0  0  0  0  0  0  0  0  0
  145.8179  134.2918  152.8977 C   0  0  1  0  0  0  0  0  0  0  0  0
  147.1600  133.6087  152.5814 C   0  0  0  0  0  0  0  0  0  0  0  0
  145.9911  135.5238  153.8108 C   0  0  0  0  0  0  0  0  0  0  0  0
  152.4042  139.6796  155.7793 N   0  0  0  0  0  0  0  0  0  0  0  0
  152.8212  140.0014  157.0766 O   0  0  0  0  0  0  0  0  0  0  0  0
  151.2353  140.9271  159.7212 H   0  0  0  0  0  0  0  0  0  0  0  0
  152.2616  142.2338  159.1261 H   0  0  0  0  0  0  0  0  0  0  0  0
  152.9651  140.6598  159.5032 H   0  0  0  0  0  0  0  0  0  0  0  0
  149.8540  141.4055  157.0279 H   0  0  0  0  0  0  0  0  0  0  0  0
  149.2674  139.4435  152.5976 H   0  0  0  0  0  0  0  0  0  0  0  0
  146.6071  139.9164  153.4712 H   0  0  0  0  0  0  0  0  0  0  0  0
  147.1114  138.9419  152.0987 H   0  0  0  0  0  0  0  0  0  0  0  0
  147.6992  137.5699  154.6634 H   0  0  0  0  0  0  0  0  0  0  0  0
  146.0219  138.0512  154.5713 H   0  0  0  0  0  0  0  0  0  0  0  0
  144.8265  137.4198  152.2182 H   0  0  0  0  0  0  0  0  0  0  0  0
  146.2918  137.8823  151.3749 H   0  0  0  0  0  0  0  0  0  0  0  0
  145.0154  136.1744  150.0835 H   0  0  0  0  0  0  0  0  0  0  0  0
  146.6121  135.6117  150.5031 H   0  0  0  0  0  0  0  0  0  0  0  0
  143.9960  134.8998  151.9084 H   0  0  0  0  0  0  0  0  0  0  0  0
  144.9690  133.8150  150.9491 H   0  0  0  0  0  0  0  0  0  0  0  0
  145.2247  133.5598  153.4471 H   0  0  0  0  0  0  0  0  0  0  0  0
  147.8428  134.2735  152.0523 H   0  0  0  0  0  0  0  0  0  0  0  0
  147.0121  132.7235  151.9619 H   0  0  0  0  0  0  0  0  0  0  0  0
  147.6590  133.2869  153.4960 H   0  0  0  0  0  0  0  0  0  0  0  0
  146.5935  135.2467  154.6753 H   0  0  0  0  0  0  0  0  0  0  0  0
  145.0192  135.8319  154.1995 H   0  0  0  0  0  0  0  0  0  0  0  0
  147.4967  136.3496  152.7317 H   0  0  0  0  0  0  0  0  0  0  0  0
  1  2  1  0  0  0  0
  1 20  1  0  0  0  0
  1 21  1  0  0  0  0
  1 22  1  0  0  0  0
  2 19  1  0  0  0  0
  2  3  2  0  0  0  0
  3  4  1  0  0  0  0
  3 23  1  0  0  0  0
  4  5  1  0  0  0  0
  4 18  2  0  0  0  0
  5  6  1  0  0  0  0
  6  7  2  0  0  0  0
  6  8  1  0  0  0  0
  8  9  1  0  0  0  0
  8 24  1  0  0  0  0
  9 10  1  0  0  0  0
  9 25  1  0  0  0  0
  9 26  1  0  0  0  0
 10 11  1  0  0  0  0
 10 27  1  0  0  0  0
 10 28  1  0  0  0  0
 11 17  1  0  0  0  0
 11 12  1  0  0  0  0
 11 41  1  0  0  0  0
 12 13  1  0  0  0  0
 12 29  1  0  0  0  0
 12 30  1  0  0  0  0
 13 14  1  0  0  0  0
 13 31  1  0  0  0  0
 13 32  1  0  0  0  0
 14 15  1  0  0  0  0
 14 33  1  0  0  0  0
 14 34  1  0  0  0  0
 15 16  1  0  0  0  0
 15 17  1  0  0  0  0
 15 35  1  0  0  0  0
 16 36  1  0  0  0  0
 16 37  1  0  0  0  0
 16 38  1  0  0  0  0
 17 39  1  0  0  0  0
 17 40  1  0  0  0  0
 18 19  1  0  0  0  0
M  CHG  1   5  -1
M  CHG  1  11   1
M  END
> <s_m_source_file>
AV-unprocessed.smi

> <i_m_source_file_index>
2078

> <i_lp_mmshare_version>
43012

> <i_f3d_flags>
0

> <s_epik_input>
W0NIM11jMVtjSF1jKG5vMSlbTkhdQyg9TylbTkhdW0NIMl1bQ0gyXU4yW0NIMl1bQ0gyXVtDSDJdW0NAQEhdKFtDSDNdKVtDSDJdMg==

> <s_epik_cmdline>
J2VwaWtfcHl0aG9uJywgJy1waCcsICc3LjAnLCAnLXRuJywgJzgnLCAnLW1hJywgJzIwMCcsICctbWV0YWxfYmluZGluZycsICctaW1hZScsICc8aW5maWxlLm1hZT4nLCAnLW9tYWUnLCAnPG91dGZpbGUubWFlPic=

> <r_epik_Ionization_Penalty>
6.22434

> <r_epik_Ionization_Penalty_Charging>
6.22425

> <r_epik_Ionization_Penalty_Neutral>
9.37855e-05

> <r_epik_State_Penalty>
6.22423

> <r_epik_Charging_Adjusted_Penalty>
12.4485

> <i_epik_Tot_Q>
0

> <i_epik_Tot_abs_Q>
2

> <r_epik_Metal_State_Penalty>
2.16764

> <b_epik_Metal_Only>
1

> <s_lp_Force_Field>
OPLS_2005

> <r_lp_Energy>
8.87897

> <b_lp_Chiralities_Consistent>
1

> <s_lp_Variant>
AV-unprocessed.smi:2078-6

> <Gold.Version>
5.8.1

> <Gold.Id.Protein>
6NUR|6NUR_protein|mol2

> <Gold.PLP.Fitness>
43.1064

> <Gold.PLP.PLP>
-29.9866

> <Gold.PLP.part.hbond>
-4.8752

> <Gold.PLP.part.metal>
0.0000

> <Gold.PLP.part.buried>
-2.3742

> <Gold.PLP.part.nonpolar>
-22.9290

> <Gold.PLP.part.repulsive>
0.2261

> <Gold.PLP.ligand.clash>
0.0000

> <Gold.PLP.ligand.torsion>
0.8695

> <Gold.PLP.Chemscore.Hbond>
4.9420

> <Gold.PLP.Chemscore.CHOScore>
0.0000

> <Gold.PLP.Chemscore.Metal>
0.0000

> <Gold.Chemscore.Hbonds>
donor molecule, donor type, donor heavy atom, donor atom, acceptor molecule, acceptor atom, score
      L1  H     8    24       P1  7957  0.94
      L1  H    11    41       P1  7948  2.00
      P1  H  7989  7998       L1     5  0.85
      P1  H  7997  8008       L1    19  0.91

> <Gold.PLP.Chemscore.Internal.Correction>
0.0327

> <Gold.Rescore>
     Score         DG    S(hbond)    S(metal)    S(lipo)     H(rot)  DE(clash)    DE(int)     intcor
     14.73     -17.94       2.89        0.00      57.63       1.54       0.09       3.12       ----

> <Gold.Chemscore.Fitness>
14.7262

> <Gold.Chemscore.DG>
-17.9444

> <Gold.Chemscore.ZeroCoef>
-5.4800

> <Gold.Chemscore.Hbond>
2.8941

> <Gold.Chemscore.Metal>
0.0000

> <Gold.Chemscore.Lipo>
57.6315

> <Gold.Chemscore.Internal_Hbond>
0.0000

> <Gold.Chemscore.DEClash>
0.0947

> <Gold.Chemscore.DEInternal>
3.1235

> <Gold.Chemscore.Rot>
1.5409

> <Gold.Chemscore.Internal.Correction>
   9.000000E+99

> <Gold.Chemscore.Hbonds>
donor molecule, donor type, donor heavy atom, donor atom, acceptor molecule, acceptor atom, score
      L1  H     8    24       P1  7957  0.89
      L1  H    11    41       P1  7948  1.00
      P1  H  7989  7998       L1     5  0.15
      P1  H  7997  8008       L1    19  0.31

> <Gold.Chemscore.Hbond.Weighted>
-9.6662

> <Gold.Chemscore.Metal.Weighted>
-0.0000

> <Gold.Chemscore.Lipo.Weighted>
-6.7429

> <Gold.Chemscore.Internal_Hbond.Weighted>
0.0000

> <Gold.Chemscore.DEClash.Weighted>
0.0947

> <Gold.Chemscore.DEInternal.Weighted>
3.1235

> <Gold.Chemscore.Rot.Weighted>
3.9446

> <Gold.Chemscore.Internal.Correction.Weighted>
   9.000000E+99

> <Gold.Protein.RotatedTorsions>
[ 6907 6896 6895 6894 ] final  -56.00 input  -60.11 | X-H torsion
[ 7974 7965 7964 7962 ] final   47.93 input  175.53 | X-H torsion
[ 8008 7997 7996 7995 ] final  -77.82 input   59.86 | X-H torsion
[ 10167 10162 10161 10158 ] final   16.69 input  -65.29 | X-H torsion
[ 10718 10713 10712 10709 ] final  -77.46 input   66.30 | X-H torsion
[ 10763 10752 10751 10750 ] final  -72.62 input  -60.55 | X-H torsion
[ 11005 11000 10999 10996 ] final  -50.84 input  -57.11 | X-H torsion

> <Gold.Protein.ActiveResidues>
 VAL166  LYS551  ARG553  GLY616  TRP617  ASP618  TYR619  PRO620  LYS621  CYS622 
 ASP623  PHE694  ASN695  SER759  ASP760  ASP761  ALA762  ILE779  LEU786  VAL792 
 PHE793  MET794  SER795  GLU796  ALA797  LYS798  CYS799  TRP800  GLU811  SER814 

> <Gold.Protein.RotatedAtoms>
  150.8204  134.7409  159.6767 H   0  0  0  0  0  0  0  0  0  0  0  0  # atno 6907 bound_to 6896
  152.4320  134.5756  159.9943 H   0  0  0  0  0  0  0  0  0  0  0  0  # atno 6908 bound_to 6896
  151.5941  133.3326  159.3070 H   0  0  0  0  0  0  0  0  0  0  0  0  # atno 6909 bound_to 6896
  146.0252  139.4698  142.9872 H   0  0  0  0  0  0  0  0  0  0  0  0  # atno 7974 bound_to 7965
  154.5631  140.0704  156.8850 H   0  0  0  0  0  0  0  0  0  0  0  0  # atno 8008 bound_to 7997
  155.2773  140.3369  155.4242 H   0  0  0  0  0  0  0  0  0  0  0  0  # atno 8009 bound_to 7997
  156.2059  140.1739  156.7787 H   0  0  0  0  0  0  0  0  0  0  0  0  # atno 8010 bound_to 7997
  140.5779  143.9037  150.6765 H   0  0  0  0  0  0  0  0  0  0  0  0  # atno 10167 bound_to 10162
  156.0144  130.4492  150.3349 H   0  0  0  0  0  0  0  0  0  0  0  0  # atno 10718 bound_to 10713
  154.4482  135.5924  153.6174 H   0  0  0  0  0  0  0  0  0  0  0  0  # atno 10763 bound_to 10752
  152.9811  135.6014  154.3638 H   0  0  0  0  0  0  0  0  0  0  0  0  # atno 10764 bound_to 10752
  154.3496  135.2841  155.2358 H   0  0  0  0  0  0  0  0  0  0  0  0  # atno 10765 bound_to 10752
  141.0838  133.6647  156.3790 H   0  0  0  0  0  0  0  0  0  0  0  0  # atno 11005 bound_to 11000
  145.7130  141.0100  143.1443 LP  0  0  0  0  0  0  0  0  0  0  0  0  # atno 17320 bound_to 7965
  144.7006  139.8779  143.7445 LP  0  0  0  0  0  0  0  0  0  0  0  0  # atno 17321 bound_to 7965
  140.2529  143.3580  152.1390 LP  0  0  0  0  0  0  0  0  0  0  0  0  # atno 17342 bound_to 10162
  139.5153  144.6961  151.5627 LP  0  0  0  0  0  0  0  0  0  0  0  0  # atno 17343 bound_to 10162
  157.1446  131.0305  151.2912 LP  0  0  0  0  0  0  0  0  0  0  0  0  # atno 17370 bound_to 10713
  157.4443  130.7562  149.7096 LP  0  0  0  0  0  0  0  0  0  0  0  0  # atno 17371 bound_to 10713
  140.5409  134.6122  157.5379 LP  0  0  0  0  0  0  0  0  0  0  0  0  # atno 17394 bound_to 11000
  139.9654  134.7381  156.0149 LP  0  0  0  0  0  0  0  0  0  0  0  0  # atno 17395 bound_to 11000

$$$$
