AV-unprocessed.smi:2565|AV-procd|sdf|10068|dock2
  -GOLD-   2272014103D 1   1.00000     0.00000
 Structure written by MMmdl.
 25 26  0  0  0  0  0  0  0  0  2 V2000
  152.2190  144.5774  159.4949 C   0  0  0  0  0  0  0  0  0  0  0  0
  152.6075  143.1827  159.5601 N   0  0  0  0  0  0  0  0  0  0  0  0
  153.4329  142.5848  160.4325 C   0  0  0  0  0  0  0  0  0  0  0  0
  153.5934  141.2751  160.2493 N   0  0  0  0  0  0  0  0  0  0  0  0
  152.8028  140.9776  159.1578 N   0  0  0  0  0  0  0  0  0  0  0  0
  152.2487  142.1389  158.7841 C   0  0  0  0  0  0  0  0  0  0  0  0
  151.2864  142.2758  157.6407 C   0  0  2  0  0  0  0  0  0  0  0  0
  149.8616  142.6212  158.1157 C   0  0  0  0  0  0  0  0  0  0  0  0
  148.9367  142.6453  156.9657 N   0  3  0  0  0  0  0  0  0  0  0  0
  148.9818  141.3780  156.2096 C   0  0  0  0  0  0  0  0  0  0  0  0
  150.4297  141.0571  155.7989 C   0  0  0  0  0  0  0  0  0  0  0  0
  151.2623  141.0263  156.9538 O   0  0  0  0  0  0  0  0  0  0  0  0
  152.6082  145.1157  160.3598 H   0  0  0  0  0  0  0  0  0  0  0  0
  151.1317  144.6591  159.4888 H   0  0  0  0  0  0  0  0  0  0  0  0
  152.6202  145.0291  158.5875 H   0  0  0  0  0  0  0  0  0  0  0  0
  153.9280  143.1211  161.2291 H   0  0  0  0  0  0  0  0  0  0  0  0
  151.6520  143.0435  156.9566 H   0  0  0  0  0  0  0  0  0  0  0  0
  149.5111  141.8825  158.8381 H   0  0  0  0  0  0  0  0  0  0  0  0
  149.8447  143.5913  158.6131 H   0  0  0  0  0  0  0  0  0  0  0  0
  147.9952  142.8066  157.2948 H   0  0  0  0  0  0  0  0  0  0  0  0
  148.5792  140.5759  156.8298 H   0  0  0  0  0  0  0  0  0  0  0  0
  148.3419  141.4577  155.3306 H   0  0  0  0  0  0  0  0  0  0  0  0
  150.4737  140.0862  155.3052 H   0  0  0  0  0  0  0  0  0  0  0  0
  150.8051  141.7934  155.0865 H   0  0  0  0  0  0  0  0  0  0  0  0
  149.2039  143.3996  156.3494 H   0  0  0  0  0  0  0  0  0  0  0  0
  1  2  1  0  0  0  0
  1 13  1  0  0  0  0
  1 14  1  0  0  0  0
  1 15  1  0  0  0  0
  2  6  1  0  0  0  0
  2  3  1  0  0  0  0
  3  4  2  0  0  0  0
  3 16  1  0  0  0  0
  4  5  1  0  0  0  0
  5  6  2  0  0  0  0
  6  7  1  0  0  0  0
  7 12  1  0  0  0  0
  7  8  1  0  0  0  0
  7 17  1  0  0  0  0
  8  9  1  0  0  0  0
  8 18  1  0  0  0  0
  8 19  1  0  0  0  0
  9 10  1  0  0  0  0
  9 20  1  0  0  0  0
  9 25  1  0  0  0  0
 10 11  1  0  0  0  0
 10 21  1  0  0  0  0
 10 22  1  0  0  0  0
 11 12  1  0  0  0  0
 11 23  1  0  0  0  0
 11 24  1  0  0  0  0
M  CHG  1   9   1
M  END
> <s_m_source_file>
AV-unprocessed.smi

> <i_m_source_file_index>
2565

> <i_lp_mmshare_version>
43012

> <i_f3d_flags>
0

> <s_epik_input>
W0NIM11uMVtjSF1ubmMxW0NAQEhdMltDSDJdW05IXVtDSDJdW0NIMl1PMg==

> <s_epik_cmdline>
J2VwaWtfcHl0aG9uJywgJy1waCcsICc3LjAnLCAnLXRuJywgJzgnLCAnLW1hJywgJzIwMCcsICctbWV0YWxfYmluZGluZycsICctaW1hZScsICc8aW5maWxlLm1hZT4nLCAnLW9tYWUnLCAnPG91dGZpbGUubWFlPic=

> <r_lp_tautomer_probability>
1

> <r_epik_Ionization_Penalty>
0.12571

> <r_epik_Ionization_Penalty_Charging>
0.125708

> <r_epik_Ionization_Penalty_Neutral>
1.64918e-06

> <r_epik_State_Penalty>
0.115169

> <r_epik_Charging_Adjusted_Penalty>
0.240877

> <i_epik_Tot_Q>
1

> <i_epik_Tot_abs_Q>
1

> <r_epik_Metal_State_Penalty>
0.115216

> <b_epik_Metal_Only>
0

> <s_lp_Force_Field>
OPLS_2005

> <r_lp_Energy>
13.9295

> <b_lp_Chiralities_Consistent>
1

> <s_lp_Variant>
AV-unprocessed.smi:2565-1

> <Gold.Version>
5.8.1

> <Gold.Id.Protein>
6NUR|6NUR_protein|mol2

> <Gold.PLP.Fitness>
30.9172

> <Gold.PLP.PLP>
-25.1420

> <Gold.PLP.part.hbond>
-0.7926

> <Gold.PLP.part.metal>
0.0000

> <Gold.PLP.part.buried>
-3.8478

> <Gold.PLP.part.nonpolar>
-20.0266

> <Gold.PLP.part.repulsive>
0.0202

> <Gold.PLP.ligand.clash>
0.0000

> <Gold.PLP.ligand.torsion>
0.1143

> <Gold.PLP.Chemscore.Hbond>
2.0000

> <Gold.PLP.Chemscore.CHOScore>
0.0000

> <Gold.PLP.Chemscore.Metal>
0.0000

> <Gold.Chemscore.Hbonds>
donor molecule, donor type, donor heavy atom, donor atom, acceptor molecule, acceptor atom, score
      L1  H     9    25       P1  8028  1.93

> <Gold.PLP.Chemscore.Internal.Correction>
0.0039

> <Gold.Rescore>
     Score         DG    S(hbond)    S(metal)    S(lipo)     H(rot)  DE(clash)    DE(int)     intcor
     10.56     -10.63       0.99        0.00      37.59       1.00       0.00       0.06       ----

> <Gold.Chemscore.Fitness>
10.5646

> <Gold.Chemscore.DG>
-10.6318

> <Gold.Chemscore.ZeroCoef>
-5.4800

> <Gold.Chemscore.Hbond>
0.9923

> <Gold.Chemscore.Metal>
0.0000

> <Gold.Chemscore.Lipo>
37.5870

> <Gold.Chemscore.Internal_Hbond>
0.0000

> <Gold.Chemscore.DEClash>
0.0048

> <Gold.Chemscore.DEInternal>
0.0624

> <Gold.Chemscore.Rot>
1.0000

> <Gold.Chemscore.Internal.Correction>
   9.000000E+99

> <Gold.Chemscore.Hbonds>
donor molecule, donor type, donor heavy atom, donor atom, acceptor molecule, acceptor atom, score
      L1  H     9    25       P1  8028  0.87

> <Gold.Chemscore.Hbond.Weighted>
-3.3142

> <Gold.Chemscore.Metal.Weighted>
-0.0000

> <Gold.Chemscore.Lipo.Weighted>
-4.3977

> <Gold.Chemscore.Internal_Hbond.Weighted>
0.0000

> <Gold.Chemscore.DEClash.Weighted>
0.0048

> <Gold.Chemscore.DEInternal.Weighted>
0.0624

> <Gold.Chemscore.Rot.Weighted>
2.5600

> <Gold.Chemscore.Internal.Correction.Weighted>
   9.000000E+99

> <Gold.Protein.RotatedTorsions>
[ 6907 6896 6895 6894 ] final -111.23 input  -60.11 | X-H torsion
[ 7974 7965 7964 7962 ] final -161.06 input  175.53 | X-H torsion
[ 8008 7997 7996 7995 ] final   64.66 input   59.86 | X-H torsion
[ 10167 10162 10161 10158 ] final -123.31 input  -65.29 | X-H torsion
[ 10718 10713 10712 10709 ] final   60.85 input   66.30 | X-H torsion
[ 10763 10752 10751 10750 ] final  -27.77 input  -60.55 | X-H torsion
[ 11005 11000 10999 10996 ] final  168.24 input  -57.11 | X-H torsion

> <Gold.Protein.ActiveResidues>
 VAL166  LYS551  ARG553  GLY616  TRP617  ASP618  TYR619  PRO620  LYS621  CYS622 
 ASP623  PHE694  ASN695  SER759  ASP760  ASP761  ALA762  ILE779  LEU786  VAL792 
 PHE793  MET794  SER795  GLU796  ALA797  LYS798  CYS799  TRP800  GLU811  SER814 

> <Gold.Protein.RotatedAtoms>
  150.7676  133.9266  159.3413 H   0  0  0  0  0  0  0  0  0  0  0  0  # atno 6907 bound_to 6896
  151.7160  135.0901  160.0285 H   0  0  0  0  0  0  0  0  0  0  0  0  # atno 6908 bound_to 6896
  152.3680  133.6343  159.6101 H   0  0  0  0  0  0  0  0  0  0  0  0  # atno 6909 bound_to 6896
  144.7404  140.3452  143.6127 H   0  0  0  0  0  0  0  0  0  0  0  0  # atno 7974 bound_to 7965
  155.6495  140.3497  155.4743 H   0  0  0  0  0  0  0  0  0  0  0  0  # atno 8008 bound_to 7997
  155.9859  140.1184  157.0706 H   0  0  0  0  0  0  0  0  0  0  0  0  # atno 8009 bound_to 7997
  154.4205  140.1129  156.5485 H   0  0  0  0  0  0  0  0  0  0  0  0  # atno 8010 bound_to 7997
  140.0049  143.5502  152.2288 H   0  0  0  0  0  0  0  0  0  0  0  0  # atno 10167 bound_to 10162
  157.5784  130.8962  149.9388 H   0  0  0  0  0  0  0  0  0  0  0  0  # atno 10718 bound_to 10713
  153.7375  135.6934  153.4974 H   0  0  0  0  0  0  0  0  0  0  0  0  # atno 10763 bound_to 10752
  153.2092  135.4409  155.0358 H   0  0  0  0  0  0  0  0  0  0  0  0  # atno 10764 bound_to 10752
  154.8232  135.3432  154.6902 H   0  0  0  0  0  0  0  0  0  0  0  0  # atno 10765 bound_to 10752
  140.2852  134.7718  157.3792 H   0  0  0  0  0  0  0  0  0  0  0  0  # atno 11005 bound_to 11000
  145.7333  139.1742  143.2418 LP  0  0  0  0  0  0  0  0  0  0  0  0  # atno 17320 bound_to 7965
  146.1189  140.7334  142.9467 LP  0  0  0  0  0  0  0  0  0  0  0  0  # atno 17321 bound_to 7965
  139.6245  144.7635  151.2667 LP  0  0  0  0  0  0  0  0  0  0  0  0  # atno 17342 bound_to 10162
  140.7404  143.6588  150.8183 LP  0  0  0  0  0  0  0  0  0  0  0  0  # atno 17343 bound_to 10162
  156.0829  130.3671  150.0544 LP  0  0  0  0  0  0  0  0  0  0  0  0  # atno 17370 bound_to 10713
  156.8687  130.9517  151.3611 LP  0  0  0  0  0  0  0  0  0  0  0  0  # atno 17371 bound_to 10713
  140.1246  134.5175  155.8155 LP  0  0  0  0  0  0  0  0  0  0  0  0  # atno 17394 bound_to 11000
  141.2156  133.6768  156.6928 LP  0  0  0  0  0  0  0  0  0  0  0  0  # atno 17395 bound_to 11000

$$$$
