AV-unprocessed.smi:1109|AV-procd|sdf|4789|dock3
  -GOLD-   22720 3333D 1   1.00000     0.00000
 Structure written by MMmdl.
 45 46  0  0  0  0  0  0  0  0  1 V2000
  147.3849  136.4415  162.4438 C   0  0  0  0  0  0  0  0  0  0  0  0
  147.5107  137.2126  161.2627 O   0  0  0  0  0  0  0  0  0  0  0  0
  148.1703  136.5104  160.2210 C   0  0  0  0  0  0  0  0  0  0  0  0
  148.1227  137.3444  158.9312 C   0  0  0  0  0  0  0  0  0  0  0  0
  149.4163  137.3472  158.2401 N   0  0  0  0  0  0  0  0  0  0  0  0
  150.0458  138.5772  158.2436 N   0  0  0  0  0  0  0  0  0  0  0  0
  151.1891  138.7347  157.6644 C   0  0  0  0  0  0  0  0  0  0  0  0
  151.9310  140.0369  157.6764 C   0  0  0  0  0  0  0  0  0  0  0  0
  153.1076  140.0239  158.0431 O   0  0  0  0  0  0  0  0  0  0  0  0
  151.2915  141.2079  157.3595 N   0  0  0  0  0  0  0  0  0  0  0  0
  150.0824  141.2975  156.5082 C   0  0  0  0  0  0  0  0  0  0  0  0
  150.2558  140.7999  155.0607 C   0  0  0  0  0  0  0  0  0  0  0  0
  149.2753  141.0208  154.1787 N   0  0  0  0  0  0  0  0  0  0  0  0
  151.2823  140.2035  154.7452 O   0  0  0  0  0  0  0  0  0  0  0  0
  151.8868  142.5333  157.6671 C   0  0  0  0  0  0  0  0  0  0  0  0
  152.6644  142.5749  159.0024 C   0  0  0  0  0  0  0  0  0  0  0  0
  151.9930  143.6552  159.8559 C   0  0  0  0  0  0  0  0  0  0  0  0
  151.3511  144.6063  158.8486 C   0  0  0  0  0  0  0  0  0  0  0  0
  150.8750  143.7016  157.7114 C   0  0  0  0  0  0  0  0  0  0  0  0
  151.8431  137.6111  157.0129 C   0  0  0  0  0  0  0  0  0  0  0  0
  151.2292  136.4074  157.0342 C   0  0  0  0  0  0  0  0  0  0  0  0
  149.9341  136.2101  157.6874 C   0  0  0  0  0  0  0  0  0  0  0  0
  149.3635  135.1211  157.7380 O   0  0  0  0  0  0  0  0  0  0  0  0
  146.8749  137.0253  163.2100 H   0  0  0  0  0  0  0  0  0  0  0  0
  148.3626  136.1554  162.8333 H   0  0  0  0  0  0  0  0  0  0  0  0
  146.8008  135.5381  162.2643 H   0  0  0  0  0  0  0  0  0  0  0  0
  149.2028  136.2921  160.4986 H   0  0  0  0  0  0  0  0  0  0  0  0
  147.6701  135.5553  160.0550 H   0  0  0  0  0  0  0  0  0  0  0  0
  147.3433  136.9579  158.2724 H   0  0  0  0  0  0  0  0  0  0  0  0
  147.8185  138.3663  159.1655 H   0  0  0  0  0  0  0  0  0  0  0  0
  149.2855  140.7074  156.9633 H   0  0  0  0  0  0  0  0  0  0  0  0
  149.6725  142.3080  156.4915 H   0  0  0  0  0  0  0  0  0  0  0  0
  149.3749  140.7062  153.2245 H   0  0  0  0  0  0  0  0  0  0  0  0
  148.4397  141.5072  154.4696 H   0  0  0  0  0  0  0  0  0  0  0  0
  152.6035  142.7921  156.8855 H   0  0  0  0  0  0  0  0  0  0  0  0
  152.6948  141.6151  159.5193 H   0  0  0  0  0  0  0  0  0  0  0  0
  153.6997  142.8576  158.8077 H   0  0  0  0  0  0  0  0  0  0  0  0
  151.2188  143.2067  160.4794 H   0  0  0  0  0  0  0  0  0  0  0  0
  152.6961  144.1606  160.5184 H   0  0  0  0  0  0  0  0  0  0  0  0
  150.5424  145.1945  159.2830 H   0  0  0  0  0  0  0  0  0  0  0  0
  152.1032  145.3010  158.4727 H   0  0  0  0  0  0  0  0  0  0  0  0
  150.8284  144.2356  156.7619 H   0  0  0  0  0  0  0  0  0  0  0  0
  149.8617  143.3649  157.9284 H   0  0  0  0  0  0  0  0  0  0  0  0
  152.7963  137.7304  156.5180 H   0  0  0  0  0  0  0  0  0  0  0  0
  151.7051  135.5655  156.5531 H   0  0  0  0  0  0  0  0  0  0  0  0
  1  2  1  0  0  0  0
  1 24  1  0  0  0  0
  1 25  1  0  0  0  0
  1 26  1  0  0  0  0
  2  3  1  0  0  0  0
  3  4  1  0  0  0  0
  3 27  1  0  0  0  0
  3 28  1  0  0  0  0
  4  5  1  0  0  0  0
  4 29  1  0  0  0  0
  4 30  1  0  0  0  0
  5 22  1  0  0  0  0
  5  6  1  0  0  0  0
  6  7  2  0  0  0  0
  7  8  1  0  0  0  0
  7 20  1  0  0  0  0
  8  9  2  0  0  0  0
  8 10  1  0  0  0  0
 10 11  1  0  0  0  0
 10 15  1  0  0  0  0
 11 12  1  0  0  0  0
 11 31  1  0  0  0  0
 11 32  1  0  0  0  0
 12 13  1  0  0  0  0
 12 14  2  0  0  0  0
 13 33  1  0  0  0  0
 13 34  1  0  0  0  0
 15 19  1  0  0  0  0
 15 16  1  0  0  0  0
 15 35  1  0  0  0  0
 16 17  1  0  0  0  0
 16 36  1  0  0  0  0
 16 37  1  0  0  0  0
 17 18  1  0  0  0  0
 17 38  1  0  0  0  0
 17 39  1  0  0  0  0
 18 19  1  0  0  0  0
 18 40  1  0  0  0  0
 18 41  1  0  0  0  0
 19 42  1  0  0  0  0
 19 43  1  0  0  0  0
 20 21  2  0  0  0  0
 20 44  1  0  0  0  0
 21 22  1  0  0  0  0
 21 45  1  0  0  0  0
 22 23  2  0  0  0  0
M  END
> <s_m_source_file>
AV-unprocessed.smi

> <i_m_source_file_index>
1109

> <i_lp_mmshare_version>
43012

> <i_f3d_flags>
0

> <s_epik_input>
W0NIM11PW0NIMl1bQ0gyXW4xbmMoW2NIXVtjSF1jMT1PKUMoPU8pTihbQ0gyXUMoPU8pW05IMl0pW0NIXTJbQ0gyXVtDSDJdW0NIMl1bQ0gyXTI=

> <s_epik_cmdline>
J2VwaWtfcHl0aG9uJywgJy1waCcsICc3LjAnLCAnLXRuJywgJzgnLCAnLW1hJywgJzIwMCcsICctbWV0YWxfYmluZGluZycsICctaW1hZScsICc8aW5maWxlLm1hZT4nLCAnLW9tYWUnLCAnPG91dGZpbGUubWFlPic=

> <r_lp_tautomer_probability>
1

> <r_epik_Ionization_Penalty>
6.63696e-08

> <r_epik_Ionization_Penalty_Charging>
1.13312e-09

> <r_epik_Ionization_Penalty_Neutral>
6.52365e-08

> <r_epik_State_Penalty>
-0

> <r_epik_Charging_Adjusted_Penalty>
1.13312e-09

> <i_epik_Tot_Q>
0

> <i_epik_Tot_abs_Q>
0

> <r_epik_Metal_State_Penalty>
-0

> <b_epik_Metal_Only>
0

> <s_lp_Force_Field>
OPLS_2005

> <r_lp_Energy>
53.0262

> <b_lp_Chiralities_Consistent>
1

> <s_lp_Variant>
AV-unprocessed.smi:1109-1

> <Gold.Version>
5.8.1

> <Gold.Id.Protein>
6NUR|6NUR_protein|mol2

> <Gold.PLP.Fitness>
49.6358

> <Gold.PLP.PLP>
-38.2746

> <Gold.PLP.part.hbond>
-5.1796

> <Gold.PLP.part.metal>
0.0000

> <Gold.PLP.part.buried>
-2.0471

> <Gold.PLP.part.nonpolar>
-29.9899

> <Gold.PLP.part.repulsive>
0.2490

> <Gold.PLP.ligand.clash>
0.0000

> <Gold.PLP.ligand.torsion>
2.2039

> <Gold.PLP.Chemscore.Hbond>
5.0834

> <Gold.PLP.Chemscore.CHOScore>
0.0000

> <Gold.PLP.Chemscore.Metal>
0.0000

> <Gold.Chemscore.Hbonds>
donor molecule, donor type, donor heavy atom, donor atom, acceptor molecule, acceptor atom, score
      L1  H    13    33       P1  7957  0.63
      P1  H  6896  6909       L1    23  0.33
      P1  H  6931  6943       L1     2  0.64
      P1  H  6934  6947       L1     2  0.93
      P1  H  7989  7998       L1    14  0.81
      P1  H  7997  8008       L1     9  1.00

> <Gold.PLP.Chemscore.Internal.Correction>
0.5189

> <Gold.Rescore>
     Score         DG    S(hbond)    S(metal)    S(lipo)     H(rot)  DE(clash)    DE(int)     intcor
     14.79     -19.01       2.91        0.00      89.59       2.61       0.12       4.10       ----

> <Gold.Chemscore.Fitness>
14.7864

> <Gold.Chemscore.DG>
-19.0133

> <Gold.Chemscore.ZeroCoef>
-5.4800

> <Gold.Chemscore.Hbond>
2.9106

> <Gold.Chemscore.Metal>
0.0000

> <Gold.Chemscore.Lipo>
89.5949

> <Gold.Chemscore.Internal_Hbond>
0.0000

> <Gold.Chemscore.DEClash>
0.1222

> <Gold.Chemscore.DEInternal>
4.1047

> <Gold.Chemscore.Rot>
2.6057

> <Gold.Chemscore.Internal.Correction>
   9.000000E+99

> <Gold.Chemscore.Hbonds>
donor molecule, donor type, donor heavy atom, donor atom, acceptor molecule, acceptor atom, score
      L1  H    13    33       P1  7957  0.63
      P1  H  6896  6909       L1    23  0.06
      P1  H  6931  6943       L1     2  0.02
      P1  H  6934  6947       L1     2  0.83
      P1  H  7989  7998       L1    14  0.28
      P1  H  7997  8008       L1     9  0.97

> <Gold.Chemscore.Hbond.Weighted>
-9.7214

> <Gold.Chemscore.Metal.Weighted>
-0.0000

> <Gold.Chemscore.Lipo.Weighted>
-10.4826

> <Gold.Chemscore.Internal_Hbond.Weighted>
0.0000

> <Gold.Chemscore.DEClash.Weighted>
0.1222

> <Gold.Chemscore.DEInternal.Weighted>
4.1047

> <Gold.Chemscore.Rot.Weighted>
6.6707

> <Gold.Chemscore.Internal.Correction.Weighted>
   9.000000E+99

> <Gold.Protein.RotatedTorsions>
[ 6907 6896 6895 6894 ] final   27.14 input  -60.11 | X-H torsion
[ 7974 7965 7964 7962 ] final  103.02 input  175.53 | X-H torsion
[ 8008 7997 7996 7995 ] final  -86.39 input   59.86 | X-H torsion
[ 10167 10162 10161 10158 ] final   77.44 input  -65.29 | X-H torsion
[ 10718 10713 10712 10709 ] final -155.17 input   66.30 | X-H torsion
[ 10763 10752 10751 10750 ] final  -57.94 input  -60.55 | X-H torsion
[ 11005 11000 10999 10996 ] final  163.48 input  -57.11 | X-H torsion

> <Gold.Protein.ActiveResidues>
 VAL166  LYS551  ARG553  GLY616  TRP617  ASP618  TYR619  PRO620  LYS621  CYS622 
 ASP623  PHE694  ASN695  SER759  ASP760  ASP761  ALA762  ILE779  LEU786  VAL792 
 PHE793  MET794  SER795  GLU796  ALA797  LYS798  CYS799  TRP800  GLU811  SER814 

> <Gold.Protein.RotatedAtoms>
  151.9978  134.9944  160.0563 H   0  0  0  0  0  0  0  0  0  0  0  0  # atno 6907 bound_to 6896
  152.1547  133.4539  159.4839 H   0  0  0  0  0  0  0  0  0  0  0  0  # atno 6908 bound_to 6896
  150.6880  134.2063  159.4385 H   0  0  0  0  0  0  0  0  0  0  0  0  # atno 6909 bound_to 6896
  145.3515  139.2438  143.3556 H   0  0  0  0  0  0  0  0  0  0  0  0  # atno 7974 bound_to 7965
  154.6514  140.0579  156.9959 H   0  0  0  0  0  0  0  0  0  0  0  0  # atno 8008 bound_to 7997
  155.1366  140.3261  155.4443 H   0  0  0  0  0  0  0  0  0  0  0  0  # atno 8009 bound_to 7997
  156.2577  140.1971  156.6483 H   0  0  0  0  0  0  0  0  0  0  0  0  # atno 8010 bound_to 7997
  139.9816  144.5822  150.7896 H   0  0  0  0  0  0  0  0  0  0  0  0  # atno 10167 bound_to 10162
  156.5092  130.8427  151.2640 H   0  0  0  0  0  0  0  0  0  0  0  0  # atno 10718 bound_to 10713
  154.2303  135.6362  153.5173 H   0  0  0  0  0  0  0  0  0  0  0  0  # atno 10763 bound_to 10752
  152.9950  135.5518  154.6020 H   0  0  0  0  0  0  0  0  0  0  0  0  # atno 10764 bound_to 10752
  154.5501  135.2901  155.0990 H   0  0  0  0  0  0  0  0  0  0  0  0  # atno 10765 bound_to 10752
  140.2362  134.8086  157.3366 H   0  0  0  0  0  0  0  0  0  0  0  0  # atno 11005 bound_to 11000
  146.2966  140.4131  142.8719 LP  0  0  0  0  0  0  0  0  0  0  0  0  # atno 17320 bound_to 7965
  144.8714  140.7278  143.6044 LP  0  0  0  0  0  0  0  0  0  0  0  0  # atno 17321 bound_to 7965
  140.7487  143.2927  151.3288 LP  0  0  0  0  0  0  0  0  0  0  0  0  # atno 17342 bound_to 10162
  139.6406  144.0547  152.2551 LP  0  0  0  0  0  0  0  0  0  0  0  0  # atno 17343 bound_to 10162
  157.7453  130.9955  150.2747 LP  0  0  0  0  0  0  0  0  0  0  0  0  # atno 17370 bound_to 10713
  156.3257  130.3792  149.7536 LP  0  0  0  0  0  0  0  0  0  0  0  0  # atno 17371 bound_to 10713
  140.1700  134.4621  155.7838 LP  0  0  0  0  0  0  0  0  0  0  0  0  # atno 17394 bound_to 11000
  141.2214  133.6937  156.7691 LP  0  0  0  0  0  0  0  0  0  0  0  0  # atno 17395 bound_to 11000

$$$$
