AV-unprocessed.smi:3274|AV-procd|sdf|12528|dock2
  -GOLD-   2272018443D 1   1.00000     0.00000
 Structure written by MMmdl.
 43 44  0  0  0  0  0  0  0  0  2 V2000
  153.0853  140.4827  159.3357 C   0  0  0  0  0  0  0  0  0  0  0  0
  152.6119  141.8119  159.8985 C   0  0  0  0  0  0  0  0  0  0  0  0
  152.8414  142.1097  161.1916 C   0  0  0  0  0  0  0  0  0  0  0  0
  152.4798  143.4257  161.8407 C   0  0  0  0  0  0  0  0  0  0  0  0
  152.2936  144.5238  160.7910 C   0  0  0  0  0  0  0  0  0  0  0  0
  151.3642  144.0642  159.6559 C   0  0  1  0  0  0  0  0  0  0  0  0
  151.1315  145.2349  158.6805 C   0  0  0  0  0  0  0  0  0  0  0  0
  151.8952  142.7842  158.9389 C   0  0  2  0  0  0  0  0  0  0  0  0
  150.7518  142.1018  158.1424 C   0  0  0  0  0  0  0  0  0  0  0  0
  150.7070  142.5298  156.7267 N   0  3  0  0  0  0  0  0  0  0  0  0
  150.2547  141.5002  155.7618 C   0  0  1  0  0  0  0  0  0  0  0  0
  150.9600  140.1558  156.0089 C   0  0  0  0  0  0  0  0  0  0  0  0
  148.7247  141.3332  155.8386 C   0  0  0  0  0  0  0  0  0  0  0  0
  148.2098  140.4705  154.7906 N   0  0  0  0  0  0  0  0  0  0  0  0
  147.4610  140.7526  153.7231 C   0  0  0  0  0  0  0  0  0  0  0  0
  147.1691  139.6940  152.9806 N   0  0  0  0  0  0  0  0  0  0  0  0
  147.8228  138.7276  153.6915 C   0  0  0  0  0  0  0  0  0  0  0  0
  148.4581  139.1400  154.7889 N   0  0  0  0  0  0  0  0  0  0  0  0
  153.6704  140.6395  158.4294 H   0  0  0  0  0  0  0  0  0  0  0  0
  152.2404  139.8336  159.1069 H   0  0  0  0  0  0  0  0  0  0  0  0
  153.7179  139.9516  160.0477 H   0  0  0  0  0  0  0  0  0  0  0  0
  153.3264  141.3879  161.8332 H   0  0  0  0  0  0  0  0  0  0  0  0
  151.5700  143.2887  162.4261 H   0  0  0  0  0  0  0  0  0  0  0  0
  153.2696  143.7108  162.5364 H   0  0  0  0  0  0  0  0  0  0  0  0
  151.8973  145.4190  161.2719 H   0  0  0  0  0  0  0  0  0  0  0  0
  153.2647  144.8005  160.3776 H   0  0  0  0  0  0  0  0  0  0  0  0
  150.4042  143.8201  160.1145 H   0  0  0  0  0  0  0  0  0  0  0  0
  152.0549  145.5159  158.1730 H   0  0  0  0  0  0  0  0  0  0  0  0
  150.7692  146.1164  159.2104 H   0  0  0  0  0  0  0  0  0  0  0  0
  150.3919  145.0022  157.9160 H   0  0  0  0  0  0  0  0  0  0  0  0
  152.6596  143.1078  158.2303 H   0  0  0  0  0  0  0  0  0  0  0  0
  150.8649  141.0181  158.2003 H   0  0  0  0  0  0  0  0  0  0  0  0
  149.7832  142.3303  158.5813 H   0  0  0  0  0  0  0  0  0  0  0  0
  150.1171  143.3455  156.6435 H   0  0  0  0  0  0  0  0  0  0  0  0
  150.5043  141.8410  154.7556 H   0  0  0  0  0  0  0  0  0  0  0  0
  150.5902  139.3903  155.3260 H   0  0  0  0  0  0  0  0  0  0  0  0
  150.7922  139.7996  157.0260 H   0  0  0  0  0  0  0  0  0  0  0  0
  152.0362  140.2275  155.8525 H   0  0  0  0  0  0  0  0  0  0  0  0
  148.4418  140.8955  156.7969 H   0  0  0  0  0  0  0  0  0  0  0  0
  148.2269  142.3029  155.7809 H   0  0  0  0  0  0  0  0  0  0  0  0
  147.1175  141.7493  153.4876 H   0  0  0  0  0  0  0  0  0  0  0  0
  147.8243  137.6885  153.3960 H   0  0  0  0  0  0  0  0  0  0  0  0
  151.6475  142.7915  156.4654 H   0  0  0  0  0  0  0  0  0  0  0  0
  1  2  1  0  0  0  0
  1 19  1  0  0  0  0
  1 20  1  0  0  0  0
  1 21  1  0  0  0  0
  2  8  1  0  0  0  0
  2  3  2  0  0  0  0
  3  4  1  0  0  0  0
  3 22  1  0  0  0  0
  4  5  1  0  0  0  0
  4 23  1  0  0  0  0
  4 24  1  0  0  0  0
  5  6  1  0  0  0  0
  5 25  1  0  0  0  0
  5 26  1  0  0  0  0
  6  7  1  0  0  0  0
  6  8  1  0  0  0  0
  6 27  1  0  0  0  0
  7 28  1  0  0  0  0
  7 29  1  0  0  0  0
  7 30  1  0  0  0  0
  8  9  1  0  0  0  0
  8 31  1  0  0  0  0
  9 10  1  0  0  0  0
  9 32  1  0  0  0  0
  9 33  1  0  0  0  0
 10 11  1  0  0  0  0
 10 34  1  0  0  0  0
 10 43  1  0  0  0  0
 11 12  1  0  0  0  0
 11 13  1  0  0  0  0
 11 35  1  0  0  0  0
 12 36  1  0  0  0  0
 12 37  1  0  0  0  0
 12 38  1  0  0  0  0
 13 14  1  0  0  0  0
 13 39  1  0  0  0  0
 13 40  1  0  0  0  0
 14 18  1  0  0  0  0
 14 15  1  0  0  0  0
 15 16  2  0  0  0  0
 15 41  1  0  0  0  0
 16 17  1  0  0  0  0
 17 18  2  0  0  0  0
 17 42  1  0  0  0  0
M  CHG  1  10   1
M  END
> <s_m_source_file>
AV-unprocessed.smi

> <i_m_source_file_index>
3274

> <i_lp_mmshare_version>
43012

> <i_f3d_flags>
0

> <s_epik_input>
W0NIM11DMT1bQ0hdW0NIMl1bQ0gyXVtDQEBIXShbQ0gzXSlbQ0BIXTFbQ0gyXVtOSF1bQ0BIXShbQ0gzXSlbQ0gyXW4yW2NIXW5bY0hdbjI=

> <s_epik_cmdline>
J2VwaWtfcHl0aG9uJywgJy1waCcsICc3LjAnLCAnLXRuJywgJzgnLCAnLW1hJywgJzIwMCcsICctbWV0YWxfYmluZGluZycsICctaW1hZScsICc8aW5maWxlLm1hZT4nLCAnLW9tYWUnLCAnPG91dGZpbGUubWFlPic=

> <r_lp_tautomer_probability>
1

> <r_epik_Ionization_Penalty>
0.0017527

> <r_epik_Ionization_Penalty_Charging>
0.00175191

> <r_epik_Ionization_Penalty_Neutral>
7.94565e-07

> <r_epik_State_Penalty>
0.00118605

> <r_epik_Charging_Adjusted_Penalty>
0.00293796

> <i_epik_Tot_Q>
1

> <i_epik_Tot_abs_Q>
1

> <r_epik_Metal_State_Penalty>
-0

> <b_epik_Metal_Only>
0

> <s_lp_Force_Field>
OPLS_2005

> <r_lp_Energy>
17.2451

> <b_lp_Chiralities_Consistent>
1

> <s_lp_Variant>
AV-unprocessed.smi:3274-7

> <Gold.Version>
5.8.1

> <Gold.Id.Protein>
6NUR|6NUR_protein|mol2

> <Gold.PLP.Fitness>
48.3924

> <Gold.PLP.PLP>
-41.2206

> <Gold.PLP.part.hbond>
-1.0000

> <Gold.PLP.part.metal>
0.0000

> <Gold.PLP.part.buried>
-5.5973

> <Gold.PLP.part.nonpolar>
-35.6895

> <Gold.PLP.part.repulsive>
1.1099

> <Gold.PLP.ligand.clash>
0.0000

> <Gold.PLP.ligand.torsion>
0.9483

> <Gold.PLP.Chemscore.Hbond>
2.0000

> <Gold.PLP.Chemscore.CHOScore>
1.0000

> <Gold.PLP.Chemscore.Metal>
0.0000

> <Gold.Chemscore.Hbonds>
donor molecule, donor type, donor heavy atom, donor atom, acceptor molecule, acceptor atom, score
      L1  H    10    34       P1  8028  1.72
      L1  C    17    42       P1  7948  1.00

> <Gold.PLP.Chemscore.Internal.Correction>
0.0684

> <Gold.Rescore>
     Score         DG    S(hbond)    S(metal)    S(lipo)     H(rot)  DE(clash)    DE(int)     intcor
     13.57     -15.76       0.97        0.00     111.78       2.36       0.04       2.15       ----

> <Gold.Chemscore.Fitness>
13.5747

> <Gold.Chemscore.DG>
-15.7611

> <Gold.Chemscore.ZeroCoef>
-5.4800

> <Gold.Chemscore.Hbond>
0.9726

> <Gold.Chemscore.Metal>
0.0000

> <Gold.Chemscore.Lipo>
111.7777

> <Gold.Chemscore.Internal_Hbond>
0.0000

> <Gold.Chemscore.DEClash>
0.0357

> <Gold.Chemscore.DEInternal>
2.1508

> <Gold.Chemscore.Rot>
2.3615

> <Gold.Chemscore.Internal.Correction>
   9.000000E+99

> <Gold.Chemscore.Hbonds>
donor molecule, donor type, donor heavy atom, donor atom, acceptor molecule, acceptor atom, score
      L1  H    10    34       P1  8028  0.83

> <Gold.Chemscore.Hbond.Weighted>
-3.2485

> <Gold.Chemscore.Metal.Weighted>
-0.0000

> <Gold.Chemscore.Lipo.Weighted>
-13.0780

> <Gold.Chemscore.Internal_Hbond.Weighted>
0.0000

> <Gold.Chemscore.DEClash.Weighted>
0.0357

> <Gold.Chemscore.DEInternal.Weighted>
2.1508

> <Gold.Chemscore.Rot.Weighted>
6.0454

> <Gold.Chemscore.Internal.Correction.Weighted>
   9.000000E+99

> <Gold.Protein.RotatedTorsions>
[ 6907 6896 6895 6894 ] final  158.09 input  -60.11 | X-H torsion
[ 7974 7965 7964 7962 ] final  131.38 input  175.53 | X-H torsion
[ 8008 7997 7996 7995 ] final  -45.53 input   59.86 | X-H torsion
[ 10167 10162 10161 10158 ] final  -99.19 input  -65.29 | X-H torsion
[ 10718 10713 10712 10709 ] final -117.79 input   66.30 | X-H torsion
[ 10763 10752 10751 10750 ] final  -50.67 input  -60.55 | X-H torsion
[ 11005 11000 10999 10996 ] final -117.20 input  -57.11 | X-H torsion

> <Gold.Protein.ActiveResidues>
 VAL166  LYS551  ARG553  GLY616  TRP617  ASP618  TYR619  PRO620  LYS621  CYS622 
 ASP623  PHE694  ASN695  SER759  ASP760  ASP761  ALA762  ILE779  LEU786  VAL792 
 PHE793  MET794  SER795  GLU796  ALA797  LYS798  CYS799  TRP800  GLU811  SER814 

> <Gold.Protein.RotatedAtoms>
  152.0055  133.3841  159.4198 H   0  0  0  0  0  0  0  0  0  0  0  0  # atno 6907 bound_to 6896
  150.6905  134.3788  159.5034 H   0  0  0  0  0  0  0  0  0  0  0  0  # atno 6908 bound_to 6896
  152.1541  134.8964  160.0597 H   0  0  0  0  0  0  0  0  0  0  0  0  # atno 6909 bound_to 6896
  145.0079  139.4249  143.5259 H   0  0  0  0  0  0  0  0  0  0  0  0  # atno 7974 bound_to 7965
  154.4001  140.1394  156.3863 H   0  0  0  0  0  0  0  0  0  0  0  0  # atno 8008 bound_to 7997
  155.7956  140.3477  155.5353 H   0  0  0  0  0  0  0  0  0  0  0  0  # atno 8009 bound_to 7997
  155.8535  140.0945  157.1650 H   0  0  0  0  0  0  0  0  0  0  0  0  # atno 8010 bound_to 7997
  140.2650  143.3382  152.0589 H   0  0  0  0  0  0  0  0  0  0  0  0  # atno 10167 bound_to 10162
  156.1059  130.6210  150.9209 H   0  0  0  0  0  0  0  0  0  0  0  0  # atno 10718 bound_to 10713
  154.1142  135.6544  153.4890 H   0  0  0  0  0  0  0  0  0  0  0  0  # atno 10763 bound_to 10752
  153.0246  135.5255  154.7162 H   0  0  0  0  0  0  0  0  0  0  0  0  # atno 10764 bound_to 10752
  154.6350  135.2981  155.0141 H   0  0  0  0  0  0  0  0  0  0  0  0  # atno 10765 bound_to 10752
  141.0371  133.9893  157.3054 H   0  0  0  0  0  0  0  0  0  0  0  0  # atno 11005 bound_to 11000
  146.3464  139.9506  142.8729 LP  0  0  0  0  0  0  0  0  0  0  0  0  # atno 17320 bound_to 7965
  145.2063  140.9876  143.4126 LP  0  0  0  0  0  0  0  0  0  0  0  0  # atno 17321 bound_to 7965
  139.5005  144.6694  151.6279 LP  0  0  0  0  0  0  0  0  0  0  0  0  # atno 17342 bound_to 10162
  140.5935  143.9737  150.6340 LP  0  0  0  0  0  0  0  0  0  0  0  0  # atno 17343 bound_to 10162
  157.6236  131.0927  150.8576 LP  0  0  0  0  0  0  0  0  0  0  0  0  # atno 17370 bound_to 10713
  156.8696  130.5141  149.5298 LP  0  0  0  0  0  0  0  0  0  0  0  0  # atno 17371 bound_to 10713
  139.9248  135.0201  156.8195 LP  0  0  0  0  0  0  0  0  0  0  0  0  # atno 17394 bound_to 11000
  140.6303  133.9912  155.7659 LP  0  0  0  0  0  0  0  0  0  0  0  0  # atno 17395 bound_to 11000

$$$$
