#       Name:                AV-unprocessed.smi:1944
#       Creating user name   scv26
#       Creation time:       Fri Mar 27 10:00:04 2020


#       File generated by GOLD software.
#

@<TRIPOS>MOLECULE
AV-unprocessed.smi:1944
    51    52     1
SMALL
NO_CHARGES


@<TRIPOS>ATOM
      1 ****        -5.9324  -2.6202   1.6425 C.3            1 S1                 0.0000
      2 ****        -4.7775  -1.7963   1.5263 O.3            1 S1                 0.0000
      3 ****        -4.9486  -0.4274   1.4441 C.ar           1 S1                 0.0000
      4 ****        -6.2117   0.0674   1.4673 N.ar           1 S1                 0.0000
      5 ****        -6.3801   1.4036   1.3930 C.ar           1 S1                 0.0000
      6 ****        -5.3090   2.3106   1.2988 C.ar           1 S1                 0.0000
      7 ****        -3.9980   1.8001   1.2742 C.ar           1 S1                 0.0000
      8 ****        -3.8049   0.3984   1.3364 C.ar           1 S1                 0.0000
      9 ****        -2.5259  -0.2246   1.3393 N.am           1 S1                 0.0000
     10 ****        -1.3535   0.2590   0.8952 C.2            1 S1                 0.0000
     11 ****        -1.1876   1.3582   0.3666 O.2            1 S1                 0.0000
     12 ****        -0.3630  -0.6254   1.0789 N.am           1 S1                 0.0000
     13 ****         1.0295  -0.4045   0.7069 C.3            1 S1                 0.0000
     14 ****         1.2465  -0.6041  -0.8097 C.3            1 S1                 0.0000
     15 ****         2.6484  -0.3831  -1.2630 N.4            1 S1                 1.0000
     16 ****         3.5684  -1.4614  -0.8103 C.3            1 S1                 0.0000
     17 ****         4.9346  -1.3546  -1.5033 C.3            1 S1                 0.0000
     18 ****         5.5578   0.0221  -1.2537 C.3            1 S1                 0.0000
     19 ****         4.5868   1.1214  -1.7015 C.3            1 S1                 0.0000
     20 ****         3.2082   0.9839  -1.0196 C.3            1 S1                 0.0000
     21 ****         2.2756   2.1088  -1.5104 C.3            1 S1                 0.0000
     22 ****        -5.6250  -3.6639   1.7045 H              1 S1                 0.0000
     23 ****        -6.5847  -2.5186   0.7742 H              1 S1                 0.0000
     24 ****        -6.4990  -2.3885   2.5454 H              1 S1                 0.0000
     25 ****        -7.3991   1.7608   1.4160 H              1 S1                 0.0000
     26 ****        -5.4887   3.3743   1.2517 H              1 S1                 0.0000
     27 ****        -3.1725   2.4925   1.2236 H              1 S1                 0.0000
     28 ****        -2.5165  -1.1783   1.6710 H              1 S1                 0.0000
     29 ****        -0.5863  -1.5073   1.5172 H              1 S1                 0.0000
     30 ****         1.3286   0.5947   1.0257 H              1 S1                 0.0000
     31 ****         1.6365  -1.1072   1.2771 H              1 S1                 0.0000
     32 ****         0.9485  -1.6163  -1.0869 H              1 S1                 0.0000
     33 ****         0.5828   0.0468  -1.3782 H              1 S1                 0.0000
     34 ****         3.7009  -1.4084   0.2710 H              1 S1                 0.0000
     35 ****         3.1318  -2.4365  -1.0292 H              1 S1                 0.0000
     36 ****         5.6005  -2.1375  -1.1390 H              1 S1                 0.0000
     37 ****         4.8192  -1.5190  -2.5755 H              1 S1                 0.0000
     38 ****         5.7874   0.1392  -0.1939 H              1 S1                 0.0000
     39 ****         6.5026   0.1116  -1.7906 H              1 S1                 0.0000
     40 ****         5.0191   2.0975  -1.4786 H              1 S1                 0.0000
     41 ****         4.4680   1.0792  -2.7854 H              1 S1                 0.0000
     42 ****         3.3547   1.1096   0.0540 H              1 S1                 0.0000
     43 ****         2.7509   3.0835  -1.3976 H              1 S1                 0.0000
     44 ****         1.3464   2.1507  -0.9424 H              1 S1                 0.0000
     45 ****         2.0229   1.9858  -2.5639 H              1 S1                 0.0000
     46 ****         2.6090  -0.4761  -2.2681 H              1 S1                 0.0000
     47 ****        -4.2924  -2.0831   0.7002 LP             1 S1                 0.0000
     48 ****        -4.2061  -1.9746   2.3273 LP             1 S1                 0.0000
     49 ****        -6.9996  -0.5444   1.5378 LP             1 S1                 0.0000
     50 ****        -1.9652   1.9737   0.2381 LP             1 S1                 0.0000
     51 ****        -0.2753   1.6357   0.0657 LP             1 S1                 0.0000
@<TRIPOS>BOND
    1    1    2 1     
    2    1   22 1     
    3    1   23 1     
    4    1   24 1     
    5    2    3 1     
    6    3    8 ar    
    7    3    4 ar    
    8    4    5 ar    
    9    5    6 ar    
   10    5   25 1     
   11    6    7 ar    
   12    6   26 1     
   13    7    8 ar    
   14    7   27 1     
   15    8    9 1     
   16    9   10 am    
   17    9   28 1     
   18   10   11 2     
   19   10   12 am    
   20   12   13 1     
   21   12   29 1     
   22   13   14 1     
   23   13   30 1     
   24   13   31 1     
   25   14   15 1     
   26   14   32 1     
   27   14   33 1     
   28   15   20 1     
   29   15   16 1     
   30   15   46 1     
   31   16   17 1     
   32   16   34 1     
   33   16   35 1     
   34   17   18 1     
   35   17   36 1     
   36   17   37 1     
   37   18   19 1     
   38   18   38 1     
   39   18   39 1     
   40   19   20 1     
   41   19   40 1     
   42   19   41 1     
   43   20   21 1     
   44   20   42 1     
   45   21   43 1     
   46   21   44 1     
   47   21   45 1     
   48    2   47 1     
   49    2   48 1     
   50    4   49 1     
   51   11   50 1     
   52   11   51 1     
@<TRIPOS>SUBSTRUCTURE
      1 S1             1
@<TRIPOS>SET
LONE_PAIRS      STATIC     ATOMS    <user>   **** ""
5 47 48 49 50 51
DONOR_HYDROGENS      STATIC     ATOMS    <user>   **** ""
3 28 29 46
ATOM$BLUE        STATIC     ATOMS    COLORGROUP SYSTEM
5 47 48 49 50 51
ATOM$RED        STATIC     ATOMS    COLORGROUP SYSTEM
3 28 29 46
