AV-unprocessed.smi:1417|AV-procd|sdf|5769|dock1
  -GOLD-   22720 5413D 1   1.00000     0.00000
 Structure written by MMmdl.
 39 40  0  0  0  0  0  0  0  0  3 V2000
  151.7124  144.3350  157.9606 C   0  0  0  0  0  0  0  0  0  0  0  0
  151.2879  143.1712  157.1317 C   0  0  0  0  0  0  0  0  0  0  0  0
  150.6595  143.0747  155.9225 C   0  0  0  0  0  0  0  0  0  0  0  0
  150.5525  141.6713  155.7230 C   0  0  0  0  0  0  0  0  0  0  0  0
  150.0076  141.0676  154.6555 N   0  5  0  0  0  0  0  0  0  0  0  0
  148.9142  140.2850  154.8014 C   0  0  0  0  0  0  0  0  0  0  0  0
  148.3952  139.9429  155.8665 O   0  0  0  0  0  0  0  0  0  0  0  0
  148.3892  139.8730  153.6386 N   0  0  0  0  0  0  0  0  0  0  0  0
  147.2151  139.0198  153.4848 C   0  0  2  0  0  0  0  0  0  0  0  0
  147.4235  137.6733  154.2005 C   0  0  0  0  0  0  0  0  0  0  0  0
  146.2359  136.7287  153.9595 C   0  0  0  0  0  0  0  0  0  0  0  0
  146.0019  136.5215  152.5053 N   0  3  1  0  0  0  0  0  0  0  0  0
  144.9469  135.5148  152.2241 C   0  0  0  0  0  0  0  0  0  0  0  0
  145.1386  134.8116  150.8766 C   0  0  0  0  0  0  0  0  0  0  0  0
  145.0358  135.5680  149.7816 N   0  0  0  0  0  0  0  0  0  0  0  0
  145.3910  133.6093  150.8218 O   0  0  0  0  0  0  0  0  0  0  0  0
  145.7607  137.8069  151.8016 C   0  0  0  0  0  0  0  0  0  0  0  0
  146.9408  138.7731  151.9933 C   0  0  0  0  0  0  0  0  0  0  0  0
  151.0852  140.9772  156.7148 N   0  0  0  0  0  0  0  0  0  0  0  0
  151.5532  141.9320  157.6258 O   0  0  0  0  0  0  0  0  0  0  0  0
  152.3632  144.9976  157.3903 H   0  0  0  0  0  0  0  0  0  0  0  0
  152.2557  144.0093  158.8479 H   0  0  0  0  0  0  0  0  0  0  0  0
  150.8461  144.9103  158.2873 H   0  0  0  0  0  0  0  0  0  0  0  0
  150.3254  143.8788  155.2841 H   0  0  0  0  0  0  0  0  0  0  0  0
  148.8481  140.1785  152.7928 H   0  0  0  0  0  0  0  0  0  0  0  0
  146.3456  139.5233  153.9121 H   0  0  0  0  0  0  0  0  0  0  0  0
  148.3406  137.2013  153.8445 H   0  0  0  0  0  0  0  0  0  0  0  0
  147.5537  137.8315  155.2718 H   0  0  0  0  0  0  0  0  0  0  0  0
  146.4356  135.7747  154.4481 H   0  0  0  0  0  0  0  0  0  0  0  0
  145.3348  137.1360  154.4208 H   0  0  0  0  0  0  0  0  0  0  0  0
  144.8983  134.7868  153.0357 H   0  0  0  0  0  0  0  0  0  0  0  0
  143.9729  136.0042  152.1838 H   0  0  0  0  0  0  0  0  0  0  0  0
  145.1515  135.1565  148.8666 H   0  0  0  0  0  0  0  0  0  0  0  0
  144.8400  136.5551  149.8715 H   0  0  0  0  0  0  0  0  0  0  0  0
  145.6206  137.6232  150.7357 H   0  0  0  0  0  0  0  0  0  0  0  0
  144.8387  138.2590  152.1710 H   0  0  0  0  0  0  0  0  0  0  0  0
  146.7297  139.7176  151.4902 H   0  0  0  0  0  0  0  0  0  0  0  0
  147.8296  138.3592  151.5142 H   0  0  0  0  0  0  0  0  0  0  0  0
  146.8575  136.1454  152.1216 H   0  0  0  0  0  0  0  0  0  0  0  0
  1  2  1  0  0  0  0
  1 21  1  0  0  0  0
  1 22  1  0  0  0  0
  1 23  1  0  0  0  0
  2 20  1  0  0  0  0
  2  3  2  0  0  0  0
  3  4  1  0  0  0  0
  3 24  1  0  0  0  0
  4  5  1  0  0  0  0
  4 19  2  0  0  0  0
  5  6  1  0  0  0  0
  6  7  2  0  0  0  0
  6  8  1  0  0  0  0
  8  9  1  0  0  0  0
  8 25  1  0  0  0  0
  9 18  1  0  0  0  0
  9 10  1  0  0  0  0
  9 26  1  0  0  0  0
 10 11  1  0  0  0  0
 10 27  1  0  0  0  0
 10 28  1  0  0  0  0
 11 12  1  0  0  0  0
 11 29  1  0  0  0  0
 11 30  1  0  0  0  0
 12 13  1  0  0  0  0
 12 17  1  0  0  0  0
 12 39  1  0  0  0  0
 13 14  1  0  0  0  0
 13 31  1  0  0  0  0
 13 32  1  0  0  0  0
 14 15  1  0  0  0  0
 14 16  2  0  0  0  0
 15 33  1  0  0  0  0
 15 34  1  0  0  0  0
 17 18  1  0  0  0  0
 17 35  1  0  0  0  0
 17 36  1  0  0  0  0
 18 37  1  0  0  0  0
 18 38  1  0  0  0  0
 19 20  1  0  0  0  0
M  CHG  1   5  -1
M  CHG  1  12   1
M  END
> <s_m_source_file>
AV-unprocessed.smi

> <i_m_source_file_index>
1417

> <i_lp_mmshare_version>
43012

> <i_f3d_flags>
0

> <s_epik_input>
W0NIM11jMVtjSF1jKG5vMSlbTkhdQyg9TylbTkhdW0NIXTJbQ0gyXVtDSDJdTihbQ0gyXVtDSDJdMilbQ0gyXUMoPU8pW05IMl0=

> <s_epik_cmdline>
J2VwaWtfcHl0aG9uJywgJy1waCcsICc3LjAnLCAnLXRuJywgJzgnLCAnLW1hJywgJzIwMCcsICctbWV0YWxfYmluZGluZycsICctaW1hZScsICc8aW5maWxlLm1hZT4nLCAnLW9tYWUnLCAnPG91dGZpbGUubWFlPic=

> <r_epik_Ionization_Penalty>
7.07562

> <r_epik_Ionization_Penalty_Charging>
7.07548

> <r_epik_Ionization_Penalty_Neutral>
0.00013758

> <r_epik_State_Penalty>
7.16607

> <r_epik_Charging_Adjusted_Penalty>
14.2416

> <i_epik_Tot_Q>
0

> <i_epik_Tot_abs_Q>
2

> <r_epik_Metal_State_Penalty>
3.11438

> <b_epik_Metal_Only>
1

> <s_lp_Force_Field>
OPLS_2005

> <r_lp_Energy>
-1.46184

> <b_lp_Chiralities_Consistent>
1

> <s_lp_Variant>
AV-unprocessed.smi:1417-5

> <Gold.Version>
5.8.1

> <Gold.Id.Protein>
6NUR|6NUR_protein|mol2

> <Gold.PLP.Fitness>
43.4455

> <Gold.PLP.PLP>
-28.0740

> <Gold.PLP.part.hbond>
-5.0000

> <Gold.PLP.part.metal>
0.0000

> <Gold.PLP.part.buried>
1.5269

> <Gold.PLP.part.nonpolar>
-24.8061

> <Gold.PLP.part.repulsive>
0.5234

> <Gold.PLP.ligand.clash>
0.0000

> <Gold.PLP.ligand.torsion>
0.8952

> <Gold.PLP.Chemscore.Hbond>
5.6896

> <Gold.PLP.Chemscore.CHOScore>
0.0000

> <Gold.PLP.Chemscore.Metal>
0.0000

> <Gold.Chemscore.Hbonds>
donor molecule, donor type, donor heavy atom, donor atom, acceptor molecule, acceptor atom, score
      L1  H     8    25       P1  7957  1.00
      L1  H    12    39       P1  7948  1.69
      L1  H    15    33       P1  7921  0.96
      L1  H    15    34       P1 10171  0.50
      P1  H  7989  7998       L1     5  0.61

> <Gold.PLP.Chemscore.Internal.Correction>
0.0931

> <Gold.Rescore>
     Score         DG    S(hbond)    S(metal)    S(lipo)     H(rot)  DE(clash)    DE(int)     intcor
     16.29     -22.74       4.32        0.00      68.43       2.02       3.07       3.38       ----

> <Gold.Chemscore.Fitness>
16.2880

> <Gold.Chemscore.DG>
-22.7418

> <Gold.Chemscore.ZeroCoef>
-5.4800

> <Gold.Chemscore.Hbond>
4.3210

> <Gold.Chemscore.Metal>
0.0000

> <Gold.Chemscore.Lipo>
68.4315

> <Gold.Chemscore.Internal_Hbond>
0.0000

> <Gold.Chemscore.DEClash>
3.0742

> <Gold.Chemscore.DEInternal>
3.3796

> <Gold.Chemscore.Rot>
2.0222

> <Gold.Chemscore.Internal.Correction>
   9.000000E+99

> <Gold.Chemscore.Hbonds>
donor molecule, donor type, donor heavy atom, donor atom, acceptor molecule, acceptor atom, score
      L1  H     8    25       P1  7957  0.99
      L1  H    12    39       P1  7948  0.79
      L1  H    15    33       P1  7921  0.91
      L1  H    15    34       P1 10171  0.50
      P1  H  7989  7998       L1     5  0.15

> <Gold.Chemscore.Hbond.Weighted>
-14.4322

> <Gold.Chemscore.Metal.Weighted>
-0.0000

> <Gold.Chemscore.Lipo.Weighted>
-8.0065

> <Gold.Chemscore.Internal_Hbond.Weighted>
0.0000

> <Gold.Chemscore.DEClash.Weighted>
3.0742

> <Gold.Chemscore.DEInternal.Weighted>
3.3796

> <Gold.Chemscore.Rot.Weighted>
5.1769

> <Gold.Chemscore.Internal.Correction.Weighted>
   9.000000E+99

> <Gold.Protein.RotatedTorsions>
[ 6907 6896 6895 6894 ] final  -15.05 input  -60.11 | X-H torsion
[ 7974 7965 7964 7962 ] final -167.38 input  175.53 | X-H torsion
[ 8008 7997 7996 7995 ] final -134.67 input   59.86 | X-H torsion
[ 10167 10162 10161 10158 ] final -128.90 input  -65.29 | X-H torsion
[ 10718 10713 10712 10709 ] final  -27.64 input   66.30 | X-H torsion
[ 10763 10752 10751 10750 ] final   23.34 input  -60.55 | X-H torsion
[ 11005 11000 10999 10996 ] final -105.93 input  -57.11 | X-H torsion

> <Gold.Protein.ActiveResidues>
 VAL166  LYS551  ARG553  GLY616  TRP617  ASP618  TYR619  PRO620  LYS621  CYS622 
 ASP623  PHE694  ASN695  SER759  ASP760  ASP761  ALA762  ILE779  LEU786  VAL792 
 PHE793  MET794  SER795  GLU796  ALA797  LYS798  CYS799  TRP800  GLU811  SER814 

> <Gold.Protein.RotatedAtoms>
  151.3299  135.0839  159.9334 H   0  0  0  0  0  0  0  0  0  0  0  0  # atno 6907 bound_to 6896
  152.5237  133.9553  159.7702 H   0  0  0  0  0  0  0  0  0  0  0  0  # atno 6908 bound_to 6896
  150.9890  133.6116  159.2741 H   0  0  0  0  0  0  0  0  0  0  0  0  # atno 6909 bound_to 6896
  144.7224  140.2527  143.6276 H   0  0  0  0  0  0  0  0  0  0  0  0  # atno 7974 bound_to 7965
  155.3660  140.0485  157.3046 H   0  0  0  0  0  0  0  0  0  0  0  0  # atno 8008 bound_to 7997
  154.5154  140.2206  155.9039 H   0  0  0  0  0  0  0  0  0  0  0  0  # atno 8009 bound_to 7997
  156.1630  140.3112  155.8846 H   0  0  0  0  0  0  0  0  0  0  0  0  # atno 8010 bound_to 7997
  139.9455  143.6115  152.2491 H   0  0  0  0  0  0  0  0  0  0  0  0  # atno 10167 bound_to 10162
  156.4356  130.4454  149.7087 H   0  0  0  0  0  0  0  0  0  0  0  0  # atno 10718 bound_to 10713
  153.0846  135.6629  153.9975 H   0  0  0  0  0  0  0  0  0  0  0  0  # atno 10763 bound_to 10752
  153.9588  135.2976  155.3436 H   0  0  0  0  0  0  0  0  0  0  0  0  # atno 10764 bound_to 10752
  154.7252  135.5147  153.8946 H   0  0  0  0  0  0  0  0  0  0  0  0  # atno 10765 bound_to 10752
  141.1029  133.8850  157.1794 H   0  0  0  0  0  0  0  0  0  0  0  0  # atno 11005 bound_to 11000
  145.8213  139.2045  143.1936 LP  0  0  0  0  0  0  0  0  0  0  0  0  # atno 17320 bound_to 7965
  146.0512  140.8067  142.9781 LP  0  0  0  0  0  0  0  0  0  0  0  0  # atno 17321 bound_to 7965
  139.6670  144.7662  151.1854 LP  0  0  0  0  0  0  0  0  0  0  0  0  # atno 17342 bound_to 10162
  140.7598  143.5922  150.8784 LP  0  0  0  0  0  0  0  0  0  0  0  0  # atno 17343 bound_to 10162
  156.3973  130.7657  151.2662 LP  0  0  0  0  0  0  0  0  0  0  0  0  # atno 17370 bound_to 10713
  157.7507  131.0250  150.3901 LP  0  0  0  0  0  0  0  0  0  0  0  0  # atno 17371 bound_to 10713
  139.9888  135.0072  156.9926 LP  0  0  0  0  0  0  0  0  0  0  0  0  # atno 17394 bound_to 11000
  140.4975  134.1130  155.7244 LP  0  0  0  0  0  0  0  0  0  0  0  0  # atno 17395 bound_to 11000

$$$$
