#       Name:                AV-unprocessed.smi:1195
#       Creating user name   scv26
#       Creation time:       Fri Mar 27 03:59:58 2020


#       File generated by GOLD software.
#

@<TRIPOS>MOLECULE
AV-unprocessed.smi:1195
    46    47     1
SMALL
NO_CHARGES


@<TRIPOS>ATOM
      1 ****        -7.1938  -0.8896  -1.0288 N.am           1 S1                 0.0000
      2 ****        -6.0785  -0.1603  -0.9453 C.2            1 S1                 0.0000
      3 ****        -5.4385   0.1652  -1.9444 O.2            1 S1                 0.0000
      4 ****        -5.6373   0.2517   0.4656 C.3            1 S1                 0.0000
      5 ****        -4.3466   0.9210   0.4813 N.pl3          1 S1                 0.0000
      6 ****        -3.0895   0.3491   0.4558 C.2            1 S1                 0.0000
      7 ****        -2.2078   1.3925   0.4796 C.2            1 S1                 0.0000
      8 ****        -0.7902   1.3720   0.4630 N.am           1 S1                 0.0000
      9 ****         0.0084   0.2920   0.4675 C.2            1 S1                 0.0000
     10 ****        -0.3812  -0.8756   0.4967 O.2            1 S1                 0.0000
     11 ****         1.3023   0.6420   0.4380 N.am           1 S1                 0.0000
     12 ****         2.4257  -0.2901   0.4400 C.3            1 S1                 0.0000
     13 ****         3.6753   0.4061   1.0084 C.3            1 S1                 0.0000
     14 ****         4.8990  -0.5271   0.9910 C.3            1 S1                 0.0000
     15 ****         5.1727  -1.1069  -0.4098 C.3            1 S1                 0.0000
     16 ****         5.6480  -0.0909  -1.2707 O.3            1 S1                 0.0000
     17 ****         3.9134  -1.7604  -1.0097 C.3            1 S1                 0.0000
     18 ****         2.6972  -0.8184  -0.9827 C.3            1 S1                 0.0000
     19 ****        -3.0007   2.5687   0.5191 C.2            1 S1                 0.0000
     20 ****        -4.2923   2.2761   0.5235 N.2            1 S1                 0.0000
     21 ****        -7.5296  -1.1868  -1.9335 H              1 S1                 0.0000
     22 ****        -7.6977  -1.1406  -0.1910 H              1 S1                 0.0000
     23 ****        -6.3891   0.9093   0.9048 H              1 S1                 0.0000
     24 ****        -5.5735  -0.6328   1.1006 H              1 S1                 0.0000
     25 ****        -2.9477  -0.7208   0.4195 H              1 S1                 0.0000
     26 ****        -0.3372   2.2741   0.4488 H              1 S1                 0.0000
     27 ****         1.5290   1.6254   0.4113 H              1 S1                 0.0000
     28 ****         2.1839  -1.1333   1.0901 H              1 S1                 0.0000
     29 ****         3.8948   1.3040   0.4289 H              1 S1                 0.0000
     30 ****         3.4856   0.7388   2.0296 H              1 S1                 0.0000
     31 ****         5.7786   0.0019   1.3600 H              1 S1                 0.0000
     32 ****         4.7259  -1.3487   1.6872 H              1 S1                 0.0000
     33 ****         5.9621  -1.8555  -0.3364 H              1 S1                 0.0000
     34 ****         5.8458  -0.4767  -2.1104 H              1 S1                 0.0000
     35 ****         4.1080  -2.0927  -2.0301 H              1 S1                 0.0000
     36 ****         3.6739  -2.6586  -0.4392 H              1 S1                 0.0000
     37 ****         1.8220  -1.3468  -1.3624 H              1 S1                 0.0000
     38 ****         2.8675   0.0184  -1.6616 H              1 S1                 0.0000
     39 ****        -2.6896   3.6026   0.5456 H              1 S1                 0.0000
     40 ****        -5.7501  -0.1170  -2.8517 LP             1 S1                 0.0000
     41 ****        -4.6067   0.7121  -1.8491 LP             1 S1                 0.0000
     42 ****        -1.3607  -1.0754   0.5194 LP             1 S1                 0.0000
     43 ****         0.2820  -1.6241   0.4977 LP             1 S1                 0.0000
     44 ****         6.4747   0.3187  -0.8847 LP             1 S1                 0.0000
     45 ****         4.9468   0.6137  -1.3801 LP             1 S1                 0.0000
     46 ****        -5.0608   2.9153   0.5518 LP             1 S1                 0.0000
@<TRIPOS>BOND
    1    1    2 am    
    2    1   21 1     
    3    1   22 1     
    4    2    3 2     
    5    2    4 1     
    6    4    5 1     
    7    4   23 1     
    8    4   24 1     
    9    5   20 1     
   10    5    6 1     
   11    6    7 2     
   12    6   25 1     
   13    7    8 1     
   14    7   19 1     
   15    8    9 am    
   16    8   26 1     
   17    9   10 2     
   18    9   11 am    
   19   11   12 1     
   20   11   27 1     
   21   12   18 1     
   22   12   13 1     
   23   12   28 1     
   24   13   14 1     
   25   13   29 1     
   26   13   30 1     
   27   14   15 1     
   28   14   31 1     
   29   14   32 1     
   30   15   16 1     
   31   15   17 1     
   32   15   33 1     
   33   16   34 1     
   34   17   18 1     
   35   17   35 1     
   36   17   36 1     
   37   18   37 1     
   38   18   38 1     
   39   19   20 2     
   40   19   39 1     
   41    3   40 1     
   42    3   41 1     
   43   10   42 1     
   44   10   43 1     
   45   16   44 1     
   46   16   45 1     
   47   20   46 1     
@<TRIPOS>SUBSTRUCTURE
      1 S1             1
@<TRIPOS>SET
LONE_PAIRS      STATIC     ATOMS    <user>   **** ""
7 40 41 42 43 44 45 46
DONOR_HYDROGENS      STATIC     ATOMS    <user>   **** ""
5 21 22 26 27 34
ATOM$BLUE        STATIC     ATOMS    COLORGROUP SYSTEM
7 40 41 42 43 44 45 46
ATOM$RED        STATIC     ATOMS    COLORGROUP SYSTEM
5 21 22 26 27 34
