AV-unprocessed.smi:1897|AV-procd|sdf|7685|dock2
  -GOLD-   22720 9423D 1   1.00000     0.00000
 Structure written by MMmdl.
 39 41  0  0  0  0  0  0  0  0  2 V2000
  151.3594  140.8221  155.9687 C   0  0  0  0  0  0  0  0  0  0  0  0
  150.2297  139.9142  155.6201 C   0  0  0  0  0  0  0  0  0  0  0  0
  149.0107  140.0316  156.1601 N   0  0  0  0  0  0  0  0  0  0  0  0
  148.1273  139.0789  155.6751 N   0  0  0  0  0  0  0  0  0  0  0  0
  148.7108  138.2545  154.7927 C   0  0  0  0  0  0  0  0  0  0  0  0
  148.0366  137.1974  154.1150 N   0  0  0  0  0  0  0  0  0  0  0  0
  146.7997  136.6859  154.2870 C   0  0  0  0  0  0  0  0  0  0  0  0
  146.0367  137.1307  155.1426 O   0  0  0  0  0  0  0  0  0  0  0  0
  146.4620  135.6747  153.4702 N   0  0  0  0  0  0  0  0  0  0  0  0
  145.2083  134.9313  153.5252 C   0  0  1  0  0  0  0  0  0  0  0  0
  144.0293  135.6970  152.9389 C   0  0  0  0  0  0  0  0  0  0  0  0
  143.0075  134.5920  152.6534 C   0  0  0  0  0  0  0  0  0  0  0  0
  143.7761  133.3417  152.4353 N   0  3  1  0  0  0  0  0  0  0  0  0
  143.4945  132.6791  151.1334 C   0  0  0  0  0  0  0  0  0  0  0  0
  144.5789  131.6448  150.7971 C   0  0  0  0  0  0  0  0  0  0  0  0
  145.9624  132.3062  150.6506 C   0  0  0  0  0  0  0  0  0  0  0  0
  146.0628  133.6391  151.4169 C   0  0  0  0  0  0  0  0  0  0  0  0
  145.2137  133.6229  152.7124 C   0  0  1  0  0  0  0  0  0  0  0  0
  150.3980  138.6055  154.4567 S   0  0  0  0  0  0  0  0  0  0  0  0
  151.0777  141.4929  156.7812 H   0  0  0  0  0  0  0  0  0  0  0  0
  151.6371  141.4209  155.1013 H   0  0  0  0  0  0  0  0  0  0  0  0
  152.2241  140.2377  156.2833 H   0  0  0  0  0  0  0  0  0  0  0  0
  148.5374  136.8286  153.3196 H   0  0  0  0  0  0  0  0  0  0  0  0
  147.1441  135.3720  152.7891 H   0  0  0  0  0  0  0  0  0  0  0  0
  144.9707  134.7007  154.5661 H   0  0  0  0  0  0  0  0  0  0  0  0
  143.6443  136.4644  153.6111 H   0  0  0  0  0  0  0  0  0  0  0  0
  144.3194  136.1822  152.0055 H   0  0  0  0  0  0  0  0  0  0  0  0
  142.3659  134.4430  153.5222 H   0  0  0  0  0  0  0  0  0  0  0  0
  142.3608  134.8521  151.8144 H   0  0  0  0  0  0  0  0  0  0  0  0
  142.5128  132.2071  151.1797 H   0  0  0  0  0  0  0  0  0  0  0  0
  143.4501  133.4219  150.3351 H   0  0  0  0  0  0  0  0  0  0  0  0
  144.6138  130.8975  151.5914 H   0  0  0  0  0  0  0  0  0  0  0  0
  144.3245  131.1065  149.8835 H   0  0  0  0  0  0  0  0  0  0  0  0
  146.7263  131.6128  151.0042 H   0  0  0  0  0  0  0  0  0  0  0  0
  146.1823  132.4870  149.5980 H   0  0  0  0  0  0  0  0  0  0  0  0
  147.1117  133.8441  151.6329 H   0  0  0  0  0  0  0  0  0  0  0  0
  145.7228  134.4519  150.7736 H   0  0  0  0  0  0  0  0  0  0  0  0
  145.5979  132.8208  153.3442 H   0  0  0  0  0  0  0  0  0  0  0  0
  143.4800  132.6991  153.1563 H   0  0  0  0  0  0  0  0  0  0  0  0
  1  2  1  0  0  0  0
  1 20  1  0  0  0  0
  1 21  1  0  0  0  0
  1 22  1  0  0  0  0
  2 19  1  0  0  0  0
  2  3  2  0  0  0  0
  3  4  1  0  0  0  0
  4  5  2  0  0  0  0
  5  6  1  0  0  0  0
  5 19  1  0  0  0  0
  6  7  1  0  0  0  0
  6 23  1  0  0  0  0
  7  8  2  0  0  0  0
  7  9  1  0  0  0  0
  9 10  1  0  0  0  0
  9 24  1  0  0  0  0
 10 18  1  0  0  0  0
 10 11  1  0  0  0  0
 10 25  1  0  0  0  0
 11 12  1  0  0  0  0
 11 26  1  0  0  0  0
 11 27  1  0  0  0  0
 12 13  1  0  0  0  0
 12 28  1  0  0  0  0
 12 29  1  0  0  0  0
 13 18  1  0  0  0  0
 13 14  1  0  0  0  0
 13 39  1  0  0  0  0
 14 15  1  0  0  0  0
 14 30  1  0  0  0  0
 14 31  1  0  0  0  0
 15 16  1  0  0  0  0
 15 32  1  0  0  0  0
 15 33  1  0  0  0  0
 16 17  1  0  0  0  0
 16 34  1  0  0  0  0
 16 35  1  0  0  0  0
 17 18  1  0  0  0  0
 17 36  1  0  0  0  0
 17 37  1  0  0  0  0
 18 38  1  0  0  0  0
M  CHG  1  13   1
M  END
> <s_m_source_file>
AV-unprocessed.smi

> <i_m_source_file_index>
1897

> <i_lp_mmshare_version>
43012

> <i_f3d_flags>
0

> <s_epik_input>
W0NIM11jMW5uYyhzMSlbTkhdQyg9TylbTkhdW0NASF0oW0NIMl1bQ0gyXTIpW0NAQEhdKE4yMylbQ0gyXVtDSDJdW0NIMl1bQ0gyXTM=

> <s_epik_cmdline>
J2VwaWtfcHl0aG9uJywgJy1waCcsICc3LjAnLCAnLXRuJywgJzgnLCAnLW1hJywgJzIwMCcsICctbWV0YWxfYmluZGluZycsICctaW1hZScsICc8aW5maWxlLm1hZT4nLCAnLW9tYWUnLCAnPG91dGZpbGUubWFlPic=

> <r_lp_tautomer_probability>
1

> <r_epik_Ionization_Penalty>
0.00228891

> <r_epik_Ionization_Penalty_Charging>
0.00107044

> <r_epik_Ionization_Penalty_Neutral>
0.00121847

> <r_epik_State_Penalty>
-0

> <r_epik_Charging_Adjusted_Penalty>
0.00107044

> <i_epik_Tot_Q>
1

> <i_epik_Tot_abs_Q>
1

> <r_epik_Metal_State_Penalty>
0.304057

> <b_epik_Metal_Only>
0

> <s_lp_Force_Field>
OPLS_2005

> <r_lp_Energy>
41.6574

> <b_lp_Chiralities_Consistent>
1

> <s_lp_Variant>
AV-unprocessed.smi:1897-2

> <Gold.Version>
5.8.1

> <Gold.Id.Protein>
6NUR|6NUR_protein|mol2

> <Gold.PLP.Fitness>
37.7304

> <Gold.PLP.PLP>
-27.7582

> <Gold.PLP.part.hbond>
-2.9936

> <Gold.PLP.part.metal>
0.0000

> <Gold.PLP.part.buried>
-4.4618

> <Gold.PLP.part.nonpolar>
-20.7500

> <Gold.PLP.part.repulsive>
0.0630

> <Gold.PLP.ligand.clash>
0.0000

> <Gold.PLP.ligand.torsion>
0.2045

> <Gold.PLP.Chemscore.Hbond>
3.4591

> <Gold.PLP.Chemscore.CHOScore>
0.0000

> <Gold.PLP.Chemscore.Metal>
0.0000

> <Gold.Chemscore.Hbonds>
donor molecule, donor type, donor heavy atom, donor atom, acceptor molecule, acceptor atom, score
      L1  H     6    23       P1  7948  1.00
      L1  H     9    24       P1  7948  0.45
      L1  H    13    39       P1 10957  1.98

> <Gold.PLP.Chemscore.Internal.Correction>
0.0039

> <Gold.Rescore>
     Score         DG    S(hbond)    S(metal)    S(lipo)     H(rot)  DE(clash)    DE(int)     intcor
     16.65     -18.07       2.29        0.00      64.27       1.00       0.01       1.41       ----

> <Gold.Chemscore.Fitness>
16.6468

> <Gold.Chemscore.DG>
-18.0716

> <Gold.Chemscore.ZeroCoef>
-5.4800

> <Gold.Chemscore.Hbond>
2.2850

> <Gold.Chemscore.Metal>
0.0000

> <Gold.Chemscore.Lipo>
64.2696

> <Gold.Chemscore.Internal_Hbond>
0.0000

> <Gold.Chemscore.DEClash>
0.0149

> <Gold.Chemscore.DEInternal>
1.4099

> <Gold.Chemscore.Rot>
1.0000

> <Gold.Chemscore.Internal.Correction>
   9.000000E+99

> <Gold.Chemscore.Hbonds>
donor molecule, donor type, donor heavy atom, donor atom, acceptor molecule, acceptor atom, score
      L1  H     6    23       P1  7948  0.99
      L1  H     9    24       P1  7948  0.45
      L1  H    13    39       P1 10957  0.28

> <Gold.Chemscore.Hbond.Weighted>
-7.6320

> <Gold.Chemscore.Metal.Weighted>
-0.0000

> <Gold.Chemscore.Lipo.Weighted>
-7.5195

> <Gold.Chemscore.Internal_Hbond.Weighted>
0.0000

> <Gold.Chemscore.DEClash.Weighted>
0.0149

> <Gold.Chemscore.DEInternal.Weighted>
1.4099

> <Gold.Chemscore.Rot.Weighted>
2.5600

> <Gold.Chemscore.Internal.Correction.Weighted>
   9.000000E+99

> <Gold.Protein.RotatedTorsions>
[ 6907 6896 6895 6894 ] final  -50.17 input  -60.11 | X-H torsion
[ 7974 7965 7964 7962 ] final  -74.86 input  175.53 | X-H torsion
[ 8008 7997 7996 7995 ] final  112.06 input   59.86 | X-H torsion
[ 10167 10162 10161 10158 ] final  -43.00 input  -65.29 | X-H torsion
[ 10718 10713 10712 10709 ] final   22.00 input   66.30 | X-H torsion
[ 10763 10752 10751 10750 ] final  117.12 input  -60.55 | X-H torsion
[ 11005 11000 10999 10996 ] final  116.00 input  -57.11 | X-H torsion

> <Gold.Protein.ActiveResidues>
 VAL166  LYS551  ARG553  GLY616  TRP617  ASP618  TYR619  PRO620  LYS621  CYS622 
 ASP623  PHE694  ASN695  SER759  ASP760  ASP761  ALA762  ILE779  LEU786  VAL792 
 PHE793  MET794  SER795  GLU796  ALA797  LYS798  CYS799  TRP800  GLU811  SER814 

> <Gold.Protein.RotatedAtoms>
  150.8733  134.8111  159.7170 H   0  0  0  0  0  0  0  0  0  0  0  0  # atno 6907 bound_to 6896
  152.4730  134.4911  159.9705 H   0  0  0  0  0  0  0  0  0  0  0  0  # atno 6908 bound_to 6896
  151.4997  133.3468  159.2902 H   0  0  0  0  0  0  0  0  0  0  0  0  # atno 6909 bound_to 6896
  145.6336  140.9331  143.1073 H   0  0  0  0  0  0  0  0  0  0  0  0  # atno 7974 bound_to 7965
  156.2167  140.3007  155.9856 H   0  0  0  0  0  0  0  0  0  0  0  0  # atno 8008 bound_to 7997
  155.2587  140.0429  157.3012 H   0  0  0  0  0  0  0  0  0  0  0  0  # atno 8009 bound_to 7997
  154.5778  140.2366  155.8105 H   0  0  0  0  0  0  0  0  0  0  0  0  # atno 8010 bound_to 7997
  140.6949  143.3007  151.3289 H   0  0  0  0  0  0  0  0  0  0  0  0  # atno 10167 bound_to 10162
  157.1463  130.6655  149.5997 H   0  0  0  0  0  0  0  0  0  0  0  0  # atno 10718 bound_to 10713
  153.5475  135.3546  155.2745 H   0  0  0  0  0  0  0  0  0  0  0  0  # atno 10763 bound_to 10752
  154.8710  135.4106  154.2974 H   0  0  0  0  0  0  0  0  0  0  0  0  # atno 10764 bound_to 10752
  153.3694  135.7063  153.6718 H   0  0  0  0  0  0  0  0  0  0  0  0  # atno 10765 bound_to 10752
  139.9027  134.9592  156.7131 H   0  0  0  0  0  0  0  0  0  0  0  0  # atno 11005 bound_to 11000
  144.7184  139.8115  143.7390 LP  0  0  0  0  0  0  0  0  0  0  0  0  # atno 17320 bound_to 7965
  146.1337  139.4378  143.0152 LP  0  0  0  0  0  0  0  0  0  0  0  0  # atno 17321 bound_to 7965
  139.6393  144.0569  152.2541 LP  0  0  0  0  0  0  0  0  0  0  0  0  # atno 17342 bound_to 10162
  140.0070  144.6252  150.7680 LP  0  0  0  0  0  0  0  0  0  0  0  0  # atno 17343 bound_to 10162
  155.9779  130.4760  150.6621 LP  0  0  0  0  0  0  0  0  0  0  0  0  # atno 17370 bound_to 10713
  157.4261  131.0843  151.1084 LP  0  0  0  0  0  0  0  0  0  0  0  0  # atno 17371 bound_to 10713
  140.7060  133.9265  155.8054 LP  0  0  0  0  0  0  0  0  0  0  0  0  # atno 17394 bound_to 11000
  141.0336  134.0721  157.3985 LP  0  0  0  0  0  0  0  0  0  0  0  0  # atno 17395 bound_to 11000

$$$$
