AV-unprocessed.smi:1807|AV-procd|sdf|7304|dock7
  -GOLD-   22720 8563D 1   1.00000     0.00000
 Structure written by MMmdl.
 44 45  0  0  0  0  0  0  0  0  1 V2000
  148.0181  133.7194  153.3509 C   0  0  0  0  0  0  0  0  0  0  0  0
  147.0299  133.5689  152.1805 C   0  0  1  0  0  0  0  0  0  0  0  0
  146.4461  132.1417  152.1474 C   0  0  0  0  0  0  0  0  0  0  0  0
  145.4569  131.9531  150.9877 C   0  0  0  0  0  0  0  0  0  0  0  0
  144.3290  132.9919  151.0515 C   0  0  0  0  0  0  0  0  0  0  0  0
  144.8948  134.4193  151.0673 C   0  0  0  0  0  0  0  0  0  0  0  0
  145.8949  134.6223  152.2249 C   0  0  2  0  0  0  0  0  0  0  0  0
  146.4530  135.9712  152.1671 N   0  0  0  0  0  0  0  0  0  0  0  0
  145.7552  137.1092  152.2959 C   0  0  0  0  0  0  0  0  0  0  0  0
  144.5316  137.1424  152.4331 O   0  0  0  0  0  0  0  0  0  0  0  0
  146.5686  138.4075  152.2429 C   0  0  0  0  0  0  0  0  0  0  0  0
  147.8447  138.2899  152.9398 N   0  0  0  0  0  0  0  0  0  0  0  0
  148.3298  139.3722  153.6860 C   0  0  0  0  0  0  0  0  0  0  0  0
  147.6137  140.5953  153.7934 C   0  0  0  0  0  0  0  0  0  0  0  0
  148.4117  141.3543  154.6022 C   0  0  0  0  0  0  0  0  0  0  0  0
  149.5192  140.5946  154.9260 N   0  0  0  0  0  0  0  0  0  0  0  0
  150.6469  140.9565  155.7661 C   0  0  0  0  0  0  0  0  0  0  0  0
  151.6681  139.8191  155.8404 C   0  0  0  0  0  0  0  0  0  0  0  0
  151.4362  138.8459  156.7250 N   0  0  0  0  0  0  0  0  0  0  0  0
  152.6547  139.8169  155.1076 O   0  0  0  0  0  0  0  0  0  0  0  0
  149.4733  139.3709  154.3550 N   0  0  0  0  0  0  0  0  0  0  0  0
  147.5114  133.6017  154.3088 H   0  0  0  0  0  0  0  0  0  0  0  0
  148.5043  134.6953  153.3503 H   0  0  0  0  0  0  0  0  0  0  0  0
  148.8056  132.9673  153.2983 H   0  0  0  0  0  0  0  0  0  0  0  0
  147.5917  133.7163  151.2569 H   0  0  0  0  0  0  0  0  0  0  0  0
  147.2511  131.4115  152.0592 H   0  0  0  0  0  0  0  0  0  0  0  0
  145.9414  131.9292  153.0912 H   0  0  0  0  0  0  0  0  0  0  0  0
  145.9845  132.0413  150.0373 H   0  0  0  0  0  0  0  0  0  0  0  0
  145.0376  130.9470  151.0174 H   0  0  0  0  0  0  0  0  0  0  0  0
  143.6587  132.8671  150.2008 H   0  0  0  0  0  0  0  0  0  0  0  0
  143.7280  132.8265  151.9466 H   0  0  0  0  0  0  0  0  0  0  0  0
  145.3859  134.6234  150.1147 H   0  0  0  0  0  0  0  0  0  0  0  0
  144.0743  135.1331  151.1499 H   0  0  0  0  0  0  0  0  0  0  0  0
  145.3611  134.4997  153.1698 H   0  0  0  0  0  0  0  0  0  0  0  0
  147.4535  136.0431  152.0520 H   0  0  0  0  0  0  0  0  0  0  0  0
  146.7287  138.7249  151.2109 H   0  0  0  0  0  0  0  0  0  0  0  0
  145.9885  139.1956  152.7230 H   0  0  0  0  0  0  0  0  0  0  0  0
  148.4909  137.5756  152.6370 H   0  0  0  0  0  0  0  0  0  0  0  0
  146.6657  140.8704  153.3556 H   0  0  0  0  0  0  0  0  0  0  0  0
  148.2841  142.3606  154.9730 H   0  0  0  0  0  0  0  0  0  0  0  0
  151.1263  141.8516  155.3663 H   0  0  0  0  0  0  0  0  0  0  0  0
  150.2758  141.2087  156.7606 H   0  0  0  0  0  0  0  0  0  0  0  0
  152.0788  138.0718  156.8071 H   0  0  0  0  0  0  0  0  0  0  0  0
  150.6119  138.8867  157.3072 H   0  0  0  0  0  0  0  0  0  0  0  0
  1  2  1  0  0  0  0
  1 22  1  0  0  0  0
  1 23  1  0  0  0  0
  1 24  1  0  0  0  0
  2  7  1  0  0  0  0
  2  3  1  0  0  0  0
  2 25  1  0  0  0  0
  3  4  1  0  0  0  0
  3 26  1  0  0  0  0
  3 27  1  0  0  0  0
  4  5  1  0  0  0  0
  4 28  1  0  0  0  0
  4 29  1  0  0  0  0
  5  6  1  0  0  0  0
  5 30  1  0  0  0  0
  5 31  1  0  0  0  0
  6  7  1  0  0  0  0
  6 32  1  0  0  0  0
  6 33  1  0  0  0  0
  7  8  1  0  0  0  0
  7 34  1  0  0  0  0
  8  9  1  0  0  0  0
  8 35  1  0  0  0  0
  9 10  2  0  0  0  0
  9 11  1  0  0  0  0
 11 12  1  0  0  0  0
 11 36  1  0  0  0  0
 11 37  1  0  0  0  0
 12 13  1  0  0  0  0
 12 38  1  0  0  0  0
 13 21  2  0  0  0  0
 13 14  1  0  0  0  0
 14 15  2  0  0  0  0
 14 39  1  0  0  0  0
 15 16  1  0  0  0  0
 15 40  1  0  0  0  0
 16 17  1  0  0  0  0
 16 21  1  0  0  0  0
 17 18  1  0  0  0  0
 17 41  1  0  0  0  0
 17 42  1  0  0  0  0
 18 19  1  0  0  0  0
 18 20  2  0  0  0  0
 19 43  1  0  0  0  0
 19 44  1  0  0  0  0
M  END
> <s_m_source_file>
AV-unprocessed.smi

> <i_m_source_file_index>
1807

> <i_lp_mmshare_version>
43012

> <i_f3d_flags>
0

> <s_epik_input>
W0NIM11bQ0BASF0xW0NIMl1bQ0gyXVtDSDJdW0NIMl1bQ0BIXTFbTkhdQyg9TylbQ0gyXVtOSF1jMltjSF1bY0hdbihuMilbQ0gyXUMoPU8pW05IMl0=

> <s_epik_cmdline>
J2VwaWtfcHl0aG9uJywgJy1waCcsICc3LjAnLCAnLXRuJywgJzgnLCAnLW1hJywgJzIwMCcsICctbWV0YWxfYmluZGluZycsICctaW1hZScsICc8aW5maWxlLm1hZT4nLCAnLW9tYWUnLCAnPG91dGZpbGUubWFlPic=

> <r_lp_tautomer_probability>
1

> <r_epik_Ionization_Penalty>
0.000167642

> <r_epik_Ionization_Penalty_Charging>
0

> <r_epik_Ionization_Penalty_Neutral>
0.000167642

> <r_epik_State_Penalty>
-0

> <r_epik_Charging_Adjusted_Penalty>
0

> <i_epik_Tot_Q>
0

> <i_epik_Tot_abs_Q>
0

> <r_epik_Metal_State_Penalty>
-0

> <b_epik_Metal_Only>
0

> <s_lp_Force_Field>
OPLS_2005

> <r_lp_Energy>
6.04908

> <b_lp_Chiralities_Consistent>
1

> <s_lp_Variant>
AV-unprocessed.smi:1807-4

> <Gold.Version>
5.8.1

> <Gold.Id.Protein>
6NUR|6NUR_protein|mol2

> <Gold.PLP.Fitness>
50.3241

> <Gold.PLP.PLP>
-38.8643

> <Gold.PLP.part.hbond>
-4.9682

> <Gold.PLP.part.metal>
0.0000

> <Gold.PLP.part.buried>
-1.6770

> <Gold.PLP.part.nonpolar>
-34.1291

> <Gold.PLP.part.repulsive>
0.9547

> <Gold.PLP.ligand.clash>
0.0000

> <Gold.PLP.ligand.torsion>
0.8069

> <Gold.PLP.Chemscore.Hbond>
3.3516

> <Gold.PLP.Chemscore.CHOScore>
1.0000

> <Gold.PLP.Chemscore.Metal>
0.0000

> <Gold.Chemscore.Hbonds>
donor molecule, donor type, donor heavy atom, donor atom, acceptor molecule, acceptor atom, score
      L1  H     8    35       P1  7948  0.93
      L1  H    12    38       P1  7948  1.00
      P1  H  7989  7998       L1    20  0.29
      P1  H  7997  8009       L1    20  1.00
      L1  C    15    40       P1  8028  1.00

> <Gold.PLP.Chemscore.Internal.Correction>
0.0188

> <Gold.Rescore>
     Score         DG    S(hbond)    S(metal)    S(lipo)     H(rot)  DE(clash)    DE(int)     intcor
     15.80     -16.72       3.08        0.00      65.93       2.64       0.06       0.87       ----

> <Gold.Chemscore.Fitness>
15.7969

> <Gold.Chemscore.DG>
-16.7222

> <Gold.Chemscore.ZeroCoef>
-5.4800

> <Gold.Chemscore.Hbond>
3.0775

> <Gold.Chemscore.Metal>
0.0000

> <Gold.Chemscore.Lipo>
65.9294

> <Gold.Chemscore.Internal_Hbond>
0.0000

> <Gold.Chemscore.DEClash>
0.0588

> <Gold.Chemscore.DEInternal>
0.8665

> <Gold.Chemscore.Rot>
2.6369

> <Gold.Chemscore.Internal.Correction>
   9.000000E+99

> <Gold.Chemscore.Hbonds>
donor molecule, donor type, donor heavy atom, donor atom, acceptor molecule, acceptor atom, score
      L1  H     8    35       P1  7948  0.89
      L1  H    12    38       P1  7948  0.98
      P1  H  7989  7998       L1    20  0.04
      P1  H  7997  8009       L1    20  0.94

> <Gold.Chemscore.Hbond.Weighted>
-10.2788

> <Gold.Chemscore.Metal.Weighted>
-0.0000

> <Gold.Chemscore.Lipo.Weighted>
-7.7137

> <Gold.Chemscore.Internal_Hbond.Weighted>
0.0000

> <Gold.Chemscore.DEClash.Weighted>
0.0588

> <Gold.Chemscore.DEInternal.Weighted>
0.8665

> <Gold.Chemscore.Rot.Weighted>
6.7504

> <Gold.Chemscore.Internal.Correction.Weighted>
   9.000000E+99

> <Gold.Protein.RotatedTorsions>
[ 6907 6896 6895 6894 ] final   72.83 input  -60.11 | X-H torsion
[ 7974 7965 7964 7962 ] final   98.71 input  175.53 | X-H torsion
[ 8008 7997 7996 7995 ] final -135.88 input   59.86 | X-H torsion
[ 10167 10162 10161 10158 ] final  -97.03 input  -65.29 | X-H torsion
[ 10718 10713 10712 10709 ] final   -5.01 input   66.30 | X-H torsion
[ 10763 10752 10751 10750 ] final -138.84 input  -60.55 | X-H torsion
[ 11005 11000 10999 10996 ] final -102.38 input  -57.11 | X-H torsion

> <Gold.Protein.ActiveResidues>
 VAL166  LYS551  ARG553  GLY616  TRP617  ASP618  TYR619  PRO620  LYS621  CYS622 
 ASP623  PHE694  ASN695  SER759  ASP760  ASP761  ALA762  ILE779  LEU786  VAL792 
 PHE793  MET794  SER795  GLU796  ALA797  LYS798  CYS799  TRP800  GLU811  SER814 

> <Gold.Protein.RotatedAtoms>
  152.4890  134.4512  159.9574 H   0  0  0  0  0  0  0  0  0  0  0  0  # atno 6907 bound_to 6896
  151.4503  133.3613  159.2802 H   0  0  0  0  0  0  0  0  0  0  0  0  # atno 6908 bound_to 6896
  150.9026  134.8463  159.7431 H   0  0  0  0  0  0  0  0  0  0  0  0  # atno 6909 bound_to 6896
  145.4085  139.2337  143.3261 H   0  0  0  0  0  0  0  0  0  0  0  0  # atno 7974 bound_to 7965
  155.3860  140.0497  157.3042 H   0  0  0  0  0  0  0  0  0  0  0  0  # atno 8008 bound_to 7997
  154.5059  140.2174  155.9213 H   0  0  0  0  0  0  0  0  0  0  0  0  # atno 8009 bound_to 7997
  156.1525  140.3133  155.8677 H   0  0  0  0  0  0  0  0  0  0  0  0  # atno 8010 bound_to 7997
  140.2876  143.3241  152.0378 H   0  0  0  0  0  0  0  0  0  0  0  0  # atno 10167 bound_to 10162
  156.7528  130.5245  149.5800 H   0  0  0  0  0  0  0  0  0  0  0  0  # atno 10718 bound_to 10713
  154.8626  135.3600  154.5449 H   0  0  0  0  0  0  0  0  0  0  0  0  # atno 10763 bound_to 10752
  153.6070  135.7011  153.5367 H   0  0  0  0  0  0  0  0  0  0  0  0  # atno 10764 bound_to 10752
  153.3242  135.4142  155.1403 H   0  0  0  0  0  0  0  0  0  0  0  0  # atno 10765 bound_to 10752
  141.1191  133.8554  157.1353 H   0  0  0  0  0  0  0  0  0  0  0  0  # atno 11005 bound_to 11000
  146.2716  140.4793  142.8812 LP  0  0  0  0  0  0  0  0  0  0  0  0  # atno 17320 bound_to 7965
  144.8325  140.6729  143.6282 LP  0  0  0  0  0  0  0  0  0  0  0  0  # atno 17321 bound_to 7965
  139.4946  144.6547  151.6598 LP  0  0  0  0  0  0  0  0  0  0  0  0  # atno 17342 bound_to 10162
  140.5759  144.0029  150.6241 LP  0  0  0  0  0  0  0  0  0  0  0  0  # atno 17343 bound_to 10162
  156.1390  130.6231  151.0440 LP  0  0  0  0  0  0  0  0  0  0  0  0  # atno 17370 bound_to 10713
  157.6769  131.0848  150.7470 LP  0  0  0  0  0  0  0  0  0  0  0  0  # atno 17371 bound_to 10713
  140.0135  134.9978  157.0445 LP  0  0  0  0  0  0  0  0  0  0  0  0  # atno 17394 bound_to 11000
  140.4559  134.1534  155.7186 LP  0  0  0  0  0  0  0  0  0  0  0  0  # atno 17395 bound_to 11000

$$$$
