AV-unprocessed.smi:309|AV-procd|sdf|2292|dock1
  -GOLD-   2262022193D 1   1.00000     0.00000
 Structure written by MMmdl.
 36 38  0  0  0  0  0  0  0  0  1 V2000
  152.0768  137.0507  154.0328 O   0  0  0  0  0  0  0  0  0  0  0  0
  152.0017  138.2739  154.7367 C   0  0  0  0  0  0  0  0  0  0  0  0
  150.7274  139.0368  154.5069 C   0  0  0  0  0  0  0  0  0  0  0  0
  149.7722  138.6195  153.6722 N   0  0  0  0  0  0  0  0  0  0  0  0
  148.8117  139.6048  153.7858 C   0  0  0  0  0  0  0  0  0  0  0  0
  147.5565  139.7422  153.1511 C   0  0  0  0  0  0  0  0  0  0  0  0
  146.7339  140.8534  153.4298 C   0  0  0  0  0  0  0  0  0  0  0  0
  147.1533  141.8404  154.3453 C   0  0  0  0  0  0  0  0  0  0  0  0
  148.4001  141.7218  154.9888 C   0  0  0  0  0  0  0  0  0  0  0  0
  149.2177  140.6112  154.7060 C   0  0  0  0  0  0  0  0  0  0  0  0
  150.4741  140.2071  155.1472 N   0  0  0  0  0  0  0  0  0  0  0  0
  151.3094  140.9192  156.1053 C   0  0  0  0  0  0  0  0  0  0  0  0
  150.9699  140.5636  157.5683 C   0  0  1  0  0  0  0  0  0  0  0  0
  151.2695  139.1958  157.7626 O   0  0  0  0  0  0  0  0  0  0  0  0
  151.6921  141.4615  158.5720 C   0  0  0  0  0  0  0  0  0  0  0  0
  151.4052  142.8460  158.5874 C   0  0  0  0  0  0  0  0  0  0  0  0
  152.0325  143.7009  159.5128 C   0  0  0  0  0  0  0  0  0  0  0  0
  151.6613  145.3856  159.5199 Cl  0  0  0  0  0  0  0  0  0  0  0  0
  152.9576  143.1798  160.4350 C   0  0  0  0  0  0  0  0  0  0  0  0
  153.2514  141.8042  160.4296 C   0  0  0  0  0  0  0  0  0  0  0  0
  152.6256  140.9424  159.5067 C   0  0  0  0  0  0  0  0  0  0  0  0
  153.0269  139.2614  159.5628 Cl  0  0  0  0  0  0  0  0  0  0  0  0
  151.6363  137.1532  153.2033 H   0  0  0  0  0  0  0  0  0  0  0  0
  152.1060  138.0666  155.8018 H   0  0  0  0  0  0  0  0  0  0  0  0
  152.8487  138.8886  154.4365 H   0  0  0  0  0  0  0  0  0  0  0  0
  147.2265  138.9916  152.4483 H   0  0  0  0  0  0  0  0  0  0  0  0
  145.7766  140.9492  152.9387 H   0  0  0  0  0  0  0  0  0  0  0  0
  146.5178  142.6889  154.5525 H   0  0  0  0  0  0  0  0  0  0  0  0
  148.7259  142.4778  155.6877 H   0  0  0  0  0  0  0  0  0  0  0  0
  152.3450  140.6501  155.8920 H   0  0  0  0  0  0  0  0  0  0  0  0
  151.2393  141.9941  155.9393 H   0  0  0  0  0  0  0  0  0  0  0  0
  149.8934  140.6357  157.7141 H   0  0  0  0  0  0  0  0  0  0  0  0
  150.8309  138.9000  158.5455 H   0  0  0  0  0  0  0  0  0  0  0  0
  150.6896  143.2594  157.8917 H   0  0  0  0  0  0  0  0  0  0  0  0
  153.4409  143.8316  161.1479 H   0  0  0  0  0  0  0  0  0  0  0  0
  153.9612  141.4078  161.1407 H   0  0  0  0  0  0  0  0  0  0  0  0
  1  2  1  0  0  0  0
  1 23  1  0  0  0  0
  2  3  1  0  0  0  0
  2 24  1  0  0  0  0
  2 25  1  0  0  0  0
  3 11  1  0  0  0  0
  3  4  2  0  0  0  0
  4  5  1  0  0  0  0
  5 10  2  0  0  0  0
  5  6  1  0  0  0  0
  6  7  2  0  0  0  0
  6 26  1  0  0  0  0
  7  8  1  0  0  0  0
  7 27  1  0  0  0  0
  8  9  2  0  0  0  0
  8 28  1  0  0  0  0
  9 10  1  0  0  0  0
  9 29  1  0  0  0  0
 10 11  1  0  0  0  0
 11 12  1  0  0  0  0
 12 13  1  0  0  0  0
 12 30  1  0  0  0  0
 12 31  1  0  0  0  0
 13 14  1  0  0  0  0
 13 15  1  0  0  0  0
 13 32  1  0  0  0  0
 14 33  1  0  0  0  0
 15 21  1  0  0  0  0
 15 16  2  0  0  0  0
 16 17  1  0  0  0  0
 16 34  1  0  0  0  0
 17 18  1  0  0  0  0
 17 19  2  0  0  0  0
 19 20  1  0  0  0  0
 19 35  1  0  0  0  0
 20 21  2  0  0  0  0
 20 36  1  0  0  0  0
 21 22  1  0  0  0  0
M  END
> <s_m_source_file>
AV-unprocessed.smi

> <i_m_source_file_index>
309

> <i_lp_mmshare_version>
43012

> <i_f3d_flags>
0

> <s_epik_input>
W2NIXTFbY0hdW2NIXVtjSF1jKGMxMiluKGMobjIpW0NIMl1bT0hdKVtDSDJdW0NASF0oW09IXSljM1tjSF1jKENsKVtjSF1bY0hdYzNDbA==

> <s_epik_cmdline>
J2VwaWtfcHl0aG9uJywgJy1waCcsICc3LjAnLCAnLXRuJywgJzgnLCAnLW1hJywgJzIwMCcsICctbWV0YWxfYmluZGluZycsICctaW1hZScsICc8aW5maWxlLm1hZT4nLCAnLW9tYWUnLCAnPG91dGZpbGUubWFlPic=

> <r_epik_Ionization_Penalty>
0.0634742

> <r_epik_Ionization_Penalty_Charging>
0

> <r_epik_Ionization_Penalty_Neutral>
0.0634742

> <r_epik_State_Penalty>
0.0551572

> <r_epik_Charging_Adjusted_Penalty>
0.0551572

> <i_epik_Tot_Q>
0

> <i_epik_Tot_abs_Q>
0

> <r_epik_Metal_State_Penalty>
5.78034e-05

> <b_epik_Metal_Only>
0

> <s_lp_Force_Field>
OPLS_2005

> <r_lp_Energy>
12.2325

> <b_lp_Chiralities_Consistent>
1

> <s_lp_Variant>
AV-unprocessed.smi:309-2

> <Gold.Version>
5.8.1

> <Gold.Id.Protein>
6NUR|6NUR_protein|mol2

> <Gold.PLP.Fitness>
54.6187

> <Gold.PLP.PLP>
-50.2403

> <Gold.PLP.part.hbond>
-2.0000

> <Gold.PLP.part.metal>
0.0000

> <Gold.PLP.part.buried>
-0.5873

> <Gold.PLP.part.nonpolar>
-50.1772

> <Gold.PLP.part.repulsive>
2.0346

> <Gold.PLP.ligand.clash>
0.0000

> <Gold.PLP.ligand.torsion>
0.4231

> <Gold.PLP.Chemscore.Hbond>
1.7280

> <Gold.PLP.Chemscore.CHOScore>
0.0000

> <Gold.PLP.Chemscore.Metal>
0.0000

> <Gold.Chemscore.Hbonds>
donor molecule, donor type, donor heavy atom, donor atom, acceptor molecule, acceptor atom, score
      L1  H     1    23       P1  7949  0.60
      P1  H 10752 10764       L1     1  1.00

> <Gold.PLP.Chemscore.Internal.Correction>
0.0406

> <Gold.Rescore>
     Score         DG    S(hbond)    S(metal)    S(lipo)     H(rot)  DE(clash)    DE(int)     intcor
     16.38     -18.77       1.33        0.00     132.94       2.62       0.18       2.22       ----

> <Gold.Chemscore.Fitness>
16.3784

> <Gold.Chemscore.DG>
-18.7714

> <Gold.Chemscore.ZeroCoef>
-5.4800

> <Gold.Chemscore.Hbond>
1.3332

> <Gold.Chemscore.Metal>
0.0000

> <Gold.Chemscore.Lipo>
132.9382

> <Gold.Chemscore.Internal_Hbond>
0.0000

> <Gold.Chemscore.DEClash>
0.1773

> <Gold.Chemscore.DEInternal>
2.2156

> <Gold.Chemscore.Rot>
2.6232

> <Gold.Chemscore.Internal.Correction>
   9.000000E+99

> <Gold.Chemscore.Hbonds>
donor molecule, donor type, donor heavy atom, donor atom, acceptor molecule, acceptor atom, score
      L1  H     1    23       P1  7949  0.57
      P1  H 10752 10764       L1     1  0.74

> <Gold.Chemscore.Hbond.Weighted>
-4.4530

> <Gold.Chemscore.Metal.Weighted>
-0.0000

> <Gold.Chemscore.Lipo.Weighted>
-15.5538

> <Gold.Chemscore.Internal_Hbond.Weighted>
0.0000

> <Gold.Chemscore.DEClash.Weighted>
0.1773

> <Gold.Chemscore.DEInternal.Weighted>
2.2156

> <Gold.Chemscore.Rot.Weighted>
6.7154

> <Gold.Chemscore.Internal.Correction.Weighted>
   9.000000E+99

> <Gold.Protein.RotatedTorsions>
[ 6907 6896 6895 6894 ] final  -90.27 input  -60.11 | X-H torsion
[ 7974 7965 7964 7962 ] final  -84.58 input  175.53 | X-H torsion
[ 8008 7997 7996 7995 ] final -129.59 input   59.86 | X-H torsion
[ 10167 10162 10161 10158 ] final  -95.56 input  -65.29 | X-H torsion
[ 10718 10713 10712 10709 ] final   45.21 input   66.30 | X-H torsion
[ 10763 10752 10751 10750 ] final  -93.15 input  -60.55 | X-H torsion
[ 11005 11000 10999 10996 ] final  113.16 input  -57.11 | X-H torsion

> <Gold.Protein.ActiveResidues>
 VAL166  LYS551  ARG553  GLY616  TRP617  ASP618  TYR619  PRO620  LYS621  CYS622 
 ASP623  PHE694  ASN695  SER759  ASP760  ASP761  ALA762  ILE779  LEU786  VAL792 
 PHE793  MET794  SER795  GLU796  ALA797  LYS798  CYS799  TRP800  GLU811  SER814 

> <Gold.Protein.RotatedAtoms>
  150.6880  134.2459  159.4490 H   0  0  0  0  0  0  0  0  0  0  0  0  # atno 6907 bound_to 6896
  152.0400  134.9715  160.0583 H   0  0  0  0  0  0  0  0  0  0  0  0  # atno 6908 bound_to 6896
  152.1220  133.4324  159.4717 H   0  0  0  0  0  0  0  0  0  0  0  0  # atno 6909 bound_to 6896
  145.5047  140.9544  143.1740 H   0  0  0  0  0  0  0  0  0  0  0  0  # atno 7974 bound_to 7965
  155.2817  140.0444  157.3016 H   0  0  0  0  0  0  0  0  0  0  0  0  # atno 8008 bound_to 7997
  154.5593  140.2341  155.8329 H   0  0  0  0  0  0  0  0  0  0  0  0  # atno 8009 bound_to 7997
  156.2034  140.3019  155.9581 H   0  0  0  0  0  0  0  0  0  0  0  0  # atno 8010 bound_to 7997
  140.3029  143.3151  152.0229 H   0  0  0  0  0  0  0  0  0  0  0  0  # atno 10167 bound_to 10162
  157.4351  130.8048  149.7640 H   0  0  0  0  0  0  0  0  0  0  0  0  # atno 10718 bound_to 10713
  154.6931  135.5205  153.8420 H   0  0  0  0  0  0  0  0  0  0  0  0  # atno 10763 bound_to 10752
  153.0647  135.6580  154.0392 H   0  0  0  0  0  0  0  0  0  0  0  0  # atno 10764 bound_to 10752
  154.0263  135.2989  155.3354 H   0  0  0  0  0  0  0  0  0  0  0  0  # atno 10765 bound_to 10752
  139.8945  134.9544  156.6696 H   0  0  0  0  0  0  0  0  0  0  0  0  # atno 11005 bound_to 11000
  144.7760  139.6628  143.7174 LP  0  0  0  0  0  0  0  0  0  0  0  0  # atno 17320 bound_to 7965
  146.2204  139.5626  142.9622 LP  0  0  0  0  0  0  0  0  0  0  0  0  # atno 17321 bound_to 7965
  139.4911  144.6442  151.6812 LP  0  0  0  0  0  0  0  0  0  0  0  0  # atno 17342 bound_to 10162
  140.5635  144.0228  150.6181 LP  0  0  0  0  0  0  0  0  0  0  0  0  # atno 17343 bound_to 10162
  155.9927  130.3929  150.2929 LP  0  0  0  0  0  0  0  0  0  0  0  0  # atno 17370 bound_to 10713
  157.1089  131.0216  151.3056 LP  0  0  0  0  0  0  0  0  0  0  0  0  # atno 17371 bound_to 10713
  140.7384  133.8999  155.8260 LP  0  0  0  0  0  0  0  0  0  0  0  0  # atno 17394 bound_to 11000
  141.0098  134.1036  157.4233 LP  0  0  0  0  0  0  0  0  0  0  0  0  # atno 17395 bound_to 11000

$$$$
