#       Name:                AV-unprocessed.smi:470
#       Creating user name   scv26
#       Creation time:       Thu Mar 26 23:06:37 2020


#       File generated by GOLD software.
#

@<TRIPOS>MOLECULE
AV-unprocessed.smi:470
    38    39     1
SMALL
NO_CHARGES


@<TRIPOS>ATOM
      1 ****         7.5670  -0.8536   1.9633 N.am           1 S1                 0.0000
      2 ****         7.7011   0.4755   1.9611 C.2            1 S1                 0.0000
      3 ****         8.3371   1.0735   2.8265 O.2            1 S1                 0.0000
      4 ****         7.0272   1.2447   0.8235 C.3            1 S1                 0.0000
      5 ****         5.5680   1.4365   1.1185 C.2            1 S1                 0.0000
      6 ****         5.0028   2.4332   1.8766 C.2            1 S1                 0.0000
      7 ****         3.2698   2.2749   1.9789 S.3            1 S1                 0.0000
      8 ****         3.3759   0.8622   0.9401 C.2            1 S1                 0.0000
      9 ****         2.2303   0.1004   0.5918 N.am           1 S1                 0.0000
     10 ****         2.0081  -0.7218  -0.4542 C.2            1 S1                 0.0000
     11 ****         2.9106  -0.9154  -1.2675 O.2            1 S1                 0.0000
     12 ****         0.6581  -1.4598  -0.6328 C.3            1 S1                 0.0000
     13 ****         0.8402  -2.9203  -1.1237 C.3            1 S1                 0.0000
     14 ****         1.0160  -3.0403  -2.6292 C.2            1 S1                 0.0000
     15 ****         0.7242  -2.0515  -3.4908 C.2            1 S1                 0.0000
     16 ****         0.1910  -0.6981  -3.0585 C.3            1 S1                 0.0000
     17 ****        -0.2877  -0.6979  -1.5916 C.3            1 S1                 0.0000
     18 ****         4.6274   0.5417   0.5977 N.2            1 S1                 0.0000
     19 ****         7.9900  -1.3988   2.7003 H              1 S1                 0.0000
     20 ****         7.0377  -1.3079   1.2330 H              1 S1                 0.0000
     21 ****         7.5219   2.2091   0.7012 H              1 S1                 0.0000
     22 ****         7.1699   0.7058  -0.1145 H              1 S1                 0.0000
     23 ****         5.5026   3.2420   2.3889 H              1 S1                 0.0000
     24 ****         1.4522   0.1968   1.2278 H              1 S1                 0.0000
     25 ****         0.1850  -1.5458   0.3436 H              1 S1                 0.0000
     26 ****         1.6979  -3.3831  -0.6333 H              1 S1                 0.0000
     27 ****        -0.0279  -3.5171  -0.8424 H              1 S1                 0.0000
     28 ****         1.3813  -3.9860  -3.0019 H              1 S1                 0.0000
     29 ****         0.8821  -2.1975  -4.5493 H              1 S1                 0.0000
     30 ****         0.9818   0.0389  -3.2015 H              1 S1                 0.0000
     31 ****        -0.6301  -0.4095  -3.7149 H              1 S1                 0.0000
     32 ****        -1.2718  -1.1658  -1.5444 H              1 S1                 0.0000
     33 ****        -0.4354   0.3300  -1.2599 H              1 S1                 0.0000
     34 ****         8.7766   0.5637   3.5661 LP             1 S1                 0.0000
     35 ****         8.4151   2.0699   2.7909 LP             1 S1                 0.0000
     36 ****         3.7958  -0.4656  -1.1487 LP             1 S1                 0.0000
     37 ****         2.7591  -1.5226  -2.0475 LP             1 S1                 0.0000
     38 ****         4.8646  -0.2487   0.0328 LP             1 S1                 0.0000
@<TRIPOS>BOND
    1    1    2 am    
    2    1   19 1     
    3    1   20 1     
    4    2    3 2     
    5    2    4 1     
    6    4    5 1     
    7    4   21 1     
    8    4   22 1     
    9    5   18 1     
   10    5    6 2     
   11    6    7 1     
   12    6   23 1     
   13    7    8 1     
   14    8    9 1     
   15    8   18 2     
   16    9   10 am    
   17    9   24 1     
   18   10   11 2     
   19   10   12 1     
   20   12   17 1     
   21   12   13 1     
   22   12   25 1     
   23   13   14 1     
   24   13   26 1     
   25   13   27 1     
   26   14   15 2     
   27   14   28 1     
   28   15   16 1     
   29   15   29 1     
   30   16   17 1     
   31   16   30 1     
   32   16   31 1     
   33   17   32 1     
   34   17   33 1     
   35    3   34 1     
   36    3   35 1     
   37   11   36 1     
   38   11   37 1     
   39   18   38 1     
@<TRIPOS>SUBSTRUCTURE
      1 S1             1
@<TRIPOS>SET
LONE_PAIRS      STATIC     ATOMS    <user>   **** ""
5 34 35 36 37 38
DONOR_HYDROGENS      STATIC     ATOMS    <user>   **** ""
3 19 20 24
ATOM$BLUE        STATIC     ATOMS    COLORGROUP SYSTEM
5 34 35 36 37 38
ATOM$RED        STATIC     ATOMS    COLORGROUP SYSTEM
3 19 20 24
