AV-unprocessed.smi:1401|AV-procd|sdf|5694|dock8
  -GOLD-   22720 5323D 1   1.00000     0.00000
 Structure written by MMmdl.
 48 50  0  0  0  0  0  0  0  0  1 V2000
  143.8075  143.7470  158.3052 C   0  0  0  0  0  0  0  0  0  0  0  0
  144.6847  143.3236  157.1584 C   0  0  0  0  0  0  0  0  0  0  0  0
  145.4936  142.3406  157.3794 N   0  0  0  0  0  0  0  0  0  0  0  0
  146.3260  141.8541  156.3888 N   0  0  0  0  0  0  0  0  0  0  0  0
  147.0920  140.6629  156.7948 C   0  0  0  0  0  0  0  0  0  0  0  0
  148.6066  140.7845  156.5494 C   0  0  0  0  0  0  0  0  0  0  0  0
  149.0850  140.3612  155.4981 O   0  0  0  0  0  0  0  0  0  0  0  0
  149.3409  141.3967  157.4930 N   0  0  0  0  0  0  0  0  0  0  0  0
  150.7397  141.7916  157.3854 C   0  0  2  0  0  0  0  0  0  0  0  0
  151.5909  140.6156  156.8772 C   0  0  0  0  0  0  0  0  0  0  0  0
  151.2237  142.3048  158.7626 C   0  0  1  0  0  0  0  0  0  0  0  0
  152.7580  142.3927  158.9184 C   0  0  0  0  0  0  0  0  0  0  0  0
  152.9684  143.8200  159.4597 C   0  0  1  0  0  0  0  0  0  0  0  0
  152.7324  144.8313  158.3224 C   0  0  0  0  0  0  0  0  0  0  0  0
  151.2041  144.7876  158.1420 C   0  0  0  0  0  0  0  0  0  0  0  0
  150.7704  143.7294  159.1764 C   0  0  2  0  0  0  0  0  0  0  0  0
  151.7296  144.0247  160.3241 C   0  0  0  0  0  0  0  0  0  0  0  0
  146.3969  142.3542  155.1214 C   0  0  0  0  0  0  0  0  0  0  0  0
  147.1407  141.8799  154.2622 O   0  0  0  0  0  0  0  0  0  0  0  0
  145.4888  143.4784  154.8828 C   0  0  0  0  0  0  0  0  0  0  0  0
  145.5282  144.0293  153.5665 C   0  0  0  0  0  0  0  0  0  0  0  0
  145.5603  144.4945  152.5069 N   0  0  0  0  0  0  0  0  0  0  0  0
  144.6571  143.9540  155.8432 C   0  0  0  0  0  0  0  0  0  0  0  0
  143.6836  145.1068  155.6411 C   0  0  0  0  0  0  0  0  0  0  0  0
  143.9944  144.7870  158.5731 H   0  0  0  0  0  0  0  0  0  0  0  0
  143.9814  143.1409  159.1958 H   0  0  0  0  0  0  0  0  0  0  0  0
  142.7541  143.6473  158.0424 H   0  0  0  0  0  0  0  0  0  0  0  0
  146.9284  140.4230  157.8466 H   0  0  0  0  0  0  0  0  0  0  0  0
  146.7247  139.7958  156.2428 H   0  0  0  0  0  0  0  0  0  0  0  0
  148.8595  141.6941  158.3292 H   0  0  0  0  0  0  0  0  0  0  0  0
  150.8131  142.6045  156.6610 H   0  0  0  0  0  0  0  0  0  0  0  0
  152.6397  140.8988  156.7867 H   0  0  0  0  0  0  0  0  0  0  0  0
  151.2593  140.2813  155.8937 H   0  0  0  0  0  0  0  0  0  0  0  0
  151.5346  139.7624  157.5540 H   0  0  0  0  0  0  0  0  0  0  0  0
  150.8443  141.6190  159.5228 H   0  0  0  0  0  0  0  0  0  0  0  0
  153.1124  141.6470  159.6311 H   0  0  0  0  0  0  0  0  0  0  0  0
  153.2935  142.2339  157.9815 H   0  0  0  0  0  0  0  0  0  0  0  0
  153.9195  143.9565  159.9749 H   0  0  0  0  0  0  0  0  0  0  0  0
  153.0551  145.8309  158.6159 H   0  0  0  0  0  0  0  0  0  0  0  0
  153.2669  144.5612  157.4110 H   0  0  0  0  0  0  0  0  0  0  0  0
  150.7658  145.7568  158.3840 H   0  0  0  0  0  0  0  0  0  0  0  0
  150.9051  144.5440  157.1231 H   0  0  0  0  0  0  0  0  0  0  0  0
  149.7162  143.7920  159.4477 H   0  0  0  0  0  0  0  0  0  0  0  0
  151.6537  143.3134  161.1486 H   0  0  0  0  0  0  0  0  0  0  0  0
  151.6372  145.0389  160.7169 H   0  0  0  0  0  0  0  0  0  0  0  0
  143.7391  145.5227  154.6355 H   0  0  0  0  0  0  0  0  0  0  0  0
  143.8955  145.9154  156.3417 H   0  0  0  0  0  0  0  0  0  0  0  0
  142.6576  144.7727  155.8012 H   0  0  0  0  0  0  0  0  0  0  0  0
  1  2  1  0  0  0  0
  1 25  1  0  0  0  0
  1 26  1  0  0  0  0
  1 27  1  0  0  0  0
  2 23  1  0  0  0  0
  2  3  2  0  0  0  0
  3  4  1  0  0  0  0
  4  5  1  0  0  0  0
  4 18  1  0  0  0  0
  5  6  1  0  0  0  0
  5 28  1  0  0  0  0
  5 29  1  0  0  0  0
  6  7  2  0  0  0  0
  6  8  1  0  0  0  0
  8  9  1  0  0  0  0
  8 30  1  0  0  0  0
  9 10  1  0  0  0  0
  9 11  1  0  0  0  0
  9 31  1  0  0  0  0
 10 32  1  0  0  0  0
 10 33  1  0  0  0  0
 10 34  1  0  0  0  0
 11 16  1  0  0  0  0
 11 12  1  0  0  0  0
 11 35  1  0  0  0  0
 12 13  1  0  0  0  0
 12 36  1  0  0  0  0
 12 37  1  0  0  0  0
 13 17  1  0  0  0  0
 13 14  1  0  0  0  0
 13 38  1  0  0  0  0
 14 15  1  0  0  0  0
 14 39  1  0  0  0  0
 14 40  1  0  0  0  0
 15 16  1  0  0  0  0
 15 41  1  0  0  0  0
 15 42  1  0  0  0  0
 16 17  1  0  0  0  0
 16 43  1  0  0  0  0
 17 44  1  0  0  0  0
 17 45  1  0  0  0  0
 18 19  2  0  0  0  0
 18 20  1  0  0  0  0
 20 21  1  0  0  0  0
 20 23  2  0  0  0  0
 21 22  3  0  0  0  0
 23 24  1  0  0  0  0
 24 46  1  0  0  0  0
 24 47  1  0  0  0  0
 24 48  1  0  0  0  0
M  END
> <s_m_source_file>
AV-unprocessed.smi

> <i_m_source_file_index>
1401

> <i_lp_mmshare_version>
43012

> <i_f3d_flags>
0

> <s_epik_input>
TiNDYyhjMVtDSDNdKWMoPU8pbihuYzFbQ0gzXSlbQ0gyXUMoPU8pW05IXVtDQEhdKFtDSDNdKVtDQEhdKFtDSDJdW0NASF0yMylbQ0BIXShbQ0gyXTMpW0NIMl1bQ0gyXTI=

> <s_epik_cmdline>
J2VwaWtfcHl0aG9uJywgJy1waCcsICc3LjAnLCAnLXRuJywgJzgnLCAnLW1hJywgJzIwMCcsICctbWV0YWxfYmluZGluZycsICctaW1hZScsICc8aW5maWxlLm1hZT4nLCAnLW9tYWUnLCAnPG91dGZpbGUubWFlPic=

> <r_lp_tautomer_probability>
1

> <r_epik_Ionization_Penalty>
2.16501e-08

> <r_epik_Ionization_Penalty_Charging>
2.29436e-11

> <r_epik_Ionization_Penalty_Neutral>
2.16271e-08

> <r_epik_State_Penalty>
-0

> <r_epik_Charging_Adjusted_Penalty>
2.29436e-11

> <i_epik_Tot_Q>
0

> <i_epik_Tot_abs_Q>
0

> <r_epik_Metal_State_Penalty>
-0

> <b_epik_Metal_Only>
0

> <s_lp_Force_Field>
OPLS_2005

> <r_lp_Energy>
65.485

> <b_lp_Chiralities_Consistent>
1

> <s_lp_Variant>
AV-unprocessed.smi:1401-7

> <Gold.Version>
5.8.1

> <Gold.Id.Protein>
6NUR|6NUR_protein|mol2

> <Gold.PLP.Fitness>
39.2496

> <Gold.PLP.PLP>
-40.7338

> <Gold.PLP.part.hbond>
-1.0000

> <Gold.PLP.part.metal>
0.0000

> <Gold.PLP.part.buried>
-6.1338

> <Gold.PLP.part.nonpolar>
-33.2179

> <Gold.PLP.part.repulsive>
0.5551

> <Gold.PLP.ligand.clash>
0.0000

> <Gold.PLP.ligand.torsion>
0.7613

> <Gold.PLP.Chemscore.Hbond>
0.0000

> <Gold.PLP.Chemscore.CHOScore>
0.0000

> <Gold.PLP.Chemscore.Metal>
0.0000

> <Gold.PLP.Chemscore.Internal.Correction>
0.0383

> <Gold.Rescore>
     Score         DG    S(hbond)    S(metal)    S(lipo)     H(rot)  DE(clash)    DE(int)     intcor
      9.26     -13.66       0.00        0.00     105.50       1.63       0.02       4.38       ----

> <Gold.Chemscore.Fitness>
9.2554

> <Gold.Chemscore.DG>
-13.6553

> <Gold.Chemscore.ZeroCoef>
-5.4800

> <Gold.Chemscore.Hbond>
0.0000

> <Gold.Chemscore.Metal>
0.0000

> <Gold.Chemscore.Lipo>
105.4970

> <Gold.Chemscore.Internal_Hbond>
0.0000

> <Gold.Chemscore.DEClash>
0.0183

> <Gold.Chemscore.DEInternal>
4.3816

> <Gold.Chemscore.Rot>
1.6281

> <Gold.Chemscore.Internal.Correction>
   9.000000E+99

> <Gold.Chemscore.Hbond.Weighted>
-0.0000

> <Gold.Chemscore.Metal.Weighted>
-0.0000

> <Gold.Chemscore.Lipo.Weighted>
-12.3431

> <Gold.Chemscore.Internal_Hbond.Weighted>
0.0000

> <Gold.Chemscore.DEClash.Weighted>
0.0183

> <Gold.Chemscore.DEInternal.Weighted>
4.3816

> <Gold.Chemscore.Rot.Weighted>
4.1678

> <Gold.Chemscore.Internal.Correction.Weighted>
   9.000000E+99

> <Gold.Protein.RotatedTorsions>
[ 6907 6896 6895 6894 ] final -131.81 input  -60.11 | X-H torsion
[ 7974 7965 7964 7962 ] final   70.50 input  175.53 | X-H torsion
[ 8008 7997 7996 7995 ] final   50.29 input   59.86 | X-H torsion
[ 10167 10162 10161 10158 ] final  -44.94 input  -65.29 | X-H torsion
[ 10718 10713 10712 10709 ] final  -82.18 input   66.30 | X-H torsion
[ 10763 10752 10751 10750 ] final   49.35 input  -60.55 | X-H torsion
[ 11005 11000 10999 10996 ] final -114.94 input  -57.11 | X-H torsion

> <Gold.Protein.ActiveResidues>
 VAL166  LYS551  ARG553  GLY616  TRP617  ASP618  TYR619  PRO620  LYS621  CYS622 
 ASP623  PHE694  ASN695  SER759  ASP760  ASP761  ALA762  ILE779  LEU786  VAL792 
 PHE793  MET794  SER795  GLU796  ALA797  LYS798  CYS799  TRP800  GLU811  SER814 

> <Gold.Protein.RotatedAtoms>
  150.9552  133.6505  159.2764 H   0  0  0  0  0  0  0  0  0  0  0  0  # atno 6907 bound_to 6896
  151.3847  135.0945  159.9517 H   0  0  0  0  0  0  0  0  0  0  0  0  # atno 6908 bound_to 6896
  152.5126  133.9079  159.7528 H   0  0  0  0  0  0  0  0  0  0  0  0  # atno 6909 bound_to 6896
  145.7774  139.2871  143.1285 H   0  0  0  0  0  0  0  0  0  0  0  0  # atno 7974 bound_to 7965
  155.4164  140.3444  155.4267 H   0  0  0  0  0  0  0  0  0  0  0  0  # atno 8008 bound_to 7997
  156.1419  140.1544  156.8939 H   0  0  0  0  0  0  0  0  0  0  0  0  # atno 8009 bound_to 7997
  154.4978  140.0823  156.7714 H   0  0  0  0  0  0  0  0  0  0  0  0  # atno 8010 bound_to 7997
  140.6877  143.2904  151.3568 H   0  0  0  0  0  0  0  0  0  0  0  0  # atno 10167 bound_to 10162
  156.0037  130.4626  150.4066 H   0  0  0  0  0  0  0  0  0  0  0  0  # atno 10718 bound_to 10713
  152.9787  135.5914  154.4075 H   0  0  0  0  0  0  0  0  0  0  0  0  # atno 10763 bound_to 10752
  154.3713  135.2767  155.2266 H   0  0  0  0  0  0  0  0  0  0  0  0  # atno 10764 bound_to 10752
  154.4220  135.6057  153.6070 H   0  0  0  0  0  0  0  0  0  0  0  0  # atno 10765 bound_to 10752
  141.0520  133.9672  157.2820 H   0  0  0  0  0  0  0  0  0  0  0  0  # atno 11005 bound_to 11000
  146.0108  140.8437  142.9971 LP  0  0  0  0  0  0  0  0  0  0  0  0  # atno 17320 bound_to 7965
  144.6802  140.2488  143.7334 LP  0  0  0  0  0  0  0  0  0  0  0  0  # atno 17321 bound_to 7965
  139.6250  144.0831  152.2426 LP  0  0  0  0  0  0  0  0  0  0  0  0  # atno 17342 bound_to 10162
  140.0288  144.6097  150.7505 LP  0  0  0  0  0  0  0  0  0  0  0  0  # atno 17343 bound_to 10162
  157.2132  131.0465  151.2588 LP  0  0  0  0  0  0  0  0  0  0  0  0  # atno 17370 bound_to 10713
  157.3870  130.7261  149.6670 LP  0  0  0  0  0  0  0  0  0  0  0  0  # atno 17371 bound_to 10713
  139.9358  135.0196  156.8551 LP  0  0  0  0  0  0  0  0  0  0  0  0  # atno 17394 bound_to 11000
  140.6037  134.0147  155.7548 LP  0  0  0  0  0  0  0  0  0  0  0  0  # atno 17395 bound_to 11000

$$$$
