AV-unprocessed.smi:3115|AV-procd|sdf|11860|dock3
  -GOLD-   2272017243D 1   1.00000     0.00000
 Structure written by MMmdl.
 32 33  0  0  0  0  0  0  0  0  1 V2000
  154.0301  141.5388  161.0003 C   0  0  0  0  0  0  0  0  0  0  0  0
  152.8667  142.1356  160.2013 C   0  0  2  0  0  0  0  0  0  0  0  0
  152.6105  141.3676  158.8895 C   0  0  0  0  0  0  0  0  0  0  0  0
  151.5627  142.0262  158.1192 N   0  0  0  0  0  0  0  0  0  0  0  0
  151.1880  141.3220  156.9661 C   0  0  0  0  0  0  0  0  0  0  0  0
  149.9954  141.6809  156.3028 C   0  0  0  0  0  0  0  0  0  0  0  0
  149.6247  140.9718  155.1423 C   0  0  0  0  0  0  0  0  0  0  0  0
  148.3497  141.3152  154.4009 C   0  0  0  0  0  0  0  0  0  0  0  0
  148.2480  142.7310  154.1116 N   0  0  0  0  0  0  0  0  0  0  0  0
  150.4570  139.9273  154.6930 C   0  0  0  0  0  0  0  0  0  0  0  0
  151.6275  139.6434  155.4230 C   0  0  0  0  0  0  0  0  0  0  0  0
  151.9912  140.3203  156.5330 N   0  0  0  0  0  0  0  0  0  0  0  0
  151.8569  143.4318  157.8708 C   0  0  0  0  0  0  0  0  0  0  0  0
  152.1289  144.1529  159.2015 C   0  0  0  0  0  0  0  0  0  0  0  0
  153.1838  143.4920  159.8949 O   0  0  0  0  0  0  0  0  0  0  0  0
  153.8302  140.5013  161.2694 H   0  0  0  0  0  0  0  0  0  0  0  0
  154.1954  142.0956  161.9228 H   0  0  0  0  0  0  0  0  0  0  0  0
  154.9565  141.5633  160.4257 H   0  0  0  0  0  0  0  0  0  0  0  0
  151.9691  142.1108  160.8221 H   0  0  0  0  0  0  0  0  0  0  0  0
  153.5272  141.3212  158.2998 H   0  0  0  0  0  0  0  0  0  0  0  0
  152.3141  140.3405  159.1067 H   0  0  0  0  0  0  0  0  0  0  0  0
  149.3767  142.4837  156.6775 H   0  0  0  0  0  0  0  0  0  0  0  0
  148.2945  140.7528  153.4684 H   0  0  0  0  0  0  0  0  0  0  0  0
  147.4924  141.0156  155.0043 H   0  0  0  0  0  0  0  0  0  0  0  0
  147.2804  142.9803  153.9651 H   0  0  0  0  0  0  0  0  0  0  0  0
  148.5676  143.2614  154.9097 H   0  0  0  0  0  0  0  0  0  0  0  0
  150.2067  139.3566  153.8108 H   0  0  0  0  0  0  0  0  0  0  0  0
  152.2894  138.8506  155.1073 H   0  0  0  0  0  0  0  0  0  0  0  0
  152.7279  143.5179  157.2195 H   0  0  0  0  0  0  0  0  0  0  0  0
  151.0185  143.9002  157.3539 H   0  0  0  0  0  0  0  0  0  0  0  0
  152.4187  145.1873  159.0161 H   0  0  0  0  0  0  0  0  0  0  0  0
  151.2314  144.1786  159.8216 H   0  0  0  0  0  0  0  0  0  0  0  0
  1  2  1  0  0  0  0
  1 16  1  0  0  0  0
  1 17  1  0  0  0  0
  1 18  1  0  0  0  0
  2 15  1  0  0  0  0
  2  3  1  0  0  0  0
  2 19  1  0  0  0  0
  3  4  1  0  0  0  0
  3 20  1  0  0  0  0
  3 21  1  0  0  0  0
  4  5  1  0  0  0  0
  4 13  1  0  0  0  0
  5 12  1  0  0  0  0
  5  6  2  0  0  0  0
  6  7  1  0  0  0  0
  6 22  1  0  0  0  0
  7  8  1  0  0  0  0
  7 10  2  0  0  0  0
  8  9  1  0  0  0  0
  8 23  1  0  0  0  0
  8 24  1  0  0  0  0
  9 25  1  0  0  0  0
  9 26  1  0  0  0  0
 10 11  1  0  0  0  0
 10 27  1  0  0  0  0
 11 12  2  0  0  0  0
 11 28  1  0  0  0  0
 13 14  1  0  0  0  0
 13 29  1  0  0  0  0
 13 30  1  0  0  0  0
 14 15  1  0  0  0  0
 14 31  1  0  0  0  0
 14 32  1  0  0  0  0
M  END
> <s_m_source_file>
AV-unprocessed.smi

> <i_m_source_file_index>
3115

> <i_lp_mmshare_version>
43012

> <i_f3d_flags>
0

> <s_epik_input>
W0NIM11bQ0BASF0xW0NIMl1OKFtDSDJdW0NIMl1PMSljMltjSF1jKFtDSDJdW05IMl0pW2NIXVtjSF1uMg==

> <s_epik_cmdline>
J2VwaWtfcHl0aG9uJywgJy1waCcsICc3LjAnLCAnLXRuJywgJzgnLCAnLW1hJywgJzIwMCcsICctbWV0YWxfYmluZGluZycsICctaW1hZScsICc8aW5maWxlLm1hZT4nLCAnLW9tYWUnLCAnPG91dGZpbGUubWFlPic=

> <r_lp_tautomer_probability>
1

> <r_epik_Ionization_Penalty>
1.27341

> <r_epik_Ionization_Penalty_Charging>
0

> <r_epik_Ionization_Penalty_Neutral>
1.27341

> <r_epik_State_Penalty>
2.46834

> <r_epik_Charging_Adjusted_Penalty>
2.46834

> <i_epik_Tot_Q>
0

> <i_epik_Tot_abs_Q>
0

> <r_epik_Metal_State_Penalty>
2.44319

> <b_epik_Metal_Only>
0

> <s_lp_Force_Field>
OPLS_2005

> <r_lp_Energy>
17.2418

> <b_lp_Chiralities_Consistent>
1

> <s_lp_Variant>
AV-unprocessed.smi:3115-3

> <Gold.Version>
5.8.1

> <Gold.Id.Protein>
6NUR|6NUR_protein|mol2

> <Gold.PLP.Fitness>
38.3648

> <Gold.PLP.PLP>
-35.1519

> <Gold.PLP.part.hbond>
-3.2071

> <Gold.PLP.part.metal>
0.0000

> <Gold.PLP.part.buried>
0.2263

> <Gold.PLP.part.nonpolar>
-31.1469

> <Gold.PLP.part.repulsive>
0.0232

> <Gold.PLP.ligand.clash>
0.0000

> <Gold.PLP.ligand.torsion>
0.2780

> <Gold.PLP.Chemscore.Hbond>
1.2230

> <Gold.PLP.Chemscore.CHOScore>
0.0000

> <Gold.PLP.Chemscore.Metal>
0.0000

> <Gold.Chemscore.Hbonds>
donor molecule, donor type, donor heavy atom, donor atom, acceptor molecule, acceptor atom, score
      L1  H     9    26       P1  8028  0.98
      P1  H  7997  8008       L1    12  0.19

> <Gold.PLP.Chemscore.Internal.Correction>
0.1000

> <Gold.Rescore>
     Score         DG    S(hbond)    S(metal)    S(lipo)     H(rot)  DE(clash)    DE(int)     intcor
     16.25     -16.64       1.12        0.00      91.45       1.28       0.23       0.17       ----

> <Gold.Chemscore.Fitness>
16.2477

> <Gold.Chemscore.DG>
-16.6392

> <Gold.Chemscore.ZeroCoef>
-5.4800

> <Gold.Chemscore.Hbond>
1.1157

> <Gold.Chemscore.Metal>
0.0000

> <Gold.Chemscore.Lipo>
91.4510

> <Gold.Chemscore.Internal_Hbond>
0.0000

> <Gold.Chemscore.DEClash>
0.2255

> <Gold.Chemscore.DEInternal>
0.1660

> <Gold.Chemscore.Rot>
1.2762

> <Gold.Chemscore.Internal.Correction>
   9.000000E+99

> <Gold.Chemscore.Hbonds>
donor molecule, donor type, donor heavy atom, donor atom, acceptor molecule, acceptor atom, score
      L1  H     9    26       P1  8028  0.93
      P1  H  7997  8008       L1    12  0.05

> <Gold.Chemscore.Hbond.Weighted>
-3.7265

> <Gold.Chemscore.Metal.Weighted>
-0.0000

> <Gold.Chemscore.Lipo.Weighted>
-10.6998

> <Gold.Chemscore.Internal_Hbond.Weighted>
0.0000

> <Gold.Chemscore.DEClash.Weighted>
0.2255

> <Gold.Chemscore.DEInternal.Weighted>
0.1660

> <Gold.Chemscore.Rot.Weighted>
3.2671

> <Gold.Chemscore.Internal.Correction.Weighted>
   9.000000E+99

> <Gold.Protein.RotatedTorsions>
[ 6907 6896 6895 6894 ] final -127.82 input  -60.11 | X-H torsion
[ 7974 7965 7964 7962 ] final -101.10 input  175.53 | X-H torsion
[ 8008 7997 7996 7995 ] final  -43.28 input   59.86 | X-H torsion
[ 10167 10162 10161 10158 ] final  -33.43 input  -65.29 | X-H torsion
[ 10718 10713 10712 10709 ] final  129.14 input   66.30 | X-H torsion
[ 10763 10752 10751 10750 ] final  -34.12 input  -60.55 | X-H torsion
[ 11005 11000 10999 10996 ] final -100.77 input  -57.11 | X-H torsion

> <Gold.Protein.ActiveResidues>
 VAL166  LYS551  ARG553  GLY616  TRP617  ASP618  TYR619  PRO620  LYS621  CYS622 
 ASP623  PHE694  ASN695  SER759  ASP760  ASP761  ALA762  ILE779  LEU786  VAL792 
 PHE793  MET794  SER795  GLU796  ALA797  LYS798  CYS799  TRP800  GLU811  SER814 

> <Gold.Protein.RotatedAtoms>
  150.9114  133.6993  159.2853 H   0  0  0  0  0  0  0  0  0  0  0  0  # atno 6907 bound_to 6896
  151.4479  135.1025  159.9699 H   0  0  0  0  0  0  0  0  0  0  0  0  # atno 6908 bound_to 6896
  152.4931  133.8507  159.7255 H   0  0  0  0  0  0  0  0  0  0  0  0  # atno 6909 bound_to 6896
  145.2860  140.9339  143.2905 H   0  0  0  0  0  0  0  0  0  0  0  0  # atno 7974 bound_to 7965
  154.3997  140.1452  156.3493 H   0  0  0  0  0  0  0  0  0  0  0  0  # atno 8008 bound_to 7997
  155.8284  140.3467  155.5536 H   0  0  0  0  0  0  0  0  0  0  0  0  # atno 8009 bound_to 7997
  155.8214  140.0898  157.1837 H   0  0  0  0  0  0  0  0  0  0  0  0  # atno 8010 bound_to 7997
  140.7204  143.3621  151.1942 H   0  0  0  0  0  0  0  0  0  0  0  0  # atno 10167 bound_to 10162
  157.5181  131.1098  150.9194 H   0  0  0  0  0  0  0  0  0  0  0  0  # atno 10718 bound_to 10713
  153.8415  135.6857  153.4802 H   0  0  0  0  0  0  0  0  0  0  0  0  # atno 10763 bound_to 10752
  153.1450  135.4641  154.9551 H   0  0  0  0  0  0  0  0  0  0  0  0  # atno 10764 bound_to 10752
  154.7842  135.3279  154.7869 H   0  0  0  0  0  0  0  0  0  0  0  0  # atno 10765 bound_to 10752
  141.1258  133.8425  157.1145 H   0  0  0  0  0  0  0  0  0  0  0  0  # atno 11005 bound_to 11000
  144.9213  139.4408  143.6540 LP  0  0  0  0  0  0  0  0  0  0  0  0  # atno 17320 bound_to 7965
  146.3201  139.8075  142.8952 LP  0  0  0  0  0  0  0  0  0  0  0  0  # atno 17321 bound_to 7965
  139.7175  143.9277  152.2972 LP  0  0  0  0  0  0  0  0  0  0  0  0  # atno 17342 bound_to 10162
  139.9022  144.6905  150.8652 LP  0  0  0  0  0  0  0  0  0  0  0  0  # atno 17343 bound_to 10162
  156.9813  130.5528  149.5296 LP  0  0  0  0  0  0  0  0  0  0  0  0  # atno 17370 bound_to 10713
  156.0334  130.5424  150.8593 LP  0  0  0  0  0  0  0  0  0  0  0  0  # atno 17371 bound_to 10713
  140.0255  134.9926  157.0676 LP  0  0  0  0  0  0  0  0  0  0  0  0  # atno 17394 bound_to 11000
  140.4370  134.1720  155.7171 LP  0  0  0  0  0  0  0  0  0  0  0  0  # atno 17395 bound_to 11000

$$$$
