AV-unprocessed.smi:3352|AV-procd|sdf|12951|dock2
  -GOLD-   2272019383D 1   1.00000     0.00000
 Structure written by MMmdl.
 38 39  0  0  0  0  0  0  0  0  1 V2000
  150.7559  144.5300  159.7808 C   0  0  0  0  0  0  0  0  0  0  0  0
  152.2331  144.2334  159.4866 C   0  0  0  0  0  0  0  0  0  0  0  0
  152.6480  144.6626  158.0717 C   0  0  0  0  0  0  0  0  0  0  0  0
  152.5741  142.8021  159.7626 C   0  0  0  0  0  0  0  0  0  0  0  0
  152.0431  141.7799  159.0865 N   0  0  0  0  0  0  0  0  0  0  0  0
  152.5493  140.5393  159.4899 C   0  0  0  0  0  0  0  0  0  0  0  0
  152.0974  139.2834  158.8010 C   0  0  0  0  0  0  0  0  0  0  0  0
  152.0687  139.5166  157.2900 C   0  0  0  0  0  0  0  0  0  0  0  0
  153.0092  139.1458  156.5880 O   0  0  0  0  0  0  0  0  0  0  0  0
  150.9970  140.1666  156.8112 N   0  0  0  0  0  0  0  0  0  0  0  0
  150.8555  140.6668  155.4500 C   0  0  0  0  0  0  0  0  0  0  0  0
  149.4796  141.3231  155.2352 C   0  0  2  0  0  0  0  0  0  0  0  0
  148.3021  140.5630  155.8491 C   0  0  0  0  0  0  0  0  0  0  0  0
  147.1192  140.9769  154.9877 C   0  0  0  0  0  0  0  0  0  0  0  0
  147.7582  141.6525  153.7702 C   0  0  0  0  0  0  0  0  0  0  0  0
  149.1436  141.3487  153.8582 O   0  0  0  0  0  0  0  0  0  0  0  0
  153.4665  140.6363  160.5069 C   0  0  0  0  0  0  0  0  0  0  0  0
  153.7471  142.2906  160.9739 S   0  0  0  0  0  0  0  0  0  0  0  0
  150.5053  144.2851  160.8134 H   0  0  0  0  0  0  0  0  0  0  0  0
  150.0973  143.9520  159.1320 H   0  0  0  0  0  0  0  0  0  0  0  0
  150.5295  145.5855  159.6288 H   0  0  0  0  0  0  0  0  0  0  0  0
  152.8186  144.8384  160.1808 H   0  0  0  0  0  0  0  0  0  0  0  0
  153.7143  144.5012  157.9098 H   0  0  0  0  0  0  0  0  0  0  0  0
  152.4467  145.7217  157.9092 H   0  0  0  0  0  0  0  0  0  0  0  0
  152.1059  144.1027  157.3091 H   0  0  0  0  0  0  0  0  0  0  0  0
  152.7691  138.4547  159.0289 H   0  0  0  0  0  0  0  0  0  0  0  0
  151.1056  138.9832  159.1421 H   0  0  0  0  0  0  0  0  0  0  0  0
  150.2720  140.4235  157.4658 H   0  0  0  0  0  0  0  0  0  0  0  0
  151.6565  141.3697  155.2163 H   0  0  0  0  0  0  0  0  0  0  0  0
  150.9738  139.8230  154.7698 H   0  0  0  0  0  0  0  0  0  0  0  0
  149.4890  142.3489  155.6087 H   0  0  0  0  0  0  0  0  0  0  0  0
  148.4588  139.4870  155.7610 H   0  0  0  0  0  0  0  0  0  0  0  0
  148.1589  140.7954  156.9052 H   0  0  0  0  0  0  0  0  0  0  0  0
  146.5275  140.1072  154.7005 H   0  0  0  0  0  0  0  0  0  0  0  0
  146.4625  141.6706  155.5136 H   0  0  0  0  0  0  0  0  0  0  0  0
  147.3374  141.3020  152.8275 H   0  0  0  0  0  0  0  0  0  0  0  0
  147.6262  142.7343  153.8198 H   0  0  0  0  0  0  0  0  0  0  0  0
  154.0052  139.8378  160.9953 H   0  0  0  0  0  0  0  0  0  0  0  0
  1  2  1  0  0  0  0
  1 19  1  0  0  0  0
  1 20  1  0  0  0  0
  1 21  1  0  0  0  0
  2  3  1  0  0  0  0
  2  4  1  0  0  0  0
  2 22  1  0  0  0  0
  3 23  1  0  0  0  0
  3 24  1  0  0  0  0
  3 25  1  0  0  0  0
  4 18  1  0  0  0  0
  4  5  2  0  0  0  0
  5  6  1  0  0  0  0
  6  7  1  0  0  0  0
  6 17  2  0  0  0  0
  7  8  1  0  0  0  0
  7 26  1  0  0  0  0
  7 27  1  0  0  0  0
  8  9  2  0  0  0  0
  8 10  1  0  0  0  0
 10 11  1  0  0  0  0
 10 28  1  0  0  0  0
 11 12  1  0  0  0  0
 11 29  1  0  0  0  0
 11 30  1  0  0  0  0
 12 16  1  0  0  0  0
 12 13  1  0  0  0  0
 12 31  1  0  0  0  0
 13 14  1  0  0  0  0
 13 32  1  0  0  0  0
 13 33  1  0  0  0  0
 14 15  1  0  0  0  0
 14 34  1  0  0  0  0
 14 35  1  0  0  0  0
 15 16  1  0  0  0  0
 15 36  1  0  0  0  0
 15 37  1  0  0  0  0
 17 18  1  0  0  0  0
 17 38  1  0  0  0  0
M  END
> <s_m_source_file>
AV-unprocessed.smi

> <i_m_source_file_index>
3352

> <i_lp_mmshare_version>
43012

> <i_f3d_flags>
0

> <s_epik_input>
W0NIM11bQ0hdKFtDSDNdKWMxbmMoW2NIXXMxKVtDSDJdQyg9TylbTkhdW0NIMl1bQ0BASF0yW0NIMl1bQ0gyXVtDSDJdTzI=

> <s_epik_cmdline>
J2VwaWtfcHl0aG9uJywgJy1waCcsICc3LjAnLCAnLXRuJywgJzgnLCAnLW1hJywgJzIwMCcsICctbWV0YWxfYmluZGluZycsICctaW1hZScsICc8aW5maWxlLm1hZT4nLCAnLW9tYWUnLCAnPG91dGZpbGUubWFlPic=

> <r_lp_tautomer_probability>
1

> <r_epik_Ionization_Penalty>
4.66014e-05

> <r_epik_Ionization_Penalty_Charging>
0

> <r_epik_Ionization_Penalty_Neutral>
4.66014e-05

> <r_epik_State_Penalty>
-0

> <r_epik_Charging_Adjusted_Penalty>
0

> <i_epik_Tot_Q>
0

> <i_epik_Tot_abs_Q>
0

> <r_epik_Metal_State_Penalty>
-0

> <b_epik_Metal_Only>
0

> <s_lp_Force_Field>
OPLS_2005

> <r_lp_Energy>
7.75536

> <b_lp_Chiralities_Consistent>
1

> <s_lp_Variant>
AV-unprocessed.smi:3352-1

> <Gold.Version>
5.8.1

> <Gold.Id.Protein>
6NUR|6NUR_protein|mol2

> <Gold.PLP.Fitness>
44.4658

> <Gold.PLP.PLP>
-40.4688

> <Gold.PLP.part.hbond>
-2.7141

> <Gold.PLP.part.metal>
0.0000

> <Gold.PLP.part.buried>
-5.1023

> <Gold.PLP.part.nonpolar>
-32.8187

> <Gold.PLP.part.repulsive>
0.5423

> <Gold.PLP.ligand.clash>
0.0000

> <Gold.PLP.ligand.torsion>
0.7089

> <Gold.PLP.Chemscore.Hbond>
1.7680

> <Gold.PLP.Chemscore.CHOScore>
0.0000

> <Gold.PLP.Chemscore.Metal>
0.0000

> <Gold.Chemscore.Hbonds>
donor molecule, donor type, donor heavy atom, donor atom, acceptor molecule, acceptor atom, score
      P1  H  7997  8008       L1     9  1.00
      P1  H  8011  8017       L1    16  0.76

> <Gold.PLP.Chemscore.Internal.Correction>
0.1108

> <Gold.Rescore>
     Score         DG    S(hbond)    S(metal)    S(lipo)     H(rot)  DE(clash)    DE(int)     intcor
     17.88     -18.75       1.36        0.00     108.51       1.55       0.09       0.79       ----

> <Gold.Chemscore.Fitness>
17.8771

> <Gold.Chemscore.DG>
-18.7508

> <Gold.Chemscore.ZeroCoef>
-5.4800

> <Gold.Chemscore.Hbond>
1.3616

> <Gold.Chemscore.Metal>
0.0000

> <Gold.Chemscore.Lipo>
108.5115

> <Gold.Chemscore.Internal_Hbond>
0.0000

> <Gold.Chemscore.DEClash>
0.0882

> <Gold.Chemscore.DEInternal>
0.7855

> <Gold.Chemscore.Rot>
1.5518

> <Gold.Chemscore.Internal.Correction>
   9.000000E+99

> <Gold.Chemscore.Hbonds>
donor molecule, donor type, donor heavy atom, donor atom, acceptor molecule, acceptor atom, score
      P1  H  7997  8008       L1     9  0.97
      P1  H  8011  8017       L1    16  0.17

> <Gold.Chemscore.Hbond.Weighted>
-4.5476

> <Gold.Chemscore.Metal.Weighted>
-0.0000

> <Gold.Chemscore.Lipo.Weighted>
-12.6958

> <Gold.Chemscore.Internal_Hbond.Weighted>
0.0000

> <Gold.Chemscore.DEClash.Weighted>
0.0882

> <Gold.Chemscore.DEInternal.Weighted>
0.7855

> <Gold.Chemscore.Rot.Weighted>
3.9727

> <Gold.Chemscore.Internal.Correction.Weighted>
   9.000000E+99

> <Gold.Protein.RotatedTorsions>
[ 6907 6896 6895 6894 ] final  158.04 input  -60.11 | X-H torsion
[ 7974 7965 7964 7962 ] final  145.47 input  175.53 | X-H torsion
[ 8008 7997 7996 7995 ] final  -52.45 input   59.86 | X-H torsion
[ 10167 10162 10161 10158 ] final  110.84 input  -65.29 | X-H torsion
[ 10718 10713 10712 10709 ] final  -39.73 input   66.30 | X-H torsion
[ 10763 10752 10751 10750 ] final  -21.74 input  -60.55 | X-H torsion
[ 11005 11000 10999 10996 ] final  124.16 input  -57.11 | X-H torsion

> <Gold.Protein.ActiveResidues>
 VAL166  LYS551  ARG553  GLY616  TRP617  ASP618  TYR619  PRO620  LYS621  CYS622 
 ASP623  PHE694  ASN695  SER759  ASP760  ASP761  ALA762  ILE779  LEU786  VAL792 
 PHE793  MET794  SER795  GLU796  ALA797  LYS798  CYS799  TRP800  GLU811  SER814 

> <Gold.Protein.RotatedAtoms>
  152.0062  133.3844  159.4201 H   0  0  0  0  0  0  0  0  0  0  0  0  # atno 6907 bound_to 6896
  150.6904  134.3780  159.5030 H   0  0  0  0  0  0  0  0  0  0  0  0  # atno 6908 bound_to 6896
  152.1534  134.8970  160.0597 H   0  0  0  0  0  0  0  0  0  0  0  0  # atno 6909 bound_to 6896
  144.8750  139.5787  143.5869 H   0  0  0  0  0  0  0  0  0  0  0  0  # atno 7974 bound_to 7965
  154.4107  140.1223  156.4994 H   0  0  0  0  0  0  0  0  0  0  0  0  # atno 8008 bound_to 7997
  155.6910  140.3495  155.4874 H   0  0  0  0  0  0  0  0  0  0  0  0  # atno 8009 bound_to 7997
  155.9468  140.1097  157.1000 H   0  0  0  0  0  0  0  0  0  0  0  0  # atno 8010 bound_to 7997
  139.6657  144.7127  151.1781 H   0  0  0  0  0  0  0  0  0  0  0  0  # atno 10167 bound_to 10162
  156.2892  130.4226  149.8256 H   0  0  0  0  0  0  0  0  0  0  0  0  # atno 10718 bound_to 10713
  153.6409  135.6985  153.5242 H   0  0  0  0  0  0  0  0  0  0  0  0  # atno 10763 bound_to 10752
  153.2783  135.4193  155.1054 H   0  0  0  0  0  0  0  0  0  0  0  0  # atno 10764 bound_to 10752
  154.8500  135.3595  154.5953 H   0  0  0  0  0  0  0  0  0  0  0  0  # atno 10765 bound_to 10752
  139.9346  134.9640  156.8368 H   0  0  0  0  0  0  0  0  0  0  0  0  # atno 11005 bound_to 11000
  146.2956  139.7268  142.9129 LP  0  0  0  0  0  0  0  0  0  0  0  0  # atno 17320 bound_to 7965
  145.4060  141.0391  143.3044 LP  0  0  0  0  0  0  0  0  0  0  0  0  # atno 17321 bound_to 7965
  140.7598  143.5923  150.8784 LP  0  0  0  0  0  0  0  0  0  0  0  0  # atno 17342 bound_to 10162
  139.9584  143.6192  152.3009 LP  0  0  0  0  0  0  0  0  0  0  0  0  # atno 17343 bound_to 10162
  156.5675  130.8410  151.3347 LP  0  0  0  0  0  0  0  0  0  0  0  0  # atno 17370 bound_to 10713
  157.7337  130.9735  150.1994 LP  0  0  0  0  0  0  0  0  0  0  0  0  # atno 17371 bound_to 10713
  140.6110  134.0082  155.7577 LP  0  0  0  0  0  0  0  0  0  0  0  0  # atno 17394 bound_to 11000
  141.0953  133.9853  157.3170 LP  0  0  0  0  0  0  0  0  0  0  0  0  # atno 17395 bound_to 11000

$$$$
