AV-unprocessed.smi:2790|AV-procd|sdf|10767|dock1
  -GOLD-   2272015203D 1   1.00000     0.00000
 Structure written by MMmdl.
 47 48  0  0  0  0  0  0  0  0  3 V2000
  147.2175  135.0443  154.2105 C   0  0  0  0  0  0  0  0  0  0  0  0
  148.6262  134.6439  153.9843 N   0  3  0  0  0  0  0  0  0  0  0  0
  148.7225  133.2858  153.4062 C   0  0  0  0  0  0  0  0  0  0  0  0
  149.4790  134.8045  155.1903 C   0  0  0  0  0  0  0  0  0  0  0  0
  150.3761  136.0451  155.1330 C   0  0  0  0  0  0  0  0  0  0  0  0
  151.5985  135.9368  155.2336 O   0  0  0  0  0  0  0  0  0  0  0  0
  149.7483  137.2211  154.9809 N   0  0  0  0  0  0  0  0  0  0  0  0
  150.3983  138.5297  154.9030 C   0  0  0  0  0  0  0  0  0  0  0  0
  149.7144  139.6121  155.7925 C   0  0  0  0  0  0  0  0  0  0  0  0
  148.3539  139.9879  155.1605 C   0  0  0  0  0  0  0  0  0  0  0  0
  148.3185  140.6240  153.8934 C   0  0  0  0  0  0  0  0  0  0  0  0
  147.0840  140.9697  153.3081 C   0  0  0  0  0  0  0  0  0  0  0  0
  145.9340  140.7005  153.9585 N   0  3  0  0  0  0  0  0  0  0  0  0
  145.9064  140.1079  155.1699 C   0  0  0  0  0  0  0  0  0  0  0  0
  147.1113  139.7407  155.8031 C   0  0  0  0  0  0  0  0  0  0  0  0
  149.4598  139.0395  157.2184 C   0  0  0  0  0  0  0  0  0  0  0  0
  150.7383  138.7763  158.0361 C   0  0  0  0  0  0  0  0  0  0  0  0
  151.6042  140.0357  158.1471 C   0  0  0  0  0  0  0  0  0  0  0  0
  151.9266  140.5978  156.7587 C   0  0  0  0  0  0  0  0  0  0  0  0
  150.6405  140.8595  155.9541 C   0  0  0  0  0  0  0  0  0  0  0  0
  146.7429  134.4007  154.9522 H   0  0  0  0  0  0  0  0  0  0  0  0
  146.6464  134.9743  153.2839 H   0  0  0  0  0  0  0  0  0  0  0  0
  147.1486  136.0747  154.5601 H   0  0  0  0  0  0  0  0  0  0  0  0
  148.3645  132.5341  154.1113 H   0  0  0  0  0  0  0  0  0  0  0  0
  149.7548  133.0484  153.1468 H   0  0  0  0  0  0  0  0  0  0  0  0
  148.1289  133.2109  152.4946 H   0  0  0  0  0  0  0  0  0  0  0  0
  148.8576  134.8238  156.0876 H   0  0  0  0  0  0  0  0  0  0  0  0
  150.1422  133.9435  155.2861 H   0  0  0  0  0  0  0  0  0  0  0  0
  148.7402  137.2138  154.9218 H   0  0  0  0  0  0  0  0  0  0  0  0
  151.4281  138.3825  155.2292 H   0  0  0  0  0  0  0  0  0  0  0  0
  150.4809  138.8529  153.8658 H   0  0  0  0  0  0  0  0  0  0  0  0
  149.2300  140.8525  153.3618 H   0  0  0  0  0  0  0  0  0  0  0  0
  146.9839  141.4507  152.3458 H   0  0  0  0  0  0  0  0  0  0  0  0
  144.9266  139.9456  155.5951 H   0  0  0  0  0  0  0  0  0  0  0  0
  147.0486  139.2736  156.7735 H   0  0  0  0  0  0  0  0  0  0  0  0
  148.8397  139.7423  157.7773 H   0  0  0  0  0  0  0  0  0  0  0  0
  148.8887  138.1126  157.1702 H   0  0  0  0  0  0  0  0  0  0  0  0
  150.4689  138.4306  159.0345 H   0  0  0  0  0  0  0  0  0  0  0  0
  151.3158  137.9692  157.5853 H   0  0  0  0  0  0  0  0  0  0  0  0
  151.0791  140.7899  158.7346 H   0  0  0  0  0  0  0  0  0  0  0  0
  152.5262  139.8106  158.6840 H   0  0  0  0  0  0  0  0  0  0  0  0
  152.4875  141.5270  156.8637 H   0  0  0  0  0  0  0  0  0  0  0  0
  152.5824  139.9121  156.2233 H   0  0  0  0  0  0  0  0  0  0  0  0
  150.9094  141.2765  154.9835 H   0  0  0  0  0  0  0  0  0  0  0  0
  150.0958  141.6444  156.4813 H   0  0  0  0  0  0  0  0  0  0  0  0
  149.0008  135.2736  153.2882 H   0  0  0  0  0  0  0  0  0  0  0  0
  145.0500  140.9563  153.5172 H   0  0  0  0  0  0  0  0  0  0  0  0
  1  2  1  0  0  0  0
  1 21  1  0  0  0  0
  1 22  1  0  0  0  0
  1 23  1  0  0  0  0
  2  3  1  0  0  0  0
  2  4  1  0  0  0  0
  2 46  1  0  0  0  0
  3 24  1  0  0  0  0
  3 25  1  0  0  0  0
  3 26  1  0  0  0  0
  4  5  1  0  0  0  0
  4 27  1  0  0  0  0
  4 28  1  0  0  0  0
  5  6  2  0  0  0  0
  5  7  1  0  0  0  0
  7  8  1  0  0  0  0
  7 29  1  0  0  0  0
  8  9  1  0  0  0  0
  8 30  1  0  0  0  0
  8 31  1  0  0  0  0
  9 20  1  0  0  0  0
  9 10  1  0  0  0  0
  9 16  1  0  0  0  0
 10 15  1  0  0  0  0
 10 11  2  0  0  0  0
 11 12  1  0  0  0  0
 11 32  1  0  0  0  0
 12 13  2  0  0  0  0
 12 33  1  0  0  0  0
 13 14  1  0  0  0  0
 13 47  1  0  0  0  0
 14 15  2  0  0  0  0
 14 34  1  0  0  0  0
 15 35  1  0  0  0  0
 16 17  1  0  0  0  0
 16 36  1  0  0  0  0
 16 37  1  0  0  0  0
 17 18  1  0  0  0  0
 17 38  1  0  0  0  0
 17 39  1  0  0  0  0
 18 19  1  0  0  0  0
 18 40  1  0  0  0  0
 18 41  1  0  0  0  0
 19 20  1  0  0  0  0
 19 42  1  0  0  0  0
 19 43  1  0  0  0  0
 20 44  1  0  0  0  0
 20 45  1  0  0  0  0
M  CHG  1   2   1
M  CHG  1  13   1
M  END
> <s_m_source_file>
AV-unprocessed.smi

> <i_m_source_file_index>
2790

> <i_lp_mmshare_version>
43012

> <i_f3d_flags>
0

> <s_epik_input>
W0NIM11OKFtDSDNdKVtDSDJdQyg9TylbTkhdW0NIMl1DMShbQ0gyXVtDSDJdW0NIMl1bQ0gyXVtDSDJdMSljMltjSF1bY0hdbltjSF1bY0hdMg==

> <s_epik_cmdline>
J2VwaWtfcHl0aG9uJywgJy1waCcsICc3LjAnLCAnLXRuJywgJzgnLCAnLW1hJywgJzIwMCcsICctbWV0YWxfYmluZGluZycsICctaW1hZScsICc8aW5maWxlLm1hZT4nLCAnLW9tYWUnLCAnPG91dGZpbGUubWFlPic=

> <r_epik_Ionization_Penalty>
1.49613

> <r_epik_Ionization_Penalty_Charging>
1.4961

> <r_epik_Ionization_Penalty_Neutral>
2.84587e-05

> <r_epik_State_Penalty>
1.54102

> <r_epik_Charging_Adjusted_Penalty>
3.03712

> <i_epik_Tot_Q>
2

> <i_epik_Tot_abs_Q>
2

> <r_epik_Metal_State_Penalty>
1.62888

> <b_epik_Metal_Only>
0

> <s_lp_Force_Field>
OPLS_2005

> <r_lp_Energy>
33.1663

> <b_lp_Chiralities_Consistent>
1

> <s_lp_Variant>
AV-unprocessed.smi:2790-2

> <Gold.Version>
5.8.1

> <Gold.Id.Protein>
6NUR|6NUR_protein|mol2

> <Gold.PLP.Fitness>
39.7812

> <Gold.PLP.PLP>
-26.5314

> <Gold.PLP.part.hbond>
-3.0000

> <Gold.PLP.part.metal>
0.0000

> <Gold.PLP.part.buried>
-3.9250

> <Gold.PLP.part.nonpolar>
-19.8614

> <Gold.PLP.part.repulsive>
0.0994

> <Gold.PLP.ligand.clash>
0.0000

> <Gold.PLP.ligand.torsion>
0.9098

> <Gold.PLP.Chemscore.Hbond>
5.0000

> <Gold.PLP.Chemscore.CHOScore>
0.0000

> <Gold.PLP.Chemscore.Metal>
0.0000

> <Gold.Chemscore.Hbonds>
donor molecule, donor type, donor heavy atom, donor atom, acceptor molecule, acceptor atom, score
      L1  H     2    46       P1  7948  2.00
      L1  H    13    47       P1 10175  1.98
      P1  H 10752 10764       L1     6  0.98

> <Gold.PLP.Chemscore.Internal.Correction>
0.0694

> <Gold.Rescore>
     Score         DG    S(hbond)    S(metal)    S(lipo)     H(rot)  DE(clash)    DE(int)     intcor
     17.38     -18.35       2.90        0.00      65.08       1.73       0.10       0.87       ----

> <Gold.Chemscore.Fitness>
17.3795

> <Gold.Chemscore.DG>
-18.3511

> <Gold.Chemscore.ZeroCoef>
-5.4800

> <Gold.Chemscore.Hbond>
2.9027

> <Gold.Chemscore.Metal>
0.0000

> <Gold.Chemscore.Lipo>
65.0830

> <Gold.Chemscore.Internal_Hbond>
0.0000

> <Gold.Chemscore.DEClash>
0.0977

> <Gold.Chemscore.DEInternal>
0.8739

> <Gold.Chemscore.Rot>
1.7339

> <Gold.Chemscore.Internal.Correction>
   9.000000E+99

> <Gold.Chemscore.Hbonds>
donor molecule, donor type, donor heavy atom, donor atom, acceptor molecule, acceptor atom, score
      L1  H     2    46       P1  7948  0.44
      L1  H    13    47       P1 10175  0.65
      P1  H 10752 10764       L1     6  0.91

> <Gold.Chemscore.Hbond.Weighted>
-9.6950

> <Gold.Chemscore.Metal.Weighted>
-0.0000

> <Gold.Chemscore.Lipo.Weighted>
-7.6147

> <Gold.Chemscore.Internal_Hbond.Weighted>
0.0000

> <Gold.Chemscore.DEClash.Weighted>
0.0977

> <Gold.Chemscore.DEInternal.Weighted>
0.8739

> <Gold.Chemscore.Rot.Weighted>
4.4387

> <Gold.Chemscore.Internal.Correction.Weighted>
   9.000000E+99

> <Gold.Protein.RotatedTorsions>
[ 6907 6896 6895 6894 ] final -122.92 input  -60.11 | X-H torsion
[ 7974 7965 7964 7962 ] final -160.00 input  175.53 | X-H torsion
[ 8008 7997 7996 7995 ] final    2.96 input   59.86 | X-H torsion
[ 10167 10162 10161 10158 ] final  135.45 input  -65.29 | X-H torsion
[ 10718 10713 10712 10709 ] final -157.10 input   66.30 | X-H torsion
[ 10763 10752 10751 10750 ] final  -60.52 input  -60.55 | X-H torsion
[ 11005 11000 10999 10996 ] final  -73.47 input  -57.11 | X-H torsion

> <Gold.Protein.ActiveResidues>
 VAL166  LYS551  ARG553  GLY616  TRP617  ASP618  TYR619  PRO620  LYS621  CYS622 
 ASP623  PHE694  ASN695  SER759  ASP760  ASP761  ALA762  ILE779  LEU786  VAL792 
 PHE793  MET794  SER795  GLU796  ALA797  LYS798  CYS799  TRP800  GLU811  SER814 

> <Gold.Protein.RotatedAtoms>
  150.8622  133.7627  159.2988 H   0  0  0  0  0  0  0  0  0  0  0  0  # atno 6907 bound_to 6896
  151.5266  135.1066  159.9901 H   0  0  0  0  0  0  0  0  0  0  0  0  # atno 6908 bound_to 6896
  152.4634  133.7827  159.6915 H   0  0  0  0  0  0  0  0  0  0  0  0  # atno 6909 bound_to 6896
  144.7444  140.3605  143.6097 H   0  0  0  0  0  0  0  0  0  0  0  0  # atno 7974 bound_to 7965
  154.6978  140.2667  155.6749 H   0  0  0  0  0  0  0  0  0  0  0  0  # atno 8008 bound_to 7997
  156.2755  140.2778  156.1502 H   0  0  0  0  0  0  0  0  0  0  0  0  # atno 8009 bound_to 7997
  155.0806  140.0372  157.2628 H   0  0  0  0  0  0  0  0  0  0  0  0  # atno 8010 bound_to 7997
  139.5217  144.6516  151.5285 H   0  0  0  0  0  0  0  0  0  0  0  0  # atno 10167 bound_to 10162
  156.5356  130.8540  151.2731 H   0  0  0  0  0  0  0  0  0  0  0  0  # atno 10718 bound_to 10713
  154.2704  135.6291  153.5308 H   0  0  0  0  0  0  0  0  0  0  0  0  # atno 10763 bound_to 10752
  152.9881  135.5609  154.5606 H   0  0  0  0  0  0  0  0  0  0  0  0  # atno 10764 bound_to 10752
  154.5175  135.2880  155.1266 H   0  0  0  0  0  0  0  0  0  0  0  0  # atno 10765 bound_to 10752
  141.1623  133.6879  156.7216 H   0  0  0  0  0  0  0  0  0  0  0  0  # atno 11005 bound_to 11000
  145.7182  139.1703  143.2499 LP  0  0  0  0  0  0  0  0  0  0  0  0  # atno 17320 bound_to 7965
  146.1296  140.7202  142.9418 LP  0  0  0  0  0  0  0  0  0  0  0  0  # atno 17321 bound_to 7965
  140.6323  143.9051  150.6617 LP  0  0  0  0  0  0  0  0  0  0  0  0  # atno 17342 bound_to 10162
  140.2359  143.3700  152.1527 LP  0  0  0  0  0  0  0  0  0  0  0  0  # atno 17343 bound_to 10162
  157.7414  130.9870  150.2444 LP  0  0  0  0  0  0  0  0  0  0  0  0  # atno 17370 bound_to 10713
  156.3019  130.3759  149.7742 LP  0  0  0  0  0  0  0  0  0  0  0  0  # atno 17371 bound_to 10713
  140.2811  134.8315  157.3934 LP  0  0  0  0  0  0  0  0  0  0  0  0  # atno 17394 bound_to 11000
  140.1432  134.4945  155.8016 LP  0  0  0  0  0  0  0  0  0  0  0  0  # atno 17395 bound_to 11000

$$$$
