#       Name:                AV-unprocessed.smi:1650
#       Creating user name   scv26
#       Creation time:       Fri Mar 27 07:34:00 2020


#       File generated by GOLD software.
#

@<TRIPOS>MOLECULE
AV-unprocessed.smi:1650
    35    36     1
SMALL
NO_CHARGES


@<TRIPOS>ATOM
      1 ****        -4.9505  -2.3693   1.1219 C.3            1 S1                 0.0000
      2 ****        -3.9172  -1.2610   1.2954 C.2            1 S1                 0.0000
      3 ****        -4.2920  -0.1100   1.5148 O.2            1 S1                 0.0000
      4 ****        -2.6318  -1.6409   1.1957 N.am           1 S1                 0.0000
      5 ****        -1.4814  -0.8211   1.3097 C.2            1 S1                 0.0000
      6 ****        -1.3904   0.5808   1.5404 C.2            1 S1                 0.0000
      7 ****        -0.1265   0.9755   1.5780 N.2            1 S1                 0.0000
      8 ****         0.6018  -0.1508   1.3750 N.pl3          1 S1                 0.0000
      9 ****         2.0516  -0.0753   1.3498 C.3            1 S1                 0.0000
     10 ****         2.5809  -0.1152  -0.0845 C.2            1 S1                 0.0000
     11 ****         3.1371  -1.1294  -0.5054 O.2            1 S1                 0.0000
     12 ****         2.3999   0.9932  -0.8184 N.am           1 S1                 0.0000
     13 ****         2.8026   1.1646  -2.1763 C.3            1 S1                 0.0000
     14 ****         3.2666   2.5402  -2.6037 C.3            1 S1                 0.0000
     15 ****         1.9297   2.0269  -3.0625 C.3            1 S1                 0.0000
     16 ****        -0.1974  -1.2652   1.2085 C.2            1 S1                 0.0000
     17 ****        -4.7086  -2.9913   0.2596 H              1 S1                 0.0000
     18 ****        -5.9460  -1.9510   0.9698 H              1 S1                 0.0000
     19 ****        -4.9775  -3.0029   2.0086 H              1 S1                 0.0000
     20 ****        -2.4604  -2.6198   1.0179 H              1 S1                 0.0000
     21 ****        -2.1703   1.3146   1.6785 H              1 S1                 0.0000
     22 ****         2.3820   0.8392   1.8452 H              1 S1                 0.0000
     23 ****         2.4544  -0.9132   1.9203 H              1 S1                 0.0000
     24 ****         1.9279   1.7728  -0.3830 H              1 S1                 0.0000
     25 ****         3.2930   0.3225  -2.6631 H              1 S1                 0.0000
     26 ****         3.2712   3.3312  -1.8561 H              1 S1                 0.0000
     27 ****         4.0654   2.5922  -3.3409 H              1 S1                 0.0000
     28 ****         1.8345   1.7380  -4.1074 H              1 S1                 0.0000
     29 ****         1.0414   2.4749  -2.6209 H              1 S1                 0.0000
     30 ****         0.2102  -2.2502   1.0340 H              1 S1                 0.0000
     31 ****        -5.2689   0.0942   1.5783 LP             1 S1                 0.0000
     32 ****        -3.6198   0.6214   1.6295 LP             1 S1                 0.0000
     33 ****         0.2166   1.9033   1.7244 LP             1 S1                 0.0000
     34 ****         3.2423  -1.9257   0.0902 LP             1 S1                 0.0000
     35 ****         3.4837  -1.1570  -1.4430 LP             1 S1                 0.0000
@<TRIPOS>BOND
    1    1    2 1     
    2    1   17 1     
    3    1   18 1     
    4    1   19 1     
    5    2    3 2     
    6    2    4 am    
    7    4    5 1     
    8    4   20 1     
    9    5   16 2     
   10    5    6 1     
   11    6    7 2     
   12    6   21 1     
   13    7    8 1     
   14    8    9 1     
   15    8   16 1     
   16    9   10 1     
   17    9   22 1     
   18    9   23 1     
   19   10   11 2     
   20   10   12 am    
   21   12   13 1     
   22   12   24 1     
   23   13   15 1     
   24   13   14 1     
   25   13   25 1     
   26   14   15 1     
   27   14   26 1     
   28   14   27 1     
   29   15   28 1     
   30   15   29 1     
   31   16   30 1     
   32    3   31 1     
   33    3   32 1     
   34    7   33 1     
   35   11   34 1     
   36   11   35 1     
@<TRIPOS>SUBSTRUCTURE
      1 S1             1
@<TRIPOS>SET
LONE_PAIRS      STATIC     ATOMS    <user>   **** ""
5 31 32 33 34 35
DONOR_HYDROGENS      STATIC     ATOMS    <user>   **** ""
2 20 24
ATOM$BLUE        STATIC     ATOMS    COLORGROUP SYSTEM
5 31 32 33 34 35
ATOM$RED        STATIC     ATOMS    COLORGROUP SYSTEM
2 20 24
