#       Name:                AV-unprocessed.smi:697
#       Creating user name   scv26
#       Creation time:       Fri Mar 27 00:37:40 2020


#       File generated by GOLD software.
#

@<TRIPOS>MOLECULE
AV-unprocessed.smi:697
    50    51     1
SMALL
NO_CHARGES


@<TRIPOS>ATOM
      1 ****        -4.9072  -0.8004  -2.1131 C.3            1 S1                 0.0000
      2 ****        -3.9699  -0.6598  -1.0525 O.3            1 S1                 0.0000
      3 ****        -2.8569  -1.5640  -1.0346 C.3            1 S1                 0.0000
      4 ****        -3.3440  -3.0186  -1.0265 C.3            1 S1                 0.0000
      5 ****        -1.8034  -1.1269  -2.0703 C.3            1 S1                 0.0000
      6 ****        -1.2792  -0.1523  -1.0175 C.3            1 S1                 0.0000
      7 ****         0.1756  -0.0401  -1.0301 N.am           1 S1                 0.0000
      8 ****         0.8804   0.7797  -0.2390 C.2            1 S1                 0.0000
      9 ****         0.3570   1.5452   0.5703 O.2            1 S1                 0.0000
     10 ****         2.1997   0.6405  -0.4631 N.am           1 S1                 0.0000
     11 ****         3.2907   1.2658   0.1660 C.2            1 S1                 0.0000
     12 ****         3.2171   2.0044   1.3083 C.2            1 S1                 0.0000
     13 ****         4.3903   2.6157   1.9199 C.2            1 S1                 0.0000
     14 ****         4.3286   3.5227   3.1362 C.3            1 S1                 0.0000
     15 ****         5.2558   4.4783   3.0716 F              1 S1                 0.0000
     16 ****         3.1328   4.1026   3.2387 F              1 S1                 0.0000
     17 ****         4.5412   2.8121   4.2427 F              1 S1                 0.0000
     18 ****         5.5455   2.3640   1.2055 C.2            1 S1                 0.0000
     19 ****         5.7092   1.6252   0.0864 N.pl3          1 S1                -1.0000
     20 ****         4.6053   1.0571  -0.4763 C.2            1 S1                 0.0000
     21 ****         4.6831   0.3774  -1.5005 O.2            1 S1                 0.0000
     22 ****        -1.8544  -1.0955   0.0707 C.3            1 S1                 0.0000
     23 ****        -2.4602  -0.4087   1.2999 C.3            1 S1                 0.0000
     24 ****        -0.9041  -2.1758   0.6218 C.3            1 S1                 0.0000
     25 ****        -5.5931   0.0461  -2.0951 H              1 S1                 0.0000
     26 ****        -5.5076  -1.7030  -2.0002 H              1 S1                 0.0000
     27 ****        -4.4293  -0.8179  -3.0920 H              1 S1                 0.0000
     28 ****        -2.5201  -3.7213  -0.9086 H              1 S1                 0.0000
     29 ****        -3.8377  -3.2880  -1.9597 H              1 S1                 0.0000
     30 ****        -4.0453  -3.1971  -0.2112 H              1 S1                 0.0000
     31 ****        -1.0997  -1.9232  -2.3191 H              1 S1                 0.0000
     32 ****        -2.1842  -0.6473  -2.9713 H              1 S1                 0.0000
     33 ****        -1.7970   0.8085  -1.0647 H              1 S1                 0.0000
     34 ****         0.6780  -0.6346  -1.6729 H              1 S1                 0.0000
     35 ****         2.4616   0.0035  -1.2013 H              1 S1                 0.0000
     36 ****         2.2793   2.1504   1.8172 H              1 S1                 0.0000
     37 ****         6.4787   2.8289   1.5892 H              1 S1                 0.0000
     38 ****        -1.6870  -0.0407   1.9752 H              1 S1                 0.0000
     39 ****        -3.0961  -1.0904   1.8653 H              1 S1                 0.0000
     40 ****        -3.0699   0.4530   1.0273 H              1 S1                 0.0000
     41 ****        -0.1269  -1.7446   1.2538 H              1 S1                 0.0000
     42 ****        -0.3979  -2.7244  -0.1727 H              1 S1                 0.0000
     43 ****        -1.4397  -2.9077   1.2269 H              1 S1                 0.0000
     44 ****        -4.4679  -0.7793  -0.1936 LP             1 S1                 0.0000
     45 ****        -3.6018   0.2689  -1.0980 LP             1 S1                 0.0000
     46 ****        -0.6386   1.5743   0.6593 LP             1 S1                 0.0000
     47 ****         0.9274   2.1381   1.1388 LP             1 S1                 0.0000
     48 ****         6.6150   1.4986  -0.3179 LP             1 S1                 0.0000
     49 ****         3.8591  -0.0303  -1.8938 LP             1 S1                 0.0000
     50 ****         5.5703   0.2333  -1.9388 LP             1 S1                 0.0000
@<TRIPOS>BOND
    1    1    2 1     
    2    1   25 1     
    3    1   26 1     
    4    1   27 1     
    5    2    3 1     
    6    3   22 1     
    7    3    4 1     
    8    3    5 1     
    9    4   28 1     
   10    4   29 1     
   11    4   30 1     
   12    5    6 1     
   13    5   31 1     
   14    5   32 1     
   15    6    7 1     
   16    6   22 1     
   17    6   33 1     
   18    7    8 am    
   19    7   34 1     
   20    8    9 2     
   21    8   10 am    
   22   10   11 1     
   23   10   35 1     
   24   11   20 1     
   25   11   12 2     
   26   12   13 1     
   27   12   36 1     
   28   13   14 1     
   29   13   18 2     
   30   14   15 1     
   31   14   16 1     
   32   14   17 1     
   33   18   19 1     
   34   18   37 1     
   35   19   20 1     
   36   20   21 2     
   37   22   23 1     
   38   22   24 1     
   39   23   38 1     
   40   23   39 1     
   41   23   40 1     
   42   24   41 1     
   43   24   42 1     
   44   24   43 1     
   45    2   44 1     
   46    2   45 1     
   47    9   46 1     
   48    9   47 1     
   49   19   48 1     
   50   21   49 1     
   51   21   50 1     
@<TRIPOS>SUBSTRUCTURE
      1 S1             1
@<TRIPOS>SET
LONE_PAIRS      STATIC     ATOMS    <user>   **** ""
7 44 45 46 47 48 49 50
DONOR_HYDROGENS      STATIC     ATOMS    <user>   **** ""
2 34 35
ATOM$BLUE        STATIC     ATOMS    COLORGROUP SYSTEM
7 44 45 46 47 48 49 50
ATOM$RED        STATIC     ATOMS    COLORGROUP SYSTEM
2 34 35
