AV-unprocessed.smi:1596|AV-procd|sdf|6419|dock9
  -GOLD-   22720 7 53D 1   1.00000     0.00000
 Structure written by MMmdl.
 48 49  0  0  0  0  0  0  0  0  1 V2000
  144.9216  143.9220  156.7570 C   0  0  0  0  0  0  0  0  0  0  0  0
  145.0101  142.5257  156.1199 C   0  0  0  0  0  0  0  0  0  0  0  0
  146.3777  142.0148  156.0265 N   0  0  0  0  0  0  0  0  0  0  0  0
  147.0365  141.7968  157.3140 C   0  0  0  0  0  0  0  0  0  0  0  0
  148.5389  141.4937  157.1917 C   0  0  0  0  0  0  0  0  0  0  0  0
  146.5040  140.9167  155.1569 C   0  0  0  0  0  0  0  0  0  0  0  0
  147.1423  141.0972  153.9121 C   0  0  0  0  0  0  0  0  0  0  0  0
  147.2699  139.9943  153.0465 C   0  0  0  0  0  0  0  0  0  0  0  0
  146.7593  138.7401  153.4571 C   0  0  0  0  0  0  0  0  0  0  0  0
  146.8052  137.5609  152.6654 N   0  0  0  0  0  0  0  0  0  0  0  0
  146.0224  136.4714  152.7441 C   0  0  0  0  0  0  0  0  0  0  0  0
  145.0685  136.3348  153.5100 O   0  0  0  0  0  0  0  0  0  0  0  0
  146.3970  135.5408  151.8545 N   0  0  0  0  0  0  0  0  0  0  0  0
  145.7520  134.2445  151.6669 C   0  0  2  0  0  0  0  0  0  0  0  0
  146.4773  133.4615  150.5577 C   0  0  0  0  0  0  0  0  0  0  0  0
  145.8017  132.1048  150.2911 C   0  0  0  0  0  0  0  0  0  0  0  0
  144.3014  132.2521  149.9745 C   0  0  2  0  0  0  0  0  0  0  0  0
  144.1314  132.8531  148.7059 O   0  0  0  0  0  0  0  0  0  0  0  0
  143.5731  133.0774  151.0523 C   0  0  0  0  0  0  0  0  0  0  0  0
  144.2612  134.4278  151.3195 C   0  0  0  0  0  0  0  0  0  0  0  0
  146.1260  138.6694  154.7151 C   0  0  0  0  0  0  0  0  0  0  0  0
  146.0027  139.7219  155.5509 N   0  0  0  0  0  0  0  0  0  0  0  0
  143.8811  144.2281  156.8655 H   0  0  0  0  0  0  0  0  0  0  0  0
  145.4218  144.6781  156.1513 H   0  0  0  0  0  0  0  0  0  0  0  0
  145.3744  143.9307  157.7487 H   0  0  0  0  0  0  0  0  0  0  0  0
  144.4218  141.8317  156.7210 H   0  0  0  0  0  0  0  0  0  0  0  0
  144.5509  142.5374  155.1305 H   0  0  0  0  0  0  0  0  0  0  0  0
  146.9110  142.6916  157.9245 H   0  0  0  0  0  0  0  0  0  0  0  0
  146.5372  140.9883  157.8496 H   0  0  0  0  0  0  0  0  0  0  0  0
  148.9922  141.4051  158.1791 H   0  0  0  0  0  0  0  0  0  0  0  0
  149.0580  142.2913  156.6593 H   0  0  0  0  0  0  0  0  0  0  0  0
  148.7250  140.5581  156.6636 H   0  0  0  0  0  0  0  0  0  0  0  0
  147.5244  142.0654  153.6230 H   0  0  0  0  0  0  0  0  0  0  0  0
  147.7400  140.1363  152.0860 H   0  0  0  0  0  0  0  0  0  0  0  0
  147.4869  137.5658  151.9207 H   0  0  0  0  0  0  0  0  0  0  0  0
  147.1874  135.7430  151.2601 H   0  0  0  0  0  0  0  0  0  0  0  0
  145.8307  133.6687  152.5914 H   0  0  0  0  0  0  0  0  0  0  0  0
  146.4912  134.0478  149.6378 H   0  0  0  0  0  0  0  0  0  0  0  0
  147.5198  133.3010  150.8350 H   0  0  0  0  0  0  0  0  0  0  0  0
  146.3108  131.5853  149.4785 H   0  0  0  0  0  0  0  0  0  0  0  0
  145.9177  131.4742  151.1736 H   0  0  0  0  0  0  0  0  0  0  0  0
  143.8501  131.2609  149.9190 H   0  0  0  0  0  0  0  0  0  0  0  0
  144.9046  133.3589  148.5069 H   0  0  0  0  0  0  0  0  0  0  0  0
  142.5322  133.2364  150.7689 H   0  0  0  0  0  0  0  0  0  0  0  0
  143.5498  132.5055  151.9808 H   0  0  0  0  0  0  0  0  0  0  0  0
  143.7466  134.9422  152.1319 H   0  0  0  0  0  0  0  0  0  0  0  0
  144.1623  135.0667  150.4408 H   0  0  0  0  0  0  0  0  0  0  0  0
  145.7083  137.7373  155.0672 H   0  0  0  0  0  0  0  0  0  0  0  0
  1  2  1  0  0  0  0
  1 23  1  0  0  0  0
  1 24  1  0  0  0  0
  1 25  1  0  0  0  0
  2  3  1  0  0  0  0
  2 26  1  0  0  0  0
  2 27  1  0  0  0  0
  3  4  1  0  0  0  0
  3  6  1  0  0  0  0
  4  5  1  0  0  0  0
  4 28  1  0  0  0  0
  4 29  1  0  0  0  0
  5 30  1  0  0  0  0
  5 31  1  0  0  0  0
  5 32  1  0  0  0  0
  6 22  1  0  0  0  0
  6  7  2  0  0  0  0
  7  8  1  0  0  0  0
  7 33  1  0  0  0  0
  8  9  2  0  0  0  0
  8 34  1  0  0  0  0
  9 10  1  0  0  0  0
  9 21  1  0  0  0  0
 10 11  1  0  0  0  0
 10 35  1  0  0  0  0
 11 12  2  0  0  0  0
 11 13  1  0  0  0  0
 13 14  1  0  0  0  0
 13 36  1  0  0  0  0
 14 20  1  0  0  0  0
 14 15  1  0  0  0  0
 14 37  1  0  0  0  0
 15 16  1  0  0  0  0
 15 38  1  0  0  0  0
 15 39  1  0  0  0  0
 16 17  1  0  0  0  0
 16 40  1  0  0  0  0
 16 41  1  0  0  0  0
 17 18  1  0  0  0  0
 17 19  1  0  0  0  0
 17 42  1  0  0  0  0
 18 43  1  0  0  0  0
 19 20  1  0  0  0  0
 19 44  1  0  0  0  0
 19 45  1  0  0  0  0
 20 46  1  0  0  0  0
 20 47  1  0  0  0  0
 21 22  2  0  0  0  0
 21 48  1  0  0  0  0
M  END
> <s_m_source_file>
AV-unprocessed.smi

> <i_m_source_file_index>
1596

> <i_lp_mmshare_version>
43012

> <i_f3d_flags>
0

> <s_epik_input>
W0NIM11bQ0gyXU4oW0NIMl1bQ0gzXSljMVtjSF1bY0hdYyhbY0hdbjEpW05IXUMoPU8pW05IXVtDQEBIXTJbQ0gyXVtDSDJdW0NAQEhdKFtPSF0pW0NIMl1bQ0gyXTI=

> <s_epik_cmdline>
J2VwaWtfcHl0aG9uJywgJy1waCcsICc3LjAnLCAnLXRuJywgJzgnLCAnLW1hJywgJzIwMCcsICctbWV0YWxfYmluZGluZycsICctaW1hZScsICc8aW5maWxlLm1hZT4nLCAnLW9tYWUnLCAnPG91dGZpbGUubWFlPic=

> <r_lp_tautomer_probability>
1

> <r_epik_Ionization_Penalty>
0.709395

> <r_epik_Ionization_Penalty_Charging>
0

> <r_epik_Ionization_Penalty_Neutral>
0.709395

> <r_epik_State_Penalty>
2.20721

> <r_epik_Charging_Adjusted_Penalty>
2.20721

> <i_epik_Tot_Q>
0

> <i_epik_Tot_abs_Q>
0

> <r_epik_Metal_State_Penalty>
1.55411

> <b_epik_Metal_Only>
0

> <s_lp_Force_Field>
OPLS_2005

> <r_lp_Energy>
19.3677

> <b_lp_Chiralities_Consistent>
1

> <s_lp_Variant>
AV-unprocessed.smi:1596-4

> <Gold.Version>
5.8.1

> <Gold.Id.Protein>
6NUR|6NUR_protein|mol2

> <Gold.PLP.Fitness>
39.7662

> <Gold.PLP.PLP>
-33.3474

> <Gold.PLP.part.hbond>
-3.3811

> <Gold.PLP.part.metal>
0.0000

> <Gold.PLP.part.buried>
-4.9433

> <Gold.PLP.part.nonpolar>
-26.4086

> <Gold.PLP.part.repulsive>
0.4111

> <Gold.PLP.ligand.clash>
0.0000

> <Gold.PLP.ligand.torsion>
0.3303

> <Gold.PLP.Chemscore.Hbond>
2.2720

> <Gold.PLP.Chemscore.CHOScore>
0.0000

> <Gold.PLP.Chemscore.Metal>
0.0000

> <Gold.Chemscore.Hbonds>
donor molecule, donor type, donor heavy atom, donor atom, acceptor molecule, acceptor atom, score
      L1  H    10    35       P1  7948  0.45
      L1  H    13    36       P1  7948  0.54
      L1  H    18    43       P1  7921  0.88

> <Gold.PLP.Chemscore.Internal.Correction>
0.2634

> <Gold.Rescore>
     Score         DG    S(hbond)    S(metal)    S(lipo)     H(rot)  DE(clash)    DE(int)     intcor
     13.84     -16.97       2.45        0.00      72.26       2.01       0.07       3.05       ----

> <Gold.Chemscore.Fitness>
13.8422

> <Gold.Chemscore.DG>
-16.9691

> <Gold.Chemscore.ZeroCoef>
-5.4800

> <Gold.Chemscore.Hbond>
2.4456

> <Gold.Chemscore.Metal>
0.0000

> <Gold.Chemscore.Lipo>
72.2573

> <Gold.Chemscore.Internal_Hbond>
0.0000

> <Gold.Chemscore.DEClash>
0.0742

> <Gold.Chemscore.DEInternal>
3.0527

> <Gold.Chemscore.Rot>
2.0052

> <Gold.Chemscore.Internal.Correction>
   9.000000E+99

> <Gold.Chemscore.Hbonds>
donor molecule, donor type, donor heavy atom, donor atom, acceptor molecule, acceptor atom, score
      L1  H    10    35       P1  7948  0.45
      L1  H    13    36       P1  7948  0.54
      L1  H    18    43       P1  7921  0.63

> <Gold.Chemscore.Hbond.Weighted>
-8.1683

> <Gold.Chemscore.Metal.Weighted>
-0.0000

> <Gold.Chemscore.Lipo.Weighted>
-8.4541

> <Gold.Chemscore.Internal_Hbond.Weighted>
0.0000

> <Gold.Chemscore.DEClash.Weighted>
0.0742

> <Gold.Chemscore.DEInternal.Weighted>
3.0527

> <Gold.Chemscore.Rot.Weighted>
5.1334

> <Gold.Chemscore.Internal.Correction.Weighted>
   9.000000E+99

> <Gold.Protein.RotatedTorsions>
[ 6907 6896 6895 6894 ] final  -67.97 input  -60.11 | X-H torsion
[ 7974 7965 7964 7962 ] final -125.81 input  175.53 | X-H torsion
[ 8008 7997 7996 7995 ] final -106.95 input   59.86 | X-H torsion
[ 10167 10162 10161 10158 ] final   58.52 input  -65.29 | X-H torsion
[ 10718 10713 10712 10709 ] final  -17.41 input   66.30 | X-H torsion
[ 10763 10752 10751 10750 ] final -129.73 input  -60.55 | X-H torsion
[ 11005 11000 10999 10996 ] final -143.12 input  -57.11 | X-H torsion

> <Gold.Protein.ActiveResidues>
 VAL166  LYS551  ARG553  GLY616  TRP617  ASP618  TYR619  PRO620  LYS621  CYS622 
 ASP623  PHE694  ASN695  SER759  ASP760  ASP761  ALA762  ILE779  LEU786  VAL792 
 PHE793  MET794  SER795  GLU796  ALA797  LYS798  CYS799  TRP800  GLU811  SER814 

> <Gold.Protein.RotatedAtoms>
  150.7380  134.5805  159.5935 H   0  0  0  0  0  0  0  0  0  0  0  0  # atno 6907 bound_to 6896
  152.3220  134.7365  160.0320 H   0  0  0  0  0  0  0  0  0  0  0  0  # atno 6908 bound_to 6896
  151.7878  133.3320  159.3527 H   0  0  0  0  0  0  0  0  0  0  0  0  # atno 6909 bound_to 6896
  144.9937  140.7756  143.4538 H   0  0  0  0  0  0  0  0  0  0  0  0  # atno 7974 bound_to 7965
  154.9222  140.0407  157.2004 H   0  0  0  0  0  0  0  0  0  0  0  0  # atno 8008 bound_to 7997
  154.8243  140.2888  155.5744 H   0  0  0  0  0  0  0  0  0  0  0  0  # atno 8009 bound_to 7997
  156.2982  140.2513  156.3156 H   0  0  0  0  0  0  0  0  0  0  0  0  # atno 8010 bound_to 7997
  140.1863  144.4131  150.6592 H   0  0  0  0  0  0  0  0  0  0  0  0  # atno 10167 bound_to 10162
  156.5739  130.4757  149.6350 H   0  0  0  0  0  0  0  0  0  0  0  0  # atno 10718 bound_to 10713
  154.8757  135.3886  154.3967 H   0  0  0  0  0  0  0  0  0  0  0  0  # atno 10763 bound_to 10752
  153.4696  135.7030  153.6006 H   0  0  0  0  0  0  0  0  0  0  0  0  # atno 10764 bound_to 10752
  153.4469  135.3843  155.2229 H   0  0  0  0  0  0  0  0  0  0  0  0  # atno 10765 bound_to 10752
  140.8157  134.2691  157.4922 H   0  0  0  0  0  0  0  0  0  0  0  0  # atno 11005 bound_to 11000
  145.2249  139.2141  143.5073 LP  0  0  0  0  0  0  0  0  0  0  0  0  # atno 17320 bound_to 7965
  146.3437  140.2115  142.8590 LP  0  0  0  0  0  0  0  0  0  0  0  0  # atno 17321 bound_to 7965
  140.6486  143.2219  151.6129 LP  0  0  0  0  0  0  0  0  0  0  0  0  # atno 17342 bound_to 10162
  139.5275  144.3016  152.1068 LP  0  0  0  0  0  0  0  0  0  0  0  0  # atno 17343 bound_to 10162
  156.2690  130.7006  151.1798 LP  0  0  0  0  0  0  0  0  0  0  0  0  # atno 17370 bound_to 10713
  157.7342  131.0584  150.5538 LP  0  0  0  0  0  0  0  0  0  0  0  0  # atno 17371 bound_to 10713
  139.8711  134.9508  156.4065 LP  0  0  0  0  0  0  0  0  0  0  0  0  # atno 17394 bound_to 11000
  140.9151  133.7684  155.9838 LP  0  0  0  0  0  0  0  0  0  0  0  0  # atno 17395 bound_to 11000

$$$$
