AV-unprocessed.smi:1110|AV-procd|sdf|4791|dock4
  -GOLD-   22720 3333D 1   1.00000     0.00000
 Structure written by MMmdl.
 44 45  0  0  0  0  0  0  0  0  2 V2000
  151.1265  135.9442  155.9309 C   0  0  0  0  0  0  0  0  0  0  0  0
  149.8055  135.8241  155.1572 C   0  0  0  0  0  0  0  0  0  0  0  0
  149.3720  134.3674  154.8392 C   0  0  1  0  0  0  0  0  0  0  0  0
  148.9901  133.5909  156.1259 C   0  0  0  0  0  0  0  0  0  0  0  0
  148.1340  134.3892  156.9962 N   0  0  0  0  0  0  0  0  0  0  0  0
  148.5450  135.1239  158.0421 C   0  0  0  0  0  0  0  0  0  0  0  0
  149.7256  135.2010  158.3783 O   0  0  0  0  0  0  0  0  0  0  0  0
  147.4826  135.8856  158.8536 C   0  0  0  0  0  0  0  0  0  0  0  0
  147.4672  135.5763  160.2955 N   0  0  0  0  0  0  0  0  0  0  0  0
  147.1239  134.2590  160.6599 C   0  0  0  0  0  0  0  0  0  0  0  0
  147.0658  133.8693  161.9431 C   0  0  0  0  0  0  0  0  0  0  0  0
  147.3698  134.8420  162.9658 C   0  0  0  0  0  0  0  0  0  0  0  0
  147.6945  136.1061  162.6286 C   0  0  0  0  0  0  0  0  0  0  0  0
  147.7505  136.5386  161.2276 C   0  0  0  0  0  0  0  0  0  0  0  0
  148.0227  137.6964  160.9111 O   0  0  0  0  0  0  0  0  0  0  0  0
  148.2582  134.3613  153.8424 N   0  3  0  0  0  0  0  0  0  0  0  0
  147.8838  133.0244  153.3131 C   0  0  0  0  0  0  0  0  0  0  0  0
  146.3566  133.0036  153.1623 C   0  0  0  0  0  0  0  0  0  0  0  0
  145.9296  134.4550  153.3421 C   0  0  0  0  0  0  0  0  0  0  0  0
  146.9997  135.0101  154.2737 C   0  0  0  0  0  0  0  0  0  0  0  0
  151.4374  136.9870  155.9984 H   0  0  0  0  0  0  0  0  0  0  0  0
  151.9266  135.3923  155.4370 H   0  0  0  0  0  0  0  0  0  0  0  0
  151.0348  135.5717  156.9510 H   0  0  0  0  0  0  0  0  0  0  0  0
  149.0184  136.3404  155.7084 H   0  0  0  0  0  0  0  0  0  0  0  0
  149.9312  136.3848  154.2314 H   0  0  0  0  0  0  0  0  0  0  0  0
  150.2197  133.8518  154.3847 H   0  0  0  0  0  0  0  0  0  0  0  0
  148.5026  132.6505  155.8656 H   0  0  0  0  0  0  0  0  0  0  0  0
  149.8788  133.2991  156.6840 H   0  0  0  0  0  0  0  0  0  0  0  0
  147.1471  134.3942  156.7814 H   0  0  0  0  0  0  0  0  0  0  0  0
  147.6464  136.9541  158.7055 H   0  0  0  0  0  0  0  0  0  0  0  0
  146.5046  135.6896  158.4108 H   0  0  0  0  0  0  0  0  0  0  0  0
  146.9085  133.5955  159.8349 H   0  0  0  0  0  0  0  0  0  0  0  0
  146.7996  132.8555  162.2040 H   0  0  0  0  0  0  0  0  0  0  0  0
  147.3392  134.5544  164.0066 H   0  0  0  0  0  0  0  0  0  0  0  0
  147.9204  136.8199  163.4075 H   0  0  0  0  0  0  0  0  0  0  0  0
  148.3775  132.8701  152.3531 H   0  0  0  0  0  0  0  0  0  0  0  0
  148.1964  132.2206  153.9815 H   0  0  0  0  0  0  0  0  0  0  0  0
  146.0339  132.5887  152.2069 H   0  0  0  0  0  0  0  0  0  0  0  0
  145.9187  132.3929  153.9532 H   0  0  0  0  0  0  0  0  0  0  0  0
  145.9651  134.9749  152.3837 H   0  0  0  0  0  0  0  0  0  0  0  0
  144.9211  134.5558  153.7447 H   0  0  0  0  0  0  0  0  0  0  0  0
  146.7725  134.7281  155.3033 H   0  0  0  0  0  0  0  0  0  0  0  0
  147.0586  136.0976  154.2212 H   0  0  0  0  0  0  0  0  0  0  0  0
  148.5757  134.8954  153.0463 H   0  0  0  0  0  0  0  0  0  0  0  0
  1  2  1  0  0  0  0
  1 21  1  0  0  0  0
  1 22  1  0  0  0  0
  1 23  1  0  0  0  0
  2  3  1  0  0  0  0
  2 24  1  0  0  0  0
  2 25  1  0  0  0  0
  3  4  1  0  0  0  0
  3 16  1  0  0  0  0
  3 26  1  0  0  0  0
  4  5  1  0  0  0  0
  4 27  1  0  0  0  0
  4 28  1  0  0  0  0
  5  6  1  0  0  0  0
  5 29  1  0  0  0  0
  6  7  2  0  0  0  0
  6  8  1  0  0  0  0
  8  9  1  0  0  0  0
  8 30  1  0  0  0  0
  8 31  1  0  0  0  0
  9 14  1  0  0  0  0
  9 10  1  0  0  0  0
 10 11  2  0  0  0  0
 10 32  1  0  0  0  0
 11 12  1  0  0  0  0
 11 33  1  0  0  0  0
 12 13  2  0  0  0  0
 12 34  1  0  0  0  0
 13 14  1  0  0  0  0
 13 35  1  0  0  0  0
 14 15  2  0  0  0  0
 16 20  1  0  0  0  0
 16 17  1  0  0  0  0
 16 44  1  0  0  0  0
 17 18  1  0  0  0  0
 17 36  1  0  0  0  0
 17 37  1  0  0  0  0
 18 19  1  0  0  0  0
 18 38  1  0  0  0  0
 18 39  1  0  0  0  0
 19 20  1  0  0  0  0
 19 40  1  0  0  0  0
 19 41  1  0  0  0  0
 20 42  1  0  0  0  0
 20 43  1  0  0  0  0
M  CHG  1  16   1
M  END
> <s_m_source_file>
AV-unprocessed.smi

> <i_m_source_file_index>
1110

> <i_lp_mmshare_version>
43012

> <i_f3d_flags>
0

> <s_epik_input>
W0NIMl0xW0NIMl1bQ0gyXVtDSDJdTjFbQ0BIXShbQ0gyXVtDSDNdKVtDSDJdW05IXUMoPU8pW0NIMl1uMltjSF1bY0hdW2NIXVtjSF1jMj1P

> <s_epik_cmdline>
J2VwaWtfcHl0aG9uJywgJy1waCcsICc3LjAnLCAnLXRuJywgJzgnLCAnLW1hJywgJzIwMCcsICctbWV0YWxfYmluZGluZycsICctaW1hZScsICc8aW5maWxlLm1hZT4nLCAnLW9tYWUnLCAnPG91dGZpbGUubWFlPic=

> <r_lp_tautomer_probability>
1

> <r_epik_Ionization_Penalty>
0.00361135

> <r_epik_Ionization_Penalty_Charging>
0.00361127

> <r_epik_Ionization_Penalty_Neutral>
7.8489e-08

> <r_epik_State_Penalty>
0.00256751

> <r_epik_Charging_Adjusted_Penalty>
0.00617878

> <i_epik_Tot_Q>
1

> <i_epik_Tot_abs_Q>
1

> <r_epik_Metal_State_Penalty>
-0

> <b_epik_Metal_Only>
0

> <s_lp_Force_Field>
OPLS_2005

> <r_lp_Energy>
49.2182

> <b_lp_Chiralities_Consistent>
1

> <s_lp_Variant>
AV-unprocessed.smi:1110-2

> <Gold.Version>
5.8.1

> <Gold.Id.Protein>
6NUR|6NUR_protein|mol2

> <Gold.PLP.Fitness>
47.6628

> <Gold.PLP.PLP>
-34.2122

> <Gold.PLP.part.hbond>
-3.9243

> <Gold.PLP.part.metal>
0.0000

> <Gold.PLP.part.buried>
-2.8031

> <Gold.PLP.part.nonpolar>
-28.3560

> <Gold.PLP.part.repulsive>
0.0423

> <Gold.PLP.ligand.clash>
0.0000

> <Gold.PLP.ligand.torsion>
0.4123

> <Gold.PLP.Chemscore.Hbond>
4.7040

> <Gold.PLP.Chemscore.CHOScore>
0.0000

> <Gold.PLP.Chemscore.Metal>
0.0000

> <Gold.Chemscore.Hbonds>
donor molecule, donor type, donor heavy atom, donor atom, acceptor molecule, acceptor atom, score
      L1  H    16    44       P1  7948  2.00
      P1  H  6896  6908       L1     7  0.86
      P1  H  6931  6943       L1    15  0.60
      P1  H  6934  6947       L1    15  0.59

> <Gold.PLP.Chemscore.Internal.Correction>
0.1632

> <Gold.Rescore>
     Score         DG    S(hbond)    S(metal)    S(lipo)     H(rot)  DE(clash)    DE(int)     intcor
     18.12     -20.43       3.58        0.00      69.01       1.99       0.45       1.86       ----

> <Gold.Chemscore.Fitness>
18.1227

> <Gold.Chemscore.DG>
-20.4272

> <Gold.Chemscore.ZeroCoef>
-5.4800

> <Gold.Chemscore.Hbond>
3.5825

> <Gold.Chemscore.Metal>
0.0000

> <Gold.Chemscore.Lipo>
69.0104

> <Gold.Chemscore.Internal_Hbond>
0.0000

> <Gold.Chemscore.DEClash>
0.4457

> <Gold.Chemscore.DEInternal>
1.8588

> <Gold.Chemscore.Rot>
1.9893

> <Gold.Chemscore.Internal.Correction>
   9.000000E+99

> <Gold.Chemscore.Hbonds>
donor molecule, donor type, donor heavy atom, donor atom, acceptor molecule, acceptor atom, score
      L1  H    16    44       P1  7948  0.50
      P1  H  6896  6908       L1     7  0.85
      P1  H  6931  6943       L1    15  0.42
      P1  H  6934  6947       L1    15  0.58

> <Gold.Chemscore.Hbond.Weighted>
-11.9656

> <Gold.Chemscore.Metal.Weighted>
-0.0000

> <Gold.Chemscore.Lipo.Weighted>
-8.0742

> <Gold.Chemscore.Internal_Hbond.Weighted>
0.0000

> <Gold.Chemscore.DEClash.Weighted>
0.4457

> <Gold.Chemscore.DEInternal.Weighted>
1.8588

> <Gold.Chemscore.Rot.Weighted>
5.0927

> <Gold.Chemscore.Internal.Correction.Weighted>
   9.000000E+99

> <Gold.Protein.RotatedTorsions>
[ 6907 6896 6895 6894 ] final -174.45 input  -60.11 | X-H torsion
[ 7974 7965 7964 7962 ] final   10.50 input  175.53 | X-H torsion
[ 8008 7997 7996 7995 ] final -114.45 input   59.86 | X-H torsion
[ 10167 10162 10161 10158 ] final -150.57 input  -65.29 | X-H torsion
[ 10718 10713 10712 10709 ] final  116.53 input   66.30 | X-H torsion
[ 10763 10752 10751 10750 ] final  -67.60 input  -60.55 | X-H torsion
[ 11005 11000 10999 10996 ] final  178.48 input  -57.11 | X-H torsion

> <Gold.Protein.ActiveResidues>
 VAL166  LYS551  ARG553  GLY616  TRP617  ASP618  TYR619  PRO620  LYS621  CYS622 
 ASP623  PHE694  ASN695  SER759  ASP760  ASP761  ALA762  ILE779  LEU786  VAL792 
 PHE793  MET794  SER795  GLU796  ALA797  LYS798  CYS799  TRP800  GLU811  SER814 

> <Gold.Protein.RotatedAtoms>
  151.5726  133.3388  159.2992 H   0  0  0  0  0  0  0  0  0  0  0  0  # atno 6907 bound_to 6896
  150.8359  134.7634  159.6903 H   0  0  0  0  0  0  0  0  0  0  0  0  # atno 6908 bound_to 6896
  152.4435  134.5549  159.9929 H   0  0  0  0  0  0  0  0  0  0  0  0  # atno 6909 bound_to 6896
  146.2387  139.9625  142.8457 H   0  0  0  0  0  0  0  0  0  0  0  0  # atno 7974 bound_to 7965
  155.0366  140.0392  157.2494 H   0  0  0  0  0  0  0  0  0  0  0  0  # atno 8008 bound_to 7997
  154.7252  140.2719  155.6482 H   0  0  0  0  0  0  0  0  0  0  0  0  # atno 8009 bound_to 7997
  156.2827  140.2695  156.1935 H   0  0  0  0  0  0  0  0  0  0  0  0  # atno 8010 bound_to 7997
  139.7343  143.8760  152.2544 H   0  0  0  0  0  0  0  0  0  0  0  0  # atno 10167 bound_to 10162
  157.6154  131.1026  150.7486 H   0  0  0  0  0  0  0  0  0  0  0  0  # atno 10718 bound_to 10713
  154.3769  135.6083  153.5769 H   0  0  0  0  0  0  0  0  0  0  0  0  # atno 10763 bound_to 10752
  152.9789  135.5851  154.4456 H   0  0  0  0  0  0  0  0  0  0  0  0  # atno 10764 bound_to 10752
  154.4219  135.2846  155.1947 H   0  0  0  0  0  0  0  0  0  0  0  0  # atno 10765 bound_to 10752
  140.3956  134.6823  157.4533 H   0  0  0  0  0  0  0  0  0  0  0  0  # atno 11005 bound_to 11000
  145.1757  140.9743  143.4295 LP  0  0  0  0  0  0  0  0  0  0  0  0  # atno 17320 bound_to 7965
  144.9988  139.3619  143.6178 LP  0  0  0  0  0  0  0  0  0  0  0  0  # atno 17321 bound_to 7965
  139.8692  144.7077  150.9007 LP  0  0  0  0  0  0  0  0  0  0  0  0  # atno 17342 bound_to 10162
  140.7776  143.3752  151.1576 LP  0  0  0  0  0  0  0  0  0  0  0  0  # atno 17343 bound_to 10162
  156.7854  130.4873  149.5394 LP  0  0  0  0  0  0  0  0  0  0  0  0  # atno 17370 bound_to 10713
  156.1274  130.6154  151.0284 LP  0  0  0  0  0  0  0  0  0  0  0  0  # atno 17371 bound_to 10713
  140.0374  134.6317  155.9025 LP  0  0  0  0  0  0  0  0  0  0  0  0  # atno 17394 bound_to 11000
  141.1875  133.6560  156.5285 LP  0  0  0  0  0  0  0  0  0  0  0  0  # atno 17395 bound_to 11000

$$$$
