AV-unprocessed.smi:1766|AV-procd|sdf|7138|dock6
  -GOLD-   22720 8373D 1   1.00000     0.00000
 Structure written by MMmdl.
 40 42  0  0  0  0  0  0  0  0  2 V2000
  148.1116  134.0995  153.5113 N   0  0  0  0  0  0  0  0  0  0  0  0
  147.7014  134.1492  154.7812 C   0  0  0  0  0  0  0  0  0  0  0  0
  147.5887  133.1369  155.4707 O   0  0  0  0  0  0  0  0  0  0  0  0
  147.3674  135.5336  155.3472 C   0  0  0  0  0  0  0  0  0  0  0  0
  148.5816  136.4094  155.4101 C   0  0  0  0  0  0  0  0  0  0  0  0
  149.4305  136.6686  154.3751 N   0  3  0  0  0  0  0  0  0  0  0  0
  150.4481  137.5230  154.7997 C   0  0  0  0  0  0  0  0  0  0  0  0
  151.5301  138.0611  154.1098 C   0  0  0  0  0  0  0  0  0  0  0  0
  152.3891  138.9073  154.8406 C   0  0  0  0  0  0  0  0  0  0  0  0
  152.1582  139.1877  156.2027 C   0  0  0  0  0  0  0  0  0  0  0  0
  151.0603  138.6328  156.8917 C   0  0  0  0  0  0  0  0  0  0  0  0
  150.2118  137.7996  156.1619 C   0  0  0  0  0  0  0  0  0  0  0  0
  149.0454  137.0980  156.4941 N   0  0  0  0  0  0  0  0  0  0  0  0
  148.5065  137.1832  157.8621 C   0  0  0  0  0  0  0  0  0  0  0  0
  149.1554  136.1647  158.8218 C   0  0  1  0  0  0  0  0  0  0  0  0
  150.3481  136.7312  159.3231 O   0  0  0  0  0  0  0  0  0  0  0  0
  148.2120  135.7256  159.9331 C   0  0  0  0  0  0  0  0  0  0  0  0
  147.7672  136.6454  160.9086 C   0  0  0  0  0  0  0  0  0  0  0  0
  146.8689  136.2353  161.9130 C   0  0  0  0  0  0  0  0  0  0  0  0
  146.4109  134.9042  161.9483 C   0  0  0  0  0  0  0  0  0  0  0  0
  145.5433  134.5114  162.9107 F   0  0  0  0  0  0  0  0  0  0  0  0
  146.8533  133.9824  160.9805 C   0  0  0  0  0  0  0  0  0  0  0  0
  147.7518  134.3917  159.9764 C   0  0  0  0  0  0  0  0  0  0  0  0
  148.3372  133.2079  153.0935 H   0  0  0  0  0  0  0  0  0  0  0  0
  148.1901  134.9479  152.9691 H   0  0  0  0  0  0  0  0  0  0  0  0
  146.6100  136.0203  154.7313 H   0  0  0  0  0  0  0  0  0  0  0  0
  146.9412  135.4185  156.3436 H   0  0  0  0  0  0  0  0  0  0  0  0
  151.7089  137.8475  153.0662 H   0  0  0  0  0  0  0  0  0  0  0  0
  153.2418  139.3503  154.3466 H   0  0  0  0  0  0  0  0  0  0  0  0
  152.8370  139.8417  156.7307 H   0  0  0  0  0  0  0  0  0  0  0  0
  150.8955  138.8590  157.9345 H   0  0  0  0  0  0  0  0  0  0  0  0
  148.6994  138.1976  158.2136 H   0  0  0  0  0  0  0  0  0  0  0  0
  147.4220  137.0767  157.8382 H   0  0  0  0  0  0  0  0  0  0  0  0
  149.4523  135.2816  158.2551 H   0  0  0  0  0  0  0  0  0  0  0  0
  150.1225  137.3905  159.9616 H   0  0  0  0  0  0  0  0  0  0  0  0
  148.1041  137.6715  160.8832 H   0  0  0  0  0  0  0  0  0  0  0  0
  146.5284  136.9432  162.6540 H   0  0  0  0  0  0  0  0  0  0  0  0
  146.5014  132.9616  161.0062 H   0  0  0  0  0  0  0  0  0  0  0  0
  148.0786  133.6799  159.2327 H   0  0  0  0  0  0  0  0  0  0  0  0
  149.3214  136.2837  153.4457 H   0  0  0  0  0  0  0  0  0  0  0  0
  1  2  1  0  0  0  0
  1 24  1  0  0  0  0
  1 25  1  0  0  0  0
  2  3  2  0  0  0  0
  2  4  1  0  0  0  0
  4  5  1  0  0  0  0
  4 26  1  0  0  0  0
  4 27  1  0  0  0  0
  5 13  1  0  0  0  0
  5  6  2  0  0  0  0
  6  7  1  0  0  0  0
  6 40  1  0  0  0  0
  7 12  2  0  0  0  0
  7  8  1  0  0  0  0
  8  9  2  0  0  0  0
  8 28  1  0  0  0  0
  9 10  1  0  0  0  0
  9 29  1  0  0  0  0
 10 11  2  0  0  0  0
 10 30  1  0  0  0  0
 11 12  1  0  0  0  0
 11 31  1  0  0  0  0
 12 13  1  0  0  0  0
 13 14  1  0  0  0  0
 14 15  1  0  0  0  0
 14 32  1  0  0  0  0
 14 33  1  0  0  0  0
 15 16  1  0  0  0  0
 15 17  1  0  0  0  0
 15 34  1  0  0  0  0
 16 35  1  0  0  0  0
 17 23  1  0  0  0  0
 17 18  2  0  0  0  0
 18 19  1  0  0  0  0
 18 36  1  0  0  0  0
 19 20  2  0  0  0  0
 19 37  1  0  0  0  0
 20 21  1  0  0  0  0
 20 22  1  0  0  0  0
 22 23  2  0  0  0  0
 22 38  1  0  0  0  0
 23 39  1  0  0  0  0
M  CHG  1   6   1
M  END
> <s_m_source_file>
AV-unprocessed.smi

> <i_m_source_file_index>
1766

> <i_lp_mmshare_version>
43012

> <i_f3d_flags>
0

> <s_epik_input>
W2NIXTFbY0hdW2NIXVtjSF1jKGMxMiluKGMobjIpW0NIMl1DKD1PKVtOSDJdKVtDSDJdW0NASF0oW09IXSljM1tjSF1bY0hdYyhGKVtjSF1bY0hdMw==

> <s_epik_cmdline>
J2VwaWtfcHl0aG9uJywgJy1waCcsICc3LjAnLCAnLXRuJywgJzgnLCAnLW1hJywgJzIwMCcsICctbWV0YWxfYmluZGluZycsICctaW1hZScsICc8aW5maWxlLm1hZT4nLCAnLW9tYWUnLCAnPG91dGZpbGUubWFlPic=

> <r_epik_Ionization_Penalty>
1.66646

> <r_epik_Ionization_Penalty_Charging>
1.66645

> <r_epik_Ionization_Penalty_Neutral>
2.12833e-06

> <r_epik_State_Penalty>
1.76975

> <r_epik_Charging_Adjusted_Penalty>
3.43621

> <i_epik_Tot_Q>
1

> <i_epik_Tot_abs_Q>
1

> <r_epik_Metal_State_Penalty>
1.80493

> <b_epik_Metal_Only>
0

> <s_lp_Force_Field>
OPLS_2005

> <r_lp_Energy>
15.5136

> <b_lp_Chiralities_Consistent>
1

> <s_lp_Variant>
AV-unprocessed.smi:1766-4

> <Gold.Version>
5.8.1

> <Gold.Id.Protein>
6NUR|6NUR_protein|mol2

> <Gold.PLP.Fitness>
42.6485

> <Gold.PLP.PLP>
-32.2096

> <Gold.PLP.part.hbond>
-3.0000

> <Gold.PLP.part.metal>
0.0000

> <Gold.PLP.part.buried>
-3.5625

> <Gold.PLP.part.nonpolar>
-25.6829

> <Gold.PLP.part.repulsive>
0.0297

> <Gold.PLP.ligand.clash>
0.0000

> <Gold.PLP.ligand.torsion>
0.8084

> <Gold.PLP.Chemscore.Hbond>
4.0000

> <Gold.PLP.Chemscore.CHOScore>
0.0000

> <Gold.PLP.Chemscore.Metal>
0.0000

> <Gold.Chemscore.Hbonds>
donor molecule, donor type, donor heavy atom, donor atom, acceptor molecule, acceptor atom, score
      L1  H     1    25       P1  7948  1.00
      L1  H     6    40       P1  7948  2.00
      P1  H  6896  6908       L1    16  1.00

> <Gold.PLP.Chemscore.Internal.Correction>
0.0556

> <Gold.Rescore>
     Score         DG    S(hbond)    S(metal)    S(lipo)     H(rot)  DE(clash)    DE(int)     intcor
     15.48     -16.28       2.69        0.00      82.15       3.05       0.01       0.80       ----

> <Gold.Chemscore.Fitness>
15.4762

> <Gold.Chemscore.DG>
-16.2817

> <Gold.Chemscore.ZeroCoef>
-5.4800

> <Gold.Chemscore.Hbond>
2.6917

> <Gold.Chemscore.Metal>
0.0000

> <Gold.Chemscore.Lipo>
82.1534

> <Gold.Chemscore.Internal_Hbond>
0.0000

> <Gold.Chemscore.DEClash>
0.0057

> <Gold.Chemscore.DEInternal>
0.7997

> <Gold.Chemscore.Rot>
3.0470

> <Gold.Chemscore.Internal.Correction>
   9.000000E+99

> <Gold.Chemscore.Hbonds>
donor molecule, donor type, donor heavy atom, donor atom, acceptor molecule, acceptor atom, score
      L1  H     1    25       P1  7948  0.87
      L1  H     6    40       P1  7948  0.80
      P1  H  6896  6908       L1    16  0.35

> <Gold.Chemscore.Hbond.Weighted>
-8.9901

> <Gold.Chemscore.Metal.Weighted>
-0.0000

> <Gold.Chemscore.Lipo.Weighted>
-9.6119

> <Gold.Chemscore.Internal_Hbond.Weighted>
0.0000

> <Gold.Chemscore.DEClash.Weighted>
0.0057

> <Gold.Chemscore.DEInternal.Weighted>
0.7997

> <Gold.Chemscore.Rot.Weighted>
7.8004

> <Gold.Chemscore.Internal.Correction.Weighted>
   9.000000E+99

> <Gold.Protein.RotatedTorsions>
[ 6907 6896 6895 6894 ] final -130.82 input  -60.11 | X-H torsion
[ 7974 7965 7964 7962 ] final -111.07 input  175.53 | X-H torsion
[ 8008 7997 7996 7995 ] final -160.50 input   59.86 | X-H torsion
[ 10167 10162 10161 10158 ] final  -94.29 input  -65.29 | X-H torsion
[ 10718 10713 10712 10709 ] final   72.53 input   66.30 | X-H torsion
[ 10763 10752 10751 10750 ] final  121.35 input  -60.55 | X-H torsion
[ 11005 11000 10999 10996 ] final   34.69 input  -57.11 | X-H torsion

> <Gold.Protein.ActiveResidues>
 VAL166  LYS551  ARG553  GLY616  TRP617  ASP618  TYR619  PRO620  LYS621  CYS622 
 ASP623  PHE694  ASN695  SER759  ASP760  ASP761  ALA762  ILE779  LEU786  VAL792 
 PHE793  MET794  SER795  GLU796  ALA797  LYS798  CYS799  TRP800  GLU811  SER814 

> <Gold.Protein.RotatedAtoms>
  150.9440  133.6623  159.2784 H   0  0  0  0  0  0  0  0  0  0  0  0  # atno 6907 bound_to 6896
  151.4002  135.0968  159.9563 H   0  0  0  0  0  0  0  0  0  0  0  0  # atno 6908 bound_to 6896
  152.5082  133.8936  159.7461 H   0  0  0  0  0  0  0  0  0  0  0  0  # atno 6909 bound_to 6896
  145.1605  140.8876  143.3593 H   0  0  0  0  0  0  0  0  0  0  0  0  # atno 7974 bound_to 7965
  155.7784  140.0861  157.2072 H   0  0  0  0  0  0  0  0  0  0  0  0  # atno 8008 bound_to 7997
  154.3991  140.1512  156.3081 H   0  0  0  0  0  0  0  0  0  0  0  0  # atno 8009 bound_to 7997
  155.8678  140.3427  155.5803 H   0  0  0  0  0  0  0  0  0  0  0  0  # atno 8010 bound_to 7997
  140.3159  143.3077  152.0098 H   0  0  0  0  0  0  0  0  0  0  0  0  # atno 10167 bound_to 10162
  157.6505  130.9583  150.0942 H   0  0  0  0  0  0  0  0  0  0  0  0  # atno 10718 bound_to 10713
  153.6128  135.3427  155.2984 H   0  0  0  0  0  0  0  0  0  0  0  0  # atno 10763 bound_to 10752
  154.8615  135.4254  154.2291 H   0  0  0  0  0  0  0  0  0  0  0  0  # atno 10764 bound_to 10752
  153.3146  135.7034  153.7157 H   0  0  0  0  0  0  0  0  0  0  0  0  # atno 10765 bound_to 10752
  140.2503  134.3311  155.7893 H   0  0  0  0  0  0  0  0  0  0  0  0  # atno 11005 bound_to 11000
  145.0336  139.3320  143.6012 LP  0  0  0  0  0  0  0  0  0  0  0  0  # atno 17320 bound_to 7965
  146.3483  139.9683  142.8709 LP  0  0  0  0  0  0  0  0  0  0  0  0  # atno 17321 bound_to 7965
  139.4884  144.6349  151.6996 LP  0  0  0  0  0  0  0  0  0  0  0  0  # atno 17342 bound_to 10162
  140.5527  144.0399  150.6134 LP  0  0  0  0  0  0  0  0  0  0  0  0  # atno 17343 bound_to 10162
  156.1883  130.3653  149.8944 LP  0  0  0  0  0  0  0  0  0  0  0  0  # atno 17370 bound_to 10713
  156.6879  130.8884  151.3584 LP  0  0  0  0  0  0  0  0  0  0  0  0  # atno 17371 bound_to 10713
  141.2202  133.7349  156.9026 LP  0  0  0  0  0  0  0  0  0  0  0  0  # atno 17394 bound_to 11000
  140.1565  134.9195  157.2660 LP  0  0  0  0  0  0  0  0  0  0  0  0  # atno 17395 bound_to 11000

$$$$
