AV-unprocessed.smi:2751|AV-procd|sdf|10601|dock3
  -GOLD-   2272015 53D 1   1.00000     0.00000
 Structure written by MMmdl.
 34 35  0  0  0  0  0  0  0  0  1 V2000
  150.4635  139.9668  154.8169 O   0  0  0  0  0  0  0  0  0  0  0  0
  149.8685  141.0488  154.7843 C   0  0  0  0  0  0  0  0  0  0  0  0
  150.2299  142.0709  155.5745 N   0  0  0  0  0  0  0  0  0  0  0  0
  151.3292  142.0532  156.5335 C   0  0  0  0  0  0  0  0  0  0  0  0
  150.8201  141.9101  157.9781 C   0  0  0  0  0  0  0  0  0  0  0  0
  151.8476  142.3758  159.0220 C   0  0  2  0  0  0  0  0  0  0  0  0
  152.4200  141.1966  159.8331 C   0  0  0  0  0  0  0  0  0  0  0  0
  153.3805  141.7012  160.9162 C   0  0  0  0  0  0  0  0  0  0  0  0
  152.6852  142.7696  161.7661 C   0  0  0  0  0  0  0  0  0  0  0  0
  152.0958  143.8668  160.8657 C   0  0  0  0  0  0  0  0  0  0  0  0
  151.2085  143.2877  159.9137 O   0  0  0  0  0  0  0  0  0  0  0  0
  148.7950  141.4204  153.9869 N   0  0  0  0  0  0  0  0  0  0  0  0
  148.1118  140.5174  153.3518 C   0  0  0  0  0  0  0  0  0  0  0  0
  148.2139  139.1310  153.2711 N   0  0  0  0  0  0  0  0  0  0  0  0
  147.2256  138.6778  152.4428 C   0  0  0  0  0  0  0  0  0  0  0  0
  146.5293  139.7285  152.0195 C   0  0  0  0  0  0  0  0  0  0  0  0
  147.0477  140.8673  152.5593 O   0  0  0  0  0  0  0  0  0  0  0  0
  149.7046  142.9304  155.5011 H   0  0  0  0  0  0  0  0  0  0  0  0
  152.0269  141.2499  156.2907 H   0  0  0  0  0  0  0  0  0  0  0  0
  151.8831  142.9858  156.4241 H   0  0  0  0  0  0  0  0  0  0  0  0
  149.8933  142.4723  158.1003 H   0  0  0  0  0  0  0  0  0  0  0  0
  150.5717  140.8652  158.1683 H   0  0  0  0  0  0  0  0  0  0  0  0
  152.6625  142.8883  158.5074 H   0  0  0  0  0  0  0  0  0  0  0  0
  151.6057  140.6405  160.2995 H   0  0  0  0  0  0  0  0  0  0  0  0
  152.9375  140.4989  159.1742 H   0  0  0  0  0  0  0  0  0  0  0  0
  153.7164  140.8747  161.5428 H   0  0  0  0  0  0  0  0  0  0  0  0
  154.2707  142.1245  160.4494 H   0  0  0  0  0  0  0  0  0  0  0  0
  151.8868  142.3106  162.3504 H   0  0  0  0  0  0  0  0  0  0  0  0
  153.3876  143.2015  162.4794 H   0  0  0  0  0  0  0  0  0  0  0  0
  151.5438  144.5890  161.4675 H   0  0  0  0  0  0  0  0  0  0  0  0
  152.8867  144.4175  160.3539 H   0  0  0  0  0  0  0  0  0  0  0  0
  148.8835  138.5265  153.7254 H   0  0  0  0  0  0  0  0  0  0  0  0
  147.1239  137.6220  152.2390 H   0  0  0  0  0  0  0  0  0  0  0  0
  145.6781  139.8278  151.3623 H   0  0  0  0  0  0  0  0  0  0  0  0
  1  2  2  0  0  0  0
  2 12  1  0  0  0  0
  2  3  1  0  0  0  0
  3  4  1  0  0  0  0
  3 18  1  0  0  0  0
  4  5  1  0  0  0  0
  4 19  1  0  0  0  0
  4 20  1  0  0  0  0
  5  6  1  0  0  0  0
  5 21  1  0  0  0  0
  5 22  1  0  0  0  0
  6 11  1  0  0  0  0
  6  7  1  0  0  0  0
  6 23  1  0  0  0  0
  7  8  1  0  0  0  0
  7 24  1  0  0  0  0
  7 25  1  0  0  0  0
  8  9  1  0  0  0  0
  8 26  1  0  0  0  0
  8 27  1  0  0  0  0
  9 10  1  0  0  0  0
  9 28  1  0  0  0  0
  9 29  1  0  0  0  0
 10 11  1  0  0  0  0
 10 30  1  0  0  0  0
 10 31  1  0  0  0  0
 12 13  2  0  0  0  0
 13 17  1  0  0  0  0
 13 14  1  0  0  0  0
 14 32  1  0  0  0  0
 14 15  1  0  0  0  0
 15 33  1  0  0  0  0
 15 16  2  0  0  0  0
 16 34  1  0  0  0  0
 16 17  1  0  0  0  0
M  END
> <s_m_source_file>
AV-unprocessed.smi

> <i_m_source_file_index>
2751

> <i_lp_mmshare_version>
43012

> <i_f3d_flags>
0

> <s_epik_input>
bzFbY0hdW2NIXW5jMVtOSF1DKD1PKVtOSF1bQ0gyXVtDSDJdW0NAQEhdMltDSDJdW0NIMl1bQ0gyXVtDSDJdTzI=

> <s_epik_cmdline>
J2VwaWtfcHl0aG9uJywgJy1waCcsICc3LjAnLCAnLXRuJywgJzgnLCAnLW1hJywgJzIwMCcsICctbWV0YWxfYmluZGluZycsICctaW1hZScsICc8aW5maWxlLm1hZT4nLCAnLW9tYWUnLCAnPG91dGZpbGUubWFlPic=

> <r_lp_tautomer_probability>
0.107061

> <r_epik_Ionization_Penalty>
1.421

> <r_epik_Ionization_Penalty_Charging>
1.42064

> <r_epik_Ionization_Penalty_Neutral>
0.0003614

> <r_epik_State_Penalty>
2.61489

> <r_epik_Charging_Adjusted_Penalty>
4.03553

> <i_epik_Tot_Q>
0

> <i_epik_Tot_abs_Q>
0

> <r_epik_Metal_State_Penalty>
3.57288

> <b_epik_Metal_Only>
0

> <s_lp_Force_Field>
OPLS_2005

> <r_lp_Energy>
32.5826

> <b_lp_Chiralities_Consistent>
1

> <s_lp_Variant>
AV-unprocessed.smi:2751-7

> <Gold.Version>
5.8.1

> <Gold.Id.Protein>
6NUR|6NUR_protein|mol2

> <Gold.PLP.Fitness>
44.5563

> <Gold.PLP.PLP>
-32.4674

> <Gold.PLP.part.hbond>
-4.4230

> <Gold.PLP.part.metal>
0.0000

> <Gold.PLP.part.buried>
2.0978

> <Gold.PLP.part.nonpolar>
-31.0054

> <Gold.PLP.part.repulsive>
1.0576

> <Gold.PLP.ligand.clash>
0.0000

> <Gold.PLP.ligand.torsion>
0.9555

> <Gold.PLP.Chemscore.Hbond>
1.9920

> <Gold.PLP.Chemscore.CHOScore>
2.6691

> <Gold.PLP.Chemscore.Metal>
0.0000

> <Gold.Chemscore.Hbonds>
donor molecule, donor type, donor heavy atom, donor atom, acceptor molecule, acceptor atom, score
      L1  H     3    18       P1  8028  1.00
      P1  H  7989  7998       L1     1  0.10
      P1  H  8011  8017       L1    12  0.46
      L1  C    15    33       P1  7948  0.85
      L1  C    16    34       P1 10171  0.70
      L1  C    16    34       P1 10175  0.68

> <Gold.PLP.Chemscore.Internal.Correction>
0.0166

> <Gold.Rescore>
     Score         DG    S(hbond)    S(metal)    S(lipo)     H(rot)  DE(clash)    DE(int)     intcor
     14.05     -17.11       1.70        0.00      86.60       1.63       2.10       0.97       ----

> <Gold.Chemscore.Fitness>
14.0499

> <Gold.Chemscore.DG>
-17.1149

> <Gold.Chemscore.ZeroCoef>
-5.4800

> <Gold.Chemscore.Hbond>
1.7014

> <Gold.Chemscore.Metal>
0.0000

> <Gold.Chemscore.Lipo>
86.5987

> <Gold.Chemscore.Internal_Hbond>
0.0000

> <Gold.Chemscore.DEClash>
2.0988

> <Gold.Chemscore.DEInternal>
0.9662

> <Gold.Chemscore.Rot>
1.6328

> <Gold.Chemscore.Internal.Correction>
   9.000000E+99

> <Gold.Chemscore.Hbonds>
donor molecule, donor type, donor heavy atom, donor atom, acceptor molecule, acceptor atom, score
      L1  H     3    18       P1  8028  0.98
      P1  H  8011  8017       L1    12  0.05

> <Gold.Chemscore.Hbond.Weighted>
-5.6827

> <Gold.Chemscore.Metal.Weighted>
-0.0000

> <Gold.Chemscore.Lipo.Weighted>
-10.1321

> <Gold.Chemscore.Internal_Hbond.Weighted>
0.0000

> <Gold.Chemscore.DEClash.Weighted>
2.0988

> <Gold.Chemscore.DEInternal.Weighted>
0.9662

> <Gold.Chemscore.Rot.Weighted>
4.1799

> <Gold.Chemscore.Internal.Correction.Weighted>
   9.000000E+99

> <Gold.Protein.RotatedTorsions>
[ 6907 6896 6895 6894 ] final  143.20 input  -60.11 | X-H torsion
[ 7974 7965 7964 7962 ] final  -81.79 input  175.53 | X-H torsion
[ 8008 7997 7996 7995 ] final  -89.38 input   59.86 | X-H torsion
[ 10167 10162 10161 10158 ] final   27.77 input  -65.29 | X-H torsion
[ 10718 10713 10712 10709 ] final  -78.47 input   66.30 | X-H torsion
[ 10763 10752 10751 10750 ] final  130.14 input  -60.55 | X-H torsion
[ 11005 11000 10999 10996 ] final   24.71 input  -57.11 | X-H torsion

> <Gold.Protein.ActiveResidues>
 VAL166  LYS551  ARG553  GLY616  TRP617  ASP618  TYR619  PRO620  LYS621  CYS622 
 ASP623  PHE694  ASN695  SER759  ASP760  ASP761  ALA762  ILE779  LEU786  VAL792 
 PHE793  MET794  SER795  GLU796  ALA797  LYS798  CYS799  TRP800  GLU811  SER814 

> <Gold.Protein.RotatedAtoms>
  152.2093  133.4899  159.5100 H   0  0  0  0  0  0  0  0  0  0  0  0  # atno 6907 bound_to 6896
  150.6986  134.1488  159.4141 H   0  0  0  0  0  0  0  0  0  0  0  0  # atno 6908 bound_to 6896
  151.9407  135.0214  160.0586 H   0  0  0  0  0  0  0  0  0  0  0  0  # atno 6909 bound_to 6896
  145.5419  140.9508  143.1546 H   0  0  0  0  0  0  0  0  0  0  0  0  # atno 7974 bound_to 7965
  154.6859  140.0542  157.0314 H   0  0  0  0  0  0  0  0  0  0  0  0  # atno 8008 bound_to 7997
  155.0886  140.3217  155.4561 H   0  0  0  0  0  0  0  0  0  0  0  0  # atno 8009 bound_to 7997
  156.2711  140.2052  156.6013 H   0  0  0  0  0  0  0  0  0  0  0  0  # atno 8010 bound_to 7997
  140.4910  144.0467  150.6297 H   0  0  0  0  0  0  0  0  0  0  0  0  # atno 10167 bound_to 10162
  156.0117  130.4519  150.3502 H   0  0  0  0  0  0  0  0  0  0  0  0  # atno 10718 bound_to 10713
  153.7532  135.3207  155.3324 H   0  0  0  0  0  0  0  0  0  0  0  0  # atno 10763 bound_to 10752
  154.8256  135.4572  154.0911 H   0  0  0  0  0  0  0  0  0  0  0  0  # atno 10764 bound_to 10752
  153.2120  135.6937  153.8185 H   0  0  0  0  0  0  0  0  0  0  0  0  # atno 10765 bound_to 10752
  140.3558  134.2179  155.7676 H   0  0  0  0  0  0  0  0  0  0  0  0  # atno 11005 bound_to 11000
  144.7573  139.7044  143.7249 LP  0  0  0  0  0  0  0  0  0  0  0  0  # atno 17320 bound_to 7965
  146.1975  139.5250  142.9765 LP  0  0  0  0  0  0  0  0  0  0  0  0  # atno 17321 bound_to 7965
  140.3736  143.2841  152.0250 LP  0  0  0  0  0  0  0  0  0  0  0  0  # atno 17342 bound_to 10162
  139.4851  144.6210  151.7254 LP  0  0  0  0  0  0  0  0  0  0  0  0  # atno 17343 bound_to 10162
  157.1594  131.0341  151.2848 LP  0  0  0  0  0  0  0  0  0  0  0  0  # atno 17370 bound_to 10713
  157.4324  130.7498  149.7001 LP  0  0  0  0  0  0  0  0  0  0  0  0  # atno 17371 bound_to 10713
  141.1999  133.8001  157.0515 LP  0  0  0  0  0  0  0  0  0  0  0  0  # atno 17394 bound_to 11000
  140.0666  134.9725  157.1397 LP  0  0  0  0  0  0  0  0  0  0  0  0  # atno 17395 bound_to 11000

$$$$
