AV-unprocessed.smi:1427|AV-procd|sdf|5809|dock5
  -GOLD-   22720 5463D 1   1.00000     0.00000
 Structure written by MMmdl.
 33 34  0  0  0  0  0  0  0  0  1 V2000
  150.9300  140.2928  157.3203 C   0  0  0  0  0  0  0  0  0  0  0  0
  150.5257  141.7599  157.1132 C   0  0  2  0  0  0  0  0  0  0  0  0
  149.9845  142.3911  158.4112 C   0  0  0  0  0  0  0  0  0  0  0  0
  150.8761  143.4090  158.9414 N   0  0  0  0  0  0  0  0  0  0  0  0
  151.2877  144.5815  158.3440 C   0  0  0  0  0  0  0  0  0  0  0  0
  152.1040  145.2242  159.2301 C   0  0  0  0  0  0  0  0  0  0  0  0
  152.1306  144.3560  160.3571 C   0  0  0  0  0  0  0  0  0  0  0  0
  151.3980  143.2687  160.1798 N   0  0  0  0  0  0  0  0  0  0  0  0
  149.5169  141.8587  156.0627 N   0  0  0  0  0  0  0  0  0  0  0  0
  149.6383  141.4069  154.8039 C   0  0  0  0  0  0  0  0  0  0  0  0
  150.6120  140.7604  154.4181 O   0  0  0  0  0  0  0  0  0  0  0  0
  148.5018  141.7276  153.8135 C   0  0  2  0  0  0  0  0  0  0  0  0
  147.2277  142.2805  154.4822 C   0  0  0  0  0  0  0  0  0  0  0  0
  146.2674  141.0858  154.5561 C   0  0  0  0  0  0  0  0  0  0  0  0
  146.8126  140.1581  153.4823 C   0  0  0  0  0  0  0  0  0  0  0  0
  146.2073  139.1757  153.0606 O   0  0  0  0  0  0  0  0  0  0  0  0
  148.0168  140.5662  153.0788 N   0  0  0  0  0  0  0  0  0  0  0  0
  151.6933  140.2034  158.0936 H   0  0  0  0  0  0  0  0  0  0  0  0
  151.3396  139.8629  156.4056 H   0  0  0  0  0  0  0  0  0  0  0  0
  150.0769  139.6844  157.6223 H   0  0  0  0  0  0  0  0  0  0  0  0
  151.4138  142.3192  156.8128 H   0  0  0  0  0  0  0  0  0  0  0  0
  148.9990  142.8306  158.2456 H   0  0  0  0  0  0  0  0  0  0  0  0
  149.8576  141.6245  159.1764 H   0  0  0  0  0  0  0  0  0  0  0  0
  150.9659  144.8587  157.3509 H   0  0  0  0  0  0  0  0  0  0  0  0
  152.6038  146.1718  159.0945 H   0  0  0  0  0  0  0  0  0  0  0  0
  152.6567  144.4823  161.2917 H   0  0  0  0  0  0  0  0  0  0  0  0
  148.6824  142.3804  156.2898 H   0  0  0  0  0  0  0  0  0  0  0  0
  148.8873  142.4557  153.0989 H   0  0  0  0  0  0  0  0  0  0  0  0
  147.4106  142.7169  155.4653 H   0  0  0  0  0  0  0  0  0  0  0  0
  146.7923  143.0634  153.8595 H   0  0  0  0  0  0  0  0  0  0  0  0
  146.3253  140.5867  155.5240 H   0  0  0  0  0  0  0  0  0  0  0  0
  145.2323  141.3699  154.3644 H   0  0  0  0  0  0  0  0  0  0  0  0
  148.5660  140.1007  152.3709 H   0  0  0  0  0  0  0  0  0  0  0  0
  1  2  1  0  0  0  0
  1 18  1  0  0  0  0
  1 19  1  0  0  0  0
  1 20  1  0  0  0  0
  2  3  1  0  0  0  0
  2  9  1  0  0  0  0
  2 21  1  0  0  0  0
  3  4  1  0  0  0  0
  3 22  1  0  0  0  0
  3 23  1  0  0  0  0
  4  8  1  0  0  0  0
  4  5  1  0  0  0  0
  5  6  2  0  0  0  0
  5 24  1  0  0  0  0
  6  7  1  0  0  0  0
  6 25  1  0  0  0  0
  7  8  2  0  0  0  0
  7 26  1  0  0  0  0
  9 10  1  0  0  0  0
  9 27  1  0  0  0  0
 10 11  2  0  0  0  0
 10 12  1  0  0  0  0
 12 17  1  0  0  0  0
 12 13  1  0  0  0  0
 12 28  1  0  0  0  0
 13 14  1  0  0  0  0
 13 29  1  0  0  0  0
 13 30  1  0  0  0  0
 14 15  1  0  0  0  0
 14 31  1  0  0  0  0
 14 32  1  0  0  0  0
 15 16  2  0  0  0  0
 15 17  1  0  0  0  0
 17 33  1  0  0  0  0
M  END
> <s_m_source_file>
AV-unprocessed.smi

> <i_m_source_file_index>
1427

> <i_lp_mmshare_version>
43012

> <i_f3d_flags>
0

> <s_epik_input>
bjFbY0hdW2NIXVtjSF1uMVtDSDJdW0NAQEhdKFtDSDNdKVtOSF1DKD1PKVtDQEBIXTJbQ0gyXVtDSDJdQyg9TylbTkhdMg==

> <s_epik_cmdline>
J2VwaWtfcHl0aG9uJywgJy1waCcsICc3LjAnLCAnLXRuJywgJzgnLCAnLW1hJywgJzIwMCcsICctbWV0YWxfYmluZGluZycsICctaW1hZScsICc8aW5maWxlLm1hZT4nLCAnLW9tYWUnLCAnPG91dGZpbGUubWFlPic=

> <r_lp_tautomer_probability>
1

> <r_epik_Ionization_Penalty>
0.000310707

> <r_epik_Ionization_Penalty_Charging>
0

> <r_epik_Ionization_Penalty_Neutral>
0.000310707

> <r_epik_State_Penalty>
-0

> <r_epik_Charging_Adjusted_Penalty>
0

> <i_epik_Tot_Q>
0

> <i_epik_Tot_abs_Q>
0

> <r_epik_Metal_State_Penalty>
-0

> <b_epik_Metal_Only>
0

> <s_lp_Force_Field>
OPLS_2005

> <r_lp_Energy>
13.3236

> <b_lp_Chiralities_Consistent>
1

> <s_lp_Variant>
AV-unprocessed.smi:1427-1

> <Gold.Version>
5.8.1

> <Gold.Id.Protein>
6NUR|6NUR_protein|mol2

> <Gold.PLP.Fitness>
40.8325

> <Gold.PLP.PLP>
-34.8701

> <Gold.PLP.part.hbond>
-2.5922

> <Gold.PLP.part.metal>
0.0000

> <Gold.PLP.part.buried>
-3.9902

> <Gold.PLP.part.nonpolar>
-28.5964

> <Gold.PLP.part.repulsive>
0.5419

> <Gold.PLP.ligand.clash>
0.0000

> <Gold.PLP.ligand.torsion>
0.9581

> <Gold.PLP.Chemscore.Hbond>
1.6240

> <Gold.PLP.Chemscore.CHOScore>
0.9947

> <Gold.PLP.Chemscore.Metal>
0.0000

> <Gold.Chemscore.Hbonds>
donor molecule, donor type, donor heavy atom, donor atom, acceptor molecule, acceptor atom, score
      L1  H    17    33       P1  7957  1.00
      P1  H  7989  7998       L1    11  0.51
      L1  C     5    24       P1  8028  0.72

> <Gold.PLP.Chemscore.Internal.Correction>
0.0225

> <Gold.Rescore>
     Score         DG    S(hbond)    S(metal)    S(lipo)     H(rot)  DE(clash)    DE(int)     intcor
     12.84     -15.43       1.94        0.00      70.81       1.88       0.01       2.58       ----

> <Gold.Chemscore.Fitness>
12.8443

> <Gold.Chemscore.DG>
-15.4316

> <Gold.Chemscore.ZeroCoef>
-5.4800

> <Gold.Chemscore.Hbond>
1.9415

> <Gold.Chemscore.Metal>
0.0000

> <Gold.Chemscore.Lipo>
70.8111

> <Gold.Chemscore.Internal_Hbond>
0.0000

> <Gold.Chemscore.DEClash>
0.0069

> <Gold.Chemscore.DEInternal>
2.5804

> <Gold.Chemscore.Rot>
1.8821

> <Gold.Chemscore.Internal.Correction>
   9.000000E+99

> <Gold.Chemscore.Hbonds>
donor molecule, donor type, donor heavy atom, donor atom, acceptor molecule, acceptor atom, score
      L1  H     9    27       P1  8028  0.02
      L1  H    17    33       P1  7957  0.96
      P1  H  7989  7998       L1    11  0.50

> <Gold.Chemscore.Hbond.Weighted>
-6.4848

> <Gold.Chemscore.Metal.Weighted>
-0.0000

> <Gold.Chemscore.Lipo.Weighted>
-8.2849

> <Gold.Chemscore.Internal_Hbond.Weighted>
0.0000

> <Gold.Chemscore.DEClash.Weighted>
0.0069

> <Gold.Chemscore.DEInternal.Weighted>
2.5804

> <Gold.Chemscore.Rot.Weighted>
4.8181

> <Gold.Chemscore.Internal.Correction.Weighted>
   9.000000E+99

> <Gold.Protein.RotatedTorsions>
[ 6907 6896 6895 6894 ] final -170.68 input  -60.11 | X-H torsion
[ 7974 7965 7964 7962 ] final  -51.85 input  175.53 | X-H torsion
[ 8008 7997 7996 7995 ] final  -90.11 input   59.86 | X-H torsion
[ 10167 10162 10161 10158 ] final  -31.43 input  -65.29 | X-H torsion
[ 10718 10713 10712 10709 ] final   54.01 input   66.30 | X-H torsion
[ 10763 10752 10751 10750 ] final  -29.22 input  -60.55 | X-H torsion
[ 11005 11000 10999 10996 ] final  -41.90 input  -57.11 | X-H torsion

> <Gold.Protein.ActiveResidues>
 VAL166  LYS551  ARG553  GLY616  TRP617  ASP618  TYR619  PRO620  LYS621  CYS622 
 ASP623  PHE694  ASN695  SER759  ASP760  ASP761  ALA762  ILE779  LEU786  VAL792 
 PHE793  MET794  SER795  GLU796  ALA797  LYS798  CYS799  TRP800  GLU811  SER814 

> <Gold.Protein.RotatedAtoms>
  151.5116  133.3484  159.2885 H   0  0  0  0  0  0  0  0  0  0  0  0  # atno 6907 bound_to 6896
  150.8708  134.8084  159.7164 H   0  0  0  0  0  0  0  0  0  0  0  0  # atno 6908 bound_to 6896
  152.4697  134.5000  159.9773 H   0  0  0  0  0  0  0  0  0  0  0  0  # atno 6909 bound_to 6896
  145.9144  140.7887  142.9679 H   0  0  0  0  0  0  0  0  0  0  0  0  # atno 7974 bound_to 7965
  154.6946  140.0534  157.0398 H   0  0  0  0  0  0  0  0  0  0  0  0  # atno 8008 bound_to 7997
  155.0768  140.3205  155.4594 H   0  0  0  0  0  0  0  0  0  0  0  0  # atno 8009 bound_to 7997
  156.2740  140.2072  156.5896 H   0  0  0  0  0  0  0  0  0  0  0  0  # atno 8010 bound_to 7997
  140.7236  143.3771  151.1669 H   0  0  0  0  0  0  0  0  0  0  0  0  # atno 10167 bound_to 10162
  157.5219  130.8571  149.8570 H   0  0  0  0  0  0  0  0  0  0  0  0  # atno 10718 bound_to 10713
  153.7611  135.6919  153.4925 H   0  0  0  0  0  0  0  0  0  0  0  0  # atno 10763 bound_to 10752
  153.1938  135.4461  155.0181 H   0  0  0  0  0  0  0  0  0  0  0  0  # atno 10764 bound_to 10752
  154.8152  135.3396  154.7126 H   0  0  0  0  0  0  0  0  0  0  0  0  # atno 10765 bound_to 10752
  141.0278  133.6833  156.2520 H   0  0  0  0  0  0  0  0  0  0  0  0  # atno 11005 bound_to 11000
  144.6746  140.1877  143.7399 LP  0  0  0  0  0  0  0  0  0  0  0  0  # atno 17320 bound_to 7965
  145.8630  139.2232  143.1705 LP  0  0  0  0  0  0  0  0  0  0  0  0  # atno 17321 bound_to 7965
  139.7353  143.9008  152.3033 LP  0  0  0  0  0  0  0  0  0  0  0  0  # atno 17342 bound_to 10162
  139.8811  144.7017  150.8877 LP  0  0  0  0  0  0  0  0  0  0  0  0  # atno 17343 bound_to 10162
  156.0359  130.3751  150.1561 LP  0  0  0  0  0  0  0  0  0  0  0  0  # atno 17370 bound_to 10713
  156.9749  130.9846  151.3450 LP  0  0  0  0  0  0  0  0  0  0  0  0  # atno 17371 bound_to 10713
  140.6460  134.5116  157.5573 LP  0  0  0  0  0  0  0  0  0  0  0  0  # atno 17394 bound_to 11000
  139.9187  134.8192  156.1280 LP  0  0  0  0  0  0  0  0  0  0  0  0  # atno 17395 bound_to 11000

$$$$
