#       Name:                AV-unprocessed.smi:3205
#       Creating user name   scv26
#       Creation time:       Fri Mar 27 18:09:07 2020


#       File generated by GOLD software.
#

@<TRIPOS>MOLECULE
AV-unprocessed.smi:3205
    41    42     1
SMALL
NO_CHARGES


@<TRIPOS>ATOM
      1 ****        -1.3266  -1.0122   2.4661 C.3            1 S1                 0.0000
      2 ****        -0.8790  -0.3226   1.1622 C.3            1 S1                 0.0000
      3 ****         0.5997  -0.2609   1.1113 N.4            1 S1                 1.0000
      4 ****         1.2274   0.7932   1.9371 C.3            1 S1                 0.0000
      5 ****         2.7252   0.9310   1.6221 C.3            1 S1                 0.0000
      6 ****         2.9564   1.4322   0.2788 N.pl3          1 S1                 0.0000
      7 ****         3.1476   2.7358  -0.1286 C.2            1 S1                 0.0000
      8 ****         3.3117   2.7174  -1.4840 C.2            1 S1                 0.0000
      9 ****         3.2053   1.3389  -1.8198 C.2            1 S1                 0.0000
     10 ****         2.9903   0.5723  -0.7626 N.2            1 S1                 0.0000
     11 ****        -1.4135  -1.0303  -0.1110 C.3            1 S1                 0.0000
     12 ****        -0.9795  -0.2978  -1.4002 C.3            1 S1                 0.0000
     13 ****        -1.5718  -0.9652  -2.6514 C.3            1 S1                 0.0000
     14 ****        -2.9895  -0.9990  -2.5545 O.3            1 S1                 0.0000
     15 ****        -3.4446  -1.7730  -1.4522 C.3            1 S1                 0.0000
     16 ****        -2.9516  -1.1554  -0.1334 C.3            1 S1                 0.0000
     17 ****        -2.4086  -0.9804   2.5896 H              1 S1                 0.0000
     18 ****        -0.9062  -0.5243   3.3451 H              1 S1                 0.0000
     19 ****        -1.0171  -2.0576   2.4888 H              1 S1                 0.0000
     20 ****        -1.2635   0.6985   1.1616 H              1 S1                 0.0000
     21 ****         0.9826  -1.1612   1.3619 H              1 S1                 0.0000
     22 ****         0.7282   1.7479   1.7650 H              1 S1                 0.0000
     23 ****         1.0986   0.5506   2.9917 H              1 S1                 0.0000
     24 ****         3.1887   1.6227   2.3267 H              1 S1                 0.0000
     25 ****         3.2370  -0.0253   1.7414 H              1 S1                 0.0000
     26 ****         3.1494   3.5590   0.5708 H              1 S1                 0.0000
     27 ****         3.4830   3.5606  -2.1367 H              1 S1                 0.0000
     28 ****         3.2758   0.8760  -2.7930 H              1 S1                 0.0000
     29 ****        -0.9981  -2.0391  -0.1407 H              1 S1                 0.0000
     30 ****        -1.3037   0.7430  -1.3618 H              1 S1                 0.0000
     31 ****         0.1066  -0.2802  -1.4922 H              1 S1                 0.0000
     32 ****        -1.2944  -0.4014  -3.5422 H              1 S1                 0.0000
     33 ****        -1.1783  -1.9750  -2.7789 H              1 S1                 0.0000
     34 ****        -4.5343  -1.7984  -1.4682 H              1 S1                 0.0000
     35 ****        -3.1016  -2.8041  -1.5510 H              1 S1                 0.0000
     36 ****        -3.3032  -1.7772   0.6893 H              1 S1                 0.0000
     37 ****        -3.4061  -0.1726  -0.0015 H              1 S1                 0.0000
     38 ****         0.8561  -0.0656   0.1534 H              1 S1                 0.0000
     39 ****         2.8781  -0.4211  -0.7397 LP             1 S1                 0.0000
     40 ****        -3.3586  -1.3928  -3.3963 LP             1 S1                 0.0000
     41 ****        -3.3255  -0.0631  -2.4490 LP             1 S1                 0.0000
@<TRIPOS>BOND
    1    1    2 1     
    2    1   17 1     
    3    1   18 1     
    4    1   19 1     
    5    2    3 1     
    6    2   11 1     
    7    2   20 1     
    8    3    4 1     
    9    3   21 1     
   10    3   38 1     
   11    4    5 1     
   12    4   22 1     
   13    4   23 1     
   14    5    6 1     
   15    5   24 1     
   16    5   25 1     
   17    6   10 1     
   18    6    7 1     
   19    7    8 2     
   20    7   26 1     
   21    8    9 1     
   22    8   27 1     
   23    9   10 2     
   24    9   28 1     
   25   11   16 1     
   26   11   12 1     
   27   11   29 1     
   28   12   13 1     
   29   12   30 1     
   30   12   31 1     
   31   13   14 1     
   32   13   32 1     
   33   13   33 1     
   34   14   15 1     
   35   15   16 1     
   36   15   34 1     
   37   15   35 1     
   38   16   36 1     
   39   16   37 1     
   40   10   39 1     
   41   14   40 1     
   42   14   41 1     
@<TRIPOS>SUBSTRUCTURE
      1 S1             1
@<TRIPOS>SET
LONE_PAIRS      STATIC     ATOMS    <user>   **** ""
3 39 40 41
DONOR_HYDROGENS      STATIC     ATOMS    <user>   **** ""
2 21 38
ATOM$BLUE        STATIC     ATOMS    COLORGROUP SYSTEM
3 39 40 41
ATOM$RED        STATIC     ATOMS    COLORGROUP SYSTEM
2 21 38
