AV-unprocessed.smi:240|AV-procd|sdf|1834|dock10
  -GOLD-   2262020443D 1   1.00000     0.00000
 Structure written by MMmdl.
 55 59  0  0  0  0  0  0  0  0  1 V2000
  149.4374  142.4425  154.7829 O   0  0  0  0  0  0  0  0  0  0  0  0
  148.6834  141.2524  154.6780 C   0  0  2  0  0  0  0  0  0  0  0  0
  147.2758  141.5824  154.1457 C   0  0  0  0  0  0  0  0  0  0  0  0
  146.2992  140.7996  155.0255 C   0  0  0  0  0  0  0  0  0  0  0  0
  146.9970  140.7342  156.3813 C   0  0  0  0  0  0  0  0  0  0  0  0
  148.4684  140.4984  156.0165 C   0  0  2  0  0  0  0  0  0  0  0  0
  149.5035  140.6749  157.1734 C   0  0  2  0  0  0  0  0  0  0  0  0
  149.4613  142.0642  157.8632 C   0  0  0  0  0  0  0  0  0  0  0  0
  150.4195  142.1266  158.9134 O   0  0  0  0  0  0  0  0  0  0  0  0
  151.7453  141.9493  158.4346 C   0  0  0  0  0  0  0  0  0  0  0  0
  151.8671  140.5471  157.8254 C   0  0  0  0  0  0  0  0  0  0  0  0
  150.8823  140.3681  156.7653 N   0  0  0  0  0  0  0  0  0  0  0  0
  151.0957  139.2063  156.1071 C   0  0  0  0  0  0  0  0  0  0  0  0
  151.6349  139.2962  154.8667 N   0  0  0  0  0  0  0  0  0  0  0  0
  151.8699  138.1878  154.1586 C   0  0  0  0  0  0  0  0  0  0  0  0
  151.6505  136.9164  154.5006 N   0  0  0  0  0  0  0  0  0  0  0  0
  151.1233  136.8221  155.7551 C   0  0  0  0  0  0  0  0  0  0  0  0
  150.8152  137.9083  156.6218 C   0  0  0  0  0  0  0  0  0  0  0  0
  150.2911  137.4270  157.8153 N   0  0  0  0  0  0  0  0  0  0  0  0
  150.2828  136.1314  157.6600 C   0  0  0  0  0  0  0  0  0  0  0  0
  150.7763  135.6800  156.4564 N   0  0  0  0  0  0  0  0  0  0  0  0
  150.8888  134.2956  156.0208 C   0  0  0  0  0  0  0  0  0  0  0  0
  149.5246  133.6083  155.7659 C   0  0  2  0  0  0  0  0  0  0  0  0
  148.8889  133.3706  157.0086 O   0  0  0  0  0  0  0  0  0  0  0  0
  149.6696  132.2797  155.0198 C   0  0  0  0  0  0  0  0  0  0  0  0
  149.1111  132.5811  153.6341 C   0  0  0  0  0  0  0  0  0  0  0  0
  148.0719  133.5021  153.9120 O   0  0  0  0  0  0  0  0  0  0  0  0
  148.5789  134.4263  154.8635 C   0  0  0  0  0  0  0  0  0  0  0  0
  148.8841  143.1134  155.1539 H   0  0  0  0  0  0  0  0  0  0  0  0
  149.2020  140.5975  153.9766 H   0  0  0  0  0  0  0  0  0  0  0  0
  147.0657  142.6481  154.2525 H   0  0  0  0  0  0  0  0  0  0  0  0
  147.1646  141.3369  153.0891 H   0  0  0  0  0  0  0  0  0  0  0  0
  145.3162  141.2685  155.0808 H   0  0  0  0  0  0  0  0  0  0  0  0
  146.1675  139.7920  154.6287 H   0  0  0  0  0  0  0  0  0  0  0  0
  146.8596  141.6881  156.8888 H   0  0  0  0  0  0  0  0  0  0  0  0
  146.5930  139.9499  157.0221 H   0  0  0  0  0  0  0  0  0  0  0  0
  148.4975  139.4416  155.7465 H   0  0  0  0  0  0  0  0  0  0  0  0
  149.2338  139.9572  157.9483 H   0  0  0  0  0  0  0  0  0  0  0  0
  149.6402  142.8819  157.1662 H   0  0  0  0  0  0  0  0  0  0  0  0
  148.4859  142.2424  158.3135 H   0  0  0  0  0  0  0  0  0  0  0  0
  151.9921  142.7195  157.7020 H   0  0  0  0  0  0  0  0  0  0  0  0
  152.4423  142.0604  159.2652 H   0  0  0  0  0  0  0  0  0  0  0  0
  152.8741  140.4045  157.4305 H   0  0  0  0  0  0  0  0  0  0  0  0
  151.7138  139.7920  158.5980 H   0  0  0  0  0  0  0  0  0  0  0  0
  152.2951  138.3413  153.1777 H   0  0  0  0  0  0  0  0  0  0  0  0
  149.9159  135.4661  158.4278 H   0  0  0  0  0  0  0  0  0  0  0  0
  151.4942  134.2737  155.1136 H   0  0  0  0  0  0  0  0  0  0  0  0
  151.4522  133.7451  156.7754 H   0  0  0  0  0  0  0  0  0  0  0  0
  149.5206  132.9912  157.6001 H   0  0  0  0  0  0  0  0  0  0  0  0
  150.6954  131.9115  154.9808 H   0  0  0  0  0  0  0  0  0  0  0  0
  149.0622  131.5009  155.4841 H   0  0  0  0  0  0  0  0  0  0  0  0
  149.8642  133.0535  153.0011 H   0  0  0  0  0  0  0  0  0  0  0  0
  148.7383  131.6915  153.1262 H   0  0  0  0  0  0  0  0  0  0  0  0
  147.7743  134.9228  155.4074 H   0  0  0  0  0  0  0  0  0  0  0  0
  149.1257  135.1921  154.3128 H   0  0  0  0  0  0  0  0  0  0  0  0
  1  2  1  0  0  0  0
  1 29  1  0  0  0  0
  2  6  1  0  0  0  0
  2  3  1  0  0  0  0
  2 30  1  0  0  0  0
  3  4  1  0  0  0  0
  3 31  1  0  0  0  0
  3 32  1  0  0  0  0
  4  5  1  0  0  0  0
  4 33  1  0  0  0  0
  4 34  1  0  0  0  0
  5  6  1  0  0  0  0
  5 35  1  0  0  0  0
  5 36  1  0  0  0  0
  6  7  1  0  0  0  0
  6 37  1  0  0  0  0
  7 12  1  0  0  0  0
  7  8  1  0  0  0  0
  7 38  1  0  0  0  0
  8  9  1  0  0  0  0
  8 39  1  0  0  0  0
  8 40  1  0  0  0  0
  9 10  1  0  0  0  0
 10 11  1  0  0  0  0
 10 41  1  0  0  0  0
 10 42  1  0  0  0  0
 11 12  1  0  0  0  0
 11 43  1  0  0  0  0
 11 44  1  0  0  0  0
 12 13  1  0  0  0  0
 13 18  1  0  0  0  0
 13 14  2  0  0  0  0
 14 15  1  0  0  0  0
 15 16  2  0  0  0  0
 15 45  1  0  0  0  0
 16 17  1  0  0  0  0
 17 21  1  0  0  0  0
 17 18  2  0  0  0  0
 18 19  1  0  0  0  0
 19 20  2  0  0  0  0
 20 21  1  0  0  0  0
 20 46  1  0  0  0  0
 21 22  1  0  0  0  0
 22 23  1  0  0  0  0
 22 47  1  0  0  0  0
 22 48  1  0  0  0  0
 23 28  1  0  0  0  0
 23 24  1  0  0  0  0
 23 25  1  0  0  0  0
 24 49  1  0  0  0  0
 25 26  1  0  0  0  0
 25 50  1  0  0  0  0
 25 51  1  0  0  0  0
 26 27  1  0  0  0  0
 26 52  1  0  0  0  0
 26 53  1  0  0  0  0
 27 28  1  0  0  0  0
 28 54  1  0  0  0  0
 28 55  1  0  0  0  0
M  END
> <s_m_source_file>
AV-unprocessed.smi

> <i_m_source_file_index>
240

> <i_lp_mmshare_version>
43012

> <i_f3d_flags>
0

> <s_epik_input>
W09IXVtDQEBIXTFbQ0gyXVtDSDJdW0NIMl1bQ0BIXTFbQ0BASF0yW0NIMl1PW0NIMl1bQ0gyXU4yYyhuW2NIXW4zKWMoYzM0KW5bY0hdbjRbQ0gyXVtDQEBdNShbT0hdKVtDSDJdW0NIMl1PW0NIMl01

> <s_epik_cmdline>
J2VwaWtfcHl0aG9uJywgJy1waCcsICc3LjAnLCAnLXRuJywgJzgnLCAnLW1hJywgJzIwMCcsICctbWV0YWxfYmluZGluZycsICctaW1hZScsICc8aW5maWxlLm1hZT4nLCAnLW9tYWUnLCAnPG91dGZpbGUubWFlPic=

> <r_lp_tautomer_probability>
1

> <r_epik_Ionization_Penalty>
0.000130618

> <r_epik_Ionization_Penalty_Charging>
0

> <r_epik_Ionization_Penalty_Neutral>
0.000130618

> <r_epik_State_Penalty>
-0

> <r_epik_Charging_Adjusted_Penalty>
0

> <i_epik_Tot_Q>
0

> <i_epik_Tot_abs_Q>
0

> <r_epik_Metal_State_Penalty>
-0

> <b_epik_Metal_Only>
0

> <s_lp_Force_Field>
OPLS_2005

> <r_lp_Energy>
66.7643

> <b_lp_Chiralities_Consistent>
1

> <s_lp_Variant>
AV-unprocessed.smi:240-11

> <Gold.Version>
5.8.1

> <Gold.Id.Protein>
6NUR|6NUR_protein|mol2

> <Gold.PLP.Fitness>
44.8304

> <Gold.PLP.PLP>
-36.3811

> <Gold.PLP.part.hbond>
-4.5145

> <Gold.PLP.part.metal>
0.0000

> <Gold.PLP.part.buried>
-5.2480

> <Gold.PLP.part.nonpolar>
-26.8220

> <Gold.PLP.part.repulsive>
0.5960

> <Gold.PLP.ligand.clash>
0.0000

> <Gold.PLP.ligand.torsion>
0.3856

> <Gold.PLP.Chemscore.Hbond>
2.9924

> <Gold.PLP.Chemscore.CHOScore>
0.0000

> <Gold.PLP.Chemscore.Metal>
0.0000

> <Gold.Chemscore.Hbonds>
donor molecule, donor type, donor heavy atom, donor atom, acceptor molecule, acceptor atom, score
      L1  H     1    29       P1  8028  0.86
      P1  H  7989  7998       L1    14  0.89
      P1  H 10752 10764       L1    16  1.00

> <Gold.PLP.Chemscore.Internal.Correction>
0.2435

> <Gold.Rescore>
     Score         DG    S(hbond)    S(metal)    S(lipo)     H(rot)  DE(clash)    DE(int)     intcor
     11.79     -12.39       1.93        0.00      69.56       3.00       0.16       0.44       ----

> <Gold.Chemscore.Fitness>
11.7874

> <Gold.Chemscore.DG>
-12.3900

> <Gold.Chemscore.ZeroCoef>
-5.4800

> <Gold.Chemscore.Hbond>
1.9344

> <Gold.Chemscore.Metal>
0.0000

> <Gold.Chemscore.Lipo>
69.5645

> <Gold.Chemscore.Internal_Hbond>
0.0000

> <Gold.Chemscore.DEClash>
0.1596

> <Gold.Chemscore.DEInternal>
0.4429

> <Gold.Chemscore.Rot>
3.0039

> <Gold.Chemscore.Internal.Correction>
   9.000000E+99

> <Gold.Chemscore.Hbonds>
donor molecule, donor type, donor heavy atom, donor atom, acceptor molecule, acceptor atom, score
      L1  H     1    29       P1  8028  0.85
      P1  H  7989  7998       L1    14  0.47
      P1  H 10752 10764       L1    16  0.79

> <Gold.Chemscore.Hbond.Weighted>
-6.4608

> <Gold.Chemscore.Metal.Weighted>
-0.0000

> <Gold.Chemscore.Lipo.Weighted>
-8.1390

> <Gold.Chemscore.Internal_Hbond.Weighted>
0.0000

> <Gold.Chemscore.DEClash.Weighted>
0.1596

> <Gold.Chemscore.DEInternal.Weighted>
0.4429

> <Gold.Chemscore.Rot.Weighted>
7.6899

> <Gold.Chemscore.Internal.Correction.Weighted>
   9.000000E+99

> <Gold.Protein.RotatedTorsions>
[ 6907 6896 6895 6894 ] final   95.32 input  -60.11 | X-H torsion
[ 7974 7965 7964 7962 ] final -176.54 input  175.53 | X-H torsion
[ 8008 7997 7996 7995 ] final  -22.56 input   59.86 | X-H torsion
[ 10167 10162 10161 10158 ] final  118.84 input  -65.29 | X-H torsion
[ 10718 10713 10712 10709 ] final  -44.02 input   66.30 | X-H torsion
[ 10763 10752 10751 10750 ] final  -82.99 input  -60.55 | X-H torsion
[ 11005 11000 10999 10996 ] final  131.72 input  -57.11 | X-H torsion

> <Gold.Protein.ActiveResidues>
 VAL166  LYS551  ARG553  GLY616  TRP617  ASP618  TYR619  PRO620  LYS621  CYS622 
 ASP623  PHE694  ASN695  SER759  ASP760  ASP761  ALA762  ILE779  LEU786  VAL792 
 PHE793  MET794  SER795  GLU796  ALA797  LYS798  CYS799  TRP800  GLU811  SER814 

> <Gold.Protein.RotatedAtoms>
  152.5444  134.1058  159.8337 H   0  0  0  0  0  0  0  0  0  0  0  0  # atno 6907 bound_to 6896
  151.1130  133.5151  159.2612 H   0  0  0  0  0  0  0  0  0  0  0  0  # atno 6908 bound_to 6896
  151.1863  135.0392  159.8868 H   0  0  0  0  0  0  0  0  0  0  0  0  # atno 6909 bound_to 6896
  144.7127  140.1155  143.6408 H   0  0  0  0  0  0  0  0  0  0  0  0  # atno 7974 bound_to 7965
  154.4636  140.2004  156.0177 H   0  0  0  0  0  0  0  0  0  0  0  0  # atno 8008 bound_to 7997
  156.0887  140.3261  155.7758 H   0  0  0  0  0  0  0  0  0  0  0  0  # atno 8009 bound_to 7997
  155.4993  140.0552  157.2932 H   0  0  0  0  0  0  0  0  0  0  0  0  # atno 8010 bound_to 7997
  139.6085  144.7076  151.2899 H   0  0  0  0  0  0  0  0  0  0  0  0  # atno 10167 bound_to 10162
  156.2429  130.4181  149.8739 H   0  0  0  0  0  0  0  0  0  0  0  0  # atno 10718 bound_to 10713
  154.5824  135.5572  153.7198 H   0  0  0  0  0  0  0  0  0  0  0  0  # atno 10763 bound_to 10752
  153.0086  135.6323  154.1963 H   0  0  0  0  0  0  0  0  0  0  0  0  # atno 10764 bound_to 10752
  154.1904  135.2882  155.3003 H   0  0  0  0  0  0  0  0  0  0  0  0  # atno 10765 bound_to 10752
  139.9747  134.9567  156.9479 H   0  0  0  0  0  0  0  0  0  0  0  0  # atno 11005 bound_to 11000
  145.9417  139.2673  143.1265 LP  0  0  0  0  0  0  0  0  0  0  0  0  # atno 17320 bound_to 7965
  145.9416  140.8975  143.0304 LP  0  0  0  0  0  0  0  0  0  0  0  0  # atno 17321 bound_to 7965
  140.7302  143.6887  150.7940 LP  0  0  0  0  0  0  0  0  0  0  0  0  # atno 17342 bound_to 10162
  140.0477  143.5282  152.2688 LP  0  0  0  0  0  0  0  0  0  0  0  0  # atno 17343 bound_to 10162
  156.6314  130.8667  151.3496 LP  0  0  0  0  0  0  0  0  0  0  0  0  # atno 17370 bound_to 10713
  157.7183  130.9525  150.1339 LP  0  0  0  0  0  0  0  0  0  0  0  0  # atno 17371 bound_to 10713
  140.5219  134.0898  155.7294 LP  0  0  0  0  0  0  0  0  0  0  0  0  # atno 17394 bound_to 11000
  141.1425  133.9113  157.2293 LP  0  0  0  0  0  0  0  0  0  0  0  0  # atno 17395 bound_to 11000

$$$$
