AV-unprocessed.smi:2503|AV-procd|sdf|9848|dock1
  -GOLD-   2272013473D 1   1.00000     0.00000
 Structure written by MMmdl.
 36 37  0  0  0  0  0  0  0  0  1 V2000
  153.3132  143.4950  163.1205 C   0  0  0  0  0  0  0  0  0  0  0  0
  152.7910  142.6306  161.9631 C   0  0  0  0  0  0  0  0  0  0  0  0
  153.7236  141.4479  161.6620 C   0  0  0  0  0  0  0  0  0  0  0  0
  152.5254  143.4497  160.7284 C   0  0  0  0  0  0  0  0  0  0  0  0
  152.6742  144.7716  160.6861 N   0  0  0  0  0  0  0  0  0  0  0  0
  152.3703  145.1294  159.3785 C   0  0  0  0  0  0  0  0  0  0  0  0
  152.0593  144.0013  158.6610 C   0  0  0  0  0  0  0  0  0  0  0  0
  152.1740  142.9249  159.5329 N   0  0  0  0  0  0  0  0  0  0  0  0
  151.9531  141.5311  159.1731 C   0  0  0  0  0  0  0  0  0  0  0  0
  150.9510  141.4003  158.0218 C   0  0  0  0  0  0  0  0  0  0  0  0
  149.8682  141.9848  158.1004 O   0  0  0  0  0  0  0  0  0  0  0  0
  151.3641  140.6367  156.9839 N   0  0  0  0  0  0  0  0  0  0  0  0
  150.7809  140.3616  155.7934 C   0  0  0  0  0  0  0  0  0  0  0  0
  151.4051  139.7652  154.9173 O   0  0  0  0  0  0  0  0  0  0  0  0
  149.5130  140.7788  155.6212 N   0  0  0  0  0  0  0  0  0  0  0  0
  148.8018  140.8005  154.3844 C   0  0  0  0  0  0  0  0  0  0  0  0
  148.1870  142.1137  153.9516 C   0  0  0  0  0  0  0  0  0  0  0  0
  147.3031  141.0009  154.4432 C   0  0  0  0  0  0  0  0  0  0  0  0
  152.6111  144.2941  163.3596 H   0  0  0  0  0  0  0  0  0  0  0  0
  154.2711  143.9551  162.8752 H   0  0  0  0  0  0  0  0  0  0  0  0
  153.4540  142.8992  164.0226 H   0  0  0  0  0  0  0  0  0  0  0  0
  151.8500  142.2084  162.3105 H   0  0  0  0  0  0  0  0  0  0  0  0
  153.3038  140.8044  160.8879 H   0  0  0  0  0  0  0  0  0  0  0  0
  153.8798  140.8350  162.5499 H   0  0  0  0  0  0  0  0  0  0  0  0
  154.6997  141.7898  161.3167 H   0  0  0  0  0  0  0  0  0  0  0  0
  152.4017  146.1600  159.0576 H   0  0  0  0  0  0  0  0  0  0  0  0
  151.7819  143.8770  157.6245 H   0  0  0  0  0  0  0  0  0  0  0  0
  152.9104  141.0692  158.9274 H   0  0  0  0  0  0  0  0  0  0  0  0
  151.5633  140.9980  160.0410 H   0  0  0  0  0  0  0  0  0  0  0  0
  152.2680  140.2058  157.1121 H   0  0  0  0  0  0  0  0  0  0  0  0
  149.0152  141.1105  156.4356 H   0  0  0  0  0  0  0  0  0  0  0  0
  149.1641  140.1535  153.5865 H   0  0  0  0  0  0  0  0  0  0  0  0
  148.3185  142.9760  154.6027 H   0  0  0  0  0  0  0  0  0  0  0  0
  148.1728  142.3335  152.8860 H   0  0  0  0  0  0  0  0  0  0  0  0
  146.6981  140.4768  153.7063 H   0  0  0  0  0  0  0  0  0  0  0  0
  146.8429  141.1216  155.4222 H   0  0  0  0  0  0  0  0  0  0  0  0
  1  2  1  0  0  0  0
  1 19  1  0  0  0  0
  1 20  1  0  0  0  0
  1 21  1  0  0  0  0
  2  3  1  0  0  0  0
  2  4  1  0  0  0  0
  2 22  1  0  0  0  0
  3 23  1  0  0  0  0
  3 24  1  0  0  0  0
  3 25  1  0  0  0  0
  4  8  1  0  0  0  0
  4  5  2  0  0  0  0
  5  6  1  0  0  0  0
  6  7  2  0  0  0  0
  6 26  1  0  0  0  0
  7  8  1  0  0  0  0
  7 27  1  0  0  0  0
  8  9  1  0  0  0  0
  9 10  1  0  0  0  0
  9 28  1  0  0  0  0
  9 29  1  0  0  0  0
 10 11  2  0  0  0  0
 10 12  1  0  0  0  0
 12 13  1  0  0  0  0
 12 30  1  0  0  0  0
 13 14  2  0  0  0  0
 13 15  1  0  0  0  0
 15 16  1  0  0  0  0
 15 31  1  0  0  0  0
 16 18  1  0  0  0  0
 16 17  1  0  0  0  0
 16 32  1  0  0  0  0
 17 18  1  0  0  0  0
 17 33  1  0  0  0  0
 17 34  1  0  0  0  0
 18 35  1  0  0  0  0
 18 36  1  0  0  0  0
M  END
> <s_m_source_file>
AV-unprocessed.smi

> <i_m_source_file_index>
2503

> <i_lp_mmshare_version>
43012

> <i_f3d_flags>
0

> <s_epik_input>
W0NIM11bQ0hdKFtDSDNdKWMxbltjSF1bY0hdbjFbQ0gyXUMoPU8pW05IXUMoPU8pW05IXVtDSF0yW0NIMl1bQ0gyXTI=

> <s_epik_cmdline>
J2VwaWtfcHl0aG9uJywgJy1waCcsICc3LjAnLCAnLXRuJywgJzgnLCAnLW1hJywgJzIwMCcsICctbWV0YWxfYmluZGluZycsICctaW1hZScsICc8aW5maWxlLm1hZT4nLCAnLW9tYWUnLCAnPG91dGZpbGUubWFlPic=

> <r_lp_tautomer_probability>
1

> <r_epik_Ionization_Penalty>
0.441646

> <r_epik_Ionization_Penalty_Charging>
0.441618

> <r_epik_Ionization_Penalty_Neutral>
2.81151e-05

> <r_epik_State_Penalty>
0.443748

> <r_epik_Charging_Adjusted_Penalty>
0.885366

> <i_epik_Tot_Q>
0

> <i_epik_Tot_abs_Q>
0

> <r_epik_Metal_State_Penalty>
0.251733

> <b_epik_Metal_Only>
0

> <s_lp_Force_Field>
OPLS_2005

> <r_lp_Energy>
20.0487

> <b_lp_Chiralities_Consistent>
1

> <s_lp_Variant>
AV-unprocessed.smi:2503-2

> <Gold.Version>
5.8.1

> <Gold.Id.Protein>
6NUR|6NUR_protein|mol2

> <Gold.PLP.Fitness>
44.6911

> <Gold.PLP.PLP>
-42.9634

> <Gold.PLP.part.hbond>
-0.9240

> <Gold.PLP.part.metal>
0.0000

> <Gold.PLP.part.buried>
-3.8867

> <Gold.PLP.part.nonpolar>
-38.4294

> <Gold.PLP.part.repulsive>
0.4917

> <Gold.PLP.ligand.clash>
0.0000

> <Gold.PLP.ligand.torsion>
0.7212

> <Gold.PLP.Chemscore.Hbond>
1.0000

> <Gold.PLP.Chemscore.CHOScore>
0.0000

> <Gold.PLP.Chemscore.Metal>
0.0000

> <Gold.Chemscore.Hbonds>
donor molecule, donor type, donor heavy atom, donor atom, acceptor molecule, acceptor atom, score
      P1  H  7989  7998       L1    14  1.00

> <Gold.PLP.Chemscore.Internal.Correction>
0.1701

> <Gold.Rescore>
     Score         DG    S(hbond)    S(metal)    S(lipo)     H(rot)  DE(clash)    DE(int)     intcor
     13.61     -14.58       0.99        0.00      88.21       1.77       0.46       0.51       ----

> <Gold.Chemscore.Fitness>
13.6118

> <Gold.Chemscore.DG>
-14.5813

> <Gold.Chemscore.ZeroCoef>
-5.4800

> <Gold.Chemscore.Hbond>
0.9945

> <Gold.Chemscore.Metal>
0.0000

> <Gold.Chemscore.Lipo>
88.2110

> <Gold.Chemscore.Internal_Hbond>
0.0000

> <Gold.Chemscore.DEClash>
0.4627

> <Gold.Chemscore.DEInternal>
0.5068

> <Gold.Chemscore.Rot>
1.7738

> <Gold.Chemscore.Internal.Correction>
   9.000000E+99

> <Gold.Chemscore.Hbonds>
donor molecule, donor type, donor heavy atom, donor atom, acceptor molecule, acceptor atom, score
      P1  H  7989  7998       L1    14  0.70

> <Gold.Chemscore.Hbond.Weighted>
-3.3215

> <Gold.Chemscore.Metal.Weighted>
-0.0000

> <Gold.Chemscore.Lipo.Weighted>
-10.3207

> <Gold.Chemscore.Internal_Hbond.Weighted>
0.0000

> <Gold.Chemscore.DEClash.Weighted>
0.4627

> <Gold.Chemscore.DEInternal.Weighted>
0.5068

> <Gold.Chemscore.Rot.Weighted>
4.5409

> <Gold.Chemscore.Internal.Correction.Weighted>
   9.000000E+99

> <Gold.Protein.RotatedTorsions>
[ 6907 6896 6895 6894 ] final  -35.41 input  -60.11 | X-H torsion
[ 7974 7965 7964 7962 ] final  -42.72 input  175.53 | X-H torsion
[ 8008 7997 7996 7995 ] final  110.69 input   59.86 | X-H torsion
[ 10167 10162 10161 10158 ] final   15.78 input  -65.29 | X-H torsion
[ 10718 10713 10712 10709 ] final -111.15 input   66.30 | X-H torsion
[ 10763 10752 10751 10750 ] final  129.56 input  -60.55 | X-H torsion
[ 11005 11000 10999 10996 ] final  111.56 input  -57.11 | X-H torsion

> <Gold.Protein.ActiveResidues>
 VAL166  LYS551  ARG553  GLY616  TRP617  ASP618  TYR619  PRO620  LYS621  CYS622 
 ASP623  PHE694  ASN695  SER759  ASP760  ASP761  ALA762  ILE779  LEU786  VAL792 
 PHE793  MET794  SER795  GLU796  ALA797  LYS798  CYS799  TRP800  GLU811  SER814 

> <Gold.Protein.RotatedAtoms>
  151.0402  134.9601  159.8157 H   0  0  0  0  0  0  0  0  0  0  0  0  # atno 6907 bound_to 6896
  152.5362  134.2668  159.8966 H   0  0  0  0  0  0  0  0  0  0  0  0  # atno 6908 bound_to 6896
  151.2680  133.4226  159.2653 H   0  0  0  0  0  0  0  0  0  0  0  0  # atno 6909 bound_to 6896
  146.0088  140.6988  142.9234 H   0  0  0  0  0  0  0  0  0  0  0  0  # atno 7974 bound_to 7965
  156.2071  140.3034  155.9651 H   0  0  0  0  0  0  0  0  0  0  0  0  # atno 8008 bound_to 7997
  155.2815  140.0438  157.3033 H   0  0  0  0  0  0  0  0  0  0  0  0  # atno 8009 bound_to 7997
  154.5648  140.2331  155.8289 H   0  0  0  0  0  0  0  0  0  0  0  0  # atno 8010 bound_to 7997
  140.5843  143.8920  150.6817 H   0  0  0  0  0  0  0  0  0  0  0  0  # atno 10167 bound_to 10162
  156.0630  130.5852  150.8334 H   0  0  0  0  0  0  0  0  0  0  0  0  # atno 10718 bound_to 10713
  153.7437  135.3220  155.3309 H   0  0  0  0  0  0  0  0  0  0  0  0  # atno 10763 bound_to 10752
  154.8286  135.4551  154.1001 H   0  0  0  0  0  0  0  0  0  0  0  0  # atno 10764 bound_to 10752
  153.2183  135.6945  153.8112 H   0  0  0  0  0  0  0  0  0  0  0  0  # atno 10765 bound_to 10752
  139.8906  134.9510  156.6451 H   0  0  0  0  0  0  0  0  0  0  0  0  # atno 11005 bound_to 11000
  144.6945  140.3362  143.7207 LP  0  0  0  0  0  0  0  0  0  0  0  0  # atno 17320 bound_to 7965
  145.7374  139.1754  143.2395 LP  0  0  0  0  0  0  0  0  0  0  0  0  # atno 17321 bound_to 7965
  140.2427  143.3652  152.1473 LP  0  0  0  0  0  0  0  0  0  0  0  0  # atno 17342 bound_to 10162
  139.5188  144.7011  151.5490 LP  0  0  0  0  0  0  0  0  0  0  0  0  # atno 17343 bound_to 10162
  157.5653  131.0946  150.9499 LP  0  0  0  0  0  0  0  0  0  0  0  0  # atno 17370 bound_to 10713
  156.9727  130.5497  149.5291 LP  0  0  0  0  0  0  0  0  0  0  0  0  # atno 17371 bound_to 10713
  140.7563  133.8855  155.8385 LP  0  0  0  0  0  0  0  0  0  0  0  0  # atno 17394 bound_to 11000
  140.9959  134.1216  157.4364 LP  0  0  0  0  0  0  0  0  0  0  0  0  # atno 17395 bound_to 11000

$$$$
