AV-unprocessed.smi:634|AV-procd|sdf|3133|dock1
  -GOLD-   22720 0 53D 1   1.00000     0.00000
 Structure written by MMmdl.
 33 34  0  0  0  0  0  0  0  0  1 V2000
  146.5366  134.2873  162.9675 C   0  0  0  0  0  0  0  0  0  0  0  0
  147.0130  135.2025  161.8921 C   0  0  0  0  0  0  0  0  0  0  0  0
  147.3230  135.0086  160.5753 C   0  0  0  0  0  0  0  0  0  0  0  0
  147.7033  136.3067  160.1420 C   0  0  0  0  0  0  0  0  0  0  0  0
  148.1002  136.5379  158.8003 N   0  0  0  0  0  0  0  0  0  0  0  0
  149.3440  136.4915  158.2941 C   0  0  0  0  0  0  0  0  0  0  0  0
  150.3581  136.2192  158.9367 O   0  0  0  0  0  0  0  0  0  0  0  0
  149.3420  136.7879  156.9835 N   0  0  0  0  0  0  0  0  0  0  0  0
  150.4877  136.8725  156.0669 C   0  0  1  0  0  0  0  0  0  0  0  0
  151.1475  135.4875  155.8974 C   0  0  0  0  0  0  0  0  0  0  0  0
  149.9472  137.3694  154.7043 C   0  0  0  0  0  0  0  0  0  0  0  0
  149.6528  138.8730  154.7801 C   0  0  0  0  0  0  0  0  0  0  0  0
  150.8822  139.5602  155.9480 S   0  0  0  0  0  0  0  0  0  0  0  0
  151.9492  140.2413  155.1993 O   0  0  0  0  0  0  0  0  0  0  0  0
  150.1702  140.2397  157.0409 O   0  0  0  0  0  0  0  0  0  0  0  0
  151.5038  137.9394  156.5386 C   0  0  0  0  0  0  0  0  0  0  0  0
  147.6363  137.2101  161.1078 N   0  0  0  0  0  0  0  0  0  0  0  0
  147.1941  136.5069  162.2345 O   0  0  0  0  0  0  0  0  0  0  0  0
  146.2166  133.3315  162.5523 H   0  0  0  0  0  0  0  0  0  0  0  0
  145.6911  134.7227  163.5002 H   0  0  0  0  0  0  0  0  0  0  0  0
  147.3300  134.0947  163.6895 H   0  0  0  0  0  0  0  0  0  0  0  0
  147.2804  134.0864  160.0152 H   0  0  0  0  0  0  0  0  0  0  0  0
  147.3580  136.7781  158.1602 H   0  0  0  0  0  0  0  0  0  0  0  0
  148.4444  136.9931  156.5697 H   0  0  0  0  0  0  0  0  0  0  0  0
  151.9360  135.5149  155.1447 H   0  0  0  0  0  0  0  0  0  0  0  0
  150.4202  134.7387  155.5820 H   0  0  0  0  0  0  0  0  0  0  0  0
  151.6046  135.1362  156.8223 H   0  0  0  0  0  0  0  0  0  0  0  0
  150.7115  137.2153  153.9414 H   0  0  0  0  0  0  0  0  0  0  0  0
  149.0705  136.8079  154.3784 H   0  0  0  0  0  0  0  0  0  0  0  0
  149.7300  139.3717  153.8139 H   0  0  0  0  0  0  0  0  0  0  0  0
  148.6592  139.0562  155.1895 H   0  0  0  0  0  0  0  0  0  0  0  0
  151.6665  137.9721  157.6155 H   0  0  0  0  0  0  0  0  0  0  0  0
  152.4732  137.7771  156.0665 H   0  0  0  0  0  0  0  0  0  0  0  0
  1  2  1  0  0  0  0
  1 19  1  0  0  0  0
  1 20  1  0  0  0  0
  1 21  1  0  0  0  0
  2 18  1  0  0  0  0
  2  3  2  0  0  0  0
  3  4  1  0  0  0  0
  3 22  1  0  0  0  0
  4  5  1  0  0  0  0
  4 17  2  0  0  0  0
  5  6  1  0  0  0  0
  5 23  1  0  0  0  0
  6  7  2  0  0  0  0
  6  8  1  0  0  0  0
  8  9  1  0  0  0  0
  8 24  1  0  0  0  0
  9 16  1  0  0  0  0
  9 10  1  0  0  0  0
  9 11  1  0  0  0  0
 10 25  1  0  0  0  0
 10 26  1  0  0  0  0
 10 27  1  0  0  0  0
 11 12  1  0  0  0  0
 11 28  1  0  0  0  0
 11 29  1  0  0  0  0
 12 13  1  0  0  0  0
 12 30  1  0  0  0  0
 12 31  1  0  0  0  0
 13 14  2  0  0  0  0
 13 15  2  0  0  0  0
 13 16  1  0  0  0  0
 16 32  1  0  0  0  0
 16 33  1  0  0  0  0
 17 18  1  0  0  0  0
M  END
> <s_m_source_file>
AV-unprocessed.smi

> <i_m_source_file_index>
634

> <i_lp_mmshare_version>
43012

> <i_f3d_flags>
0

> <s_epik_input>
W0NIM11jMVtjSF1jKG5vMSlbTkhdQyg9TylbTkhdW0NAQF0yKFtDSDNdKVtDSDJdW0NIMl1TKD1PKSg9TylbQ0gyXTI=

> <s_epik_cmdline>
J2VwaWtfcHl0aG9uJywgJy1waCcsICc3LjAnLCAnLXRuJywgJzgnLCAnLW1hJywgJzIwMCcsICctbWV0YWxfYmluZGluZycsICctaW1hZScsICc8aW5maWxlLm1hZT4nLCAnLW9tYWUnLCAnPG91dGZpbGUubWFlPic=

> <r_lp_tautomer_probability>
1

> <r_epik_Ionization_Penalty>
3.87281e-05

> <r_epik_Ionization_Penalty_Charging>
0

> <r_epik_Ionization_Penalty_Neutral>
3.87281e-05

> <r_epik_State_Penalty>
-0

> <r_epik_Charging_Adjusted_Penalty>
0

> <i_epik_Tot_Q>
0

> <i_epik_Tot_abs_Q>
0

> <r_epik_Metal_State_Penalty>
0.0249287

> <b_epik_Metal_Only>
0

> <s_lp_Force_Field>
OPLS_2005

> <r_lp_Energy>
3.17223

> <b_lp_Chiralities_Consistent>
1

> <s_lp_Variant>
AV-unprocessed.smi:634-1

> <Gold.Version>
5.8.1

> <Gold.Id.Protein>
6NUR|6NUR_protein|mol2

> <Gold.PLP.Fitness>
30.8574

> <Gold.PLP.PLP>
-21.5666

> <Gold.PLP.part.hbond>
-4.0000

> <Gold.PLP.part.metal>
0.0000

> <Gold.PLP.part.buried>
-1.0194

> <Gold.PLP.part.nonpolar>
-17.0524

> <Gold.PLP.part.repulsive>
0.1593

> <Gold.PLP.ligand.clash>
0.0000

> <Gold.PLP.ligand.torsion>
0.7747

> <Gold.PLP.Chemscore.Hbond>
3.6080

> <Gold.PLP.Chemscore.CHOScore>
0.0000

> <Gold.PLP.Chemscore.Metal>
0.0000

> <Gold.Chemscore.Hbonds>
donor molecule, donor type, donor heavy atom, donor atom, acceptor molecule, acceptor atom, score
      P1  H  6896  6907       L1     7  1.00
      P1  H  6931  6943       L1    17  0.90
      P1  H  6934  6947       L1    17  0.90
      P1  H  7989  7998       L1    14  0.78

> <Gold.PLP.Chemscore.Internal.Correction>
0.0162

> <Gold.Rescore>
     Score         DG    S(hbond)    S(metal)    S(lipo)     H(rot)  DE(clash)    DE(int)     intcor
     18.55     -19.43       3.38        0.00      44.59       1.00       0.10       0.77       ----

> <Gold.Chemscore.Fitness>
18.5539

> <Gold.Chemscore.DG>
-19.4256

> <Gold.Chemscore.ZeroCoef>
-5.4800

> <Gold.Chemscore.Hbond>
3.3799

> <Gold.Chemscore.Metal>
0.0000

> <Gold.Chemscore.Lipo>
44.5873

> <Gold.Chemscore.Internal_Hbond>
0.0000

> <Gold.Chemscore.DEClash>
0.0968

> <Gold.Chemscore.DEInternal>
0.7749

> <Gold.Chemscore.Rot>
1.0000

> <Gold.Chemscore.Internal.Correction>
   9.000000E+99

> <Gold.Chemscore.Hbonds>
donor molecule, donor type, donor heavy atom, donor atom, acceptor molecule, acceptor atom, score
      P1  H  6896  6907       L1     7  0.96
      P1  H  6931  6943       L1    17  0.22
      P1  H  6934  6947       L1    17  0.85
      P1  H  7989  7998       L1    14  0.77

> <Gold.Chemscore.Hbond.Weighted>
-11.2889

> <Gold.Chemscore.Metal.Weighted>
-0.0000

> <Gold.Chemscore.Lipo.Weighted>
-5.2167

> <Gold.Chemscore.Internal_Hbond.Weighted>
0.0000

> <Gold.Chemscore.DEClash.Weighted>
0.0968

> <Gold.Chemscore.DEInternal.Weighted>
0.7749

> <Gold.Chemscore.Rot.Weighted>
2.5600

> <Gold.Chemscore.Internal.Correction.Weighted>
   9.000000E+99

> <Gold.Protein.RotatedTorsions>
[ 6907 6896 6895 6894 ] final  -52.47 input  -60.11 | X-H torsion
[ 7974 7965 7964 7962 ] final  -99.66 input  175.53 | X-H torsion
[ 8008 7997 7996 7995 ] final -121.86 input   59.86 | X-H torsion
[ 10167 10162 10161 10158 ] final  -16.34 input  -65.29 | X-H torsion
[ 10718 10713 10712 10709 ] final -129.55 input   66.30 | X-H torsion
[ 10763 10752 10751 10750 ] final  -67.36 input  -60.55 | X-H torsion
[ 11005 11000 10999 10996 ] final -114.69 input  -57.11 | X-H torsion

> <Gold.Protein.ActiveResidues>
 VAL166  LYS551  ARG553  GLY616  TRP617  ASP618  TYR619  PRO620  LYS621  CYS622 
 ASP623  PHE694  ASN695  SER759  ASP760  ASP761  ALA762  ILE779  LEU786  VAL792 
 PHE793  MET794  SER795  GLU796  ALA797  LYS798  CYS799  TRP800  GLU811  SER814 

> <Gold.Protein.RotatedAtoms>
  150.8515  134.7841  159.7011 H   0  0  0  0  0  0  0  0  0  0  0  0  # atno 6907 bound_to 6896
  152.4578  134.5249  159.9803 H   0  0  0  0  0  0  0  0  0  0  0  0  # atno 6908 bound_to 6896
  151.5369  133.3401  159.2964 H   0  0  0  0  0  0  0  0  0  0  0  0  # atno 6909 bound_to 6896
  145.3047  140.9386  143.2803 H   0  0  0  0  0  0  0  0  0  0  0  0  # atno 7974 bound_to 7965
  155.1548  140.0404  157.2829 H   0  0  0  0  0  0  0  0  0  0  0  0  # atno 8008 bound_to 7997
  154.6378  140.2539  155.7331 H   0  0  0  0  0  0  0  0  0  0  0  0  # atno 8009 bound_to 7997
  156.2517  140.2862  156.0758 H   0  0  0  0  0  0  0  0  0  0  0  0  # atno 8010 bound_to 7997
  140.7232  143.5126  150.9732 H   0  0  0  0  0  0  0  0  0  0  0  0  # atno 10167 bound_to 10162
  156.2057  130.6886  151.0592 H   0  0  0  0  0  0  0  0  0  0  0  0  # atno 10718 bound_to 10713
  154.3733  135.6090  153.5751 H   0  0  0  0  0  0  0  0  0  0  0  0  # atno 10763 bound_to 10752
  152.9789  135.5843  154.4496 H   0  0  0  0  0  0  0  0  0  0  0  0  # atno 10764 bound_to 10752
  154.4254  135.2846  155.1926 H   0  0  0  0  0  0  0  0  0  0  0  0  # atno 10765 bound_to 10752
  141.0536  133.9648  157.2794 H   0  0  0  0  0  0  0  0  0  0  0  0  # atno 11005 bound_to 11000
  144.9065  139.4583  143.6607 LP  0  0  0  0  0  0  0  0  0  0  0  0  # atno 17320 bound_to 7965
  146.3139  139.7848  142.8998 LP  0  0  0  0  0  0  0  0  0  0  0  0  # atno 17321 bound_to 7965
  139.8840  143.7036  152.3153 LP  0  0  0  0  0  0  0  0  0  0  0  0  # atno 17342 bound_to 10162
  139.7329  144.7578  151.0774 LP  0  0  0  0  0  0  0  0  0  0  0  0  # atno 17343 bound_to 10162
  157.7011  131.0775  150.6817 LP  0  0  0  0  0  0  0  0  0  0  0  0  # atno 17370 bound_to 10713
  156.6875  130.4585  149.5609 LP  0  0  0  0  0  0  0  0  0  0  0  0  # atno 17371 bound_to 10713
  139.9371  135.0195  156.8590 LP  0  0  0  0  0  0  0  0  0  0  0  0  # atno 17394 bound_to 11000
  140.6008  134.0174  155.7536 LP  0  0  0  0  0  0  0  0  0  0  0  0  # atno 17395 bound_to 11000

$$$$
