#       Name:                AV-unprocessed.smi:276
#       Creating user name   scv26
#       Creation time:       Thu Mar 26 21:33:22 2020


#       File generated by GOLD software.
#

@<TRIPOS>MOLECULE
AV-unprocessed.smi:276
    67    71     1
SMALL
NO_CHARGES


@<TRIPOS>ATOM
      1 ****        -5.3667   0.6184  -2.9745 C.3            1 S1                 0.0000
      2 ****        -4.2003  -0.0299  -2.4990 O.3            1 S1                 0.0000
      3 ****        -3.4887   0.7525  -1.5532 C.3            1 S1                 0.0000
      4 ****        -4.0884   0.7471  -0.1417 C.3            1 S1                 0.0000
      5 ****        -2.6572   0.6405   0.4209 C.3            1 S1                 0.0000
      6 ****        -2.0997   1.9646   0.7342 N.3            1 S1                 0.0000
      7 ****        -2.7192   2.6755   1.8480 C.3            1 S1                 0.0000
      8 ****        -0.7548   2.0196   0.8540 C.ar           1 S1                 0.0000
      9 ****        -0.1175   3.0143   0.1882 N.ar           1 S1                 0.0000
     10 ****         1.2146   3.1064   0.2404 C.ar           1 S1                 0.0000
     11 ****         2.0812   2.3222   0.8851 N.ar           1 S1                 0.0000
     12 ****         1.4404   1.3312   1.5693 C.ar           1 S1                 0.0000
     13 ****         0.0349   1.1149   1.6200 C.ar           1 S1                 0.0000
     14 ****        -0.2461   0.0200   2.4287 N.2            1 S1                 0.0000
     15 ****         0.9267  -0.3996   2.8168 C.2            1 S1                 0.0000
     16 ****         1.9961   0.3135   2.3243 N.pl3          1 S1                 0.0000
     17 ****         3.4018   0.0527   2.5761 C.3            1 S1                 0.0000
     18 ****         3.8818  -1.3198   2.0491 C.3            1 S1                 0.0000
     19 ****         5.1854  -1.4880   2.5685 O.3            1 S1                 0.0000
     20 ****         3.9826  -1.4487   0.5102 C.3            1 S1                 0.0000
     21 ****         2.6805  -1.2505  -0.2759 C.3            1 S1                 0.0000
     22 ****         2.8496  -2.1085  -1.5203 C.3            1 S1                 0.0000
     23 ****         4.0994  -2.9362  -1.2287 C.3            1 S1                 0.0000
     24 ****         4.2945  -2.7924   0.1692 O.3            1 S1                 0.0000
     25 ****        -2.2579   0.0454  -0.9583 C.3            1 S1                 0.0000
     26 ****        -2.1046  -1.4800  -1.1042 C.3            1 S1                 0.0000
     27 ****        -1.1209  -1.2179  -2.2476 C.3            1 S1                 0.0000
     28 ****        -0.8751   0.1603  -1.6299 C.3            1 S1                 0.0000
     29 ****        -5.8695  -0.0199  -3.7008 H              1 S1                 0.0000
     30 ****        -5.1200   1.5596  -3.4672 H              1 S1                 0.0000
     31 ****        -6.0673   0.8211  -2.1637 H              1 S1                 0.0000
     32 ****        -3.2468   1.7563  -1.9089 H              1 S1                 0.0000
     33 ****        -4.6484   1.6478   0.1075 H              1 S1                 0.0000
     34 ****        -4.6794  -0.1484   0.0583 H              1 S1                 0.0000
     35 ****        -2.5928  -0.0749   1.2410 H              1 S1                 0.0000
     36 ****        -2.1386   3.5502   2.1455 H              1 S1                 0.0000
     37 ****        -2.8147   2.0215   2.7153 H              1 S1                 0.0000
     38 ****        -3.7133   3.0285   1.5762 H              1 S1                 0.0000
     39 ****         1.6485   3.9205  -0.3214 H              1 S1                 0.0000
     40 ****         1.0449  -1.2567   3.4638 H              1 S1                 0.0000
     41 ****         3.9992   0.8554   2.1420 H              1 S1                 0.0000
     42 ****         3.5477   0.1093   3.6558 H              1 S1                 0.0000
     43 ****         3.2507  -2.1135   2.4503 H              1 S1                 0.0000
     44 ****         5.7441  -0.8221   2.1978 H              1 S1                 0.0000
     45 ****         4.7543  -0.7842   0.1157 H              1 S1                 0.0000
     46 ****         1.8280  -1.6185   0.2960 H              1 S1                 0.0000
     47 ****         2.4982  -0.2051  -0.5226 H              1 S1                 0.0000
     48 ****         1.9778  -2.7471  -1.6645 H              1 S1                 0.0000
     49 ****         2.9787  -1.5049  -2.4192 H              1 S1                 0.0000
     50 ****         3.9868  -3.9834  -1.5100 H              1 S1                 0.0000
     51 ****         4.9632  -2.5303  -1.7574 H              1 S1                 0.0000
     52 ****        -1.6241  -1.9373  -0.2374 H              1 S1                 0.0000
     53 ****        -3.0071  -2.0209  -1.3897 H              1 S1                 0.0000
     54 ****        -0.2520  -1.8756  -2.2639 H              1 S1                 0.0000
     55 ****        -1.6083  -1.1642  -3.2224 H              1 S1                 0.0000
     56 ****        -0.7782   0.9739  -2.3489 H              1 S1                 0.0000
     57 ****        -0.0364   0.1337  -0.9354 H              1 S1                 0.0000
     58 ****        -3.5993  -0.2184  -3.2758 LP             1 S1                 0.0000
     59 ****        -4.4663  -0.8914  -2.0667 LP             1 S1                 0.0000
     60 ****        -2.3504   2.4524  -0.1020 LP             1 S1                 0.0000
     61 ****        -0.6443   3.6788  -0.3418 LP             1 S1                 0.0000
     62 ****         3.0735   2.4454   0.8686 LP             1 S1                 0.0000
     63 ****        -1.1419  -0.3592   2.6601 LP             1 S1                 0.0000
     64 ****         5.5318  -2.3936   2.3237 LP             1 S1                 0.0000
     65 ****         5.1663  -1.3963   3.5641 LP             1 S1                 0.0000
     66 ****         3.6918  -3.4185   0.6638 LP             1 S1                 0.0000
     67 ****         5.2462  -2.9915   0.4030 LP             1 S1                 0.0000
@<TRIPOS>BOND
    1    1    2 1     
    2    1   29 1     
    3    1   30 1     
    4    1   31 1     
    5    2    3 1     
    6    3   25 1     
    7    3    4 1     
    8    3   32 1     
    9    4    5 1     
   10    4   33 1     
   11    4   34 1     
   12    5    6 1     
   13    5   25 1     
   14    5   35 1     
   15    6    7 1     
   16    6    8 1     
   17    7   36 1     
   18    7   37 1     
   19    7   38 1     
   20    8   13 ar    
   21    8    9 ar    
   22    9   10 ar    
   23   10   11 ar    
   24   10   39 1     
   25   11   12 ar    
   26   12   16 1     
   27   12   13 ar    
   28   13   14 1     
   29   14   15 2     
   30   15   16 1     
   31   15   40 1     
   32   16   17 1     
   33   17   18 1     
   34   17   41 1     
   35   17   42 1     
   36   18   19 1     
   37   18   20 1     
   38   18   43 1     
   39   19   44 1     
   40   20   24 1     
   41   20   21 1     
   42   20   45 1     
   43   21   22 1     
   44   21   46 1     
   45   21   47 1     
   46   22   23 1     
   47   22   48 1     
   48   22   49 1     
   49   23   24 1     
   50   23   50 1     
   51   23   51 1     
   52   25   28 1     
   53   25   26 1     
   54   26   27 1     
   55   26   52 1     
   56   26   53 1     
   57   27   28 1     
   58   27   54 1     
   59   27   55 1     
   60   28   56 1     
   61   28   57 1     
   62    2   58 1     
   63    2   59 1     
   64    6   60 1     
   65    9   61 1     
   66   11   62 1     
   67   14   63 1     
   68   19   64 1     
   69   19   65 1     
   70   24   66 1     
   71   24   67 1     
@<TRIPOS>SUBSTRUCTURE
      1 S1             1
@<TRIPOS>SET
LONE_PAIRS      STATIC     ATOMS    <user>   **** ""
10 58 59 60 61 62 63 64 65 66 67
DONOR_HYDROGENS      STATIC     ATOMS    <user>   **** ""
1 44
ATOM$BLUE        STATIC     ATOMS    COLORGROUP SYSTEM
10 58 59 60 61 62 63 64 65 66 67
ATOM$RED        STATIC     ATOMS    COLORGROUP SYSTEM
1 44
