#       Name:                AV-unprocessed.smi:1948
#       Creating user name   scv26
#       Creation time:       Fri Mar 27 10:02:46 2020


#       File generated by GOLD software.
#

@<TRIPOS>MOLECULE
AV-unprocessed.smi:1948
    36    37     1
SMALL
NO_CHARGES


@<TRIPOS>ATOM
      1 ****        -1.2099   1.8320   0.5214 O.2            1 S1                 0.0000
      2 ****        -1.7295   0.7532   0.2262 C.2            1 S1                 0.0000
      3 ****        -3.0476   0.5284   0.0225 N.pl3          1 S1                -1.0000
      4 ****        -3.9260   1.5391   0.1295 C.2            1 S1                 0.0000
      5 ****        -4.3922   2.2010  -0.9416 N.2            1 S1                 0.0000
      6 ****        -5.2936   3.2046  -0.6134 N.2            1 S1                 0.0000
      7 ****        -5.4917   3.2682   0.7031 C.2            1 S1                 0.0000
      8 ****        -4.5968   2.1075   1.6609 S.3            1 S1                 0.0000
      9 ****        -0.9669  -0.3401   0.0786 N.am           1 S1                 0.0000
     10 ****         0.4832  -0.4075   0.2401 C.3            1 S1                 0.0000
     11 ****         1.1977   0.0746  -1.0400 C.3            1 S1                 0.0000
     12 ****         2.7239  -0.0620  -0.9168 C.3            1 S1                 0.0000
     13 ****         3.1252  -1.5066  -0.5733 C.3            1 S1                 0.0000
     14 ****         4.5248  -1.5791  -0.3999 O.3            1 S1                 0.0000
     15 ****         2.4227  -1.9857   0.7085 C.3            1 S1                 0.0000
     16 ****         0.8962  -1.8508   0.5861 C.3            1 S1                 0.0000
     17 ****        -6.1705   4.0013   1.1122 H              1 S1                 0.0000
     18 ****        -1.4371  -1.1993  -0.1659 H              1 S1                 0.0000
     19 ****         0.7770   0.2350   1.0724 H              1 S1                 0.0000
     20 ****         0.8508  -0.5046  -1.8969 H              1 S1                 0.0000
     21 ****         0.9411   1.1142  -1.2471 H              1 S1                 0.0000
     22 ****         3.1978   0.2483  -1.8487 H              1 S1                 0.0000
     23 ****         3.0843   0.6181  -0.1435 H              1 S1                 0.0000
     24 ****         2.8548  -2.1637  -1.4008 H              1 S1                 0.0000
     25 ****         4.7680  -1.0071   0.3119 H              1 S1                 0.0000
     26 ****         2.6855  -3.0238   0.9153 H              1 S1                 0.0000
     27 ****         2.7688  -1.4019   1.5628 H              1 S1                 0.0000
     28 ****         0.4248  -2.1602   1.5197 H              1 S1                 0.0000
     29 ****         0.5344  -2.5339  -0.1839 H              1 S1                 0.0000
     30 ****        -1.7784   2.6473   0.6315 LP             1 S1                 0.0000
     31 ****        -0.2200   1.8915   0.6507 LP             1 S1                 0.0000
     32 ****        -3.3683  -0.3903  -0.2078 LP             1 S1                 0.0000
     33 ****        -4.1180   1.9923  -1.8803 LP             1 S1                 0.0000
     34 ****        -5.7376   3.8035  -1.2798 LP             1 S1                 0.0000
     35 ****         4.9844  -1.2880  -1.2389 LP             1 S1                 0.0000
     36 ****         4.7899  -2.5187  -0.1835 LP             1 S1                 0.0000
@<TRIPOS>BOND
    1    1    2 2     
    2    2    3 1     
    3    2    9 am    
    4    3    4 1     
    5    4    8 1     
    6    4    5 2     
    7    5    6 1     
    8    6    7 2     
    9    7    8 1     
   10    7   17 1     
   11    9   10 1     
   12    9   18 1     
   13   10   16 1     
   14   10   11 1     
   15   10   19 1     
   16   11   12 1     
   17   11   20 1     
   18   11   21 1     
   19   12   13 1     
   20   12   22 1     
   21   12   23 1     
   22   13   14 1     
   23   13   15 1     
   24   13   24 1     
   25   14   25 1     
   26   15   16 1     
   27   15   26 1     
   28   15   27 1     
   29   16   28 1     
   30   16   29 1     
   31    1   30 1     
   32    1   31 1     
   33    3   32 1     
   34    5   33 1     
   35    6   34 1     
   36   14   35 1     
   37   14   36 1     
@<TRIPOS>SUBSTRUCTURE
      1 S1             1
@<TRIPOS>SET
LONE_PAIRS      STATIC     ATOMS    <user>   **** ""
7 30 31 32 33 34 35 36
DONOR_HYDROGENS      STATIC     ATOMS    <user>   **** ""
2 18 25
ATOM$BLUE        STATIC     ATOMS    COLORGROUP SYSTEM
7 30 31 32 33 34 35 36
ATOM$RED        STATIC     ATOMS    COLORGROUP SYSTEM
2 18 25
