#       Name:                AV-unprocessed.smi:1793
#       Creating user name   scv26
#       Creation time:       Fri Mar 27 08:46:55 2020


#       File generated by GOLD software.
#

@<TRIPOS>MOLECULE
AV-unprocessed.smi:1793
    52    54     1
SMALL
NO_CHARGES


@<TRIPOS>ATOM
      1 ****        -3.0167  -1.4320   1.4929 C.3            1 S1                 0.0000
      2 ****        -2.8141  -0.4568   0.3243 C.3            1 S1                 0.0000
      3 ****        -1.3812  -0.2920   0.0858 N.am           1 S1                 0.0000
      4 ****        -0.7043   0.8647   0.1209 C.2            1 S1                 0.0000
      5 ****        -1.2212   1.9547   0.3654 O.2            1 S1                 0.0000
      6 ****         0.5999   0.6657  -0.1313 N.am           1 S1                 0.0000
      7 ****         1.6567   1.6192  -0.1039 C.ar           1 S1                 0.0000
      8 ****         1.4512   2.9628  -0.5025 C.ar           1 S1                 0.0000
      9 ****         2.5402   3.8509  -0.5247 C.ar           1 S1                 0.0000
     10 ****         3.8051   3.3595  -0.1626 C.ar           1 S1                 0.0000
     11 ****         4.0203   2.0809   0.2051 N.ar           1 S1                 0.0000
     12 ****         2.9775   1.2148   0.2467 C.ar           1 S1                 0.0000
     13 ****         3.2660  -0.1088   0.6540 N.3            1 S1                 0.0000
     14 ****         4.6465  -0.5734   0.7394 C.3            1 S1                 0.0000
     15 ****         4.5810  -1.8628   1.5529 C.3            1 S1                 0.0000
     16 ****         3.4672  -1.5615   2.5509 C.3            1 S1                 0.0000
     17 ****         2.4978  -0.6794   1.7571 C.3            1 S1                 0.0000
     18 ****        -3.5103  -0.9448  -0.9610 C.3            1 S1                 0.0000
     19 ****        -3.3635  -0.0135  -2.1654 C.3            1 S1                 0.0000
     20 ****        -4.5624  -0.3651  -3.0312 C.3            1 S1                 0.0000
     21 ****        -5.5082  -1.1018  -2.0776 C.3            1 S1                 0.0000
     22 ****        -4.9185  -0.9796  -0.7901 O.3            1 S1                 0.0000
     23 ****        -4.0757  -1.5602   1.7189 H              1 S1                 0.0000
     24 ****        -2.5313  -1.0656   2.3982 H              1 S1                 0.0000
     25 ****        -2.6037  -2.4158   1.2674 H              1 S1                 0.0000
     26 ****        -3.2599   0.4976   0.6099 H              1 S1                 0.0000
     27 ****        -0.8632  -1.1327  -0.1239 H              1 S1                 0.0000
     28 ****         0.8903  -0.2957  -0.2329 H              1 S1                 0.0000
     29 ****         0.4821   3.3210  -0.8146 H              1 S1                 0.0000
     30 ****         2.4109   4.8800  -0.8251 H              1 S1                 0.0000
     31 ****         4.6688   4.0076  -0.1746 H              1 S1                 0.0000
     32 ****         5.0727  -0.7394  -0.2502 H              1 S1                 0.0000
     33 ****         5.2676   0.1539   1.2639 H              1 S1                 0.0000
     34 ****         4.2913  -2.6963   0.9114 H              1 S1                 0.0000
     35 ****         5.5287  -2.1133   2.0301 H              1 S1                 0.0000
     36 ****         2.9943  -2.4606   2.9465 H              1 S1                 0.0000
     37 ****         3.8727  -0.9969   3.3915 H              1 S1                 0.0000
     38 ****         2.0498   0.0891   2.3886 H              1 S1                 0.0000
     39 ****         1.6947  -1.2912   1.3456 H              1 S1                 0.0000
     40 ****        -3.1630  -1.9458  -1.2255 H              1 S1                 0.0000
     41 ****        -3.4363   1.0271  -1.8458 H              1 S1                 0.0000
     42 ****        -2.4134  -0.1396  -2.6851 H              1 S1                 0.0000
     43 ****        -5.0215   0.5306  -3.4506 H              1 S1                 0.0000
     44 ****        -4.2752  -1.0145  -3.8588 H              1 S1                 0.0000
     45 ****        -6.5157  -0.6853  -2.0840 H              1 S1                 0.0000
     46 ****        -5.5750  -2.1574  -2.3438 H              1 S1                 0.0000
     47 ****        -2.2018   2.0123   0.5528 LP             1 S1                 0.0000
     48 ****        -0.6605   2.7827   0.3765 LP             1 S1                 0.0000
     49 ****         4.9411   1.7735   0.4452 LP             1 S1                 0.0000
     50 ****         2.9129  -0.4788  -0.2053 LP             1 S1                 0.0000
     51 ****        -5.2292  -0.1360  -0.3521 LP             1 S1                 0.0000
     52 ****        -5.1733  -1.7629  -0.2233 LP             1 S1                 0.0000
@<TRIPOS>BOND
    1    1    2 1     
    2    1   23 1     
    3    1   24 1     
    4    1   25 1     
    5    2    3 1     
    6    2   18 1     
    7    2   26 1     
    8    3    4 am    
    9    3   27 1     
   10    4    5 2     
   11    4    6 am    
   12    6    7 1     
   13    6   28 1     
   14    7   12 ar    
   15    7    8 ar    
   16    8    9 ar    
   17    8   29 1     
   18    9   10 ar    
   19    9   30 1     
   20   10   11 ar    
   21   10   31 1     
   22   11   12 ar    
   23   12   13 1     
   24   13   17 1     
   25   13   14 1     
   26   14   15 1     
   27   14   32 1     
   28   14   33 1     
   29   15   16 1     
   30   15   34 1     
   31   15   35 1     
   32   16   17 1     
   33   16   36 1     
   34   16   37 1     
   35   17   38 1     
   36   17   39 1     
   37   18   22 1     
   38   18   19 1     
   39   18   40 1     
   40   19   20 1     
   41   19   41 1     
   42   19   42 1     
   43   20   21 1     
   44   20   43 1     
   45   20   44 1     
   46   21   22 1     
   47   21   45 1     
   48   21   46 1     
   49    5   47 1     
   50    5   48 1     
   51   11   49 1     
   52   13   50 1     
   53   22   51 1     
   54   22   52 1     
@<TRIPOS>SUBSTRUCTURE
      1 S1             1
@<TRIPOS>SET
LONE_PAIRS      STATIC     ATOMS    <user>   **** ""
6 47 48 49 50 51 52
DONOR_HYDROGENS      STATIC     ATOMS    <user>   **** ""
2 27 28
ATOM$BLUE        STATIC     ATOMS    COLORGROUP SYSTEM
6 47 48 49 50 51 52
ATOM$RED        STATIC     ATOMS    COLORGROUP SYSTEM
2 27 28
