#       Name:                AV-unprocessed.smi:1321
#       Creating user name   scv26
#       Creation time:       Fri Mar 27 05:03:10 2020


#       File generated by GOLD software.
#

@<TRIPOS>MOLECULE
AV-unprocessed.smi:1321
    49    50     1
SMALL
NO_CHARGES


@<TRIPOS>ATOM
      1 ****        -2.8661  -0.0934  -2.3437 C.3            1 S1                 0.0000
      2 ****        -2.4506   0.9194  -1.2504 C.3            1 S1                 0.0000
      3 ****        -3.0465   2.2987  -1.6031 C.3            1 S1                 0.0000
      4 ****        -3.0147   0.4594   0.1089 C.3            1 S1                 0.0000
      5 ****        -0.9141   1.0506  -1.1195 C.2            1 S1                 0.0000
      6 ****        -0.4386   1.9484  -0.4232 O.2            1 S1                 0.0000
      7 ****        -0.1456   0.1571  -1.7656 N.am           1 S1                 0.0000
      8 ****         1.3070   0.0526  -1.6816 C.3            1 S1                 0.0000
      9 ****         1.7421  -1.2030  -0.9370 C.ar           1 S1                 0.0000
     10 ****         2.1647  -2.3296  -1.6745 C.ar           1 S1                 0.0000
     11 ****         2.5356  -3.5011  -0.9902 C.ar           1 S1                 0.0000
     12 ****         2.4670  -3.5016   0.4146 C.ar           1 S1                 0.0000
     13 ****         2.0645  -2.4341   1.1343 N.ar           1 S1                 0.0000
     14 ****         1.7054  -1.3027   0.4796 C.ar           1 S1                 0.0000
     15 ****         1.3084  -0.2044   1.2616 N.3            1 S1                 0.0000
     16 ****         0.4125  -0.4983   2.3748 C.3            1 S1                 0.0000
     17 ****        -0.0675   0.8128   3.0201 C.3            1 S1                 0.0000
     18 ****         1.0596   1.5872   3.4209 O.3            1 S1                 0.0000
     19 ****         1.8917   1.9339   2.3172 C.3            1 S1                 0.0000
     20 ****         2.4208   0.6552   1.6442 C.3            1 S1                 0.0000
     21 ****        -3.9511  -0.1406  -2.4419 H              1 S1                 0.0000
     22 ****        -2.5240  -1.1038  -2.1147 H              1 S1                 0.0000
     23 ****        -2.4676   0.1827  -3.3212 H              1 S1                 0.0000
     24 ****        -2.6379   2.6825  -2.5388 H              1 S1                 0.0000
     25 ****        -2.8471   3.0394  -0.8273 H              1 S1                 0.0000
     26 ****        -4.1292   2.2422  -1.7195 H              1 S1                 0.0000
     27 ****        -4.1003   0.3623   0.0726 H              1 S1                 0.0000
     28 ****        -2.7800   1.1663   0.9059 H              1 S1                 0.0000
     29 ****        -2.6097  -0.5108   0.4008 H              1 S1                 0.0000
     30 ****        -0.6145  -0.5415  -2.3234 H              1 S1                 0.0000
     31 ****         1.6981   0.0235  -2.6989 H              1 S1                 0.0000
     32 ****         1.7548   0.9343  -1.2223 H              1 S1                 0.0000
     33 ****         2.1990  -2.3014  -2.7537 H              1 S1                 0.0000
     34 ****         2.8615  -4.3784  -1.5287 H              1 S1                 0.0000
     35 ****         2.7423  -4.3823   0.9758 H              1 S1                 0.0000
     36 ****        -0.4408  -1.0769   2.0190 H              1 S1                 0.0000
     37 ****         0.9305  -1.1042   3.1194 H              1 S1                 0.0000
     38 ****        -0.6875   1.3847   2.3285 H              1 S1                 0.0000
     39 ****        -0.6812   0.5984   3.8950 H              1 S1                 0.0000
     40 ****         1.3349   2.5470   1.6070 H              1 S1                 0.0000
     41 ****         2.7229   2.5411   2.6758 H              1 S1                 0.0000
     42 ****         3.0737   0.1149   2.3312 H              1 S1                 0.0000
     43 ****         3.0195   0.9134   0.7702 H              1 S1                 0.0000
     44 ****        -1.0444   2.5861   0.0527 LP             1 S1                 0.0000
     45 ****         0.5532   2.0396  -0.3337 LP             1 S1                 0.0000
     46 ****         2.0316  -2.4766   2.1329 LP             1 S1                 0.0000
     47 ****         0.7318   0.3201   0.6352 LP             1 S1                 0.0000
     48 ****         1.5978   1.0578   4.0767 LP             1 S1                 0.0000
     49 ****         0.7354   2.4269   3.8566 LP             1 S1                 0.0000
@<TRIPOS>BOND
    1    1    2 1     
    2    1   21 1     
    3    1   22 1     
    4    1   23 1     
    5    2    3 1     
    6    2    4 1     
    7    2    5 1     
    8    3   24 1     
    9    3   25 1     
   10    3   26 1     
   11    4   27 1     
   12    4   28 1     
   13    4   29 1     
   14    5    6 2     
   15    5    7 am    
   16    7    8 1     
   17    7   30 1     
   18    8    9 1     
   19    8   31 1     
   20    8   32 1     
   21    9   14 ar    
   22    9   10 ar    
   23   10   11 ar    
   24   10   33 1     
   25   11   12 ar    
   26   11   34 1     
   27   12   13 ar    
   28   12   35 1     
   29   13   14 ar    
   30   14   15 1     
   31   15   20 1     
   32   15   16 1     
   33   16   17 1     
   34   16   36 1     
   35   16   37 1     
   36   17   18 1     
   37   17   38 1     
   38   17   39 1     
   39   18   19 1     
   40   19   20 1     
   41   19   40 1     
   42   19   41 1     
   43   20   42 1     
   44   20   43 1     
   45    6   44 1     
   46    6   45 1     
   47   13   46 1     
   48   15   47 1     
   49   18   48 1     
   50   18   49 1     
@<TRIPOS>SUBSTRUCTURE
      1 S1             1
@<TRIPOS>SET
LONE_PAIRS      STATIC     ATOMS    <user>   **** ""
6 44 45 46 47 48 49
DONOR_HYDROGENS      STATIC     ATOMS    <user>   **** ""
1 30
ATOM$BLUE        STATIC     ATOMS    COLORGROUP SYSTEM
6 44 45 46 47 48 49
ATOM$RED        STATIC     ATOMS    COLORGROUP SYSTEM
1 30
