AV-unprocessed.smi:1749|AV-procd|sdf|7046|dock5
  -GOLD-   22720 8263D 1   1.00000     0.00000
 Structure written by MMmdl.
 32 33  0  0  0  0  0  0  0  0  1 V2000
  145.7780  129.6312  151.9891 C   0  0  0  0  0  0  0  0  0  0  0  0
  145.3980  131.1167  151.9143 C   0  0  2  0  0  0  0  0  0  0  0  0
  145.0513  131.5372  150.4730 C   0  0  0  0  0  0  0  0  0  0  0  0
  144.6740  133.0247  150.3951 C   0  0  0  0  0  0  0  0  0  0  0  0
  145.7897  133.9130  150.9664 C   0  0  0  0  0  0  0  0  0  0  0  0
  146.1460  133.5071  152.4081 C   0  0  2  0  0  0  0  0  0  0  0  0
  147.2674  134.3130  152.8816 N   0  0  0  0  0  0  0  0  0  0  0  0
  147.8259  134.2628  154.1026 C   0  0  0  0  0  0  0  0  0  0  0  0
  147.4230  133.5148  154.9917 O   0  0  0  0  0  0  0  0  0  0  0  0
  148.8719  135.0898  154.3176 N   0  0  0  0  0  0  0  0  0  0  0  0
  149.6944  135.3063  155.4622 C   0  0  0  0  0  0  0  0  0  0  0  0
  149.5833  134.6366  156.6214 N   0  0  0  0  0  0  0  0  0  0  0  0
  150.5099  135.0623  157.5634 N   0  0  0  0  0  0  0  0  0  0  0  0
  151.2835  136.0390  157.0824 C   0  0  0  0  0  0  0  0  0  0  0  0
  150.9545  136.5329  155.4310 S   0  0  0  0  0  0  0  0  0  0  0  0
  146.5147  132.0132  152.4844 C   0  0  0  0  0  0  0  0  0  0  0  0
  146.6648  129.4182  151.3911 H   0  0  0  0  0  0  0  0  0  0  0  0
  144.9688  128.9998  151.6213 H   0  0  0  0  0  0  0  0  0  0  0  0
  145.9895  129.3309  153.0157 H   0  0  0  0  0  0  0  0  0  0  0  0
  144.5078  131.2589  152.5290 H   0  0  0  0  0  0  0  0  0  0  0  0
  145.9015  131.3441  149.8173 H   0  0  0  0  0  0  0  0  0  0  0  0
  144.2271  130.9312  150.0952 H   0  0  0  0  0  0  0  0  0  0  0  0
  144.4719  133.3026  149.3602 H   0  0  0  0  0  0  0  0  0  0  0  0
  143.7496  133.1972  150.9477 H   0  0  0  0  0  0  0  0  0  0  0  0
  146.6729  133.8350  150.3303 H   0  0  0  0  0  0  0  0  0  0  0  0
  145.4788  134.9582  150.9375 H   0  0  0  0  0  0  0  0  0  0  0  0
  145.2670  133.6737  153.0331 H   0  0  0  0  0  0  0  0  0  0  0  0
  147.6651  134.9612  152.2167 H   0  0  0  0  0  0  0  0  0  0  0  0
  149.0978  135.6804  153.5305 H   0  0  0  0  0  0  0  0  0  0  0  0
  152.0528  136.4719  157.7045 H   0  0  0  0  0  0  0  0  0  0  0  0
  146.7151  131.7379  153.5208 H   0  0  0  0  0  0  0  0  0  0  0  0
  147.4406  131.8352  151.9348 H   0  0  0  0  0  0  0  0  0  0  0  0
  1  2  1  0  0  0  0
  1 17  1  0  0  0  0
  1 18  1  0  0  0  0
  1 19  1  0  0  0  0
  2 16  1  0  0  0  0
  2  3  1  0  0  0  0
  2 20  1  0  0  0  0
  3  4  1  0  0  0  0
  3 21  1  0  0  0  0
  3 22  1  0  0  0  0
  4  5  1  0  0  0  0
  4 23  1  0  0  0  0
  4 24  1  0  0  0  0
  5  6  1  0  0  0  0
  5 25  1  0  0  0  0
  5 26  1  0  0  0  0
  6  7  1  0  0  0  0
  6 16  1  0  0  0  0
  6 27  1  0  0  0  0
  7  8  1  0  0  0  0
  7 28  1  0  0  0  0
  8  9  2  0  0  0  0
  8 10  1  0  0  0  0
 10 11  1  0  0  0  0
 10 29  1  0  0  0  0
 11 15  1  0  0  0  0
 11 12  2  0  0  0  0
 12 13  1  0  0  0  0
 13 14  2  0  0  0  0
 14 15  1  0  0  0  0
 14 30  1  0  0  0  0
 16 31  1  0  0  0  0
 16 32  1  0  0  0  0
M  END
> <s_m_source_file>
AV-unprocessed.smi

> <i_m_source_file_index>
1749

> <i_lp_mmshare_version>
43012

> <i_f3d_flags>
0

> <s_epik_input>
W0NIM11bQ0BASF0xW0NIMl1bQ0gyXVtDSDJdW0NASF0oW0NIMl0xKVtOSF1DKD1PKVtOSF1jMm5uW2NIXXMy

> <s_epik_cmdline>
J2VwaWtfcHl0aG9uJywgJy1waCcsICc3LjAnLCAnLXRuJywgJzgnLCAnLW1hJywgJzIwMCcsICctbWV0YWxfYmluZGluZycsICctaW1hZScsICc8aW5maWxlLm1hZT4nLCAnLW9tYWUnLCAnPG91dGZpbGUubWFlPic=

> <r_lp_tautomer_probability>
1

> <r_epik_Ionization_Penalty>
0.000318591

> <r_epik_Ionization_Penalty_Charging>
0

> <r_epik_Ionization_Penalty_Neutral>
0.000318591

> <r_epik_State_Penalty>
-0

> <r_epik_Charging_Adjusted_Penalty>
0

> <i_epik_Tot_Q>
0

> <i_epik_Tot_abs_Q>
0

> <r_epik_Metal_State_Penalty>
0.169791

> <b_epik_Metal_Only>
0

> <s_lp_Force_Field>
OPLS_2005

> <r_lp_Energy>
11.6734

> <b_lp_Chiralities_Consistent>
1

> <s_lp_Variant>
AV-unprocessed.smi:1749-3

> <Gold.Version>
5.8.1

> <Gold.Id.Protein>
6NUR|6NUR_protein|mol2

> <Gold.PLP.Fitness>
32.0537

> <Gold.PLP.PLP>
-24.4983

> <Gold.PLP.part.hbond>
-3.0000

> <Gold.PLP.part.metal>
0.0000

> <Gold.PLP.part.buried>
-4.1307

> <Gold.PLP.part.nonpolar>
-18.1572

> <Gold.PLP.part.repulsive>
0.0299

> <Gold.PLP.ligand.clash>
0.0000

> <Gold.PLP.ligand.torsion>
0.0033

> <Gold.PLP.Chemscore.Hbond>
2.5200

> <Gold.PLP.Chemscore.CHOScore>
0.0000

> <Gold.PLP.Chemscore.Metal>
0.0000

> <Gold.Chemscore.Hbonds>
donor molecule, donor type, donor heavy atom, donor atom, acceptor molecule, acceptor atom, score
      L1  H     7    28       P1  7948  0.98
      L1  H    10    29       P1  7948  1.00
      P1  H  6896  6907       L1    13  0.54

> <Gold.PLP.Chemscore.Internal.Correction>
0.0021

> <Gold.Rescore>
     Score         DG    S(hbond)    S(metal)    S(lipo)     H(rot)  DE(clash)    DE(int)     intcor
     17.72     -18.96       2.59        0.00      63.05       1.00       0.00       1.24       ----

> <Gold.Chemscore.Fitness>
17.7225

> <Gold.Chemscore.DG>
-18.9578

> <Gold.Chemscore.ZeroCoef>
-5.4800

> <Gold.Chemscore.Hbond>
2.5932

> <Gold.Chemscore.Metal>
0.0000

> <Gold.Chemscore.Lipo>
63.0483

> <Gold.Chemscore.Internal_Hbond>
0.0000

> <Gold.Chemscore.DEClash>
0.0000

> <Gold.Chemscore.DEInternal>
1.2353

> <Gold.Chemscore.Rot>
1.0000

> <Gold.Chemscore.Internal.Correction>
   9.000000E+99

> <Gold.Chemscore.Hbonds>
donor molecule, donor type, donor heavy atom, donor atom, acceptor molecule, acceptor atom, score
      L1  H     7    28       P1  7948  0.84
      L1  H    10    29       P1  7948  0.73
      P1  H  6896  6907       L1    13  0.52

> <Gold.Chemscore.Hbond.Weighted>
-8.6612

> <Gold.Chemscore.Metal.Weighted>
-0.0000

> <Gold.Chemscore.Lipo.Weighted>
-7.3767

> <Gold.Chemscore.Internal_Hbond.Weighted>
0.0000

> <Gold.Chemscore.DEClash.Weighted>
0.0000

> <Gold.Chemscore.DEInternal.Weighted>
1.2353

> <Gold.Chemscore.Rot.Weighted>
2.5600

> <Gold.Chemscore.Internal.Correction.Weighted>
   9.000000E+99

> <Gold.Protein.RotatedTorsions>
[ 6907 6896 6895 6894 ] final  -89.73 input  -60.11 | X-H torsion
[ 7974 7965 7964 7962 ] final -174.98 input  175.53 | X-H torsion
[ 8008 7997 7996 7995 ] final  -41.15 input   59.86 | X-H torsion
[ 10167 10162 10161 10158 ] final -146.62 input  -65.29 | X-H torsion
[ 10718 10713 10712 10709 ] final -107.65 input   66.30 | X-H torsion
[ 10763 10752 10751 10750 ] final   77.81 input  -60.55 | X-H torsion
[ 11005 11000 10999 10996 ] final  -81.45 input  -57.11 | X-H torsion

> <Gold.Protein.ActiveResidues>
 VAL166  LYS551  ARG553  GLY616  TRP617  ASP618  TYR619  PRO620  LYS621  CYS622 
 ASP623  PHE694  ASN695  SER759  ASP760  ASP761  ALA762  ILE779  LEU786  VAL792 
 PHE793  MET794  SER795  GLU796  ALA797  LYS798  CYS799  TRP800  GLU811  SER814 

> <Gold.Protein.RotatedAtoms>
  150.6876  134.2542  159.4522 H   0  0  0  0  0  0  0  0  0  0  0  0  # atno 6907 bound_to 6896
  152.0477  134.9670  160.0583 H   0  0  0  0  0  0  0  0  0  0  0  0  # atno 6908 bound_to 6896
  152.1147  133.4285  159.4684 H   0  0  0  0  0  0  0  0  0  0  0  0  # atno 6909 bound_to 6896
  144.7129  140.1390  143.6393 H   0  0  0  0  0  0  0  0  0  0  0  0  # atno 7974 bound_to 7965
  154.4006  140.1507  156.3143 H   0  0  0  0  0  0  0  0  0  0  0  0  # atno 8008 bound_to 7997
  155.8587  140.3454  155.5720 H   0  0  0  0  0  0  0  0  0  0  0  0  # atno 8009 bound_to 7997
  155.7904  140.0856  157.2002 H   0  0  0  0  0  0  0  0  0  0  0  0  # atno 8010 bound_to 7997
  139.7696  143.8256  152.2622 H   0  0  0  0  0  0  0  0  0  0  0  0  # atno 10167 bound_to 10162
  156.0447  130.5673  150.7851 H   0  0  0  0  0  0  0  0  0  0  0  0  # atno 10718 bound_to 10713
  153.0827  135.4900  154.8535 H   0  0  0  0  0  0  0  0  0  0  0  0  # atno 10763 bound_to 10752
  154.7171  135.3031  154.9109 H   0  0  0  0  0  0  0  0  0  0  0  0  # atno 10764 bound_to 10752
  153.9784  135.6792  153.4802 H   0  0  0  0  0  0  0  0  0  0  0  0  # atno 10765 bound_to 10752
  141.1666  133.7197  156.8424 H   0  0  0  0  0  0  0  0  0  0  0  0  # atno 11005 bound_to 11000
  145.9219  139.2551  143.1376 LP  0  0  0  0  0  0  0  0  0  0  0  0  # atno 17320 bound_to 7965
  145.9612  140.8834  143.0210 LP  0  0  0  0  0  0  0  0  0  0  0  0  # atno 17321 bound_to 7965
  139.8287  144.7263  150.9478 LP  0  0  0  0  0  0  0  0  0  0  0  0  # atno 17342 bound_to 10162
  140.7813  143.4090  151.1023 LP  0  0  0  0  0  0  0  0  0  0  0  0  # atno 17343 bound_to 10162
  157.5308  131.0936  150.9958 LP  0  0  0  0  0  0  0  0  0  0  0  0  # atno 17370 bound_to 10713
  157.0265  130.5694  149.5337 LP  0  0  0  0  0  0  0  0  0  0  0  0  # atno 17371 bound_to 10713
  140.1974  134.8922  157.3130 LP  0  0  0  0  0  0  0  0  0  0  0  0  # atno 17394 bound_to 11000
  140.2224  134.4007  155.7559 LP  0  0  0  0  0  0  0  0  0  0  0  0  # atno 17395 bound_to 11000

$$$$
