AV-unprocessed.smi:2889|AV-procd|sdf|11112|dock8
  -GOLD-   2272015583D 1   1.00000     0.00000
 Structure written by MMmdl.
 35 36  0  0  0  0  0  0  0  0  2 V2000
  151.3496  145.2903  159.5592 C   0  0  0  0  0  0  0  0  0  0  0  0
  151.5659  143.8517  158.4782 S   0  0  0  0  0  0  0  0  0  0  0  0
  152.0322  142.5778  159.6957 C   0  0  2  0  0  0  0  0  0  0  0  0
  152.8816  143.2156  160.8313 C   0  0  0  0  0  0  0  0  0  0  0  0
  153.3474  142.1977  161.8920 C   0  0  0  0  0  0  0  0  0  0  0  0
  154.0908  141.0404  161.1987 C   0  0  0  0  0  0  0  0  0  0  0  0
  153.2433  140.3833  160.0830 C   0  0  0  0  0  0  0  0  0  0  0  0
  152.7525  141.3836  159.0047 C   0  0  1  0  0  0  0  0  0  0  0  0
  151.8474  140.7061  158.0842 N   0  5  0  0  0  0  0  0  0  0  0  0
  152.2292  139.2353  157.5187 S   0  0  0  0  0  0  0  0  0  0  0  0
  153.6233  138.8610  157.8068 O   0  0  0  0  0  0  0  0  0  0  0  0
  151.1951  138.2294  157.8126 O   0  0  0  0  0  0  0  0  0  0  0  0
  152.1469  139.5393  155.7016 C   0  0  0  0  0  0  0  0  0  0  0  0
  150.7655  139.9861  155.3108 C   0  0  0  0  0  0  0  0  0  0  0  0
  150.0691  141.1621  155.7061 C   0  0  0  0  0  0  0  0  0  0  0  0
  148.8735  141.0600  155.0559 C   0  0  0  0  0  0  0  0  0  0  0  0
  148.8330  139.9269  154.3109 O   0  0  0  0  0  0  0  0  0  0  0  0
  150.0464  139.2495  154.4772 N   0  0  0  0  0  0  0  0  0  0  0  0
  151.0273  146.1512  158.9737 H   0  0  0  0  0  0  0  0  0  0  0  0
  152.2839  145.5457  160.0577 H   0  0  0  0  0  0  0  0  0  0  0  0
  150.5929  145.0863  160.3167 H   0  0  0  0  0  0  0  0  0  0  0  0
  151.1090  142.2006  160.1389 H   0  0  0  0  0  0  0  0  0  0  0  0
  153.7551  143.7166  160.4088 H   0  0  0  0  0  0  0  0  0  0  0  0
  152.3070  143.9967  161.3281 H   0  0  0  0  0  0  0  0  0  0  0  0
  153.9929  142.6801  162.6263 H   0  0  0  0  0  0  0  0  0  0  0  0
  152.4847  141.8098  162.4348 H   0  0  0  0  0  0  0  0  0  0  0  0
  155.0345  141.4064  160.7891 H   0  0  0  0  0  0  0  0  0  0  0  0
  154.3604  140.2877  161.9400 H   0  0  0  0  0  0  0  0  0  0  0  0
  153.8268  139.5901  159.6149 H   0  0  0  0  0  0  0  0  0  0  0  0
  152.3834  139.8942  160.5434 H   0  0  0  0  0  0  0  0  0  0  0  0
  153.6287  141.7794  158.4892 H   0  0  0  0  0  0  0  0  0  0  0  0
  152.8877  140.2968  155.4480 H   0  0  0  0  0  0  0  0  0  0  0  0
  152.4270  138.6171  155.1914 H   0  0  0  0  0  0  0  0  0  0  0  0
  150.3949  141.9498  156.3692 H   0  0  0  0  0  0  0  0  0  0  0  0
  147.9923  141.6834  155.0207 H   0  0  0  0  0  0  0  0  0  0  0  0
  1  2  1  0  0  0  0
  1 19  1  0  0  0  0
  1 20  1  0  0  0  0
  1 21  1  0  0  0  0
  2  3  1  0  0  0  0
  3  8  1  0  0  0  0
  3  4  1  0  0  0  0
  3 22  1  0  0  0  0
  4  5  1  0  0  0  0
  4 23  1  0  0  0  0
  4 24  1  0  0  0  0
  5  6  1  0  0  0  0
  5 25  1  0  0  0  0
  5 26  1  0  0  0  0
  6  7  1  0  0  0  0
  6 27  1  0  0  0  0
  6 28  1  0  0  0  0
  7  8  1  0  0  0  0
  7 29  1  0  0  0  0
  7 30  1  0  0  0  0
  8  9  1  0  0  0  0
  8 31  1  0  0  0  0
  9 10  1  0  0  0  0
 10 11  2  0  0  0  0
 10 12  2  0  0  0  0
 10 13  1  0  0  0  0
 13 14  1  0  0  0  0
 13 32  1  0  0  0  0
 13 33  1  0  0  0  0
 14 18  2  0  0  0  0
 14 15  1  0  0  0  0
 15 16  2  0  0  0  0
 15 34  1  0  0  0  0
 16 17  1  0  0  0  0
 16 35  1  0  0  0  0
 17 18  1  0  0  0  0
M  CHG  1   9  -1
M  END
> <s_m_source_file>
AV-unprocessed.smi

> <i_m_source_file_index>
2889

> <i_lp_mmshare_version>
43012

> <i_f3d_flags>
0

> <s_epik_input>
W0NIM11TW0NAQEhdMVtDSDJdW0NIMl1bQ0gyXVtDSDJdW0NASF0xW05IXVMoPU8pKD1PKVtDSDJdYzJbY0hdW2NIXW9uMg==

> <s_epik_cmdline>
J2VwaWtfcHl0aG9uJywgJy1waCcsICc3LjAnLCAnLXRuJywgJzgnLCAnLW1hJywgJzIwMCcsICctbWV0YWxfYmluZGluZycsICctaW1hZScsICc8aW5maWxlLm1hZT4nLCAnLW9tYWUnLCAnPG91dGZpbGUubWFlPic=

> <r_lp_tautomer_probability>
1

> <r_epik_Ionization_Penalty>
4.65467

> <r_epik_Ionization_Penalty_Charging>
4.65467

> <r_epik_Ionization_Penalty_Neutral>
2.71476e-10

> <r_epik_State_Penalty>
4.65444

> <r_epik_Charging_Adjusted_Penalty>
9.30911

> <i_epik_Tot_Q>
-1

> <i_epik_Tot_abs_Q>
1

> <r_epik_Metal_State_Penalty>
0.901484

> <b_epik_Metal_Only>
1

> <s_lp_Force_Field>
OPLS_2005

> <r_lp_Energy>
8.40565

> <b_lp_Chiralities_Consistent>
1

> <s_lp_Variant>
AV-unprocessed.smi:2889-5

> <Gold.Version>
5.8.1

> <Gold.Id.Protein>
6NUR|6NUR_protein|mol2

> <Gold.PLP.Fitness>
44.9867

> <Gold.PLP.PLP>
-40.7073

> <Gold.PLP.part.hbond>
-1.9164

> <Gold.PLP.part.metal>
0.0000

> <Gold.PLP.part.buried>
-2.1707

> <Gold.PLP.part.nonpolar>
-36.1176

> <Gold.PLP.part.repulsive>
0.5449

> <Gold.PLP.ligand.clash>
0.0000

> <Gold.PLP.ligand.torsion>
0.9745

> <Gold.PLP.Chemscore.Hbond>
1.0000

> <Gold.PLP.Chemscore.CHOScore>
0.7381

> <Gold.PLP.Chemscore.Metal>
0.0000

> <Gold.Chemscore.Hbonds>
donor molecule, donor type, donor heavy atom, donor atom, acceptor molecule, acceptor atom, score
      P1  H  7997  8010       L1    11  1.00

> <Gold.PLP.Chemscore.Internal.Correction>
1.0141

> <Gold.Rescore>
     Score         DG    S(hbond)    S(metal)    S(lipo)     H(rot)  DE(clash)    DE(int)     intcor
     16.10     -18.34       0.95        0.00     116.35       1.53       0.14       2.10       ----

> <Gold.Chemscore.Fitness>
16.0990

> <Gold.Chemscore.DG>
-18.3370

> <Gold.Chemscore.ZeroCoef>
-5.4800

> <Gold.Chemscore.Hbond>
0.9475

> <Gold.Chemscore.Metal>
0.0000

> <Gold.Chemscore.Lipo>
116.3485

> <Gold.Chemscore.Internal_Hbond>
0.0000

> <Gold.Chemscore.DEClash>
0.1417

> <Gold.Chemscore.DEInternal>
2.0963

> <Gold.Chemscore.Rot>
1.5314

> <Gold.Chemscore.Internal.Correction>
   9.000000E+99

> <Gold.Chemscore.Hbonds>
donor molecule, donor type, donor heavy atom, donor atom, acceptor molecule, acceptor atom, score
      P1  H  7997  8010       L1    11  0.83

> <Gold.Chemscore.Hbond.Weighted>
-3.1646

> <Gold.Chemscore.Metal.Weighted>
-0.0000

> <Gold.Chemscore.Lipo.Weighted>
-13.6128

> <Gold.Chemscore.Internal_Hbond.Weighted>
0.0000

> <Gold.Chemscore.DEClash.Weighted>
0.1417

> <Gold.Chemscore.DEInternal.Weighted>
2.0963

> <Gold.Chemscore.Rot.Weighted>
3.9205

> <Gold.Chemscore.Internal.Correction.Weighted>
   9.000000E+99

> <Gold.Protein.RotatedTorsions>
[ 6907 6896 6895 6894 ] final  179.52 input  -60.11 | X-H torsion
[ 7974 7965 7964 7962 ] final -147.24 input  175.53 | X-H torsion
[ 8008 7997 7996 7995 ] final   19.04 input   59.86 | X-H torsion
[ 10167 10162 10161 10158 ] final  149.55 input  -65.29 | X-H torsion
[ 10718 10713 10712 10709 ] final   94.57 input   66.30 | X-H torsion
[ 10763 10752 10751 10750 ] final   44.47 input  -60.55 | X-H torsion
[ 11005 11000 10999 10996 ] final -157.49 input  -57.11 | X-H torsion

> <Gold.Protein.ActiveResidues>
 VAL166  LYS551  ARG553  GLY616  TRP617  ASP618  TYR619  PRO620  LYS621  CYS622 
 ASP623  PHE694  ASN695  SER759  ASP760  ASP761  ALA762  ILE779  LEU786  VAL792 
 PHE793  MET794  SER795  GLU796  ALA797  LYS798  CYS799  TRP800  GLU811  SER814 

> <Gold.Protein.RotatedAtoms>
  151.6703  133.3314  159.3194 H   0  0  0  0  0  0  0  0  0  0  0  0  # atno 6907 bound_to 6896
  150.7871  134.6868  159.6484 H   0  0  0  0  0  0  0  0  0  0  0  0  # atno 6908 bound_to 6896
  152.3942  134.6395  160.0147 H   0  0  0  0  0  0  0  0  0  0  0  0  # atno 6909 bound_to 6896
  144.8106  140.5353  143.5645 H   0  0  0  0  0  0  0  0  0  0  0  0  # atno 7974 bound_to 7965
  154.9149  140.3019  155.5246 H   0  0  0  0  0  0  0  0  0  0  0  0  # atno 8008 bound_to 7997
  156.3013  140.2382  156.4128 H   0  0  0  0  0  0  0  0  0  0  0  0  # atno 8009 bound_to 7997
  154.8388  140.0415  157.1516 H   0  0  0  0  0  0  0  0  0  0  0  0  # atno 8010 bound_to 7997
  139.4860  144.5592  151.7261 H   0  0  0  0  0  0  0  0  0  0  0  0  # atno 10167 bound_to 10162
  157.6947  131.0517  150.4206 H   0  0  0  0  0  0  0  0  0  0  0  0  # atno 10718 bound_to 10713
  152.9840  135.6069  154.3279 H   0  0  0  0  0  0  0  0  0  0  0  0  # atno 10763 bound_to 10752
  154.2984  135.2773  155.2624 H   0  0  0  0  0  0  0  0  0  0  0  0  # atno 10764 bound_to 10752
  154.4887  135.5898  153.6499 H   0  0  0  0  0  0  0  0  0  0  0  0  # atno 10765 bound_to 10752
  140.6640  134.4319  157.5234 H   0  0  0  0  0  0  0  0  0  0  0  0  # atno 11005 bound_to 11000
  145.5332  139.1475  143.3488 LP  0  0  0  0  0  0  0  0  0  0  0  0  # atno 17320 bound_to 7965
  146.2404  140.5472  142.8936 LP  0  0  0  0  0  0  0  0  0  0  0  0  # atno 17321 bound_to 7965
  140.5159  144.0953  150.6008 LP  0  0  0  0  0  0  0  0  0  0  0  0  # atno 17342 bound_to 10162
  140.3895  143.2760  152.0077 LP  0  0  0  0  0  0  0  0  0  0  0  0  # atno 17343 bound_to 10162
  156.4581  130.4026  149.6593 LP  0  0  0  0  0  0  0  0  0  0  0  0  # atno 17370 bound_to 10713
  156.3718  130.7534  151.2518 LP  0  0  0  0  0  0  0  0  0  0  0  0  # atno 17371 bound_to 10713
  139.9003  134.8571  156.1923 LP  0  0  0  0  0  0  0  0  0  0  0  0  # atno 17394 bound_to 11000
  141.0443  133.6921  156.1655 LP  0  0  0  0  0  0  0  0  0  0  0  0  # atno 17395 bound_to 11000

$$$$
