#       Name:                AV-unprocessed.smi:2753
#       Creating user name   scv26
#       Creation time:       Fri Mar 27 15:06:16 2020


#       File generated by GOLD software.
#

@<TRIPOS>MOLECULE
AV-unprocessed.smi:2753
    29    30     1
SMALL
NO_CHARGES


@<TRIPOS>ATOM
      1 ****        -4.4543   2.1251  -1.5951 F              1 S1                 0.0000
      2 ****        -3.9684   0.8846  -1.5812 C.3            1 S1                 0.0000
      3 ****        -4.4673   0.2682  -0.5092 F              1 S1                 0.0000
      4 ****        -4.4330   0.2559  -2.6600 F              1 S1                 0.0000
      5 ****        -2.4675   0.8959  -1.5714 C.2            1 S1                 0.0000
      6 ****        -1.6117   1.4472  -2.4986 C.2            1 S1                 0.0000
      7 ****        -0.3368   1.1860  -2.0289 N.pl3          1 S1                 0.0000
      8 ****        -0.4526   0.5116  -0.8784 C.2            1 S1                 0.0000
      9 ****         0.7353   0.0633  -0.0841 C.3            1 S1                 0.0000
     10 ****         0.7857   0.7291   1.3046 C.3            1 S1                 0.0000
     11 ****         2.0052   0.2334   2.0969 C.3            1 S1                 0.0000
     12 ****         2.0223  -1.3022   2.1764 C.3            1 S1                 0.0000
     13 ****         1.9802  -1.8961   0.8224 N.4            1 S1                 1.0000
     14 ****         0.7967  -1.4731   0.0415 C.3            1 S1                 0.0000
     15 ****        -1.7237   0.3026  -0.5467 N.2            1 S1                 0.0000
     16 ****         0.5271   1.4583  -2.4762 H              1 S1                 0.0000
     17 ****        -1.7995   1.9833  -3.4171 H              1 S1                 0.0000
     18 ****         1.6252   0.3822  -0.6302 H              1 S1                 0.0000
     19 ****         0.8239   1.8143   1.2030 H              1 S1                 0.0000
     20 ****        -0.1246   0.5001   1.8609 H              1 S1                 0.0000
     21 ****         2.9202   0.5868   1.6196 H              1 S1                 0.0000
     22 ****         1.9959   0.6590   3.1009 H              1 S1                 0.0000
     23 ****         2.9220  -1.6451   2.6878 H              1 S1                 0.0000
     24 ****         1.1700  -1.6630   2.7540 H              1 S1                 0.0000
     25 ****         2.8120  -1.6158   0.3228 H              1 S1                 0.0000
     26 ****        -0.1025  -1.8553   0.5270 H              1 S1                 0.0000
     27 ****         0.8451  -1.9331  -0.9460 H              1 S1                 0.0000
     28 ****         1.9746  -2.9028   0.9058 H              1 S1                 0.0000
     29 ****        -2.0717  -0.1750   0.2600 LP             1 S1                 0.0000
@<TRIPOS>BOND
    1    1    2 1     
    2    2    3 1     
    3    2    4 1     
    4    2    5 1     
    5    5   15 1     
    6    5    6 2     
    7    6    7 1     
    8    6   17 1     
    9    7   16 1     
   10    7    8 1     
   11    8    9 1     
   12    8   15 2     
   13    9   14 1     
   14    9   10 1     
   15    9   18 1     
   16   10   11 1     
   17   10   19 1     
   18   10   20 1     
   19   11   12 1     
   20   11   21 1     
   21   11   22 1     
   22   12   13 1     
   23   12   23 1     
   24   12   24 1     
   25   13   14 1     
   26   13   25 1     
   27   13   28 1     
   28   14   26 1     
   29   14   27 1     
   30   15   29 1     
@<TRIPOS>SUBSTRUCTURE
      1 S1             1
@<TRIPOS>SET
LONE_PAIRS      STATIC     ATOMS    <user>   **** ""
1 29
DONOR_HYDROGENS      STATIC     ATOMS    <user>   **** ""
3 16 25 28
ATOM$BLUE        STATIC     ATOMS    COLORGROUP SYSTEM
1 29
ATOM$RED        STATIC     ATOMS    COLORGROUP SYSTEM
3 16 25 28
