AV-unprocessed.smi:1585|AV-procd|sdf|6372|dock2
  -GOLD-   22720 7 03D 1   1.00000     0.00000
 Structure written by MMmdl.
 42 43  0  0  0  0  0  0  0  0  3 V2000
  152.7487  139.5266  159.1084 C   0  0  0  0  0  0  0  0  0  0  0  0
  152.3025  139.5183  157.6863 C   0  0  0  0  0  0  0  0  0  0  0  0
  151.2483  140.0987  157.0398 C   0  0  0  0  0  0  0  0  0  0  0  0
  151.4203  139.6761  155.6934 C   0  0  0  0  0  0  0  0  0  0  0  0
  150.6306  139.9985  154.6573 N   0  5  0  0  0  0  0  0  0  0  0  0
  149.2902  140.0696  154.8198 C   0  0  0  0  0  0  0  0  0  0  0  0
  148.6836  140.0886  155.8932 O   0  0  0  0  0  0  0  0  0  0  0  0
  148.6100  140.1148  153.6662 N   0  0  0  0  0  0  0  0  0  0  0  0
  147.1583  140.1633  153.5298 C   0  0  0  0  0  0  0  0  0  0  0  0
  146.6239  138.9933  152.6770 C   0  0  1  0  0  0  0  0  0  0  0  0
  147.6501  138.5718  151.7996 O   0  0  0  0  0  0  0  0  0  0  0  0
  146.2517  137.7769  153.5476 C   0  0  0  0  0  0  0  0  0  0  0  0
  146.2143  136.5138  152.7667 N   0  3  0  0  0  0  0  0  0  0  0  0
  146.0476  135.3177  153.6325 C   0  0  0  0  0  0  0  0  0  0  0  0
  146.1613  134.0194  152.8157 C   0  0  0  0  0  0  0  0  0  0  0  0
  145.1483  134.0035  151.6638 C   0  0  0  0  0  0  0  0  0  0  0  0
  145.3161  135.2622  150.8026 C   0  0  0  0  0  0  0  0  0  0  0  0
  145.2191  136.5347  151.6608 C   0  0  0  0  0  0  0  0  0  0  0  0
  152.4942  138.9208  155.5336 N   0  0  0  0  0  0  0  0  0  0  0  0
  153.0626  138.8103  156.8082 O   0  0  0  0  0  0  0  0  0  0  0  0
  153.4451  140.3457  159.2884 H   0  0  0  0  0  0  0  0  0  0  0  0
  153.2489  138.5924  159.3659 H   0  0  0  0  0  0  0  0  0  0  0  0
  151.8988  139.6501  159.7799 H   0  0  0  0  0  0  0  0  0  0  0  0
  150.4748  140.7226  157.4619 H   0  0  0  0  0  0  0  0  0  0  0  0
  149.1495  140.1039  152.8127 H   0  0  0  0  0  0  0  0  0  0  0  0
  146.6654  140.2195  154.5022 H   0  0  0  0  0  0  0  0  0  0  0  0
  146.9422  141.1075  153.0295 H   0  0  0  0  0  0  0  0  0  0  0  0
  145.7632  139.3249  152.0960 H   0  0  0  0  0  0  0  0  0  0  0  0
  148.4214  139.0927  151.9740 H   0  0  0  0  0  0  0  0  0  0  0  0
  146.9815  137.6955  154.3551 H   0  0  0  0  0  0  0  0  0  0  0  0
  145.2844  137.9277  154.0296 H   0  0  0  0  0  0  0  0  0  0  0  0
  146.8131  135.3161  154.4096 H   0  0  0  0  0  0  0  0  0  0  0  0
  145.0814  135.3638  154.1374 H   0  0  0  0  0  0  0  0  0  0  0  0
  147.1720  133.9254  152.4159 H   0  0  0  0  0  0  0  0  0  0  0  0
  146.0033  133.1562  153.4630 H   0  0  0  0  0  0  0  0  0  0  0  0
  145.2823  133.1088  151.0552 H   0  0  0  0  0  0  0  0  0  0  0  0
  144.1343  133.9612  152.0639 H   0  0  0  0  0  0  0  0  0  0  0  0
  146.2819  135.2347  150.2963 H   0  0  0  0  0  0  0  0  0  0  0  0
  144.5569  135.2813  150.0200 H   0  0  0  0  0  0  0  0  0  0  0  0
  144.2145  136.6286  152.0761 H   0  0  0  0  0  0  0  0  0  0  0  0
  145.3772  137.4036  151.0226 H   0  0  0  0  0  0  0  0  0  0  0  0
  147.1270  136.4269  152.3416 H   0  0  0  0  0  0  0  0  0  0  0  0
  1  2  1  0  0  0  0
  1 21  1  0  0  0  0
  1 22  1  0  0  0  0
  1 23  1  0  0  0  0
  2 20  1  0  0  0  0
  2  3  2  0  0  0  0
  3  4  1  0  0  0  0
  3 24  1  0  0  0  0
  4  5  1  0  0  0  0
  4 19  2  0  0  0  0
  5  6  1  0  0  0  0
  6  7  2  0  0  0  0
  6  8  1  0  0  0  0
  8  9  1  0  0  0  0
  8 25  1  0  0  0  0
  9 10  1  0  0  0  0
  9 26  1  0  0  0  0
  9 27  1  0  0  0  0
 10 11  1  0  0  0  0
 10 12  1  0  0  0  0
 10 28  1  0  0  0  0
 11 29  1  0  0  0  0
 12 13  1  0  0  0  0
 12 30  1  0  0  0  0
 12 31  1  0  0  0  0
 13 18  1  0  0  0  0
 13 14  1  0  0  0  0
 13 42  1  0  0  0  0
 14 15  1  0  0  0  0
 14 32  1  0  0  0  0
 14 33  1  0  0  0  0
 15 16  1  0  0  0  0
 15 34  1  0  0  0  0
 15 35  1  0  0  0  0
 16 17  1  0  0  0  0
 16 36  1  0  0  0  0
 16 37  1  0  0  0  0
 17 18  1  0  0  0  0
 17 38  1  0  0  0  0
 17 39  1  0  0  0  0
 18 40  1  0  0  0  0
 18 41  1  0  0  0  0
 19 20  1  0  0  0  0
M  CHG  1   5  -1
M  CHG  1  13   1
M  END
> <s_m_source_file>
AV-unprocessed.smi

> <i_m_source_file_index>
1585

> <i_lp_mmshare_version>
43012

> <i_f3d_flags>
0

> <s_epik_input>
W0NIM11jMVtjSF1jKG5vMSlbTkhdQyg9TylbTkhdW0NIMl1bQ0BIXShbT0hdKVtDSDJdTjJbQ0gyXVtDSDJdW0NIMl1bQ0gyXVtDSDJdMg==

> <s_epik_cmdline>
J2VwaWtfcHl0aG9uJywgJy1waCcsICc3LjAnLCAnLXRuJywgJzgnLCAnLW1hJywgJzIwMCcsICctbWV0YWxfYmluZGluZycsICctaW1hZScsICc8aW5maWxlLm1hZT4nLCAnLW9tYWUnLCAnPG91dGZpbGUubWFlPic=

> <r_epik_Ionization_Penalty>
6.29903

> <r_epik_Ionization_Penalty_Charging>
6.29893

> <r_epik_Ionization_Penalty_Neutral>
0.000107719

> <r_epik_State_Penalty>
6.29786

> <r_epik_Charging_Adjusted_Penalty>
12.5968

> <i_epik_Tot_Q>
0

> <i_epik_Tot_abs_Q>
2

> <r_epik_Metal_State_Penalty>
2.22942

> <b_epik_Metal_Only>
1

> <s_lp_Force_Field>
OPLS_2005

> <r_lp_Energy>
6.33274

> <b_lp_Chiralities_Consistent>
1

> <s_lp_Variant>
AV-unprocessed.smi:1585-4

> <Gold.Version>
5.8.1

> <Gold.Id.Protein>
6NUR|6NUR_protein|mol2

> <Gold.PLP.Fitness>
53.6375

> <Gold.PLP.PLP>
-34.9673

> <Gold.PLP.part.hbond>
-7.1451

> <Gold.PLP.part.metal>
0.0000

> <Gold.PLP.part.buried>
-4.9650

> <Gold.PLP.part.nonpolar>
-23.8781

> <Gold.PLP.part.repulsive>
0.3049

> <Gold.PLP.ligand.clash>
0.0000

> <Gold.PLP.ligand.torsion>
0.9640

> <Gold.PLP.Chemscore.Hbond>
6.8240

> <Gold.PLP.Chemscore.CHOScore>
0.0000

> <Gold.PLP.Chemscore.Metal>
0.0000

> <Gold.Chemscore.Hbonds>
donor molecule, donor type, donor heavy atom, donor atom, acceptor molecule, acceptor atom, score
      L1  H     8    25       P1  7957  1.00
      L1  H    11    29       P1  7957  0.78
      L1  H    13    42       P1  7948  2.00
      P1  H  7954  7966       L1    11  0.76
      P1  H  7989  7998       L1     5  1.00
      P1  H  7997  8008       L1    20  0.75

> <Gold.PLP.Chemscore.Internal.Correction>
0.1261

> <Gold.Rescore>
     Score         DG    S(hbond)    S(metal)    S(lipo)     H(rot)  DE(clash)    DE(int)     intcor
     16.92     -19.29       4.03        0.00      56.49       2.45       0.09       2.27       ----

> <Gold.Chemscore.Fitness>
16.9227

> <Gold.Chemscore.DG>
-19.2863

> <Gold.Chemscore.ZeroCoef>
-5.4800

> <Gold.Chemscore.Hbond>
4.0294

> <Gold.Chemscore.Metal>
0.0000

> <Gold.Chemscore.Lipo>
56.4928

> <Gold.Chemscore.Internal_Hbond>
0.0000

> <Gold.Chemscore.DEClash>
0.0915

> <Gold.Chemscore.DEInternal>
2.2721

> <Gold.Chemscore.Rot>
2.4459

> <Gold.Chemscore.Internal.Correction>
   9.000000E+99

> <Gold.Chemscore.Hbonds>
donor molecule, donor type, donor heavy atom, donor atom, acceptor molecule, acceptor atom, score
      L1  H     8    25       P1  7957  1.00
      L1  H    11    29       P1  7957  0.76
      L1  H    13    42       P1  7948  1.00
      P1  H  7954  7966       L1    11  0.14
      P1  H  7989  7998       L1     5  0.60
      P1  H  7997  8008       L1    20  0.04

> <Gold.Chemscore.Hbond.Weighted>
-13.4582

> <Gold.Chemscore.Metal.Weighted>
-0.0000

> <Gold.Chemscore.Lipo.Weighted>
-6.6097

> <Gold.Chemscore.Internal_Hbond.Weighted>
0.0000

> <Gold.Chemscore.DEClash.Weighted>
0.0915

> <Gold.Chemscore.DEInternal.Weighted>
2.2721

> <Gold.Chemscore.Rot.Weighted>
6.2615

> <Gold.Chemscore.Internal.Correction.Weighted>
   9.000000E+99

> <Gold.Protein.RotatedTorsions>
[ 6907 6896 6895 6894 ] final   54.64 input  -60.11 | X-H torsion
[ 7974 7965 7964 7962 ] final  -41.76 input  175.53 | X-H torsion
[ 8008 7997 7996 7995 ] final  -68.97 input   59.86 | X-H torsion
[ 10167 10162 10161 10158 ] final  -47.01 input  -65.29 | X-H torsion
[ 10718 10713 10712 10709 ] final   58.59 input   66.30 | X-H torsion
[ 10763 10752 10751 10750 ] final    9.87 input  -60.55 | X-H torsion
[ 11005 11000 10999 10996 ] final  106.96 input  -57.11 | X-H torsion

> <Gold.Protein.ActiveResidues>
 VAL166  LYS551  ARG553  GLY616  TRP617  ASP618  TYR619  PRO620  LYS621  CYS622 
 ASP623  PHE694  ASN695  SER759  ASP760  ASP761  ALA762  ILE779  LEU786  VAL792 
 PHE793  MET794  SER795  GLU796  ALA797  LYS798  CYS799  TRP800  GLU811  SER814 

> <Gold.Protein.RotatedAtoms>
  152.3459  134.7072  160.0250 H   0  0  0  0  0  0  0  0  0  0  0  0  # atno 6907 bound_to 6896
  151.7441  133.3318  159.3382 H   0  0  0  0  0  0  0  0  0  0  0  0  # atno 6908 bound_to 6896
  150.7509  134.6184  159.6167 H   0  0  0  0  0  0  0  0  0  0  0  0  # atno 6909 bound_to 6896
  146.0180  140.6884  142.9192 H   0  0  0  0  0  0  0  0  0  0  0  0  # atno 7974 bound_to 7965
  154.4905  140.0862  156.7584 H   0  0  0  0  0  0  0  0  0  0  0  0  # atno 8008 bound_to 7997
  155.4242  140.3447  155.4256 H   0  0  0  0  0  0  0  0  0  0  0  0  # atno 8009 bound_to 7997
  156.1323  140.1505  156.9035 H   0  0  0  0  0  0  0  0  0  0  0  0  # atno 8010 bound_to 7997
  140.6793  143.2804  151.3864 H   0  0  0  0  0  0  0  0  0  0  0  0  # atno 10167 bound_to 10162
  157.5608  130.8834  149.9108 H   0  0  0  0  0  0  0  0  0  0  0  0  # atno 10718 bound_to 10713
  153.2093  135.6867  153.8133 H   0  0  0  0  0  0  0  0  0  0  0  0  # atno 10763 bound_to 10752
  153.7371  135.3244  155.3298 H   0  0  0  0  0  0  0  0  0  0  0  0  # atno 10764 bound_to 10752
  154.8214  135.4649  154.0894 H   0  0  0  0  0  0  0  0  0  0  0  0  # atno 10765 bound_to 10752
  139.8821  134.9386  156.5747 H   0  0  0  0  0  0  0  0  0  0  0  0  # atno 11005 bound_to 11000
  144.6978  140.3516  143.7181 LP  0  0  0  0  0  0  0  0  0  0  0  0  # atno 17320 bound_to 7965
  145.7238  139.1717  143.2469 LP  0  0  0  0  0  0  0  0  0  0  0  0  # atno 17321 bound_to 7965
  139.6106  144.1107  152.2294 LP  0  0  0  0  0  0  0  0  0  0  0  0  # atno 17342 bound_to 10162
  140.0520  144.5925  150.7329 LP  0  0  0  0  0  0  0  0  0  0  0  0  # atno 17343 bound_to 10162
  156.0661  130.3692  150.0876 LP  0  0  0  0  0  0  0  0  0  0  0  0  # atno 17370 bound_to 10713
  156.9040  130.9629  151.3572 LP  0  0  0  0  0  0  0  0  0  0  0  0  # atno 17371 bound_to 10713
  140.8072  133.8458  155.8778 LP  0  0  0  0  0  0  0  0  0  0  0  0  # atno 17394 bound_to 11000
  140.9539  134.1743  157.4706 LP  0  0  0  0  0  0  0  0  0  0  0  0  # atno 17395 bound_to 11000

$$$$
