AV-unprocessed.smi:1389|AV-procd|sdf|5652|dock5
  -GOLD-   22720 5273D 1   1.00000     0.00000
 Structure written by MMmdl.
 53 55  0  0  0  0  0  0  0  0  3 V2000
  149.3295  135.9681  156.6751 C   0  0  0  0  0  0  0  0  0  0  0  0
  149.1748  135.9879  155.1339 C   0  0  2  0  0  0  0  0  0  0  0  0
  149.7835  134.7030  154.5053 C   0  0  0  0  0  0  0  0  0  0  0  0
  148.8317  133.9448  153.6950 N   0  0  0  0  0  0  0  0  0  0  0  0
  148.5326  132.6479  153.8607 C   0  0  0  0  0  0  0  0  0  0  0  0
  149.0124  131.9476  154.7519 O   0  0  0  0  0  0  0  0  0  0  0  0
  147.6640  132.2218  152.9284 N   0  0  0  0  0  0  0  0  0  0  0  0
  147.1348  130.9101  152.7626 C   0  0  0  0  0  0  0  0  0  0  0  0
  147.6944  129.7767  153.4059 C   0  0  0  0  0  0  0  0  0  0  0  0
  147.1127  128.5075  153.2167 C   0  0  0  0  0  0  0  0  0  0  0  0
  145.9756  128.3909  152.3967 C   0  0  0  0  0  0  0  0  0  0  0  0
  145.4572  129.4909  151.8115 N   0  3  0  0  0  0  0  0  0  0  0  0
  145.9792  130.7335  151.9592 C   0  0  0  0  0  0  0  0  0  0  0  0
  145.3576  131.8142  151.3097 N   0  0  0  0  0  0  0  0  0  0  0  0
  145.3945  131.7899  149.8564 C   0  0  0  0  0  0  0  0  0  0  0  0
  144.3503  132.8142  149.4058 C   0  0  0  0  0  0  0  0  0  0  0  0
  143.3975  132.9556  150.5992 C   0  0  0  0  0  0  0  0  0  0  0  0
  143.9660  132.0228  151.6723 C   0  0  0  0  0  0  0  0  0  0  0  0
  149.7599  137.2270  154.5167 N   0  3  0  0  0  0  0  0  0  0  0  0
  149.1314  138.4855  155.0090 C   0  0  0  0  0  0  0  0  0  0  0  0
  149.7399  139.7235  154.3302 C   0  0  0  0  0  0  0  0  0  0  0  0
  151.1394  139.7517  154.5587 O   0  0  0  0  0  0  0  0  0  0  0  0
  151.7745  138.6212  153.9840 C   0  0  0  0  0  0  0  0  0  0  0  0
  151.2424  137.3332  154.6358 C   0  0  0  0  0  0  0  0  0  0  0  0
  148.9318  135.0547  157.1151 H   0  0  0  0  0  0  0  0  0  0  0  0
  148.7762  136.7728  157.1579 H   0  0  0  0  0  0  0  0  0  0  0  0
  150.3763  136.0457  156.9704 H   0  0  0  0  0  0  0  0  0  0  0  0
  148.1047  135.9923  154.9208 H   0  0  0  0  0  0  0  0  0  0  0  0
  150.5921  134.9467  153.8193 H   0  0  0  0  0  0  0  0  0  0  0  0
  150.2243  134.0780  155.2839 H   0  0  0  0  0  0  0  0  0  0  0  0
  148.3870  134.4414  152.9366 H   0  0  0  0  0  0  0  0  0  0  0  0
  147.4291  132.8818  152.2014 H   0  0  0  0  0  0  0  0  0  0  0  0
  148.5536  129.8610  154.0537 H   0  0  0  0  0  0  0  0  0  0  0  0
  147.5312  127.6360  153.6990 H   0  0  0  0  0  0  0  0  0  0  0  0
  145.4647  127.4599  152.1977 H   0  0  0  0  0  0  0  0  0  0  0  0
  146.3885  132.0405  149.4845 H   0  0  0  0  0  0  0  0  0  0  0  0
  145.1328  130.8008  149.4780 H   0  0  0  0  0  0  0  0  0  0  0  0
  144.8260  133.7729  149.1955 H   0  0  0  0  0  0  0  0  0  0  0  0
  143.8365  132.4928  148.4993 H   0  0  0  0  0  0  0  0  0  0  0  0
  143.3961  133.9873  150.9530 H   0  0  0  0  0  0  0  0  0  0  0  0
  142.3711  132.6916  150.3431 H   0  0  0  0  0  0  0  0  0  0  0  0
  143.4264  131.0746  151.6703 H   0  0  0  0  0  0  0  0  0  0  0  0
  143.8802  132.4575  152.6686 H   0  0  0  0  0  0  0  0  0  0  0  0
  148.0628  138.5022  154.8068 H   0  0  0  0  0  0  0  0  0  0  0  0
  149.2562  138.5567  156.0906 H   0  0  0  0  0  0  0  0  0  0  0  0
  149.5292  139.7260  153.2592 H   0  0  0  0  0  0  0  0  0  0  0  0
  149.2983  140.6312  154.7418 H   0  0  0  0  0  0  0  0  0  0  0  0
  151.6158  138.6071  152.9044 H   0  0  0  0  0  0  0  0  0  0  0  0
  152.8497  138.7045  154.1443 H   0  0  0  0  0  0  0  0  0  0  0  0
  151.5275  137.3017  155.6885 H   0  0  0  0  0  0  0  0  0  0  0  0
  151.7354  136.5001  154.1374 H   0  0  0  0  0  0  0  0  0  0  0  0
  149.5627  137.1737  153.5273 H   0  0  0  0  0  0  0  0  0  0  0  0
  144.6284  129.3803  151.2269 H   0  0  0  0  0  0  0  0  0  0  0  0
  1  2  1  0  0  0  0
  1 25  1  0  0  0  0
  1 26  1  0  0  0  0
  1 27  1  0  0  0  0
  2  3  1  0  0  0  0
  2 19  1  0  0  0  0
  2 28  1  0  0  0  0
  3  4  1  0  0  0  0
  3 29  1  0  0  0  0
  3 30  1  0  0  0  0
  4  5  1  0  0  0  0
  4 31  1  0  0  0  0
  5  6  2  0  0  0  0
  5  7  1  0  0  0  0
  7  8  1  0  0  0  0
  7 32  1  0  0  0  0
  8 13  1  0  0  0  0
  8  9  2  0  0  0  0
  9 10  1  0  0  0  0
  9 33  1  0  0  0  0
 10 11  2  0  0  0  0
 10 34  1  0  0  0  0
 11 12  1  0  0  0  0
 11 35  1  0  0  0  0
 12 13  2  0  0  0  0
 12 53  1  0  0  0  0
 13 14  1  0  0  0  0
 14 18  1  0  0  0  0
 14 15  1  0  0  0  0
 15 16  1  0  0  0  0
 15 36  1  0  0  0  0
 15 37  1  0  0  0  0
 16 17  1  0  0  0  0
 16 38  1  0  0  0  0
 16 39  1  0  0  0  0
 17 18  1  0  0  0  0
 17 40  1  0  0  0  0
 17 41  1  0  0  0  0
 18 42  1  0  0  0  0
 18 43  1  0  0  0  0
 19 24  1  0  0  0  0
 19 20  1  0  0  0  0
 19 52  1  0  0  0  0
 20 21  1  0  0  0  0
 20 44  1  0  0  0  0
 20 45  1  0  0  0  0
 21 22  1  0  0  0  0
 21 46  1  0  0  0  0
 21 47  1  0  0  0  0
 22 23  1  0  0  0  0
 23 24  1  0  0  0  0
 23 48  1  0  0  0  0
 23 49  1  0  0  0  0
 24 50  1  0  0  0  0
 24 51  1  0  0  0  0
M  CHG  1  12   1
M  CHG  1  19   1
M  END
> <s_m_source_file>
AV-unprocessed.smi

> <i_m_source_file_index>
1389

> <i_lp_mmshare_version>
43012

> <i_f3d_flags>
0

> <s_epik_input>
W0NIMl0xW0NIMl1PW0NIMl1bQ0gyXU4xW0NASF0oW0NIM10pW0NIMl1bTkhdQyg9TylbTkhdYzJbY0hdW2NIXVtjSF1uYzJOM1tDSDJdW0NIMl1bQ0gyXVtDSDJdMw==

> <s_epik_cmdline>
J2VwaWtfcHl0aG9uJywgJy1waCcsICc3LjAnLCAnLXRuJywgJzgnLCAnLW1hJywgJzIwMCcsICctbWV0YWxfYmluZGluZycsICctaW1hZScsICc8aW5maWxlLm1hZT4nLCAnLW9tYWUnLCAnPG91dGZpbGUubWFlPic=

> <r_lp_tautomer_probability>
0.999994

> <r_epik_Ionization_Penalty>
1.80872

> <r_epik_Ionization_Penalty_Charging>
1.8087

> <r_epik_Ionization_Penalty_Neutral>
2.02981e-05

> <r_epik_State_Penalty>
1.84892

> <r_epik_Charging_Adjusted_Penalty>
3.65762

> <i_epik_Tot_Q>
2

> <i_epik_Tot_abs_Q>
2

> <r_epik_Metal_State_Penalty>
1.9311

> <b_epik_Metal_Only>
0

> <s_lp_Force_Field>
OPLS_2005

> <r_lp_Energy>
59.2072

> <b_lp_Chiralities_Consistent>
1

> <s_lp_Variant>
AV-unprocessed.smi:1389-7

> <Gold.Version>
5.8.1

> <Gold.Id.Protein>
6NUR|6NUR_protein|mol2

> <Gold.PLP.Fitness>
46.0111

> <Gold.PLP.PLP>
-37.4932

> <Gold.PLP.part.hbond>
-3.2433

> <Gold.PLP.part.metal>
0.0000

> <Gold.PLP.part.buried>
-1.8730

> <Gold.PLP.part.nonpolar>
-32.2813

> <Gold.PLP.part.repulsive>
0.2804

> <Gold.PLP.ligand.clash>
0.0000

> <Gold.PLP.ligand.torsion>
0.8448

> <Gold.PLP.Chemscore.Hbond>
3.3765

> <Gold.PLP.Chemscore.CHOScore>
0.0000

> <Gold.PLP.Chemscore.Metal>
0.0000

> <Gold.Chemscore.Hbonds>
donor molecule, donor type, donor heavy atom, donor atom, acceptor molecule, acceptor atom, score
      L1  H     4    31       P1  7948  0.49
      L1  H    19    52       P1  7948  2.00
      P1  H  7989  7998       L1    22  0.90

> <Gold.PLP.Chemscore.Internal.Correction>
0.0780

> <Gold.Rescore>
     Score         DG    S(hbond)    S(metal)    S(lipo)     H(rot)  DE(clash)    DE(int)     intcor
     14.30     -16.81       1.07        0.00     102.55       1.66       0.34       2.17       ----

> <Gold.Chemscore.Fitness>
14.3026

> <Gold.Chemscore.DG>
-16.8065

> <Gold.Chemscore.ZeroCoef>
-5.4800

> <Gold.Chemscore.Hbond>
1.0727

> <Gold.Chemscore.Metal>
0.0000

> <Gold.Chemscore.Lipo>
102.5491

> <Gold.Chemscore.Internal_Hbond>
0.0000

> <Gold.Chemscore.DEClash>
0.3379

> <Gold.Chemscore.DEInternal>
2.1660

> <Gold.Chemscore.Rot>
1.6620

> <Gold.Chemscore.Internal.Correction>
   9.000000E+99

> <Gold.Chemscore.Hbonds>
donor molecule, donor type, donor heavy atom, donor atom, acceptor molecule, acceptor atom, score
      L1  H     4    31       P1  7948  0.15
      L1  H    19    52       P1  7948  0.81
      P1  H  7989  7998       L1    22  0.06

> <Gold.Chemscore.Hbond.Weighted>
-3.5829

> <Gold.Chemscore.Metal.Weighted>
-0.0000

> <Gold.Chemscore.Lipo.Weighted>
-11.9982

> <Gold.Chemscore.Internal_Hbond.Weighted>
0.0000

> <Gold.Chemscore.DEClash.Weighted>
0.3379

> <Gold.Chemscore.DEInternal.Weighted>
2.1660

> <Gold.Chemscore.Rot.Weighted>
4.2547

> <Gold.Chemscore.Internal.Correction.Weighted>
   9.000000E+99

> <Gold.Protein.RotatedTorsions>
[ 6907 6896 6895 6894 ] final  -98.42 input  -60.11 | X-H torsion
[ 7974 7965 7964 7962 ] final -145.56 input  175.53 | X-H torsion
[ 8008 7997 7996 7995 ] final   74.29 input   59.86 | X-H torsion
[ 10167 10162 10161 10158 ] final   99.75 input  -65.29 | X-H torsion
[ 10718 10713 10712 10709 ] final  -17.68 input   66.30 | X-H torsion
[ 10763 10752 10751 10750 ] final   45.09 input  -60.55 | X-H torsion
[ 11005 11000 10999 10996 ] final -128.99 input  -57.11 | X-H torsion

> <Gold.Protein.ActiveResidues>
 VAL166  LYS551  ARG553  GLY616  TRP617  ASP618  TYR619  PRO620  LYS621  CYS622 
 ASP623  PHE694  ASN695  SER759  ASP760  ASP761  ALA762  ILE779  LEU786  VAL792 
 PHE793  MET794  SER795  GLU796  ALA797  LYS798  CYS799  TRP800  GLU811  SER814 

> <Gold.Protein.RotatedAtoms>
  150.7046  134.1197  159.4030 H   0  0  0  0  0  0  0  0  0  0  0  0  # atno 6907 bound_to 6896
  151.9184  135.0307  160.0529 H   0  0  0  0  0  0  0  0  0  0  0  0  # atno 6908 bound_to 6896
  152.2277  133.4998  159.5235 H   0  0  0  0  0  0  0  0  0  0  0  0  # atno 6909 bound_to 6896
  144.8219  140.5568  143.5573 H   0  0  0  0  0  0  0  0  0  0  0  0  # atno 7974 bound_to 7965
  155.7961  140.3478  155.5376 H   0  0  0  0  0  0  0  0  0  0  0  0  # atno 8008 bound_to 7997
  155.8585  140.0967  157.1649 H   0  0  0  0  0  0  0  0  0  0  0  0  # atno 8009 bound_to 7997
  154.4011  140.1363  156.3918 H   0  0  0  0  0  0  0  0  0  0  0  0  # atno 8010 bound_to 7997
  139.7589  144.6960  151.0321 H   0  0  0  0  0  0  0  0  0  0  0  0  # atno 10167 bound_to 10162
  156.5701  130.4747  149.6366 H   0  0  0  0  0  0  0  0  0  0  0  0  # atno 10718 bound_to 10713
  152.9830  135.6050  154.3379 H   0  0  0  0  0  0  0  0  0  0  0  0  # atno 10763 bound_to 10752
  154.3078  135.2771  155.2582 H   0  0  0  0  0  0  0  0  0  0  0  0  # atno 10764 bound_to 10752
  154.4805  135.5918  153.6442 H   0  0  0  0  0  0  0  0  0  0  0  0  # atno 10765 bound_to 10752
  140.9469  134.1117  157.4098 H   0  0  0  0  0  0  0  0  0  0  0  0  # atno 11005 bound_to 11000
  145.5086  139.1480  143.3617 LP  0  0  0  0  0  0  0  0  0  0  0  0  # atno 17320 bound_to 7965
  146.2524  140.5226  142.8887 LP  0  0  0  0  0  0  0  0  0  0  0  0  # atno 17321 bound_to 7965
  140.7805  143.4720  151.0133 LP  0  0  0  0  0  0  0  0  0  0  0  0  # atno 17342 bound_to 10162
  139.8406  143.7568  152.3180 LP  0  0  0  0  0  0  0  0  0  0  0  0  # atno 17343 bound_to 10162
  156.2722  130.7023  151.1824 LP  0  0  0  0  0  0  0  0  0  0  0  0  # atno 17370 bound_to 10713
  157.7350  131.0576  150.5495 LP  0  0  0  0  0  0  0  0  0  0  0  0  # atno 17371 bound_to 10713
  139.8836  135.0054  156.6312 LP  0  0  0  0  0  0  0  0  0  0  0  0  # atno 17394 bound_to 11000
  140.7656  133.8781  155.8452 LP  0  0  0  0  0  0  0  0  0  0  0  0  # atno 17395 bound_to 11000

$$$$
