AV-unprocessed.smi:2866|AV-procd|sdf|11020|dock4
  -GOLD-   2272015483D 1   1.00000     0.00000
 Structure written by MMmdl.
 41 43  0  0  0  0  0  0  0  0  1 V2000
  153.4066  142.3985  160.2889 C   0  0  0  0  0  0  0  0  0  0  0  0
  152.6547  142.0911  159.0060 C   0  0  0  0  0  0  0  0  0  0  0  0
  152.6963  140.7791  158.4829 C   0  0  0  0  0  0  0  0  0  0  0  0
  152.0057  140.4504  157.2959 C   0  0  0  0  0  0  0  0  0  0  0  0
  151.9050  139.2473  156.6182 N   0  0  0  0  0  0  0  0  0  0  0  0
  151.1245  139.5809  155.5945 C   0  0  0  0  0  0  0  0  0  0  0  0
  150.7075  140.8598  155.5280 N   0  0  0  0  0  0  0  0  0  0  0  0
  149.8535  141.4461  154.5106 C   0  0  0  0  0  0  0  0  0  0  0  0
  148.3755  141.5139  154.9508 C   0  0  1  0  0  0  0  0  0  0  0  0
  148.2608  142.2681  156.1413 O   0  0  0  0  0  0  0  0  0  0  0  0
  147.4462  142.1432  153.8939 C   0  0  0  0  0  0  0  0  0  0  0  0
  146.1312  142.4692  154.4163 N   0  0  0  0  0  0  0  0  0  0  0  0
  145.2053  141.6277  154.9937 C   0  0  0  0  0  0  0  0  0  0  0  0
  144.1152  142.3842  155.3151 C   0  0  0  0  0  0  0  0  0  0  0  0
  144.4645  143.6973  154.8847 C   0  0  0  0  0  0  0  0  0  0  0  0
  143.6484  144.9597  154.9784 C   0  0  0  0  0  0  0  0  0  0  0  0
  144.2514  145.8419  155.7751 F   0  0  0  0  0  0  0  0  0  0  0  0
  143.5084  145.5005  153.7681 F   0  0  0  0  0  0  0  0  0  0  0  0
  142.4419  144.6868  155.4754 F   0  0  0  0  0  0  0  0  0  0  0  0
  145.6745  143.7376  154.3430 N   0  0  0  0  0  0  0  0  0  0  0  0
  151.2693  141.4792  156.6392 C   0  0  0  0  0  0  0  0  0  0  0  0
  151.2227  142.7890  157.1481 C   0  0  0  0  0  0  0  0  0  0  0  0
  151.9155  143.0997  158.3370 C   0  0  0  0  0  0  0  0  0  0  0  0
  151.8536  144.5157  158.8817 C   0  0  0  0  0  0  0  0  0  0  0  0
  153.9292  141.5183  160.6642 H   0  0  0  0  0  0  0  0  0  0  0  0
  152.7172  142.7344  161.0638 H   0  0  0  0  0  0  0  0  0  0  0  0
  154.1473  143.1806  160.1207 H   0  0  0  0  0  0  0  0  0  0  0  0
  153.2584  140.0101  158.9921 H   0  0  0  0  0  0  0  0  0  0  0  0
  150.8361  138.8533  154.8498 H   0  0  0  0  0  0  0  0  0  0  0  0
  150.2281  142.4420  154.2707 H   0  0  0  0  0  0  0  0  0  0  0  0
  149.9572  140.8498  153.6034 H   0  0  0  0  0  0  0  0  0  0  0  0
  148.0266  140.5044  155.1722 H   0  0  0  0  0  0  0  0  0  0  0  0
  148.3813  143.1815  155.9298 H   0  0  0  0  0  0  0  0  0  0  0  0
  147.8898  143.0563  153.4941 H   0  0  0  0  0  0  0  0  0  0  0  0
  147.3208  141.4621  153.0509 H   0  0  0  0  0  0  0  0  0  0  0  0
  145.3972  140.5733  155.1282 H   0  0  0  0  0  0  0  0  0  0  0  0
  143.2025  142.0498  155.7855 H   0  0  0  0  0  0  0  0  0  0  0  0
  150.6542  143.5469  156.6295 H   0  0  0  0  0  0  0  0  0  0  0  0
  151.2441  145.1600  158.2474 H   0  0  0  0  0  0  0  0  0  0  0  0
  152.8526  144.9489  158.9363 H   0  0  0  0  0  0  0  0  0  0  0  0
  151.4180  144.5217  159.8811 H   0  0  0  0  0  0  0  0  0  0  0  0
  1  2  1  0  0  0  0
  1 25  1  0  0  0  0
  1 26  1  0  0  0  0
  1 27  1  0  0  0  0
  2 23  1  0  0  0  0
  2  3  2  0  0  0  0
  3  4  1  0  0  0  0
  3 28  1  0  0  0  0
  4 21  2  0  0  0  0
  4  5  1  0  0  0  0
  5  6  2  0  0  0  0
  6  7  1  0  0  0  0
  6 29  1  0  0  0  0
  7  8  1  0  0  0  0
  7 21  1  0  0  0  0
  8  9  1  0  0  0  0
  8 30  1  0  0  0  0
  8 31  1  0  0  0  0
  9 10  1  0  0  0  0
  9 11  1  0  0  0  0
  9 32  1  0  0  0  0
 10 33  1  0  0  0  0
 11 12  1  0  0  0  0
 11 34  1  0  0  0  0
 11 35  1  0  0  0  0
 12 20  1  0  0  0  0
 12 13  1  0  0  0  0
 13 14  2  0  0  0  0
 13 36  1  0  0  0  0
 14 15  1  0  0  0  0
 14 37  1  0  0  0  0
 15 16  1  0  0  0  0
 15 20  2  0  0  0  0
 16 17  1  0  0  0  0
 16 18  1  0  0  0  0
 16 19  1  0  0  0  0
 21 22  1  0  0  0  0
 22 23  2  0  0  0  0
 22 38  1  0  0  0  0
 23 24  1  0  0  0  0
 24 39  1  0  0  0  0
 24 40  1  0  0  0  0
 24 41  1  0  0  0  0
M  END
> <s_m_source_file>
AV-unprocessed.smi

> <i_m_source_file_index>
2866

> <i_lp_mmshare_version>
43012

> <i_f3d_flags>
0

> <s_epik_input>
W0NIM11jKFtjSF0xKWMoW0NIM10pW2NIXWMoYzEyKW4oW2NIXW4yKVtDSDJdW0NASF0oW09IXSlbQ0gyXW4zW2NIXVtjSF1jKG4zKUMoRikoRilG

> <s_epik_cmdline>
J2VwaWtfcHl0aG9uJywgJy1waCcsICc3LjAnLCAnLXRuJywgJzgnLCAnLW1hJywgJzIwMCcsICctbWV0YWxfYmluZGluZycsICctaW1hZScsICc8aW5maWxlLm1hZT4nLCAnLW9tYWUnLCAnPG91dGZpbGUubWFlPic=

> <r_lp_tautomer_probability>
1

> <r_epik_Ionization_Penalty>
0.1021

> <r_epik_Ionization_Penalty_Charging>
0

> <r_epik_Ionization_Penalty_Neutral>
0.1021

> <r_epik_State_Penalty>
0.0920694

> <r_epik_Charging_Adjusted_Penalty>
0.0920694

> <i_epik_Tot_Q>
0

> <i_epik_Tot_abs_Q>
0

> <r_epik_Metal_State_Penalty>
0.0784291

> <b_epik_Metal_Only>
0

> <s_lp_Force_Field>
OPLS_2005

> <r_lp_Energy>
10.7654

> <b_lp_Chiralities_Consistent>
1

> <s_lp_Variant>
AV-unprocessed.smi:2866-2

> <Gold.Version>
5.8.1

> <Gold.Id.Protein>
6NUR|6NUR_protein|mol2

> <Gold.PLP.Fitness>
50.4045

> <Gold.PLP.PLP>
-48.2782

> <Gold.PLP.part.hbond>
-1.0000

> <Gold.PLP.part.metal>
0.0000

> <Gold.PLP.part.buried>
-4.0589

> <Gold.PLP.part.nonpolar>
-43.8464

> <Gold.PLP.part.repulsive>
0.2073

> <Gold.PLP.ligand.clash>
0.0000

> <Gold.PLP.ligand.torsion>
0.4617

> <Gold.PLP.Chemscore.Hbond>
1.0000

> <Gold.PLP.Chemscore.CHOScore>
0.0000

> <Gold.PLP.Chemscore.Metal>
0.0000

> <Gold.Chemscore.Hbonds>
donor molecule, donor type, donor heavy atom, donor atom, acceptor molecule, acceptor atom, score
      L1  H    10    33       P1  8028  1.00

> <Gold.PLP.Chemscore.Internal.Correction>
0.0497

> <Gold.Rescore>
     Score         DG    S(hbond)    S(metal)    S(lipo)     H(rot)  DE(clash)    DE(int)     intcor
     15.04     -15.59       0.91        0.00     113.57       2.42       0.10       0.44       ----

> <Gold.Chemscore.Fitness>
15.0416

> <Gold.Chemscore.DG>
-15.5862

> <Gold.Chemscore.ZeroCoef>
-5.4800

> <Gold.Chemscore.Hbond>
0.9055

> <Gold.Chemscore.Metal>
0.0000

> <Gold.Chemscore.Lipo>
113.5737

> <Gold.Chemscore.Internal_Hbond>
0.0000

> <Gold.Chemscore.DEClash>
0.1048

> <Gold.Chemscore.DEInternal>
0.4399

> <Gold.Chemscore.Rot>
2.4243

> <Gold.Chemscore.Internal.Correction>
   9.000000E+99

> <Gold.Chemscore.Hbonds>
donor molecule, donor type, donor heavy atom, donor atom, acceptor molecule, acceptor atom, score
      L1  H    10    33       P1  8028  0.90

> <Gold.Chemscore.Hbond.Weighted>
-3.0244

> <Gold.Chemscore.Metal.Weighted>
-0.0000

> <Gold.Chemscore.Lipo.Weighted>
-13.2881

> <Gold.Chemscore.Internal_Hbond.Weighted>
0.0000

> <Gold.Chemscore.DEClash.Weighted>
0.1048

> <Gold.Chemscore.DEInternal.Weighted>
0.4399

> <Gold.Chemscore.Rot.Weighted>
6.2063

> <Gold.Chemscore.Internal.Correction.Weighted>
   9.000000E+99

> <Gold.Protein.RotatedTorsions>
[ 6907 6896 6895 6894 ] final  175.54 input  -60.11 | X-H torsion
[ 7974 7965 7964 7962 ] final  -14.52 input  175.53 | X-H torsion
[ 8008 7997 7996 7995 ] final   54.44 input   59.86 | X-H torsion
[ 10167 10162 10161 10158 ] final -111.70 input  -65.29 | X-H torsion
[ 10718 10713 10712 10709 ] final  170.80 input   66.30 | X-H torsion
[ 10763 10752 10751 10750 ] final -178.21 input  -60.55 | X-H torsion
[ 11005 11000 10999 10996 ] final   31.46 input  -57.11 | X-H torsion

> <Gold.Protein.ActiveResidues>
 VAL166  LYS551  ARG553  GLY616  TRP617  ASP618  TYR619  PRO620  LYS621  CYS622 
 ASP623  PHE694  ASN695  SER759  ASP760  ASP761  ALA762  ILE779  LEU786  VAL792 
 PHE793  MET794  SER795  GLU796  ALA797  LYS798  CYS799  TRP800  GLU811  SER814 

> <Gold.Protein.RotatedAtoms>
  151.7346  133.3319  159.3349 H   0  0  0  0  0  0  0  0  0  0  0  0  # atno 6907 bound_to 6896
  150.7598  134.6332  159.6207 H   0  0  0  0  0  0  0  0  0  0  0  0  # atno 6908 bound_to 6896
  152.3570  134.6929  160.0271 H   0  0  0  0  0  0  0  0  0  0  0  0  # atno 6909 bound_to 6896
  146.2070  140.3361  142.8403 H   0  0  0  0  0  0  0  0  0  0  0  0  # atno 7974 bound_to 7965
  155.4847  140.3469  155.4345 H   0  0  0  0  0  0  0  0  0  0  0  0  # atno 8008 bound_to 7997
  156.1016  140.1437  156.9488 H   0  0  0  0  0  0  0  0  0  0  0  0  # atno 8009 bound_to 7997
  154.4697  140.0905  156.7092 H   0  0  0  0  0  0  0  0  0  0  0  0  # atno 8010 bound_to 7997
  140.1307  143.4363  152.1629 H   0  0  0  0  0  0  0  0  0  0  0  0  # atno 10167 bound_to 10162
  157.0028  131.0181  151.2826 H   0  0  0  0  0  0  0  0  0  0  0  0  # atno 10718 bound_to 10713
  154.5506  135.2812  155.1012 H   0  0  0  0  0  0  0  0  0  0  0  0  # atno 10763 bound_to 10752
  154.2459  135.6348  153.5227 H   0  0  0  0  0  0  0  0  0  0  0  0  # atno 10764 bound_to 10752
  153.0002  135.5571  154.6071 H   0  0  0  0  0  0  0  0  0  0  0  0  # atno 10765 bound_to 10752
  140.2837  134.2944  155.7794 H   0  0  0  0  0  0  0  0  0  0  0  0  # atno 11005 bound_to 11000
  144.8818  140.7411  143.5981 LP  0  0  0  0  0  0  0  0  0  0  0  0  # atno 17320 bound_to 7965
  145.3281  139.1768  143.4551 LP  0  0  0  0  0  0  0  0  0  0  0  0  # atno 17321 bound_to 7965
  139.5521  144.7345  151.4403 LP  0  0  0  0  0  0  0  0  0  0  0  0  # atno 17342 bound_to 10162
  140.6819  143.8063  150.7132 LP  0  0  0  0  0  0  0  0  0  0  0  0  # atno 17343 bound_to 10162
  157.5377  130.8100  149.7992 LP  0  0  0  0  0  0  0  0  0  0  0  0  # atno 17370 bound_to 10713
  156.0165  130.3812  150.2096 LP  0  0  0  0  0  0  0  0  0  0  0  0  # atno 17371 bound_to 10713
  141.2158  133.7541  156.9519 LP  0  0  0  0  0  0  0  0  0  0  0  0  # atno 17394 bound_to 11000
  140.1260  134.9387  157.2270 LP  0  0  0  0  0  0  0  0  0  0  0  0  # atno 17395 bound_to 11000

$$$$
