AV-unprocessed.smi:752|AV-procd|sdf|3595|dock10
  -GOLD-   22720 0593D 1   1.00000     0.00000
 Structure written by MMmdl.
 41 42  0  0  0  0  0  0  0  0  1 V2000
  151.3769  145.3863  159.5536 C   0  0  0  0  0  0  0  0  0  0  0  0
  151.8022  144.0459  158.9452 C   0  0  0  0  0  0  0  0  0  0  0  0
  152.6228  143.2248  159.8824 C   0  0  0  0  0  0  0  0  0  0  0  0
  153.1251  142.0286  159.5666 N   0  0  0  0  0  0  0  0  0  0  0  0
  153.8574  141.4560  160.6134 C   0  0  0  0  0  0  0  0  0  0  0  0
  154.5526  140.1391  160.4140 C   0  0  0  0  0  0  0  0  0  0  0  0
  153.5059  139.0267  160.3480 C   0  0  0  0  0  0  0  0  0  0  0  0
  152.8038  138.7794  161.3280 O   0  0  0  0  0  0  0  0  0  0  0  0
  153.4569  138.3328  159.2001 N   0  0  0  0  0  0  0  0  0  0  0  0
  152.7375  137.0819  158.9895 C   0  0  0  0  0  0  0  0  0  0  0  0
  151.7546  137.2037  157.8059 C   0  0  2  0  0  0  0  0  0  0  0  0
  151.1499  138.6187  157.7288 C   0  0  0  0  0  0  0  0  0  0  0  0
  150.2076  138.7635  156.5233 C   0  0  0  0  0  0  0  0  0  0  0  0
  149.0855  137.7128  156.5585 C   0  0  0  0  0  0  0  0  0  0  0  0
  149.6352  136.2797  156.6794 C   0  0  1  0  0  0  0  0  0  0  0  0
  150.2615  135.8903  155.4725 O   0  0  0  0  0  0  0  0  0  0  0  0
  150.6253  136.1455  157.8510 C   0  0  0  0  0  0  0  0  0  0  0  0
  153.8674  142.2283  161.7486 C   0  0  0  0  0  0  0  0  0  0  0  0
  152.9776  143.7108  161.5356 S   0  0  0  0  0  0  0  0  0  0  0  0
  150.7830  145.9632  158.8446 H   0  0  0  0  0  0  0  0  0  0  0  0
  152.2449  145.9864  159.8283 H   0  0  0  0  0  0  0  0  0  0  0  0
  150.7740  145.2374  160.4499 H   0  0  0  0  0  0  0  0  0  0  0  0
  150.9218  143.4727  158.6523 H   0  0  0  0  0  0  0  0  0  0  0  0
  152.3790  144.2170  158.0359 H   0  0  0  0  0  0  0  0  0  0  0  0
  155.1356  140.1445  159.4924 H   0  0  0  0  0  0  0  0  0  0  0  0
  155.2534  139.9377  161.2251 H   0  0  0  0  0  0  0  0  0  0  0  0
  154.0698  138.6274  158.4533 H   0  0  0  0  0  0  0  0  0  0  0  0
  153.4212  136.2460  158.8332 H   0  0  0  0  0  0  0  0  0  0  0  0
  152.1881  136.8607  159.9050 H   0  0  0  0  0  0  0  0  0  0  0  0
  152.3281  137.0426  156.8914 H   0  0  0  0  0  0  0  0  0  0  0  0
  150.6050  138.8389  158.6477 H   0  0  0  0  0  0  0  0  0  0  0  0
  151.9454  139.3610  157.6566 H   0  0  0  0  0  0  0  0  0  0  0  0
  149.7756  139.7644  156.5086 H   0  0  0  0  0  0  0  0  0  0  0  0
  150.7781  138.6620  155.5992 H   0  0  0  0  0  0  0  0  0  0  0  0
  148.4385  137.9172  157.4125 H   0  0  0  0  0  0  0  0  0  0  0  0
  148.4565  137.8042  155.6725 H   0  0  0  0  0  0  0  0  0  0  0  0
  148.8034  135.5926  156.8379 H   0  0  0  0  0  0  0  0  0  0  0  0
  149.6009  135.5487  154.8896 H   0  0  0  0  0  0  0  0  0  0  0  0
  151.0364  135.1361  157.8511 H   0  0  0  0  0  0  0  0  0  0  0  0
  150.0801  136.2476  158.7902 H   0  0  0  0  0  0  0  0  0  0  0  0
  154.3545  142.0207  162.6900 H   0  0  0  0  0  0  0  0  0  0  0  0
  1  2  1  0  0  0  0
  1 20  1  0  0  0  0
  1 21  1  0  0  0  0
  1 22  1  0  0  0  0
  2  3  1  0  0  0  0
  2 23  1  0  0  0  0
  2 24  1  0  0  0  0
  3 19  1  0  0  0  0
  3  4  2  0  0  0  0
  4  5  1  0  0  0  0
  5  6  1  0  0  0  0
  5 18  2  0  0  0  0
  6  7  1  0  0  0  0
  6 25  1  0  0  0  0
  6 26  1  0  0  0  0
  7  8  2  0  0  0  0
  7  9  1  0  0  0  0
  9 10  1  0  0  0  0
  9 27  1  0  0  0  0
 10 11  1  0  0  0  0
 10 28  1  0  0  0  0
 10 29  1  0  0  0  0
 11 17  1  0  0  0  0
 11 12  1  0  0  0  0
 11 30  1  0  0  0  0
 12 13  1  0  0  0  0
 12 31  1  0  0  0  0
 12 32  1  0  0  0  0
 13 14  1  0  0  0  0
 13 33  1  0  0  0  0
 13 34  1  0  0  0  0
 14 15  1  0  0  0  0
 14 35  1  0  0  0  0
 14 36  1  0  0  0  0
 15 16  1  0  0  0  0
 15 17  1  0  0  0  0
 15 37  1  0  0  0  0
 16 38  1  0  0  0  0
 17 39  1  0  0  0  0
 17 40  1  0  0  0  0
 18 19  1  0  0  0  0
 18 41  1  0  0  0  0
M  END
> <s_m_source_file>
AV-unprocessed.smi

> <i_m_source_file_index>
752

> <i_lp_mmshare_version>
43012

> <i_f3d_flags>
0

> <s_epik_input>
W0NIM11bQ0gyXWMxbmMoW2NIXXMxKVtDSDJdQyg9TylbTkhdW0NIMl1bQ0BASF0yW0NIMl1bQ0gyXVtDSDJdW0NAQEhdKFtPSF0pW0NIMl0y

> <s_epik_cmdline>
J2VwaWtfcHl0aG9uJywgJy1waCcsICc3LjAnLCAnLXRuJywgJzgnLCAnLW1hJywgJzIwMCcsICctbWV0YWxfYmluZGluZycsICctaW1hZScsICc8aW5maWxlLm1hZT4nLCAnLW9tYWUnLCAnPG91dGZpbGUubWFlPic=

> <r_lp_tautomer_probability>
1

> <r_epik_Ionization_Penalty>
5.44903e-05

> <r_epik_Ionization_Penalty_Charging>
0

> <r_epik_Ionization_Penalty_Neutral>
5.44903e-05

> <r_epik_State_Penalty>
-0

> <r_epik_Charging_Adjusted_Penalty>
0

> <i_epik_Tot_Q>
0

> <i_epik_Tot_abs_Q>
0

> <r_epik_Metal_State_Penalty>
-0

> <b_epik_Metal_Only>
0

> <s_lp_Force_Field>
OPLS_2005

> <r_lp_Energy>
4.55991

> <b_lp_Chiralities_Consistent>
1

> <s_lp_Variant>
AV-unprocessed.smi:752-1

> <Gold.Version>
5.8.1

> <Gold.Id.Protein>
6NUR|6NUR_protein|mol2

> <Gold.PLP.Fitness>
45.8223

> <Gold.PLP.PLP>
-40.5835

> <Gold.PLP.part.hbond>
-2.0000

> <Gold.PLP.part.metal>
0.0000

> <Gold.PLP.part.buried>
-0.5849

> <Gold.PLP.part.nonpolar>
-38.0044

> <Gold.PLP.part.repulsive>
0.3000

> <Gold.PLP.ligand.clash>
0.0000

> <Gold.PLP.ligand.torsion>
0.3796

> <Gold.PLP.Chemscore.Hbond>
1.9920

> <Gold.PLP.Chemscore.CHOScore>
0.0000

> <Gold.PLP.Chemscore.Metal>
0.0000

> <Gold.PLP.Chemscore.Internal.Correction>
0.0220

> <Gold.Rescore>
     Score         DG    S(hbond)    S(metal)    S(lipo)     H(rot)  DE(clash)    DE(int)     intcor
     18.88     -19.73       1.63        0.00     120.74       2.08       0.42       0.43       ----

> <Gold.Chemscore.Fitness>
18.8773

> <Gold.Chemscore.DG>
-19.7314

> <Gold.Chemscore.ZeroCoef>
-5.4800

> <Gold.Chemscore.Hbond>
1.6345

> <Gold.Chemscore.Metal>
0.0000

> <Gold.Chemscore.Lipo>
120.7444

> <Gold.Chemscore.Internal_Hbond>
0.0000

> <Gold.Chemscore.DEClash>
0.4192

> <Gold.Chemscore.DEInternal>
0.4349

> <Gold.Chemscore.Rot>
2.0840

> <Gold.Chemscore.Internal.Correction>
   9.000000E+99

> <Gold.Chemscore.Hbond.Weighted>
-5.4593

> <Gold.Chemscore.Metal.Weighted>
-0.0000

> <Gold.Chemscore.Lipo.Weighted>
-14.1271

> <Gold.Chemscore.Internal_Hbond.Weighted>
0.0000

> <Gold.Chemscore.DEClash.Weighted>
0.4192

> <Gold.Chemscore.DEInternal.Weighted>
0.4349

> <Gold.Chemscore.Rot.Weighted>
5.3350

> <Gold.Chemscore.Internal.Correction.Weighted>
   9.000000E+99

> <Gold.Protein.RotatedTorsions>
[ 6907 6896 6895 6894 ] final  102.53 input  -60.11 | X-H torsion
[ 7974 7965 7964 7962 ] final -138.49 input  175.53 | X-H torsion
[ 8008 7997 7996 7995 ] final  -21.59 input   59.86 | X-H torsion
[ 10167 10162 10161 10158 ] final   45.34 input  -65.29 | X-H torsion
[ 10718 10713 10712 10709 ] final  -43.83 input   66.30 | X-H torsion
[ 10763 10752 10751 10750 ] final -108.86 input  -60.55 | X-H torsion
[ 11005 11000 10999 10996 ] final  127.57 input  -57.11 | X-H torsion

> <Gold.Protein.ActiveResidues>
 VAL166  LYS551  ARG553  GLY616  TRP617  ASP618  TYR619  PRO620  LYS621  CYS622 
 ASP623  PHE694  ASN695  SER759  ASP760  ASP761  ALA762  ILE779  LEU786  VAL792 
 PHE793  MET794  SER795  GLU796  ALA797  LYS798  CYS799  TRP800  GLU811  SER814 

> <Gold.Protein.RotatedAtoms>
  152.5321  133.9962  159.7873 H   0  0  0  0  0  0  0  0  0  0  0  0  # atno 6907 bound_to 6896
  151.0189  133.5887  159.2681 H   0  0  0  0  0  0  0  0  0  0  0  0  # atno 6908 bound_to 6896
  151.2934  135.0755  159.9266 H   0  0  0  0  0  0  0  0  0  0  0  0  # atno 6909 bound_to 6896
  144.8754  140.6430  143.5240 H   0  0  0  0  0  0  0  0  0  0  0  0  # atno 7974 bound_to 7965
  154.4696  140.2030  156.0029 H   0  0  0  0  0  0  0  0  0  0  0  0  # atno 8008 bound_to 7997
  156.0988  140.3247  155.7884 H   0  0  0  0  0  0  0  0  0  0  0  0  # atno 8009 bound_to 7997
  155.4833  140.0540  157.2955 H   0  0  0  0  0  0  0  0  0  0  0  0  # atno 8010 bound_to 7997
  140.3251  144.2657  150.6176 H   0  0  0  0  0  0  0  0  0  0  0  0  # atno 10167 bound_to 10162
  156.2449  130.4183  149.8717 H   0  0  0  0  0  0  0  0  0  0  0  0  # atno 10718 bound_to 10713
  154.8160  135.4622  154.0645 H   0  0  0  0  0  0  0  0  0  0  0  0  # atno 10763 bound_to 10752
  153.2038  135.6872  153.8205 H   0  0  0  0  0  0  0  0  0  0  0  0  # atno 10764 bound_to 10752
  153.7681  135.3274  155.3324 H   0  0  0  0  0  0  0  0  0  0  0  0  # atno 10765 bound_to 10752
  139.9514  134.9621  156.8874 H   0  0  0  0  0  0  0  0  0  0  0  0  # atno 11005 bound_to 11000
  145.4052  139.1590  143.4156 LP  0  0  0  0  0  0  0  0  0  0  0  0  # atno 17320 bound_to 7965
  146.2959  140.4152  142.8722 LP  0  0  0  0  0  0  0  0  0  0  0  0  # atno 17321 bound_to 7965
  140.5448  143.2217  151.8025 LP  0  0  0  0  0  0  0  0  0  0  0  0  # atno 17342 bound_to 10162
  139.4867  144.4554  151.9605 LP  0  0  0  0  0  0  0  0  0  0  0  0  # atno 17343 bound_to 10162
  156.6286  130.8656  151.3490 LP  0  0  0  0  0  0  0  0  0  0  0  0  # atno 17370 bound_to 10713
  157.7191  130.9535  150.1367 LP  0  0  0  0  0  0  0  0  0  0  0  0  # atno 17371 bound_to 10713
  140.5709  134.0444  155.7430 LP  0  0  0  0  0  0  0  0  0  0  0  0  # atno 17394 bound_to 11000
  141.1178  133.9511  157.2788 LP  0  0  0  0  0  0  0  0  0  0  0  0  # atno 17395 bound_to 11000

$$$$
