AV-unprocessed.smi:2355|AV-procd|sdf|9390|dock3
  -GOLD-   2272013 23D 1   1.00000     0.00000
 Structure written by MMmdl.
 49 50  0  0  0  0  0  0  0  0  2 V2000
  143.8552  133.0953  149.5720 C   0  0  0  0  0  0  0  0  0  0  0  0
  144.8647  132.4878  150.5230 C   0  0  0  0  0  0  0  0  0  0  0  0
  144.7883  131.1258  150.8699 C   0  0  0  0  0  0  0  0  0  0  0  0
  145.7497  130.6111  151.7611 C   0  0  0  0  0  0  0  0  0  0  0  0
  145.7264  129.1548  152.1746 C   0  0  0  0  0  0  0  0  0  0  0  0
  146.7369  131.3626  152.2936 N   0  0  0  0  0  0  0  0  0  0  0  0
  146.8219  132.6755  151.9647 C   0  0  0  0  0  0  0  0  0  0  0  0
  147.8144  133.5508  152.4798 N   0  0  0  0  0  0  0  0  0  0  0  0
  148.4850  133.4469  153.6400 C   0  0  0  0  0  0  0  0  0  0  0  0
  148.4158  132.4960  154.4186 O   0  0  0  0  0  0  0  0  0  0  0  0
  149.2467  134.5291  153.8619 N   0  0  0  0  0  0  0  0  0  0  0  0
  150.1138  134.7556  155.0217 C   0  0  1  0  0  0  0  0  0  0  0  0
  150.9806  133.4998  155.2139 C   0  0  0  0  0  0  0  0  0  0  0  0
  150.9528  136.0555  154.8517 C   0  0  2  0  0  0  0  0  0  0  0  0
  151.8526  136.3629  156.0683 C   0  0  0  0  0  0  0  0  0  0  0  0
  150.0905  137.2156  154.4753 N   0  3  0  0  0  0  0  0  0  0  0  0
  148.8243  137.3547  155.2383 C   0  0  0  0  0  0  0  0  0  0  0  0
  147.9560  138.4534  154.6046 C   0  0  0  0  0  0  0  0  0  0  0  0
  148.6822  139.6773  154.5913 O   0  0  0  0  0  0  0  0  0  0  0  0
  149.8721  139.5879  153.8153 C   0  0  0  0  0  0  0  0  0  0  0  0
  150.8026  138.5132  154.4049 C   0  0  0  0  0  0  0  0  0  0  0  0
  145.8946  133.2722  151.0816 C   0  0  0  0  0  0  0  0  0  0  0  0
  143.6527  132.4155  148.7439 H   0  0  0  0  0  0  0  0  0  0  0  0
  144.2214  134.0348  149.1570 H   0  0  0  0  0  0  0  0  0  0  0  0
  142.9183  133.2915  150.0933 H   0  0  0  0  0  0  0  0  0  0  0  0
  144.0125  130.4937  150.4628 H   0  0  0  0  0  0  0  0  0  0  0  0
  144.7656  128.6955  151.9406 H   0  0  0  0  0  0  0  0  0  0  0  0
  145.8954  129.0570  153.2473 H   0  0  0  0  0  0  0  0  0  0  0  0
  146.5070  128.6026  151.6509 H   0  0  0  0  0  0  0  0  0  0  0  0
  148.0107  134.3636  151.9146 H   0  0  0  0  0  0  0  0  0  0  0  0
  149.2395  135.2566  153.1615 H   0  0  0  0  0  0  0  0  0  0  0  0
  149.4933  134.8504  155.9143 H   0  0  0  0  0  0  0  0  0  0  0  0
  151.5547  133.5428  156.1392 H   0  0  0  0  0  0  0  0  0  0  0  0
  151.6821  133.3691  154.3892 H   0  0  0  0  0  0  0  0  0  0  0  0
  150.3625  132.6028  155.2679 H   0  0  0  0  0  0  0  0  0  0  0  0
  151.6177  135.8742  154.0059 H   0  0  0  0  0  0  0  0  0  0  0  0
  152.6160  135.5969  156.2018 H   0  0  0  0  0  0  0  0  0  0  0  0
  151.2783  136.4147  156.9936 H   0  0  0  0  0  0  0  0  0  0  0  0
  152.3795  137.3092  155.9473 H   0  0  0  0  0  0  0  0  0  0  0  0
  148.2780  136.4120  155.2465 H   0  0  0  0  0  0  0  0  0  0  0  0
  149.0329  137.6146  156.2768 H   0  0  0  0  0  0  0  0  0  0  0  0
  147.6563  138.1801  153.5914 H   0  0  0  0  0  0  0  0  0  0  0  0
  147.0418  138.5900  155.1821 H   0  0  0  0  0  0  0  0  0  0  0  0
  149.6244  139.3595  152.7774 H   0  0  0  0  0  0  0  0  0  0  0  0
  150.3692  140.5581  153.8175 H   0  0  0  0  0  0  0  0  0  0  0  0
  151.1367  138.8102  155.3998 H   0  0  0  0  0  0  0  0  0  0  0  0
  151.6914  138.4210  153.7797 H   0  0  0  0  0  0  0  0  0  0  0  0
  145.9718  134.3210  150.8327 H   0  0  0  0  0  0  0  0  0  0  0  0
  149.8099  137.0237  153.5239 H   0  0  0  0  0  0  0  0  0  0  0  0
  1  2  1  0  0  0  0
  1 23  1  0  0  0  0
  1 24  1  0  0  0  0
  1 25  1  0  0  0  0
  2 22  1  0  0  0  0
  2  3  2  0  0  0  0
  3  4  1  0  0  0  0
  3 26  1  0  0  0  0
  4  5  1  0  0  0  0
  4  6  2  0  0  0  0
  5 27  1  0  0  0  0
  5 28  1  0  0  0  0
  5 29  1  0  0  0  0
  6  7  1  0  0  0  0
  7  8  1  0  0  0  0
  7 22  2  0  0  0  0
  8  9  1  0  0  0  0
  8 30  1  0  0  0  0
  9 10  2  0  0  0  0
  9 11  1  0  0  0  0
 11 12  1  0  0  0  0
 11 31  1  0  0  0  0
 12 13  1  0  0  0  0
 12 14  1  0  0  0  0
 12 32  1  0  0  0  0
 13 33  1  0  0  0  0
 13 34  1  0  0  0  0
 13 35  1  0  0  0  0
 14 15  1  0  0  0  0
 14 16  1  0  0  0  0
 14 36  1  0  0  0  0
 15 37  1  0  0  0  0
 15 38  1  0  0  0  0
 15 39  1  0  0  0  0
 16 21  1  0  0  0  0
 16 17  1  0  0  0  0
 16 49  1  0  0  0  0
 17 18  1  0  0  0  0
 17 40  1  0  0  0  0
 17 41  1  0  0  0  0
 18 19  1  0  0  0  0
 18 42  1  0  0  0  0
 18 43  1  0  0  0  0
 19 20  1  0  0  0  0
 20 21  1  0  0  0  0
 20 44  1  0  0  0  0
 20 45  1  0  0  0  0
 21 46  1  0  0  0  0
 21 47  1  0  0  0  0
 22 48  1  0  0  0  0
M  CHG  1  16   1
M  END
> <s_m_source_file>
AV-unprocessed.smi

> <i_m_source_file_index>
2355

> <i_lp_mmshare_version>
43012

> <i_f3d_flags>
0

> <s_epik_input>
W0NIM11jMVtjSF1jKFtDSDNdKW5jKFtjSF0xKVtOSF1DKD1PKVtOSF1bQ0BIXShbQ0gzXSlbQ0BIXShbQ0gzXSlOMltDSDJdW0NIMl1PW0NIMl1bQ0gyXTI=

> <s_epik_cmdline>
J2VwaWtfcHl0aG9uJywgJy1waCcsICc3LjAnLCAnLXRuJywgJzgnLCAnLW1hJywgJzIwMCcsICctbWV0YWxfYmluZGluZycsICctaW1hZScsICc8aW5maWxlLm1hZT4nLCAnLW9tYWUnLCAnPG91dGZpbGUubWFlPic=

> <r_epik_Ionization_Penalty>
0.602711

> <r_epik_Ionization_Penalty_Charging>
0.602531

> <r_epik_Ionization_Penalty_Neutral>
0.000180055

> <r_epik_State_Penalty>
0.617039

> <r_epik_Charging_Adjusted_Penalty>
1.21957

> <i_epik_Tot_Q>
1

> <i_epik_Tot_abs_Q>
1

> <r_epik_Metal_State_Penalty>
0.617075

> <b_epik_Metal_Only>
0

> <s_lp_Force_Field>
OPLS_2005

> <r_lp_Energy>
26.6532

> <b_lp_Chiralities_Consistent>
1

> <s_lp_Variant>
AV-unprocessed.smi:2355-6

> <Gold.Version>
5.8.1

> <Gold.Id.Protein>
6NUR|6NUR_protein|mol2

> <Gold.PLP.Fitness>
45.3664

> <Gold.PLP.PLP>
-35.0224

> <Gold.PLP.part.hbond>
-3.0000

> <Gold.PLP.part.metal>
0.0000

> <Gold.PLP.part.buried>
-1.5871

> <Gold.PLP.part.nonpolar>
-30.2619

> <Gold.PLP.part.repulsive>
0.3022

> <Gold.PLP.ligand.clash>
0.0000

> <Gold.PLP.ligand.torsion>
0.4874

> <Gold.PLP.Chemscore.Hbond>
3.7240

> <Gold.PLP.Chemscore.CHOScore>
0.0000

> <Gold.PLP.Chemscore.Metal>
0.0000

> <Gold.Chemscore.Hbonds>
donor molecule, donor type, donor heavy atom, donor atom, acceptor molecule, acceptor atom, score
      L1  H     8    30       P1  7948  0.64
      L1  H    11    31       P1  7948  0.80
      L1  H    16    49       P1  7948  2.00

> <Gold.PLP.Chemscore.Internal.Correction>
0.1466

> <Gold.Rescore>
     Score         DG    S(hbond)    S(metal)    S(lipo)     H(rot)  DE(clash)    DE(int)     intcor
     15.03     -19.31       1.96        0.00      93.76       1.45       1.56       2.72       ----

> <Gold.Chemscore.Fitness>
15.0281

> <Gold.Chemscore.DG>
-19.3085

> <Gold.Chemscore.ZeroCoef>
-5.4800

> <Gold.Chemscore.Hbond>
1.9642

> <Gold.Chemscore.Metal>
0.0000

> <Gold.Chemscore.Lipo>
93.7635

> <Gold.Chemscore.Internal_Hbond>
0.0000

> <Gold.Chemscore.DEClash>
1.5609

> <Gold.Chemscore.DEInternal>
2.7195

> <Gold.Chemscore.Rot>
1.4462

> <Gold.Chemscore.Internal.Correction>
   9.000000E+99

> <Gold.Chemscore.Hbonds>
donor molecule, donor type, donor heavy atom, donor atom, acceptor molecule, acceptor atom, score
      L1  H     8    30       P1  7948  0.06
      L1  H    11    31       P1  7948  0.12
      L1  H    16    49       P1  7948  0.53

> <Gold.Chemscore.Hbond.Weighted>
-6.5605

> <Gold.Chemscore.Metal.Weighted>
-0.0000

> <Gold.Chemscore.Lipo.Weighted>
-10.9703

> <Gold.Chemscore.Internal_Hbond.Weighted>
0.0000

> <Gold.Chemscore.DEClash.Weighted>
1.5609

> <Gold.Chemscore.DEInternal.Weighted>
2.7195

> <Gold.Chemscore.Rot.Weighted>
3.7023

> <Gold.Chemscore.Internal.Correction.Weighted>
   9.000000E+99

> <Gold.Protein.RotatedTorsions>
[ 6907 6896 6895 6894 ] final -140.98 input  -60.11 | X-H torsion
[ 7974 7965 7964 7962 ] final  -55.21 input  175.53 | X-H torsion
[ 8008 7997 7996 7995 ] final -154.49 input   59.86 | X-H torsion
[ 10167 10162 10161 10158 ] final   70.57 input  -65.29 | X-H torsion
[ 10718 10713 10712 10709 ] final  160.49 input   66.30 | X-H torsion
[ 10763 10752 10751 10750 ] final   61.06 input  -60.55 | X-H torsion
[ 11005 11000 10999 10996 ] final  -77.98 input  -57.11 | X-H torsion

> <Gold.Protein.ActiveResidues>
 VAL166  LYS551  ARG553  GLY616  TRP617  ASP618  TYR619  PRO620  LYS621  CYS622 
 ASP623  PHE694  ASN695  SER759  ASP760  ASP761  ALA762  ILE779  LEU786  VAL792 
 PHE793  MET794  SER795  GLU796  ALA797  LYS798  CYS799  TRP800  GLU811  SER814 

> <Gold.Protein.RotatedAtoms>
  151.0678  133.5491  159.2629 H   0  0  0  0  0  0  0  0  0  0  0  0  # atno 6907 bound_to 6896
  151.2442  135.0599  159.9047 H   0  0  0  0  0  0  0  0  0  0  0  0  # atno 6908 bound_to 6896
  152.5407  134.0448  159.8137 H   0  0  0  0  0  0  0  0  0  0  0  0  # atno 6909 bound_to 6896
  145.8767  140.8175  142.9860 H   0  0  0  0  0  0  0  0  0  0  0  0  # atno 7974 bound_to 7965
  155.6871  140.0751  157.2462 H   0  0  0  0  0  0  0  0  0  0  0  0  # atno 8008 bound_to 7997
  154.4095  140.1671  156.2098 H   0  0  0  0  0  0  0  0  0  0  0  0  # atno 8009 bound_to 7997
  155.9484  140.3379  155.6390 H   0  0  0  0  0  0  0  0  0  0  0  0  # atno 8010 bound_to 7997
  140.0555  144.5276  150.7332 H   0  0  0  0  0  0  0  0  0  0  0  0  # atno 10167 bound_to 10162
  157.1497  131.0561  151.2286 H   0  0  0  0  0  0  0  0  0  0  0  0  # atno 10718 bound_to 10713
  152.9939  135.5514  154.5973 H   0  0  0  0  0  0  0  0  0  0  0  0  # atno 10763 bound_to 10752
  154.5322  135.2814  155.1172 H   0  0  0  0  0  0  0  0  0  0  0  0  # atno 10764 bound_to 10752
  154.2483  135.6403  153.5284 H   0  0  0  0  0  0  0  0  0  0  0  0  # atno 10765 bound_to 10752
  141.1663  133.7044  156.7903 H   0  0  0  0  0  0  0  0  0  0  0  0  # atno 11005 bound_to 11000
  144.6726  140.1322  143.7443 LP  0  0  0  0  0  0  0  0  0  0  0  0  # atno 17320 bound_to 7965
  145.9072  139.2465  143.1459 LP  0  0  0  0  0  0  0  0  0  0  0  0  # atno 17321 bound_to 7965
  140.7196  143.2576  151.4321 LP  0  0  0  0  0  0  0  0  0  0  0  0  # atno 17342 bound_to 10162
  139.5926  144.1466  152.2106 LP  0  0  0  0  0  0  0  0  0  0  0  0  # atno 17343 bound_to 10162
  157.4231  130.7449  149.6929 LP  0  0  0  0  0  0  0  0  0  0  0  0  # atno 17370 bound_to 10713
  155.9773  130.4065  150.3723 LP  0  0  0  0  0  0  0  0  0  0  0  0  # atno 17371 bound_to 10713
  140.2330  134.8671  157.3496 LP  0  0  0  0  0  0  0  0  0  0  0  0  # atno 17394 bound_to 11000
  140.1871  134.4417  155.7737 LP  0  0  0  0  0  0  0  0  0  0  0  0  # atno 17395 bound_to 11000

$$$$
