#       Name:                AV-unprocessed.smi:155
#       Creating user name   scv26
#       Creation time:       Thu Mar 26 18:53:07 2020


#       File generated by GOLD software.
#

@<TRIPOS>MOLECULE
AV-unprocessed.smi:155
    71    74     1
SMALL
NO_CHARGES


@<TRIPOS>ATOM
      1 ****        -6.6993   0.9837   3.1900 C.3            1 S1                 0.0000
      2 ****        -7.3018   0.5907   1.9208 N.3            1 S1                 0.0000
      3 ****        -8.0946   1.7082   1.4256 C.3            1 S1                 0.0000
      4 ****        -6.2817   0.2502   0.9309 C.3            1 S1                 0.0000
      5 ****        -5.6427  -1.1355   1.1935 C.3            1 S1                 0.0000
      6 ****        -4.1576  -1.1380   1.1266 N.4            1 S1                 1.0000
      7 ****        -3.5190  -0.4367   2.2684 C.3            1 S1                 0.0000
      8 ****        -2.0121  -0.7206   2.3843 C.3            1 S1                 0.0000
      9 ****        -1.1648   0.0244   1.3398 C.3            1 S1                 0.0000
     10 ****        -1.1307  -0.6289   0.0292 N.pl3          1 S1                 0.0000
     11 ****         0.0879  -0.8381  -0.5370 C.ar           1 S1                 0.0000
     12 ****         0.3451  -2.0365  -1.1271 N.ar           1 S1                 0.0000
     13 ****         1.5359  -2.2777  -1.6831 C.ar           1 S1                 0.0000
     14 ****         2.5963  -1.4729  -1.7648 N.ar           1 S1                 0.0000
     15 ****         2.3442  -0.2654  -1.1843 C.ar           1 S1                 0.0000
     16 ****         1.1310   0.1339  -0.5548 C.ar           1 S1                 0.0000
     17 ****         1.2500   1.4418  -0.0957 N.2            1 S1                 0.0000
     18 ****         2.4659   1.7879  -0.4211 C.2            1 S1                 0.0000
     19 ****         3.1925   0.8208  -1.0764 N.pl3          1 S1                 0.0000
     20 ****         4.5594   0.9260  -1.5524 C.3            1 S1                 0.0000
     21 ****         5.5578   0.2164  -0.6137 C.3            1 S1                 0.0000
     22 ****         5.5402   0.8111   0.6688 O.3            1 S1                 0.0000
     23 ****         7.0095   0.1931  -1.1332 C.3            1 S1                 0.0000
     24 ****         7.2643  -0.8498  -2.2242 C.3            1 S1                 0.0000
     25 ****         8.4480  -0.2537  -2.9500 C.3            1 S1                 0.0000
     26 ****         8.1012   1.2308  -2.9287 C.3            1 S1                 0.0000
     27 ****         7.3797   1.4419  -1.7182 O.3            1 S1                 0.0000
     28 ****        -2.2714  -1.3876  -0.4884 C.3            1 S1                 0.0000
     29 ****        -3.6311  -0.7341  -0.2015 C.3            1 S1                 0.0000
     30 ****        -6.1325   0.1653   3.6315 H              1 S1                 0.0000
     31 ****        -7.4722   1.2632   3.9070 H              1 S1                 0.0000
     32 ****        -6.0290   1.8354   3.0658 H              1 S1                 0.0000
     33 ****        -8.5902   1.4434   0.4906 H              1 S1                 0.0000
     34 ****        -7.4749   2.5881   1.2467 H              1 S1                 0.0000
     35 ****        -8.8708   1.9767   2.1431 H              1 S1                 0.0000
     36 ****        -6.7339   0.2264  -0.0617 H              1 S1                 0.0000
     37 ****        -5.5352   1.0447   0.8993 H              1 S1                 0.0000
     38 ****        -5.9444  -1.5411   2.1599 H              1 S1                 0.0000
     39 ****        -6.0268  -1.8488   0.4634 H              1 S1                 0.0000
     40 ****        -3.6995   0.6373   2.2108 H              1 S1                 0.0000
     41 ****        -3.9929  -0.7801   3.1884 H              1 S1                 0.0000
     42 ****        -1.6928  -0.3759   3.3684 H              1 S1                 0.0000
     43 ****        -1.8069  -1.7920   2.3677 H              1 S1                 0.0000
     44 ****        -1.5108   1.0520   1.2239 H              1 S1                 0.0000
     45 ****        -0.1525   0.0881   1.7406 H              1 S1                 0.0000
     46 ****         1.6575  -3.2565  -2.1236 H              1 S1                 0.0000
     47 ****         2.8692   2.7630  -0.1892 H              1 S1                 0.0000
     48 ****         4.5999   0.4957  -2.5531 H              1 S1                 0.0000
     49 ****         4.8108   1.9821  -1.6582 H              1 S1                 0.0000
     50 ****         5.2356  -0.8159  -0.4688 H              1 S1                 0.0000
     51 ****         5.8622   1.6962   0.5908 H              1 S1                 0.0000
     52 ****         7.7009  -0.0093  -0.3129 H              1 S1                 0.0000
     53 ****         7.4662  -1.8429  -1.8221 H              1 S1                 0.0000
     54 ****         6.4152  -0.9265  -2.9038 H              1 S1                 0.0000
     55 ****         9.3646  -0.4361  -2.3872 H              1 S1                 0.0000
     56 ****         8.5788  -0.6482  -3.9579 H              1 S1                 0.0000
     57 ****         8.9843   1.8676  -2.9850 H              1 S1                 0.0000
     58 ****         7.4493   1.4805  -3.7668 H              1 S1                 0.0000
     59 ****        -2.1644  -1.4553  -1.5722 H              1 S1                 0.0000
     60 ****        -2.2454  -2.4112  -0.1121 H              1 S1                 0.0000
     61 ****        -4.3243  -1.0921  -0.9640 H              1 S1                 0.0000
     62 ****        -3.5933   0.3509  -0.3111 H              1 S1                 0.0000
     63 ****        -3.9033  -2.1099   1.2311 H              1 S1                 0.0000
     64 ****        -7.8719  -0.2175   2.0688 LP             1 S1                 0.0000
     65 ****        -0.3628  -2.7426  -1.1450 LP             1 S1                 0.0000
     66 ****         3.4634  -1.7227  -2.1958 LP             1 S1                 0.0000
     67 ****         0.5608   1.9917   0.3762 LP             1 S1                 0.0000
     68 ****         6.1267   0.2917   1.2902 LP             1 S1                 0.0000
     69 ****         4.6053   0.8216   1.0236 LP             1 S1                 0.0000
     70 ****         7.9550   1.9485  -1.0761 LP             1 S1                 0.0000
     71 ****         6.5542   1.9709  -1.9150 LP             1 S1                 0.0000
@<TRIPOS>BOND
    1    1    2 1     
    2    1   30 1     
    3    1   31 1     
    4    1   32 1     
    5    2    3 1     
    6    2    4 1     
    7    3   33 1     
    8    3   34 1     
    9    3   35 1     
   10    4    5 1     
   11    4   36 1     
   12    4   37 1     
   13    5    6 1     
   14    5   38 1     
   15    5   39 1     
   16    6   29 1     
   17    6    7 1     
   18    6   63 1     
   19    7    8 1     
   20    7   40 1     
   21    7   41 1     
   22    8    9 1     
   23    8   42 1     
   24    8   43 1     
   25    9   10 1     
   26    9   44 1     
   27    9   45 1     
   28   10   11 1     
   29   10   28 1     
   30   11   16 ar    
   31   11   12 ar    
   32   12   13 ar    
   33   13   14 ar    
   34   13   46 1     
   35   14   15 ar    
   36   15   19 1     
   37   15   16 ar    
   38   16   17 1     
   39   17   18 2     
   40   18   19 1     
   41   18   47 1     
   42   19   20 1     
   43   20   21 1     
   44   20   48 1     
   45   20   49 1     
   46   21   22 1     
   47   21   23 1     
   48   21   50 1     
   49   22   51 1     
   50   23   27 1     
   51   23   24 1     
   52   23   52 1     
   53   24   25 1     
   54   24   53 1     
   55   24   54 1     
   56   25   26 1     
   57   25   55 1     
   58   25   56 1     
   59   26   27 1     
   60   26   57 1     
   61   26   58 1     
   62   28   29 1     
   63   28   59 1     
   64   28   60 1     
   65   29   61 1     
   66   29   62 1     
   67    2   64 1     
   68   12   65 1     
   69   14   66 1     
   70   17   67 1     
   71   22   68 1     
   72   22   69 1     
   73   27   70 1     
   74   27   71 1     
@<TRIPOS>SUBSTRUCTURE
      1 S1             1
@<TRIPOS>SET
LONE_PAIRS      STATIC     ATOMS    <user>   **** ""
8 64 65 66 67 68 69 70 71
DONOR_HYDROGENS      STATIC     ATOMS    <user>   **** ""
2 63 51
ATOM$BLUE        STATIC     ATOMS    COLORGROUP SYSTEM
8 64 65 66 67 68 69 70 71
ATOM$RED        STATIC     ATOMS    COLORGROUP SYSTEM
2 63 51
