AV-unprocessed.smi:253|AV-procd|sdf|1944|dock4
  -GOLD-   2262021 73D 1   1.00000     0.00000
 Structure written by MMmdl.
 52 54  0  0  0  0  0  0  0  0  1 V2000
  147.4854  132.4442  155.6469 C   0  0  0  0  0  0  0  0  0  0  0  0
  146.2857  133.1296  154.9806 C   0  0  0  0  0  0  0  0  0  0  0  0
  146.4605  133.2262  153.5369 N   0  0  0  0  0  0  0  0  0  0  0  0
  145.6929  132.6158  152.6179 C   0  0  0  0  0  0  0  0  0  0  0  0
  144.7420  131.8944  152.9169 O   0  0  0  0  0  0  0  0  0  0  0  0
  146.0282  132.8299  151.1338 C   0  0  0  0  0  0  0  0  0  0  0  0
  145.0665  133.6808  150.4181 N   0  0  0  0  0  0  0  0  0  0  0  0
  144.0043  133.0299  149.6500 C   0  0  0  0  0  0  0  0  0  0  0  0
  143.6577  131.6201  150.1574 C   0  0  0  0  0  0  0  0  0  0  0  0
  144.8444  134.8936  150.9858 C   0  0  0  0  0  0  0  0  0  0  0  0
  145.9303  135.5733  151.4356 N   0  0  0  0  0  0  0  0  0  0  0  0
  145.7874  136.7731  152.0050 C   0  0  0  0  0  0  0  0  0  0  0  0
  144.6673  137.4622  152.2273 N   0  0  0  0  0  0  0  0  0  0  0  0
  143.5705  136.7777  151.7934 C   0  0  0  0  0  0  0  0  0  0  0  0
  143.5661  135.4982  151.1675 C   0  0  0  0  0  0  0  0  0  0  0  0
  142.2579  135.1228  150.8817 N   0  0  0  0  0  0  0  0  0  0  0  0
  141.5351  136.1238  151.3035 C   0  0  0  0  0  0  0  0  0  0  0  0
  142.2424  137.1586  151.8709 N   0  0  0  0  0  0  0  0  0  0  0  0
  141.6948  138.3870  152.4265 C   0  0  0  0  0  0  0  0  0  0  0  0
  141.0009  139.2942  151.3803 C   0  0  0  0  0  0  0  0  0  0  0  0
  141.9714  139.6502  150.4105 O   0  0  0  0  0  0  0  0  0  0  0  0
  139.8294  138.5888  150.6622 C   0  0  0  0  0  0  0  0  0  0  0  0
  139.0224  139.5582  149.7803 C   0  0  0  0  0  0  0  0  0  0  0  0
  138.5702  140.6632  150.5535 O   0  0  0  0  0  0  0  0  0  0  0  0
  139.6390  141.4379  151.0830 C   0  0  0  0  0  0  0  0  0  0  0  0
  140.4814  140.5837  152.0471 C   0  0  0  0  0  0  0  0  0  0  0  0
  147.3604  132.4118  156.7293 H   0  0  0  0  0  0  0  0  0  0  0  0
  148.4119  132.9783  155.4350 H   0  0  0  0  0  0  0  0  0  0  0  0
  147.6011  131.4183  155.2962 H   0  0  0  0  0  0  0  0  0  0  0  0
  145.3632  132.5972  155.2169 H   0  0  0  0  0  0  0  0  0  0  0  0
  146.1715  134.1387  155.3765 H   0  0  0  0  0  0  0  0  0  0  0  0
  147.2188  133.8058  153.2060 H   0  0  0  0  0  0  0  0  0  0  0  0
  147.0225  133.2743  151.0707 H   0  0  0  0  0  0  0  0  0  0  0  0
  146.1136  131.8517  150.6563 H   0  0  0  0  0  0  0  0  0  0  0  0
  143.1066  133.6454  149.7207 H   0  0  0  0  0  0  0  0  0  0  0  0
  144.2649  133.0063  148.5922 H   0  0  0  0  0  0  0  0  0  0  0  0
  142.8148  131.2098  149.6013 H   0  0  0  0  0  0  0  0  0  0  0  0
  143.3787  131.6425  151.2111 H   0  0  0  0  0  0  0  0  0  0  0  0
  144.4888  130.9243  150.0460 H   0  0  0  0  0  0  0  0  0  0  0  0
  146.7014  137.2485  152.3291 H   0  0  0  0  0  0  0  0  0  0  0  0
  140.4581  136.1322  151.2193 H   0  0  0  0  0  0  0  0  0  0  0  0
  140.9891  138.1165  153.2131 H   0  0  0  0  0  0  0  0  0  0  0  0
  142.5034  138.9277  152.9206 H   0  0  0  0  0  0  0  0  0  0  0  0
  142.7819  139.8464  150.8553 H   0  0  0  0  0  0  0  0  0  0  0  0
  140.1875  137.7556  150.0562 H   0  0  0  0  0  0  0  0  0  0  0  0
  139.1584  138.1592  151.4071 H   0  0  0  0  0  0  0  0  0  0  0  0
  139.6169  139.9098  148.9359 H   0  0  0  0  0  0  0  0  0  0  0  0
  138.1560  139.0455  149.3622 H   0  0  0  0  0  0  0  0  0  0  0  0
  140.2506  141.8374  150.2728 H   0  0  0  0  0  0  0  0  0  0  0  0
  139.2212  142.2939  151.6132 H   0  0  0  0  0  0  0  0  0  0  0  0
  139.8601  140.3205  152.9042 H   0  0  0  0  0  0  0  0  0  0  0  0
  141.3106  141.1726  152.4416 H   0  0  0  0  0  0  0  0  0  0  0  0
  1  2  1  0  0  0  0
  1 27  1  0  0  0  0
  1 28  1  0  0  0  0
  1 29  1  0  0  0  0
  2  3  1  0  0  0  0
  2 30  1  0  0  0  0
  2 31  1  0  0  0  0
  3  4  1  0  0  0  0
  3 32  1  0  0  0  0
  4  5  2  0  0  0  0
  4  6  1  0  0  0  0
  6  7  1  0  0  0  0
  6 33  1  0  0  0  0
  6 34  1  0  0  0  0
  7  8  1  0  0  0  0
  7 10  1  0  0  0  0
  8  9  1  0  0  0  0
  8 35  1  0  0  0  0
  8 36  1  0  0  0  0
  9 37  1  0  0  0  0
  9 38  1  0  0  0  0
  9 39  1  0  0  0  0
 10 15  1  0  0  0  0
 10 11  2  0  0  0  0
 11 12  1  0  0  0  0
 12 13  2  0  0  0  0
 12 40  1  0  0  0  0
 13 14  1  0  0  0  0
 14 18  1  0  0  0  0
 14 15  2  0  0  0  0
 15 16  1  0  0  0  0
 16 17  2  0  0  0  0
 17 18  1  0  0  0  0
 17 41  1  0  0  0  0
 18 19  1  0  0  0  0
 19 20  1  0  0  0  0
 19 42  1  0  0  0  0
 19 43  1  0  0  0  0
 20 26  1  0  0  0  0
 20 21  1  0  0  0  0
 20 22  1  0  0  0  0
 21 44  1  0  0  0  0
 22 23  1  0  0  0  0
 22 45  1  0  0  0  0
 22 46  1  0  0  0  0
 23 24  1  0  0  0  0
 23 47  1  0  0  0  0
 23 48  1  0  0  0  0
 24 25  1  0  0  0  0
 25 26  1  0  0  0  0
 25 49  1  0  0  0  0
 25 50  1  0  0  0  0
 26 51  1  0  0  0  0
 26 52  1  0  0  0  0
M  END
> <s_m_source_file>
AV-unprocessed.smi

> <i_m_source_file_index>
253

> <i_lp_mmshare_version>
43012

> <i_f3d_flags>
0

> <s_epik_input>
W0NIM11bQ0gyXVtOSF1DKD1PKVtDSDJdTihbQ0gyXVtDSDNdKWMobltjSF1uMSljKGMxMiluW2NIXW4yW0NIMl1DMyhbT0hdKVtDSDJdW0NIMl1PW0NIMl1bQ0gyXTM=

> <s_epik_cmdline>
J2VwaWtfcHl0aG9uJywgJy1waCcsICc3LjAnLCAnLXRuJywgJzgnLCAnLW1hJywgJzIwMCcsICctbWV0YWxfYmluZGluZycsICctaW1hZScsICc8aW5maWxlLm1hZT4nLCAnLW9tYWUnLCAnPG91dGZpbGUubWFlPic=

> <r_lp_tautomer_probability>
1

> <r_epik_Ionization_Penalty>
0.000710585

> <r_epik_Ionization_Penalty_Charging>
0

> <r_epik_Ionization_Penalty_Neutral>
0.000710585

> <r_epik_State_Penalty>
0.000343566

> <r_epik_Charging_Adjusted_Penalty>
0.000343566

> <i_epik_Tot_Q>
0

> <i_epik_Tot_abs_Q>
0

> <r_epik_Metal_State_Penalty>
-0

> <b_epik_Metal_Only>
0

> <s_lp_Force_Field>
OPLS_2005

> <r_lp_Energy>
18.5015

> <b_lp_Chiralities_Consistent>
1

> <s_lp_Variant>
AV-unprocessed.smi:253-1

> <Gold.Version>
5.8.1

> <Gold.Id.Protein>
6NUR|6NUR_protein|mol2

> <Gold.PLP.Fitness>
48.3893

> <Gold.PLP.PLP>
-42.6523

> <Gold.PLP.part.hbond>
-2.5780

> <Gold.PLP.part.metal>
0.0000

> <Gold.PLP.part.buried>
-9.3779

> <Gold.PLP.part.nonpolar>
-32.7980

> <Gold.PLP.part.repulsive>
1.3900

> <Gold.PLP.ligand.clash>
0.0000

> <Gold.PLP.ligand.torsion>
0.9409

> <Gold.PLP.Chemscore.Hbond>
1.7500

> <Gold.PLP.Chemscore.CHOScore>
0.4655

> <Gold.PLP.Chemscore.Metal>
0.0000

> <Gold.Chemscore.Hbonds>
donor molecule, donor type, donor heavy atom, donor atom, acceptor molecule, acceptor atom, score
      L1  C    12    40       P1  7948  0.82

> <Gold.PLP.Chemscore.Internal.Correction>
0.9724

> <Gold.Rescore>
     Score         DG    S(hbond)    S(metal)    S(lipo)     H(rot)  DE(clash)    DE(int)     intcor
      7.60     -11.03       1.80        0.00      61.92       3.01       1.73       1.70       ----

> <Gold.Chemscore.Fitness>
7.5981

> <Gold.Chemscore.DG>
-11.0294

> <Gold.Chemscore.ZeroCoef>
-5.4800

> <Gold.Chemscore.Hbond>
1.8013

> <Gold.Chemscore.Metal>
0.0000

> <Gold.Chemscore.Lipo>
61.9225

> <Gold.Chemscore.Internal_Hbond>
0.0000

> <Gold.Chemscore.DEClash>
1.7303

> <Gold.Chemscore.DEInternal>
1.7010

> <Gold.Chemscore.Rot>
3.0125

> <Gold.Chemscore.Internal.Correction>
   9.000000E+99

> <Gold.Chemscore.Hbond.Weighted>
-6.0165

> <Gold.Chemscore.Metal.Weighted>
-0.0000

> <Gold.Chemscore.Lipo.Weighted>
-7.2449

> <Gold.Chemscore.Internal_Hbond.Weighted>
0.0000

> <Gold.Chemscore.DEClash.Weighted>
1.7303

> <Gold.Chemscore.DEInternal.Weighted>
1.7010

> <Gold.Chemscore.Rot.Weighted>
7.7120

> <Gold.Chemscore.Internal.Correction.Weighted>
   9.000000E+99

> <Gold.Protein.RotatedTorsions>
[ 6907 6896 6895 6894 ] final   32.95 input  -60.11 | X-H torsion
[ 7974 7965 7964 7962 ] final    6.88 input  175.53 | X-H torsion
[ 8008 7997 7996 7995 ] final   94.99 input   59.86 | X-H torsion
[ 10167 10162 10161 10158 ] final -123.82 input  -65.29 | X-H torsion
[ 10718 10713 10712 10709 ] final   31.41 input   66.30 | X-H torsion
[ 10763 10752 10751 10750 ] final  102.56 input  -60.55 | X-H torsion
[ 11005 11000 10999 10996 ] final    3.06 input  -57.11 | X-H torsion

> <Gold.Protein.ActiveResidues>
 VAL166  LYS551  ARG553  GLY616  TRP617  ASP618  TYR619  PRO620  LYS621  CYS622 
 ASP623  PHE694  ASN695  SER759  ASP760  ASP761  ALA762  ILE779  LEU786  VAL792 
 PHE793  MET794  SER795  GLU796  ALA797  LYS798  CYS799  TRP800  GLU811  SER814 

> <Gold.Protein.RotatedAtoms>
  152.0817  134.9466  160.0573 H   0  0  0  0  0  0  0  0  0  0  0  0  # atno 6907 bound_to 6896
  152.0752  133.4121  159.4485 H   0  0  0  0  0  0  0  0  0  0  0  0  # atno 6908 bound_to 6896
  150.6836  134.2965  159.4732 H   0  0  0  0  0  0  0  0  0  0  0  0  # atno 6909 bound_to 6896
  146.2431  140.0167  142.8401 H   0  0  0  0  0  0  0  0  0  0  0  0  # atno 7974 bound_to 7965
  156.0640  140.3292  155.7495 H   0  0  0  0  0  0  0  0  0  0  0  0  # atno 8008 bound_to 7997
  155.5410  140.0602  157.2887 H   0  0  0  0  0  0  0  0  0  0  0  0  # atno 8009 bound_to 7997
  154.4495  140.1910  156.0580 H   0  0  0  0  0  0  0  0  0  0  0  0  # atno 8010 bound_to 7997
  139.9994  143.5557  152.2310 H   0  0  0  0  0  0  0  0  0  0  0  0  # atno 10167 bound_to 10162
  157.2721  130.7213  149.6510 H   0  0  0  0  0  0  0  0  0  0  0  0  # atno 10718 bound_to 10713
  153.3411  135.4006  155.1573 H   0  0  0  0  0  0  0  0  0  0  0  0  # atno 10763 bound_to 10752
  154.8644  135.3634  154.5344 H   0  0  0  0  0  0  0  0  0  0  0  0  # atno 10764 bound_to 10752
  153.5789  135.7077  153.5531 H   0  0  0  0  0  0  0  0  0  0  0  0  # atno 10765 bound_to 10752
  140.5974  133.9868  155.8116 H   0  0  0  0  0  0  0  0  0  0  0  0  # atno 11005 bound_to 11000
  145.1278  140.9500  143.4562 LP  0  0  0  0  0  0  0  0  0  0  0  0  # atno 17320 bound_to 7965
  145.0417  139.3254  143.5973 LP  0  0  0  0  0  0  0  0  0  0  0  0  # atno 17321 bound_to 7965
  139.6283  144.7640  151.2592 LP  0  0  0  0  0  0  0  0  0  0  0  0  # atno 17342 bound_to 10162
  140.7424  143.6525  150.8236 LP  0  0  0  0  0  0  0  0  0  0  0  0  # atno 17343 bound_to 10162
  155.9663  130.4364  150.5133 LP  0  0  0  0  0  0  0  0  0  0  0  0  # atno 17370 bound_to 10713
  157.3060  131.0654  151.2035 LP  0  0  0  0  0  0  0  0  0  0  0  0  # atno 17371 bound_to 10713
  141.0895  133.9939  157.3260 LP  0  0  0  0  0  0  0  0  0  0  0  0  # atno 17394 bound_to 11000
  139.9247  135.0201  156.8193 LP  0  0  0  0  0  0  0  0  0  0  0  0  # atno 17395 bound_to 11000

$$$$
