AV-unprocessed.smi:2021|AV-procd|sdf|8176|dock5
  -GOLD-   2272010423D 1   1.00000     0.00000
 Structure written by MMmdl.
 42 43  0  0  0  0  0  0  0  0  2 V2000
  151.2383  143.0056  157.1063 C   0  0  0  0  0  0  0  0  0  0  0  0
  150.8739  141.5254  156.9178 C   0  0  0  0  0  0  0  0  0  0  0  0
  152.0994  140.6336  157.1788 C   0  0  0  0  0  0  0  0  0  0  0  0
  150.2781  141.2884  155.5129 C   0  0  0  0  0  0  0  0  0  0  0  0
  148.8688  141.7525  155.3904 N   0  3  2  0  0  0  0  0  0  0  0  0
  148.0226  141.3933  156.5543 C   0  0  0  0  0  0  0  0  0  0  0  0
  147.5933  139.9166  156.4937 C   0  0  0  0  0  0  0  0  0  0  0  0
  146.9135  139.6738  155.2685 O   0  0  0  0  0  0  0  0  0  0  0  0
  147.7425  139.8965  154.1316 C   0  0  1  0  0  0  0  0  0  0  0  0
  146.9387  139.5365  152.8688 C   0  0  0  0  0  0  0  0  0  0  0  0
  147.0070  138.1106  152.5646 N   0  0  0  0  0  0  0  0  0  0  0  0
  145.9472  137.2940  152.4783 C   0  0  0  0  0  0  0  0  0  0  0  0
  144.7883  137.6723  152.6510 O   0  0  0  0  0  0  0  0  0  0  0  0
  146.3203  136.0367  152.1814 N   0  0  0  0  0  0  0  0  0  0  0  0
  145.4938  134.9000  151.9757 C   0  0  0  0  0  0  0  0  0  0  0  0
  145.9682  133.6762  151.6954 N   0  0  0  0  0  0  0  0  0  0  0  0
  144.9488  132.7446  151.5480 N   0  0  0  0  0  0  0  0  0  0  0  0
  143.7469  133.3013  151.7233 C   0  0  0  0  0  0  0  0  0  0  0  0
  143.7432  135.0184  152.0863 S   0  0  0  0  0  0  0  0  0  0  0  0
  148.1917  141.3745  154.1226 C   0  0  0  0  0  0  0  0  0  0  0  0
  151.9995  143.3220  156.3922 H   0  0  0  0  0  0  0  0  0  0  0  0
  151.6250  143.1917  158.1087 H   0  0  0  0  0  0  0  0  0  0  0  0
  150.3663  143.6459  156.9689 H   0  0  0  0  0  0  0  0  0  0  0  0
  150.1230  141.2917  157.6717 H   0  0  0  0  0  0  0  0  0  0  0  0
  152.8941  140.8307  156.4584 H   0  0  0  0  0  0  0  0  0  0  0  0
  151.8454  139.5756  157.1136 H   0  0  0  0  0  0  0  0  0  0  0  0
  152.5056  140.8074  158.1756 H   0  0  0  0  0  0  0  0  0  0  0  0
  150.8963  141.7660  154.7529 H   0  0  0  0  0  0  0  0  0  0  0  0
  150.3251  140.2189  155.3037 H   0  0  0  0  0  0  0  0  0  0  0  0
  148.5375  141.6121  157.4905 H   0  0  0  0  0  0  0  0  0  0  0  0
  147.1343  142.0261  156.5404 H   0  0  0  0  0  0  0  0  0  0  0  0
  148.4500  139.2481  156.5918 H   0  0  0  0  0  0  0  0  0  0  0  0
  146.9185  139.6895  157.3190 H   0  0  0  0  0  0  0  0  0  0  0  0
  148.6171  139.2478  154.1905 H   0  0  0  0  0  0  0  0  0  0  0  0
  145.8917  139.8112  152.9998 H   0  0  0  0  0  0  0  0  0  0  0  0
  147.3032  140.1065  152.0125 H   0  0  0  0  0  0  0  0  0  0  0  0
  147.9254  137.7211  152.4091 H   0  0  0  0  0  0  0  0  0  0  0  0
  147.3115  135.8737  152.0830 H   0  0  0  0  0  0  0  0  0  0  0  0
  142.8563  132.6960  151.6394 H   0  0  0  0  0  0  0  0  0  0  0  0
  147.3171  142.0160  154.0065 H   0  0  0  0  0  0  0  0  0  0  0  0
  148.8281  141.5762  153.2623 H   0  0  0  0  0  0  0  0  0  0  0  0
  148.9275  142.7610  155.3959 H   0  0  0  0  0  0  0  0  0  0  0  0
  1  2  1  0  0  0  0
  1 21  1  0  0  0  0
  1 22  1  0  0  0  0
  1 23  1  0  0  0  0
  2  3  1  0  0  0  0
  2  4  1  0  0  0  0
  2 24  1  0  0  0  0
  3 25  1  0  0  0  0
  3 26  1  0  0  0  0
  3 27  1  0  0  0  0
  4  5  1  0  0  0  0
  4 28  1  0  0  0  0
  4 29  1  0  0  0  0
  5 20  1  0  0  0  0
  5  6  1  0  0  0  0
  5 42  1  0  0  0  0
  6  7  1  0  0  0  0
  6 30  1  0  0  0  0
  6 31  1  0  0  0  0
  7  8  1  0  0  0  0
  7 32  1  0  0  0  0
  7 33  1  0  0  0  0
  8  9  1  0  0  0  0
  9 10  1  0  0  0  0
  9 20  1  0  0  0  0
  9 34  1  0  0  0  0
 10 11  1  0  0  0  0
 10 35  1  0  0  0  0
 10 36  1  0  0  0  0
 11 12  1  0  0  0  0
 11 37  1  0  0  0  0
 12 13  2  0  0  0  0
 12 14  1  0  0  0  0
 14 15  1  0  0  0  0
 14 38  1  0  0  0  0
 15 19  1  0  0  0  0
 15 16  2  0  0  0  0
 16 17  1  0  0  0  0
 17 18  2  0  0  0  0
 18 19  1  0  0  0  0
 18 39  1  0  0  0  0
 20 40  1  0  0  0  0
 20 41  1  0  0  0  0
M  CHG  1   5   1
M  END
> <s_m_source_file>
AV-unprocessed.smi

> <i_m_source_file_index>
2021

> <i_lp_mmshare_version>
43012

> <i_f3d_flags>
0

> <s_epik_input>
W0NIM11bQ0hdKFtDSDNdKVtDSDJdTjFbQ0gyXVtDSDJdT1tDQEhdKFtDSDJdMSlbQ0gyXVtOSF1DKD1PKVtOSF1jMm5uW2NIXXMy

> <s_epik_cmdline>
J2VwaWtfcHl0aG9uJywgJy1waCcsICc3LjAnLCAnLXRuJywgJzgnLCAnLW1hJywgJzIwMCcsICctbWV0YWxfYmluZGluZycsICctaW1hZScsICc8aW5maWxlLm1hZT4nLCAnLW9tYWUnLCAnPG91dGZpbGUubWFlPic=

> <r_lp_tautomer_probability>
1

> <r_epik_Ionization_Penalty>
0.102019

> <r_epik_Ionization_Penalty_Charging>
0.098413

> <r_epik_Ionization_Penalty_Neutral>
0.00360555

> <r_epik_State_Penalty>
0.0884988

> <r_epik_Charging_Adjusted_Penalty>
0.186912

> <i_epik_Tot_Q>
1

> <i_epik_Tot_abs_Q>
1

> <r_epik_Metal_State_Penalty>
0.454709

> <b_epik_Metal_Only>
0

> <s_lp_Force_Field>
OPLS_2005

> <r_lp_Energy>
18.1157

> <b_lp_Chiralities_Consistent>
1

> <s_lp_Variant>
AV-unprocessed.smi:2021-2

> <Gold.Version>
5.8.1

> <Gold.Id.Protein>
6NUR|6NUR_protein|mol2

> <Gold.PLP.Fitness>
38.9285

> <Gold.PLP.PLP>
-27.8819

> <Gold.PLP.part.hbond>
-3.0000

> <Gold.PLP.part.metal>
0.0000

> <Gold.PLP.part.buried>
-6.1021

> <Gold.PLP.part.nonpolar>
-21.5708

> <Gold.PLP.part.repulsive>
2.4409

> <Gold.PLP.ligand.clash>
0.0000

> <Gold.PLP.ligand.torsion>
0.5189

> <Gold.PLP.Chemscore.Hbond>
4.0000

> <Gold.PLP.Chemscore.CHOScore>
0.0000

> <Gold.PLP.Chemscore.Metal>
0.0000

> <Gold.Chemscore.Hbonds>
donor molecule, donor type, donor heavy atom, donor atom, acceptor molecule, acceptor atom, score
      L1  H     5    42       P1  8028  2.00
      L1  H    11    37       P1  7948  0.96
      L1  H    14    38       P1  7948  1.00

> <Gold.PLP.Chemscore.Internal.Correction>
0.0844

> <Gold.Rescore>
     Score         DG    S(hbond)    S(metal)    S(lipo)     H(rot)  DE(clash)    DE(int)     intcor
     16.01     -17.85       2.92        0.00      63.54       1.88       0.16       1.68       ----

> <Gold.Chemscore.Fitness>
16.0069

> <Gold.Chemscore.DG>
-17.8453

> <Gold.Chemscore.ZeroCoef>
-5.4800

> <Gold.Chemscore.Hbond>
2.9182

> <Gold.Chemscore.Metal>
0.0000

> <Gold.Chemscore.Lipo>
63.5411

> <Gold.Chemscore.Internal_Hbond>
0.0000

> <Gold.Chemscore.DEClash>
0.1616

> <Gold.Chemscore.DEInternal>
1.6768

> <Gold.Chemscore.Rot>
1.8812

> <Gold.Chemscore.Internal.Correction>
   9.000000E+99

> <Gold.Chemscore.Hbonds>
donor molecule, donor type, donor heavy atom, donor atom, acceptor molecule, acceptor atom, score
      L1  H     5    42       P1  8028  0.98
      L1  H    11    37       P1  7948  0.92
      L1  H    14    38       P1  7948  0.99

> <Gold.Chemscore.Hbond.Weighted>
-9.7469

> <Gold.Chemscore.Metal.Weighted>
-0.0000

> <Gold.Chemscore.Lipo.Weighted>
-7.4343

> <Gold.Chemscore.Internal_Hbond.Weighted>
0.0000

> <Gold.Chemscore.DEClash.Weighted>
0.1616

> <Gold.Chemscore.DEInternal.Weighted>
1.6768

> <Gold.Chemscore.Rot.Weighted>
4.8159

> <Gold.Chemscore.Internal.Correction.Weighted>
   9.000000E+99

> <Gold.Protein.RotatedTorsions>
[ 6907 6896 6895 6894 ] final -139.90 input  -60.11 | X-H torsion
[ 7974 7965 7964 7962 ] final  -39.25 input  175.53 | X-H torsion
[ 8008 7997 7996 7995 ] final -126.39 input   59.86 | X-H torsion
[ 10167 10162 10161 10158 ] final  176.83 input  -65.29 | X-H torsion
[ 10718 10713 10712 10709 ] final  -88.04 input   66.30 | X-H torsion
[ 10763 10752 10751 10750 ] final -112.49 input  -60.55 | X-H torsion
[ 11005 11000 10999 10996 ] final  -35.42 input  -57.11 | X-H torsion

> <Gold.Protein.ActiveResidues>
 VAL166  LYS551  ARG553  GLY616  TRP617  ASP618  TYR619  PRO620  LYS621  CYS622 
 ASP623  PHE694  ASN695  SER759  ASP760  ASP761  ALA762  ILE779  LEU786  VAL792 
 PHE793  MET794  SER795  GLU796  ALA797  LYS798  CYS799  TRP800  GLU811  SER814 

> <Gold.Protein.RotatedAtoms>
  151.0537  133.5602  159.2639 H   0  0  0  0  0  0  0  0  0  0  0  0  # atno 6907 bound_to 6896
  151.2603  135.0651  159.9106 H   0  0  0  0  0  0  0  0  0  0  0  0  # atno 6908 bound_to 6896
  152.5386  134.0284  159.8067 H   0  0  0  0  0  0  0  0  0  0  0  0  # atno 6909 bound_to 6896
  146.0413  140.6604  142.9085 H   0  0  0  0  0  0  0  0  0  0  0  0  # atno 7974 bound_to 7965
  155.2289  140.0424  157.2959 H   0  0  0  0  0  0  0  0  0  0  0  0  # atno 8008 bound_to 7997
  154.5901  140.2424  155.7903 H   0  0  0  0  0  0  0  0  0  0  0  0  # atno 8009 bound_to 7997
  156.2253  140.2956  156.0060 H   0  0  0  0  0  0  0  0  0  0  0  0  # atno 8010 bound_to 7997
  139.5229  144.2870  152.0497 H   0  0  0  0  0  0  0  0  0  0  0  0  # atno 10167 bound_to 10162
  155.9984  130.4821  150.4959 H   0  0  0  0  0  0  0  0  0  0  0  0  # atno 10718 bound_to 10713
  154.8352  135.4489  154.1202 H   0  0  0  0  0  0  0  0  0  0  0  0  # atno 10763 bound_to 10752
  153.2440  135.6919  153.7757 H   0  0  0  0  0  0  0  0  0  0  0  0  # atno 10764 bound_to 10752
  153.7094  135.3359  155.3219 H   0  0  0  0  0  0  0  0  0  0  0  0  # atno 10765 bound_to 10752
  140.9795  133.7064  156.1659 H   0  0  0  0  0  0  0  0  0  0  0  0  # atno 11005 bound_to 11000
  144.7076  140.3913  143.7106 LP  0  0  0  0  0  0  0  0  0  0  0  0  # atno 17320 bound_to 7965
  145.6879  139.1632  143.2663 LP  0  0  0  0  0  0  0  0  0  0  0  0  # atno 17321 bound_to 7965
  140.2322  144.4356  150.6295 LP  0  0  0  0  0  0  0  0  0  0  0  0  # atno 17342 bound_to 10162
  140.6347  143.2193  151.6420 LP  0  0  0  0  0  0  0  0  0  0  0  0  # atno 17343 bound_to 10162
  157.2949  131.0633  151.2109 LP  0  0  0  0  0  0  0  0  0  0  0  0  # atno 17370 bound_to 10713
  157.3108  130.6889  149.6215 LP  0  0  0  0  0  0  0  0  0  0  0  0  # atno 17371 bound_to 10713
  140.7208  134.4360  157.5575 LP  0  0  0  0  0  0  0  0  0  0  0  0  # atno 17394 bound_to 11000
  139.8944  134.8707  156.2178 LP  0  0  0  0  0  0  0  0  0  0  0  0  # atno 17395 bound_to 11000

$$$$
