AV-unprocessed.smi:2528|AV-procd|sdf|9956|dock2
  -GOLD-   2272013593D 1   1.00000     0.00000
 Structure written by MMmdl.
 43 45  0  0  0  0  0  0  0  0  1 V2000
  144.3955  136.7171  152.0953 O   0  0  0  0  0  0  0  0  0  0  0  0
  145.6120  136.5470  152.0080 C   0  0  0  0  0  0  0  0  0  0  0  0
  146.5139  137.4484  152.4225 N   0  0  0  0  0  0  0  0  0  0  0  0
  146.1892  138.7307  153.0390 C   0  0  0  0  0  0  0  0  0  0  0  0
  147.4426  139.5517  153.3936 C   0  0  2  0  0  0  0  0  0  0  0  0
  148.5670  138.7038  154.0228 C   0  0  0  0  0  0  0  0  0  0  0  0
  149.7039  139.5211  154.4283 N   0  0  0  0  0  0  0  0  0  0  0  0
  150.7533  138.7064  155.0387 C   0  0  0  0  0  0  0  0  0  0  0  0
  151.9797  139.5380  155.4477 C   0  0  0  0  0  0  0  0  0  0  0  0
  151.5637  140.6695  156.3984 C   0  0  0  0  0  0  0  0  0  0  0  0
  150.4258  141.4909  155.7730 C   0  0  0  0  0  0  0  0  0  0  0  0
  149.2592  140.5783  155.3415 C   0  0  1  0  0  0  0  0  0  0  0  0
  148.1251  141.4097  154.7088 C   0  0  0  0  0  0  0  0  0  0  0  0
  147.0532  140.5543  154.3273 O   0  0  0  0  0  0  0  0  0  0  0  0
  146.2108  135.4555  151.4997 N   0  0  0  0  0  0  0  0  0  0  0  0
  145.5999  134.2890  150.9663 C   0  0  0  0  0  0  0  0  0  0  0  0
  146.4973  133.2930  150.5182 C   0  0  0  0  0  0  0  0  0  0  0  0
  145.9896  132.0977  149.9730 C   0  0  0  0  0  0  0  0  0  0  0  0
  144.5961  131.9297  149.8875 C   0  0  0  0  0  0  0  0  0  0  0  0
  143.7728  132.9704  150.3547 C   0  0  0  0  0  0  0  0  0  0  0  0
  144.2571  134.1160  150.8786 N   0  0  0  0  0  0  0  0  0  0  0  0
  147.4937  137.2299  152.3149 H   0  0  0  0  0  0  0  0  0  0  0  0
  145.5428  139.3028  152.3712 H   0  0  0  0  0  0  0  0  0  0  0  0
  145.6052  138.5376  153.9393 H   0  0  0  0  0  0  0  0  0  0  0  0
  147.8170  140.0444  152.4944 H   0  0  0  0  0  0  0  0  0  0  0  0
  148.1728  138.1654  154.8862 H   0  0  0  0  0  0  0  0  0  0  0  0
  148.8988  137.9484  153.3100 H   0  0  0  0  0  0  0  0  0  0  0  0
  150.3585  138.1909  155.9156 H   0  0  0  0  0  0  0  0  0  0  0  0
  151.0668  137.9303  154.3396 H   0  0  0  0  0  0  0  0  0  0  0  0
  152.7242  138.9009  155.9255 H   0  0  0  0  0  0  0  0  0  0  0  0
  152.4515  139.9583  154.5584 H   0  0  0  0  0  0  0  0  0  0  0  0
  151.2313  140.2466  157.3472 H   0  0  0  0  0  0  0  0  0  0  0  0
  152.4165  141.3106  156.6226 H   0  0  0  0  0  0  0  0  0  0  0  0
  150.0773  142.2386  156.4860 H   0  0  0  0  0  0  0  0  0  0  0  0
  150.8054  142.0383  154.9091 H   0  0  0  0  0  0  0  0  0  0  0  0
  148.8563  140.1097  156.2410 H   0  0  0  0  0  0  0  0  0  0  0  0
  147.7485  142.1454  155.4198 H   0  0  0  0  0  0  0  0  0  0  0  0
  148.4833  141.9616  153.8381 H   0  0  0  0  0  0  0  0  0  0  0  0
  147.2199  135.4546  151.5035 H   0  0  0  0  0  0  0  0  0  0  0  0
  147.5653  133.4382  150.5918 H   0  0  0  0  0  0  0  0  0  0  0  0
  146.6585  131.3238  149.6266 H   0  0  0  0  0  0  0  0  0  0  0  0
  144.1692  131.0276  149.4749 H   0  0  0  0  0  0  0  0  0  0  0  0
  142.6976  132.8816  150.3072 H   0  0  0  0  0  0  0  0  0  0  0  0
  1  2  2  0  0  0  0
  2  3  1  0  0  0  0
  2 15  1  0  0  0  0
  3  4  1  0  0  0  0
  3 22  1  0  0  0  0
  4  5  1  0  0  0  0
  4 23  1  0  0  0  0
  4 24  1  0  0  0  0
  5 14  1  0  0  0  0
  5  6  1  0  0  0  0
  5 25  1  0  0  0  0
  6  7  1  0  0  0  0
  6 26  1  0  0  0  0
  6 27  1  0  0  0  0
  7 12  1  0  0  0  0
  7  8  1  0  0  0  0
  8  9  1  0  0  0  0
  8 28  1  0  0  0  0
  8 29  1  0  0  0  0
  9 10  1  0  0  0  0
  9 30  1  0  0  0  0
  9 31  1  0  0  0  0
 10 11  1  0  0  0  0
 10 32  1  0  0  0  0
 10 33  1  0  0  0  0
 11 12  1  0  0  0  0
 11 34  1  0  0  0  0
 11 35  1  0  0  0  0
 12 13  1  0  0  0  0
 12 36  1  0  0  0  0
 13 14  1  0  0  0  0
 13 37  1  0  0  0  0
 13 38  1  0  0  0  0
 15 16  1  0  0  0  0
 15 39  1  0  0  0  0
 16 21  1  0  0  0  0
 16 17  2  0  0  0  0
 17 18  1  0  0  0  0
 17 40  1  0  0  0  0
 18 19  2  0  0  0  0
 18 41  1  0  0  0  0
 19 20  1  0  0  0  0
 19 42  1  0  0  0  0
 20 21  2  0  0  0  0
 20 43  1  0  0  0  0
M  END
> <s_m_source_file>
AV-unprocessed.smi

> <i_m_source_file_index>
2528

> <i_lp_mmshare_version>
43012

> <i_f3d_flags>
0

> <s_epik_input>
bjFbY0hdW2NIXVtjSF1bY0hdYzFbTkhdQyg9TylbTkhdW0NIMl1bQ0BIXShbQ0gyXTIpT1tDSDJdW0NAQEhdKE4yMylbQ0gyXVtDSDJdW0NIMl1bQ0gyXTM=

> <s_epik_cmdline>
J2VwaWtfcHl0aG9uJywgJy1waCcsICc3LjAnLCAnLXRuJywgJzgnLCAnLW1hJywgJzIwMCcsICctbWV0YWxfYmluZGluZycsICctaW1hZScsICc8aW5maWxlLm1hZT4nLCAnLW9tYWUnLCAnPG91dGZpbGUubWFlPic=

> <r_epik_Ionization_Penalty>
1.14192

> <r_epik_Ionization_Penalty_Charging>
0

> <r_epik_Ionization_Penalty_Neutral>
1.14192

> <r_epik_State_Penalty>
1.20248

> <r_epik_Charging_Adjusted_Penalty>
1.20248

> <i_epik_Tot_Q>
0

> <i_epik_Tot_abs_Q>
0

> <r_epik_Metal_State_Penalty>
1.20248

> <b_epik_Metal_Only>
0

> <s_lp_Force_Field>
OPLS_2005

> <r_lp_Energy>
34.3645

> <b_lp_Chiralities_Consistent>
1

> <s_lp_Variant>
AV-unprocessed.smi:2528-9

> <Gold.Version>
5.8.1

> <Gold.Id.Protein>
6NUR|6NUR_protein|mol2

> <Gold.PLP.Fitness>
46.0404

> <Gold.PLP.PLP>
-37.3318

> <Gold.PLP.part.hbond>
-2.0000

> <Gold.PLP.part.metal>
0.0000

> <Gold.PLP.part.buried>
-2.8894

> <Gold.PLP.part.nonpolar>
-33.0776

> <Gold.PLP.part.repulsive>
1.2075

> <Gold.PLP.ligand.clash>
0.0000

> <Gold.PLP.ligand.torsion>
0.1460

> <Gold.PLP.Chemscore.Hbond>
2.0000

> <Gold.PLP.Chemscore.CHOScore>
0.9987

> <Gold.PLP.Chemscore.Metal>
0.0000

> <Gold.Chemscore.Hbonds>
donor molecule, donor type, donor heavy atom, donor atom, acceptor molecule, acceptor atom, score
      L1  H     3    22       P1  7948  1.00
      L1  H    15    39       P1  7948  1.00
      L1  C    20    43       P1 10186  1.00

> <Gold.PLP.Chemscore.Internal.Correction>
0.0045

> <Gold.Rescore>
     Score         DG    S(hbond)    S(metal)    S(lipo)     H(rot)  DE(clash)    DE(int)     intcor
     18.59     -20.22       1.94        0.00      98.34       1.27       0.25       1.38       ----

> <Gold.Chemscore.Fitness>
18.5909

> <Gold.Chemscore.DG>
-20.2244

> <Gold.Chemscore.ZeroCoef>
-5.4800

> <Gold.Chemscore.Hbond>
1.9429

> <Gold.Chemscore.Metal>
0.0000

> <Gold.Chemscore.Lipo>
98.3363

> <Gold.Chemscore.Internal_Hbond>
0.0000

> <Gold.Chemscore.DEClash>
0.2509

> <Gold.Chemscore.DEInternal>
1.3826

> <Gold.Chemscore.Rot>
1.2696

> <Gold.Chemscore.Internal.Correction>
   9.000000E+99

> <Gold.Chemscore.Hbonds>
donor molecule, donor type, donor heavy atom, donor atom, acceptor molecule, acceptor atom, score
      L1  H     3    22       P1  7948  0.99
      L1  H    15    39       P1  7948  0.95

> <Gold.Chemscore.Hbond.Weighted>
-6.4893

> <Gold.Chemscore.Metal.Weighted>
-0.0000

> <Gold.Chemscore.Lipo.Weighted>
-11.5053

> <Gold.Chemscore.Internal_Hbond.Weighted>
0.0000

> <Gold.Chemscore.DEClash.Weighted>
0.2509

> <Gold.Chemscore.DEInternal.Weighted>
1.3826

> <Gold.Chemscore.Rot.Weighted>
3.2502

> <Gold.Chemscore.Internal.Correction.Weighted>
   9.000000E+99

> <Gold.Protein.RotatedTorsions>
[ 6907 6896 6895 6894 ] final  105.32 input  -60.11 | X-H torsion
[ 7974 7965 7964 7962 ] final  -92.74 input  175.53 | X-H torsion
[ 8008 7997 7996 7995 ] final -131.48 input   59.86 | X-H torsion
[ 10167 10162 10161 10158 ] final  -65.08 input  -65.29 | X-H torsion
[ 10718 10713 10712 10709 ] final   88.71 input   66.30 | X-H torsion
[ 10763 10752 10751 10750 ] final   40.60 input  -60.55 | X-H torsion
[ 11005 11000 10999 10996 ] final  146.42 input  -57.11 | X-H torsion

> <Gold.Protein.ActiveResidues>
 VAL166  LYS551  ARG553  GLY616  TRP617  ASP618  TYR619  PRO620  LYS621  CYS622 
 ASP623  PHE694  ASN695  SER759  ASP760  ASP761  ALA762  ILE779  LEU786  VAL792 
 PHE793  MET794  SER795  GLU796  ALA797  LYS798  CYS799  TRP800  GLU811  SER814 

> <Gold.Protein.RotatedAtoms>
  152.5234  133.9546  159.7687 H   0  0  0  0  0  0  0  0  0  0  0  0  # atno 6907 bound_to 6896
  150.9849  133.6199  159.2724 H   0  0  0  0  0  0  0  0  0  0  0  0  # atno 6908 bound_to 6896
  151.3363  135.0859  159.9409 H   0  0  0  0  0  0  0  0  0  0  0  0  # atno 6909 bound_to 6896
  145.3957  140.9532  143.2315 H   0  0  0  0  0  0  0  0  0  0  0  0  # atno 7974 bound_to 7965
  155.3130  140.0458  157.3036 H   0  0  0  0  0  0  0  0  0  0  0  0  # atno 8008 bound_to 7997
  154.5422  140.2291  155.8588 H   0  0  0  0  0  0  0  0  0  0  0  0  # atno 8009 bound_to 7997
  156.1891  140.3055  155.9304 H   0  0  0  0  0  0  0  0  0  0  0  0  # atno 8010 bound_to 7997
  140.5755  143.2321  151.6450 H   0  0  0  0  0  0  0  0  0  0  0  0  # atno 10167 bound_to 10162
  157.6951  131.0305  150.3315 H   0  0  0  0  0  0  0  0  0  0  0  0  # atno 10718 bound_to 10713
  152.9931  135.6186  154.2652 H   0  0  0  0  0  0  0  0  0  0  0  0  # atno 10763 bound_to 10752
  154.2387  135.2789  155.2864 H   0  0  0  0  0  0  0  0  0  0  0  0  # atno 10764 bound_to 10752
  154.5388  135.5767  153.6879 H   0  0  0  0  0  0  0  0  0  0  0  0  # atno 10765 bound_to 10752
  140.0791  134.9107  157.1472 H   0  0  0  0  0  0  0  0  0  0  0  0  # atno 11005 bound_to 11000
  144.8409  139.5474  143.6901 LP  0  0  0  0  0  0  0  0  0  0  0  0  # atno 17320 bound_to 7965
  146.2776  139.6793  142.9252 LP  0  0  0  0  0  0  0  0  0  0  0  0  # atno 17321 bound_to 7965
  139.5140  144.3423  152.0729 LP  0  0  0  0  0  0  0  0  0  0  0  0  # atno 17342 bound_to 10162
  140.2566  144.4112  150.6201 LP  0  0  0  0  0  0  0  0  0  0  0  0  # atno 17343 bound_to 10162
  156.3789  130.3877  149.7117 LP  0  0  0  0  0  0  0  0  0  0  0  0  # atno 17370 bound_to 10713
  156.4506  130.7905  151.2926 LP  0  0  0  0  0  0  0  0  0  0  0  0  # atno 17371 bound_to 10713
  140.3513  134.2595  155.7198 LP  0  0  0  0  0  0  0  0  0  0  0  0  # atno 17394 bound_to 11000
  141.2040  133.7897  157.0308 LP  0  0  0  0  0  0  0  0  0  0  0  0  # atno 17395 bound_to 11000

$$$$
