AV-unprocessed.smi:753|AV-procd|sdf|3606|dock6
  -GOLD-   22720 1 03D 1   1.00000     0.00000
 Structure written by MMmdl.
 44 46  0  0  0  0  0  0  0  0  2 V2000
  150.1968  134.6707  155.2583 C   0  0  0  0  0  0  0  0  0  0  0  0
  150.0671  136.1548  154.9888 C   0  0  0  0  0  0  0  0  0  0  0  0
  151.1870  137.0117  154.9273 C   0  0  0  0  0  0  0  0  0  0  0  0
  150.9902  138.3848  154.6733 C   0  0  0  0  0  0  0  0  0  0  0  0
  149.6786  138.8731  154.4845 C   0  0  0  0  0  0  0  0  0  0  0  0
  149.4361  140.3444  154.2145 C   0  0  0  0  0  0  0  0  0  0  0  0
  148.3499  140.9287  155.1316 C   0  0  0  0  0  0  0  0  0  0  0  0
  148.8507  142.0683  155.8892 N   0  0  0  0  0  0  0  0  0  0  0  0
  149.3704  142.0011  157.1263 C   0  0  0  0  0  0  0  0  0  0  0  0
  149.4626  140.9543  157.7649 O   0  0  0  0  0  0  0  0  0  0  0  0
  149.7926  143.1768  157.6237 N   0  0  0  0  0  0  0  0  0  0  0  0
  150.4006  143.4379  158.9309 C   0  0  1  0  0  0  0  0  0  0  0  0
  151.6509  142.5614  159.1645 C   0  0  0  0  0  0  0  0  0  0  0  0
  152.7552  143.6006  159.4330 C   0  0  2  0  0  0  0  0  0  0  0  0
  152.5050  144.2806  160.7933 C   0  0  0  0  0  0  0  0  0  0  0  0
  151.2838  145.1769  160.5086 C   0  0  0  0  0  0  0  0  0  0  0  0
  150.9802  144.8696  159.0306 C   0  0  1  0  0  0  0  0  0  0  0  0
  152.3844  144.7079  158.4565 C   0  0  0  0  0  0  0  0  0  0  0  0
  148.5968  137.9698  154.5582 C   0  0  0  0  0  0  0  0  0  0  0  0
  148.8272  136.6616  154.8049 N   0  3  0  0  0  0  0  0  0  0  0  0
  151.2433  134.3754  155.3384 H   0  0  0  0  0  0  0  0  0  0  0  0
  149.7422  134.0965  154.4503 H   0  0  0  0  0  0  0  0  0  0  0  0
  149.6965  134.4093  156.1912 H   0  0  0  0  0  0  0  0  0  0  0  0
  152.1854  136.6257  155.0727 H   0  0  0  0  0  0  0  0  0  0  0  0
  151.8373  139.0538  154.6260 H   0  0  0  0  0  0  0  0  0  0  0  0
  150.3742  140.8860  154.3447 H   0  0  0  0  0  0  0  0  0  0  0  0
  149.1513  140.4712  153.1692 H   0  0  0  0  0  0  0  0  0  0  0  0
  147.4998  141.2642  154.5373 H   0  0  0  0  0  0  0  0  0  0  0  0
  147.9712  140.1647  155.8128 H   0  0  0  0  0  0  0  0  0  0  0  0
  148.8099  142.9720  155.4403 H   0  0  0  0  0  0  0  0  0  0  0  0
  149.6630  143.9856  157.0333 H   0  0  0  0  0  0  0  0  0  0  0  0
  149.6647  143.2534  159.7157 H   0  0  0  0  0  0  0  0  0  0  0  0
  151.5226  141.8722  160.0000 H   0  0  0  0  0  0  0  0  0  0  0  0
  151.8962  141.9669  158.2828 H   0  0  0  0  0  0  0  0  0  0  0  0
  153.7649  143.2048  159.3198 H   0  0  0  0  0  0  0  0  0  0  0  0
  152.3162  143.5579  161.5880 H   0  0  0  0  0  0  0  0  0  0  0  0
  153.3628  144.8864  161.0883 H   0  0  0  0  0  0  0  0  0  0  0  0
  150.4405  144.9560  161.1638 H   0  0  0  0  0  0  0  0  0  0  0  0
  151.5430  146.2283  160.6398 H   0  0  0  0  0  0  0  0  0  0  0  0
  150.3739  145.6378  158.5497 H   0  0  0  0  0  0  0  0  0  0  0  0
  153.0018  145.6022  158.5605 H   0  0  0  0  0  0  0  0  0  0  0  0
  152.3933  144.3867  157.4136 H   0  0  0  0  0  0  0  0  0  0  0  0
  147.5616  138.2513  154.4314 H   0  0  0  0  0  0  0  0  0  0  0  0
  148.0292  136.0278  154.8551 H   0  0  0  0  0  0  0  0  0  0  0  0
  1  2  1  0  0  0  0
  1 21  1  0  0  0  0
  1 22  1  0  0  0  0
  1 23  1  0  0  0  0
  2 20  1  0  0  0  0
  2  3  2  0  0  0  0
  3  4  1  0  0  0  0
  3 24  1  0  0  0  0
  4  5  2  0  0  0  0
  4 25  1  0  0  0  0
  5  6  1  0  0  0  0
  5 19  1  0  0  0  0
  6  7  1  0  0  0  0
  6 26  1  0  0  0  0
  6 27  1  0  0  0  0
  7  8  1  0  0  0  0
  7 28  1  0  0  0  0
  7 29  1  0  0  0  0
  8  9  1  0  0  0  0
  8 30  1  0  0  0  0
  9 10  2  0  0  0  0
  9 11  1  0  0  0  0
 11 12  1  0  0  0  0
 11 31  1  0  0  0  0
 12 17  1  0  0  0  0
 12 13  1  0  0  0  0
 12 32  1  0  0  0  0
 13 14  1  0  0  0  0
 13 33  1  0  0  0  0
 13 34  1  0  0  0  0
 14 18  1  0  0  0  0
 14 15  1  0  0  0  0
 14 35  1  0  0  0  0
 15 16  1  0  0  0  0
 15 36  1  0  0  0  0
 15 37  1  0  0  0  0
 16 17  1  0  0  0  0
 16 38  1  0  0  0  0
 16 39  1  0  0  0  0
 17 18  1  0  0  0  0
 17 40  1  0  0  0  0
 18 41  1  0  0  0  0
 18 42  1  0  0  0  0
 19 20  2  0  0  0  0
 19 43  1  0  0  0  0
 20 44  1  0  0  0  0
M  CHG  1  20   1
M  END
> <s_m_source_file>
AV-unprocessed.smi

> <i_m_source_file_index>
753

> <i_lp_mmshare_version>
43012

> <i_f3d_flags>
0

> <s_epik_input>
W0NIM11jMVtjSF1bY0hdYyhbY0hdbjEpW0NIMl1bQ0gyXVtOSF1DKD1PKVtOSF1bQ0BIXShbQ0gyXVtDQEBIXTIzKVtDQEBIXShbQ0gyXTMpW0NIMl1bQ0gyXTI=

> <s_epik_cmdline>
J2VwaWtfcHl0aG9uJywgJy1waCcsICc3LjAnLCAnLXRuJywgJzgnLCAnLW1hJywgJzIwMCcsICctbWV0YWxfYmluZGluZycsICctaW1hZScsICc8aW5maWxlLm1hZT4nLCAnLW9tYWUnLCAnPG91dGZpbGUubWFlPic=

> <r_epik_Ionization_Penalty>
1.41708

> <r_epik_Ionization_Penalty_Charging>
1.41702

> <r_epik_Ionization_Penalty_Neutral>
5.73163e-05

> <r_epik_State_Penalty>
1.50048

> <r_epik_Charging_Adjusted_Penalty>
2.9175

> <i_epik_Tot_Q>
1

> <i_epik_Tot_abs_Q>
1

> <r_epik_Metal_State_Penalty>
1.55295

> <b_epik_Metal_Only>
0

> <s_lp_Force_Field>
OPLS_2005

> <r_lp_Energy>
57.1024

> <b_lp_Chiralities_Consistent>
1

> <s_lp_Variant>
AV-unprocessed.smi:753-8

> <Gold.Version>
5.8.1

> <Gold.Id.Protein>
6NUR|6NUR_protein|mol2

> <Gold.PLP.Fitness>
43.8127

> <Gold.PLP.PLP>
-39.3837

> <Gold.PLP.part.hbond>
-3.0000

> <Gold.PLP.part.metal>
0.0000

> <Gold.PLP.part.buried>
-1.4381

> <Gold.PLP.part.nonpolar>
-35.2059

> <Gold.PLP.part.repulsive>
0.1512

> <Gold.PLP.ligand.clash>
0.0000

> <Gold.PLP.ligand.torsion>
0.7149

> <Gold.PLP.Chemscore.Hbond>
1.9440

> <Gold.PLP.Chemscore.CHOScore>
0.0000

> <Gold.PLP.Chemscore.Metal>
0.0000

> <Gold.Chemscore.Hbonds>
donor molecule, donor type, donor heavy atom, donor atom, acceptor molecule, acceptor atom, score
      L1  H     8    30       P1  8028  0.94
      L1  H    11    31       P1  8028  1.00

> <Gold.PLP.Chemscore.Internal.Correction>
0.0267

> <Gold.Rescore>
     Score         DG    S(hbond)    S(metal)    S(lipo)     H(rot)  DE(clash)    DE(int)     intcor
     21.12     -21.90       1.74        0.00     123.63       1.50       0.13       0.64       ----

> <Gold.Chemscore.Fitness>
21.1245

> <Gold.Chemscore.DG>
-21.8973

> <Gold.Chemscore.ZeroCoef>
-5.4800

> <Gold.Chemscore.Hbond>
1.7363

> <Gold.Chemscore.Metal>
0.0000

> <Gold.Chemscore.Lipo>
123.6317

> <Gold.Chemscore.Internal_Hbond>
0.0000

> <Gold.Chemscore.DEClash>
0.1314

> <Gold.Chemscore.DEInternal>
0.6413

> <Gold.Chemscore.Rot>
1.5027

> <Gold.Chemscore.Internal.Correction>
   9.000000E+99

> <Gold.Chemscore.Hbonds>
donor molecule, donor type, donor heavy atom, donor atom, acceptor molecule, acceptor atom, score
      L1  H     8    30       P1  8028  0.91
      L1  H    11    31       P1  8028  0.74

> <Gold.Chemscore.Hbond.Weighted>
-5.7992

> <Gold.Chemscore.Metal.Weighted>
-0.0000

> <Gold.Chemscore.Lipo.Weighted>
-14.4649

> <Gold.Chemscore.Internal_Hbond.Weighted>
0.0000

> <Gold.Chemscore.DEClash.Weighted>
0.1314

> <Gold.Chemscore.DEInternal.Weighted>
0.6413

> <Gold.Chemscore.Rot.Weighted>
3.8468

> <Gold.Chemscore.Internal.Correction.Weighted>
   9.000000E+99

> <Gold.Protein.RotatedTorsions>
[ 6907 6896 6895 6894 ] final   86.69 input  -60.11 | X-H torsion
[ 7974 7965 7964 7962 ] final    8.91 input  175.53 | X-H torsion
[ 8008 7997 7996 7995 ] final   -4.14 input   59.86 | X-H torsion
[ 10167 10162 10161 10158 ] final  -52.22 input  -65.29 | X-H torsion
[ 10718 10713 10712 10709 ] final -147.30 input   66.30 | X-H torsion
[ 10763 10752 10751 10750 ] final   61.09 input  -60.55 | X-H torsion
[ 11005 11000 10999 10996 ] final -171.91 input  -57.11 | X-H torsion

> <Gold.Protein.ActiveResidues>
 VAL166  LYS551  ARG553  GLY616  TRP617  ASP618  TYR619  PRO620  LYS621  CYS622 
 ASP623  PHE694  ASN695  SER759  ASP760  ASP761  ALA762  ILE779  LEU786  VAL792 
 PHE793  MET794  SER795  GLU796  ALA797  LYS798  CYS799  TRP800  GLU811  SER814 

> <Gold.Protein.RotatedAtoms>
  152.5399  134.2392  159.8854 H   0  0  0  0  0  0  0  0  0  0  0  0  # atno 6907 bound_to 6896
  151.2360  133.4418  159.2613 H   0  0  0  0  0  0  0  0  0  0  0  0  # atno 6908 bound_to 6896
  151.0671  134.9788  159.8346 H   0  0  0  0  0  0  0  0  0  0  0  0  # atno 6909 bound_to 6896
  146.2410  139.9863  142.8430 H   0  0  0  0  0  0  0  0  0  0  0  0  # atno 7974 bound_to 7965
  154.6174  140.2491  155.7592 H   0  0  0  0  0  0  0  0  0  0  0  0  # atno 8008 bound_to 7997
  156.2407  140.2933  156.0385 H   0  0  0  0  0  0  0  0  0  0  0  0  # atno 8009 bound_to 7997
  155.1952  140.0392  157.2898 H   0  0  0  0  0  0  0  0  0  0  0  0  # atno 8010 bound_to 7997
  140.6548  143.2591  151.4617 H   0  0  0  0  0  0  0  0  0  0  0  0  # atno 10167 bound_to 10162
  156.4058  130.7957  151.2171 H   0  0  0  0  0  0  0  0  0  0  0  0  # atno 10718 bound_to 10713
  152.9940  135.5513  154.5978 H   0  0  0  0  0  0  0  0  0  0  0  0  # atno 10763 bound_to 10752
  154.5326  135.2814  155.1169 H   0  0  0  0  0  0  0  0  0  0  0  0  # atno 10764 bound_to 10752
  154.2478  135.6404  153.5282 H   0  0  0  0  0  0  0  0  0  0  0  0  # atno 10765 bound_to 10752
  140.5029  134.5876  157.4994 H   0  0  0  0  0  0  0  0  0  0  0  0  # atno 11005 bound_to 11000
  145.1545  140.9640  143.4413 LP  0  0  0  0  0  0  0  0  0  0  0  0  # atno 17320 bound_to 7965
  145.0174  139.3455  143.6089 LP  0  0  0  0  0  0  0  0  0  0  0  0  # atno 17321 bound_to 7965
  139.5769  144.1798  152.1915 LP  0  0  0  0  0  0  0  0  0  0  0  0  # atno 17342 bound_to 10162
  140.1111  144.5456  150.6924 LP  0  0  0  0  0  0  0  0  0  0  0  0  # atno 17343 bound_to 10162
  157.7505  131.0273  150.3998 LP  0  0  0  0  0  0  0  0  0  0  0  0  # atno 17370 bound_to 10713
  156.4287  130.3967  149.6775 LP  0  0  0  0  0  0  0  0  0  0  0  0  # atno 17371 bound_to 10713
  139.9703  134.7304  156.0056 LP  0  0  0  0  0  0  0  0  0  0  0  0  # atno 17394 bound_to 11000
  141.1426  133.6562  156.3773 LP  0  0  0  0  0  0  0  0  0  0  0  0  # atno 17395 bound_to 11000

$$$$
