AV-unprocessed.smi:2855|AV-procd|sdf|10987|dock8
  -GOLD-   2272015443D 1   1.00000     0.00000
 Structure written by MMmdl.
 46 47  0  0  0  0  0  0  0  0  2 V2000
  143.7417  133.2206  151.3654 C   0  0  0  0  0  0  0  0  0  0  0  0
  145.1505  133.2294  150.7455 C   0  0  2  0  0  0  0  0  0  0  0  0
  145.7526  131.8178  150.6183 C   0  0  0  0  0  0  0  0  0  0  0  0
  146.1934  131.2402  151.9738 C   0  0  0  0  0  0  0  0  0  0  0  0
  147.1873  132.1734  152.7051 C   0  0  2  0  0  0  0  0  0  0  0  0
  147.7289  131.5766  154.0396 C   0  0  0  0  0  0  0  0  0  0  0  0
  148.6292  130.3498  153.8142 C   0  0  0  0  0  0  0  0  0  0  0  0
  146.6373  131.2669  155.0806 C   0  0  0  0  0  0  0  0  0  0  0  0
  146.5694  133.5906  152.8559 C   0  0  1  0  0  0  0  0  0  0  0  0
  147.5271  134.5096  153.4670 N   0  0  0  0  0  0  0  0  0  0  0  0
  147.6851  134.7167  154.7830 C   0  0  0  0  0  0  0  0  0  0  0  0
  146.9762  134.1963  155.6450 O   0  0  0  0  0  0  0  0  0  0  0  0
  148.8119  135.6757  155.1848 C   0  0  0  0  0  0  0  0  0  0  0  0
  148.7271  136.0669  156.6003 N   0  0  0  0  0  0  0  0  0  0  0  0
  147.6019  136.8025  157.0118 C   0  0  0  0  0  0  0  0  0  0  0  0
  147.4392  137.1963  158.2892 C   0  0  0  0  0  0  0  0  0  0  0  0
  148.4685  136.8402  159.2580 C   0  0  0  0  0  0  0  0  0  0  0  0
  148.3387  137.1952  160.4279 O   0  0  0  0  0  0  0  0  0  0  0  0
  149.5392  136.1210  158.8108 N   0  5  0  0  0  0  0  0  0  0  0  0
  149.6910  135.7261  157.5088 C   0  0  0  0  0  0  0  0  0  0  0  0
  150.6653  135.0766  157.1265 O   0  0  0  0  0  0  0  0  0  0  0  0
  146.1229  134.1609  151.4941 C   0  0  0  0  0  0  0  0  0  0  0  0
  143.7420  132.8361  152.3849 H   0  0  0  0  0  0  0  0  0  0  0  0
  143.0624  132.6000  150.7804 H   0  0  0  0  0  0  0  0  0  0  0  0
  143.3222  134.2265  151.3938 H   0  0  0  0  0  0  0  0  0  0  0  0
  145.0359  133.6254  149.7357 H   0  0  0  0  0  0  0  0  0  0  0  0
  145.0386  131.1457  150.1412 H   0  0  0  0  0  0  0  0  0  0  0  0
  146.6176  131.8579  149.9549 H   0  0  0  0  0  0  0  0  0  0  0  0
  145.3152  131.0628  152.5943 H   0  0  0  0  0  0  0  0  0  0  0  0
  146.6440  130.2639  151.7998 H   0  0  0  0  0  0  0  0  0  0  0  0
  148.0521  132.2825  152.0481 H   0  0  0  0  0  0  0  0  0  0  0  0
  148.3809  132.3242  154.4916 H   0  0  0  0  0  0  0  0  0  0  0  0
  148.0628  129.4869  153.4645 H   0  0  0  0  0  0  0  0  0  0  0  0
  149.1239  130.0579  154.7410 H   0  0  0  0  0  0  0  0  0  0  0  0
  149.4090  130.5603  153.0821 H   0  0  0  0  0  0  0  0  0  0  0  0
  145.9456  130.5017  154.7294 H   0  0  0  0  0  0  0  0  0  0  0  0
  146.0587  132.1540  155.3367 H   0  0  0  0  0  0  0  0  0  0  0  0
  147.0814  130.9024  156.0073 H   0  0  0  0  0  0  0  0  0  0  0  0
  145.6858  133.5098  153.4893 H   0  0  0  0  0  0  0  0  0  0  0  0
  148.1580  134.9875  152.8402 H   0  0  0  0  0  0  0  0  0  0  0  0
  149.7852  135.2262  154.9784 H   0  0  0  0  0  0  0  0  0  0  0  0
  148.7583  136.5526  154.5387 H   0  0  0  0  0  0  0  0  0  0  0  0
  146.8837  137.0191  156.2348 H   0  0  0  0  0  0  0  0  0  0  0  0
  146.5675  137.7586  158.5897 H   0  0  0  0  0  0  0  0  0  0  0  0
  147.0027  134.3245  150.8697 H   0  0  0  0  0  0  0  0  0  0  0  0
  145.6651  135.1417  151.6299 H   0  0  0  0  0  0  0  0  0  0  0  0
  1  2  1  0  0  0  0
  1 23  1  0  0  0  0
  1 24  1  0  0  0  0
  1 25  1  0  0  0  0
  2 22  1  0  0  0  0
  2  3  1  0  0  0  0
  2 26  1  0  0  0  0
  3  4  1  0  0  0  0
  3 27  1  0  0  0  0
  3 28  1  0  0  0  0
  4  5  1  0  0  0  0
  4 29  1  0  0  0  0
  4 30  1  0  0  0  0
  5  6  1  0  0  0  0
  5  9  1  0  0  0  0
  5 31  1  0  0  0  0
  6  7  1  0  0  0  0
  6  8  1  0  0  0  0
  6 32  1  0  0  0  0
  7 33  1  0  0  0  0
  7 34  1  0  0  0  0
  7 35  1  0  0  0  0
  8 36  1  0  0  0  0
  8 37  1  0  0  0  0
  8 38  1  0  0  0  0
  9 10  1  0  0  0  0
  9 22  1  0  0  0  0
  9 39  1  0  0  0  0
 10 11  1  0  0  0  0
 10 40  1  0  0  0  0
 11 12  2  0  0  0  0
 11 13  1  0  0  0  0
 13 14  1  0  0  0  0
 13 41  1  0  0  0  0
 13 42  1  0  0  0  0
 14 20  1  0  0  0  0
 14 15  1  0  0  0  0
 15 16  2  0  0  0  0
 15 43  1  0  0  0  0
 16 17  1  0  0  0  0
 16 44  1  0  0  0  0
 17 18  2  0  0  0  0
 17 19  1  0  0  0  0
 19 20  1  0  0  0  0
 20 21  2  0  0  0  0
 22 45  1  0  0  0  0
 22 46  1  0  0  0  0
M  CHG  1  19  -1
M  END
> <s_m_source_file>
AV-unprocessed.smi

> <i_m_source_file_index>
2855

> <i_lp_mmshare_version>
43012

> <i_f3d_flags>
0

> <s_epik_input>
W0NIM11bQ0BASF0xW0NIMl1bQ0gyXVtDQEBIXShbQ0hdKFtDSDNdKVtDSDNdKVtDQEhdKFtDSDJdMSlbTkhdQyg9TylbQ0gyXW4yW2NIXVtjSF1jKD1PKVtuSF1jMj1P

> <s_epik_cmdline>
J2VwaWtfcHl0aG9uJywgJy1waCcsICc3LjAnLCAnLXRuJywgJzgnLCAnLW1hJywgJzIwMCcsICctbWV0YWxfYmluZGluZycsICctaW1hZScsICc8aW5maWxlLm1hZT4nLCAnLW9tYWUnLCAnPG91dGZpbGUubWFlPic=

> <r_lp_tautomer_probability>
0.999537

> <r_epik_Ionization_Penalty>
3.12102

> <r_epik_Ionization_Penalty_Charging>
2.9581e-08

> <r_epik_Ionization_Penalty_Neutral>
3.12102

> <r_epik_State_Penalty>
3.12011

> <r_epik_Charging_Adjusted_Penalty>
3.12011

> <i_epik_Tot_Q>
-1

> <i_epik_Tot_abs_Q>
1

> <r_epik_Metal_State_Penalty>
0.463583

> <b_epik_Metal_Only>
1

> <s_lp_Force_Field>
OPLS_2005

> <r_lp_Energy>
25.3875

> <b_lp_Chiralities_Consistent>
1

> <s_lp_Variant>
AV-unprocessed.smi:2855-11

> <Gold.Version>
5.8.1

> <Gold.Id.Protein>
6NUR|6NUR_protein|mol2

> <Gold.PLP.Fitness>
39.9071

> <Gold.PLP.PLP>
-28.8403

> <Gold.PLP.part.hbond>
-4.8967

> <Gold.PLP.part.metal>
0.0000

> <Gold.PLP.part.buried>
-4.6151

> <Gold.PLP.part.nonpolar>
-19.7460

> <Gold.PLP.part.repulsive>
0.0121

> <Gold.PLP.ligand.clash>
0.0000

> <Gold.PLP.ligand.torsion>
0.5941

> <Gold.PLP.Chemscore.Hbond>
4.0658

> <Gold.PLP.Chemscore.CHOScore>
0.0000

> <Gold.PLP.Chemscore.Metal>
0.0000

> <Gold.Chemscore.Hbonds>
donor molecule, donor type, donor heavy atom, donor atom, acceptor molecule, acceptor atom, score
      L1  H    10    40       P1  7948  1.00
      P1  H  6896  6909       L1    19  2.00
      P1  H  6931  6943       L1    18  0.72
      P1  H  6934  6947       L1    18  0.34

> <Gold.PLP.Chemscore.Internal.Correction>
0.0576

> <Gold.Rescore>
     Score         DG    S(hbond)    S(metal)    S(lipo)     H(rot)  DE(clash)    DE(int)     intcor
     15.42     -16.89       2.77        0.00      57.97       1.81       0.03       1.45       ----

> <Gold.Chemscore.Fitness>
15.4208

> <Gold.Chemscore.DG>
-16.8939

> <Gold.Chemscore.ZeroCoef>
-5.4800

> <Gold.Chemscore.Hbond>
2.7741

> <Gold.Chemscore.Metal>
0.0000

> <Gold.Chemscore.Lipo>
57.9663

> <Gold.Chemscore.Internal_Hbond>
0.0000

> <Gold.Chemscore.DEClash>
0.0270

> <Gold.Chemscore.DEInternal>
1.4462

> <Gold.Chemscore.Rot>
1.8100

> <Gold.Chemscore.Internal.Correction>
   9.000000E+99

> <Gold.Chemscore.Hbonds>
donor molecule, donor type, donor heavy atom, donor atom, acceptor molecule, acceptor atom, score
      L1  H    10    40       P1  7948  0.88
      P1  H  6896  6909       L1    19  0.28
      P1  H  6931  6943       L1    18  0.71
      P1  H  6934  6947       L1    18  0.33

> <Gold.Chemscore.Hbond.Weighted>
-9.2653

> <Gold.Chemscore.Metal.Weighted>
-0.0000

> <Gold.Chemscore.Lipo.Weighted>
-6.7821

> <Gold.Chemscore.Internal_Hbond.Weighted>
0.0000

> <Gold.Chemscore.DEClash.Weighted>
0.0270

> <Gold.Chemscore.DEInternal.Weighted>
1.4462

> <Gold.Chemscore.Rot.Weighted>
4.6335

> <Gold.Chemscore.Internal.Correction.Weighted>
   9.000000E+99

> <Gold.Protein.RotatedTorsions>
[ 6907 6896 6895 6894 ] final   75.08 input  -60.11 | X-H torsion
[ 7974 7965 7964 7962 ] final  153.70 input  175.53 | X-H torsion
[ 8008 7997 7996 7995 ] final   32.84 input   59.86 | X-H torsion
[ 10167 10162 10161 10158 ] final  -86.16 input  -65.29 | X-H torsion
[ 10718 10713 10712 10709 ] final  -66.95 input   66.30 | X-H torsion
[ 10763 10752 10751 10750 ] final   63.02 input  -60.55 | X-H torsion
[ 11005 11000 10999 10996 ] final -173.38 input  -57.11 | X-H torsion

> <Gold.Protein.ActiveResidues>
 VAL166  LYS551  ARG553  GLY616  TRP617  ASP618  TYR619  PRO620  LYS621  CYS622 
 ASP623  PHE694  ASN695  SER759  ASP760  ASP761  ALA762  ILE779  LEU786  VAL792 
 PHE793  MET794  SER795  GLU796  ALA797  LYS798  CYS799  TRP800  GLU811  SER814 

> <Gold.Protein.RotatedAtoms>
  152.5008  134.4174  159.9468 H   0  0  0  0  0  0  0  0  0  0  0  0  # atno 6907 bound_to 6896
  151.4145  133.3711  159.2756 H   0  0  0  0  0  0  0  0  0  0  0  0  # atno 6908 bound_to 6896
  150.9267  134.8706  159.7584 H   0  0  0  0  0  0  0  0  0  0  0  0  # atno 6909 bound_to 6896
  144.8137  139.6835  143.6130 H   0  0  0  0  0  0  0  0  0  0  0  0  # atno 7974 bound_to 7965
  155.1289  140.3255  155.4479 H   0  0  0  0  0  0  0  0  0  0  0  0  # atno 8008 bound_to 7997
  156.2640  140.2014  156.6358 H   0  0  0  0  0  0  0  0  0  0  0  0  # atno 8009 bound_to 7997
  154.6627  140.0545  157.0067 H   0  0  0  0  0  0  0  0  0  0  0  0  # atno 8010 bound_to 7997
  140.3968  143.2680  151.9194 H   0  0  0  0  0  0  0  0  0  0  0  0  # atno 10167 bound_to 10162
  156.0584  130.4270  150.1784 H   0  0  0  0  0  0  0  0  0  0  0  0  # atno 10718 bound_to 10713
  153.0003  135.5444  154.6285 H   0  0  0  0  0  0  0  0  0  0  0  0  # atno 10763 bound_to 10752
  154.5568  135.2831  155.0959 H   0  0  0  0  0  0  0  0  0  0  0  0  # atno 10764 bound_to 10752
  154.2177  135.6456  153.5187 H   0  0  0  0  0  0  0  0  0  0  0  0  # atno 10765 bound_to 10752
  140.4864  134.6026  157.4938 H   0  0  0  0  0  0  0  0  0  0  0  0  # atno 11005 bound_to 11000
  146.2438  139.6056  142.9473 LP  0  0  0  0  0  0  0  0  0  0  0  0  # atno 17320 bound_to 7965
  145.5264  141.0429  143.2407 LP  0  0  0  0  0  0  0  0  0  0  0  0  # atno 17321 bound_to 7965
  139.4786  144.5673  151.8144 LP  0  0  0  0  0  0  0  0  0  0  0  0  # atno 17342 bound_to 10162
  140.4782  144.1488  150.5928 LP  0  0  0  0  0  0  0  0  0  0  0  0  # atno 17343 bound_to 10162
  156.9856  130.9877  151.3427 LP  0  0  0  0  0  0  0  0  0  0  0  0  # atno 17370 bound_to 10713
  157.5573  130.8222  149.8220 LP  0  0  0  0  0  0  0  0  0  0  0  0  # atno 17371 bound_to 10713
  139.9795  134.7160  155.9885 LP  0  0  0  0  0  0  0  0  0  0  0  0  # atno 17394 bound_to 11000
  141.1506  133.6549  156.4001 LP  0  0  0  0  0  0  0  0  0  0  0  0  # atno 17395 bound_to 11000

$$$$
