AV-unprocessed.smi:539|AV-procd|sdf|2867|dock1
  -GOLD-   2262023363D 1   1.00000     0.00000
 Structure written by MMmdl.
 40 42  0  0  0  0  0  0  0  0  1 V2000
  148.1833  141.4276  153.8904 C   0  0  0  0  0  0  0  0  0  0  0  0
  149.4846  141.7465  154.3492 O   0  0  0  0  0  0  0  0  0  0  0  0
  149.5941  141.6864  155.7621 C   0  0  0  0  0  0  0  0  0  0  0  0
  150.9804  142.1795  156.1997 C   0  0  0  0  0  0  0  0  0  0  0  0
  151.6620  141.2024  157.0462 N   0  0  0  0  0  0  0  0  0  0  0  0
  152.1785  141.3838  158.2911 C   0  0  0  0  0  0  0  0  0  0  0  0
  152.1461  142.6230  158.9266 N   0  0  0  0  0  0  0  0  0  0  0  0
  152.4920  142.8743  160.3186 C   0  0  0  0  0  0  0  0  0  0  0  0
  152.0306  144.2949  160.6689 C   0  0  0  0  0  0  0  0  0  0  0  0
  151.5975  144.8977  159.3367 C   0  0  0  0  0  0  0  0  0  0  0  0
  152.1973  143.9414  158.3144 C   0  0  0  0  0  0  0  0  0  0  0  0
  152.6669  140.2795  158.8611 N   0  0  0  0  0  0  0  0  0  0  0  0
  152.4722  139.3136  157.8855 C   0  0  0  0  0  0  0  0  0  0  0  0
  151.8646  139.8436  156.7929 C   0  0  0  0  0  0  0  0  0  0  0  0
  151.4997  139.0294  155.6245 C   0  0  0  0  0  0  0  0  0  0  0  0
  150.9369  139.4794  154.6292 O   0  0  0  0  0  0  0  0  0  0  0  0
  151.8420  137.7249  155.7574 N   0  0  0  0  0  0  0  0  0  0  0  0
  152.4574  137.1307  156.8244 C   0  0  0  0  0  0  0  0  0  0  0  0
  152.6996  135.9240  156.8010 O   0  0  0  0  0  0  0  0  0  0  0  0
  152.7814  137.9233  157.8955 N   0  0  0  0  0  0  0  0  0  0  0  0
  153.4380  137.3395  159.0667 C   0  0  0  0  0  0  0  0  0  0  0  0
  151.6122  137.1213  154.9815 H   0  0  0  0  0  0  0  0  0  0  0  0
  148.1534  141.4905  152.8029 H   0  0  0  0  0  0  0  0  0  0  0  0
  147.4432  142.1227  154.2888 H   0  0  0  0  0  0  0  0  0  0  0  0
  147.9020  140.4134  154.1771 H   0  0  0  0  0  0  0  0  0  0  0  0
  148.8201  142.3011  156.2235 H   0  0  0  0  0  0  0  0  0  0  0  0
  149.4420  140.6612  156.1039 H   0  0  0  0  0  0  0  0  0  0  0  0
  151.5947  142.4059  155.3308 H   0  0  0  0  0  0  0  0  0  0  0  0
  150.8833  143.1241  156.7270 H   0  0  0  0  0  0  0  0  0  0  0  0
  152.0151  142.1366  160.9643 H   0  0  0  0  0  0  0  0  0  0  0  0
  153.5710  142.7758  160.4437 H   0  0  0  0  0  0  0  0  0  0  0  0
  151.2047  144.2873  161.3809 H   0  0  0  0  0  0  0  0  0  0  0  0
  152.8498  144.8616  161.1125 H   0  0  0  0  0  0  0  0  0  0  0  0
  150.5093  144.8857  159.2599 H   0  0  0  0  0  0  0  0  0  0  0  0
  151.9363  145.9251  159.2022 H   0  0  0  0  0  0  0  0  0  0  0  0
  153.2431  144.1927  158.1310 H   0  0  0  0  0  0  0  0  0  0  0  0
  151.6861  143.9941  157.3554 H   0  0  0  0  0  0  0  0  0  0  0  0
  154.3336  136.7887  158.7754 H   0  0  0  0  0  0  0  0  0  0  0  0
  152.7631  136.6487  159.5738 H   0  0  0  0  0  0  0  0  0  0  0  0
  153.7459  138.0916  159.7928 H   0  0  0  0  0  0  0  0  0  0  0  0
  1  2  1  0  0  0  0
  1 23  1  0  0  0  0
  1 24  1  0  0  0  0
  1 25  1  0  0  0  0
  2  3  1  0  0  0  0
  3  4  1  0  0  0  0
  3 26  1  0  0  0  0
  3 27  1  0  0  0  0
  4  5  1  0  0  0  0
  4 28  1  0  0  0  0
  4 29  1  0  0  0  0
  5 14  1  0  0  0  0
  5  6  1  0  0  0  0
  6  7  1  0  0  0  0
  6 12  2  0  0  0  0
  7 11  1  0  0  0  0
  7  8  1  0  0  0  0
  8  9  1  0  0  0  0
  8 30  1  0  0  0  0
  8 31  1  0  0  0  0
  9 10  1  0  0  0  0
  9 32  1  0  0  0  0
  9 33  1  0  0  0  0
 10 11  1  0  0  0  0
 10 34  1  0  0  0  0
 10 35  1  0  0  0  0
 11 36  1  0  0  0  0
 11 37  1  0  0  0  0
 12 13  1  0  0  0  0
 13 20  1  0  0  0  0
 13 14  2  0  0  0  0
 14 15  1  0  0  0  0
 15 16  2  0  0  0  0
 15 17  1  0  0  0  0
 17 22  1  0  0  0  0
 17 18  1  0  0  0  0
 18 19  2  0  0  0  0
 18 20  1  0  0  0  0
 20 21  1  0  0  0  0
 21 38  1  0  0  0  0
 21 39  1  0  0  0  0
 21 40  1  0  0  0  0
M  END
> <s_m_source_file>
AV-unprocessed.smi

> <i_m_source_file_index>
539

> <i_lp_mmshare_version>
43012

> <i_f3d_flags>
0

> <s_epik_input>
W0NIM11uMWMoPU8pW25IXWMoPU8pYyhjMTIpbihbQ0gyXVtDSDJdT1tDSDNdKWMobjIpTjNbQ0gyXVtDSDJdW0NIMl1bQ0gyXTM=

> <s_epik_cmdline>
J2VwaWtfcHl0aG9uJywgJy1waCcsICc3LjAnLCAnLXRuJywgJzgnLCAnLW1hJywgJzIwMCcsICctbWV0YWxfYmluZGluZycsICctaW1hZScsICc8aW5maWxlLm1hZT4nLCAnLW9tYWUnLCAnPG91dGZpbGUubWFlPic=

> <r_lp_tautomer_probability>
1

> <r_epik_Ionization_Penalty>
0.000190904

> <r_epik_Ionization_Penalty_Charging>
2.17435e-05

> <r_epik_Ionization_Penalty_Neutral>
0.00016916

> <r_epik_State_Penalty>
-0

> <r_epik_Charging_Adjusted_Penalty>
2.17435e-05

> <i_epik_Tot_Q>
0

> <i_epik_Tot_abs_Q>
0

> <r_epik_Metal_State_Penalty>
0.0206064

> <b_epik_Metal_Only>
0

> <s_lp_Force_Field>
OPLS_2005

> <r_lp_Energy>
47.9611

> <b_lp_Chiralities_Consistent>
1

> <s_lp_Variant>
AV-unprocessed.smi:539-1

> <Gold.Version>
5.8.1

> <Gold.Id.Protein>
6NUR|6NUR_protein|mol2

> <Gold.PLP.Fitness>
47.0643

> <Gold.PLP.PLP>
-41.6252

> <Gold.PLP.part.hbond>
-4.0000

> <Gold.PLP.part.metal>
0.0000

> <Gold.PLP.part.buried>
-4.8507

> <Gold.PLP.part.nonpolar>
-31.7689

> <Gold.PLP.part.repulsive>
0.3991

> <Gold.PLP.ligand.clash>
0.0000

> <Gold.PLP.ligand.torsion>
0.6255

> <Gold.PLP.Chemscore.Hbond>
2.0919

> <Gold.PLP.Chemscore.CHOScore>
0.0000

> <Gold.PLP.Chemscore.Metal>
0.0000

> <Gold.Chemscore.Hbonds>
donor molecule, donor type, donor heavy atom, donor atom, acceptor molecule, acceptor atom, score
      P1  H  7989  7998       L1    16  1.00
      P1  H  8011  8017       L1     2  0.09
      P1  H 10752 10765       L1    19  1.00

> <Gold.PLP.Chemscore.Internal.Correction>
0.4144

> <Gold.Rescore>
     Score         DG    S(hbond)    S(metal)    S(lipo)     H(rot)  DE(clash)    DE(int)     intcor
     15.47     -17.26       1.93        0.00      78.70       1.52       0.23       1.56       ----

> <Gold.Chemscore.Fitness>
15.4726

> <Gold.Chemscore.DG>
-17.2565

> <Gold.Chemscore.ZeroCoef>
-5.4800

> <Gold.Chemscore.Hbond>
1.9309

> <Gold.Chemscore.Metal>
0.0000

> <Gold.Chemscore.Lipo>
78.7001

> <Gold.Chemscore.Internal_Hbond>
0.0000

> <Gold.Chemscore.DEClash>
0.2255

> <Gold.Chemscore.DEInternal>
1.5584

> <Gold.Chemscore.Rot>
1.5159

> <Gold.Chemscore.Internal.Correction>
   9.000000E+99

> <Gold.Chemscore.Hbonds>
donor molecule, donor type, donor heavy atom, donor atom, acceptor molecule, acceptor atom, score
      P1  H  7989  7998       L1    16  0.99
      P1  H 10752 10765       L1    19  0.85

> <Gold.Chemscore.Hbond.Weighted>
-6.4492

> <Gold.Chemscore.Metal.Weighted>
-0.0000

> <Gold.Chemscore.Lipo.Weighted>
-9.2079

> <Gold.Chemscore.Internal_Hbond.Weighted>
0.0000

> <Gold.Chemscore.DEClash.Weighted>
0.2255

> <Gold.Chemscore.DEInternal.Weighted>
1.5584

> <Gold.Chemscore.Rot.Weighted>
3.8806

> <Gold.Chemscore.Internal.Correction.Weighted>
   9.000000E+99

> <Gold.Protein.RotatedTorsions>
[ 6907 6896 6895 6894 ] final  120.15 input  -60.11 | X-H torsion
[ 7974 7965 7964 7962 ] final -161.67 input  175.53 | X-H torsion
[ 8008 7997 7996 7995 ] final  -60.78 input   59.86 | X-H torsion
[ 10167 10162 10161 10158 ] final  -90.30 input  -65.29 | X-H torsion
[ 10718 10713 10712 10709 ] final  152.38 input   66.30 | X-H torsion
[ 10763 10752 10751 10750 ] final -129.16 input  -60.55 | X-H torsion
[ 11005 11000 10999 10996 ] final  128.82 input  -57.11 | X-H torsion

> <Gold.Protein.ActiveResidues>
 VAL166  LYS551  ARG553  GLY616  TRP617  ASP618  TYR619  PRO620  LYS621  CYS622 
 ASP623  PHE694  ASN695  SER759  ASP760  ASP761  ALA762  ILE779  LEU786  VAL792 
 PHE793  MET794  SER795  GLU796  ALA797  LYS798  CYS799  TRP800  GLU811  SER814 

> <Gold.Protein.RotatedAtoms>
  152.4419  133.7464  159.6669 H   0  0  0  0  0  0  0  0  0  0  0  0  # atno 6907 bound_to 6896
  150.8312  133.8078  159.3104 H   0  0  0  0  0  0  0  0  0  0  0  0  # atno 6908 bound_to 6896
  151.5732  135.1064  160.0051 H   0  0  0  0  0  0  0  0  0  0  0  0  # atno 6909 bound_to 6896
  144.7383  140.3363  143.6143 H   0  0  0  0  0  0  0  0  0  0  0  0  # atno 7974 bound_to 7965
  154.4415  140.1032  156.6327 H   0  0  0  0  0  0  0  0  0  0  0  0  # atno 8008 bound_to 7997
  155.5587  140.3487  155.4467 H   0  0  0  0  0  0  0  0  0  0  0  0  # atno 8009 bound_to 7997
  156.0475  140.1296  157.0076 H   0  0  0  0  0  0  0  0  0  0  0  0  # atno 8010 bound_to 7997
  140.3562  143.2865  151.9668 H   0  0  0  0  0  0  0  0  0  0  0  0  # atno 10167 bound_to 10162
  157.2586  131.0793  151.1681 H   0  0  0  0  0  0  0  0  0  0  0  0  # atno 10718 bound_to 10713
  154.8757  135.3904  154.3875 H   0  0  0  0  0  0  0  0  0  0  0  0  # atno 10763 bound_to 10752
  153.4614  135.7029  153.6053 H   0  0  0  0  0  0  0  0  0  0  0  0  # atno 10764 bound_to 10752
  153.4550  135.3825  155.2274 H   0  0  0  0  0  0  0  0  0  0  0  0  # atno 10765 bound_to 10752
  139.9581  134.9608  156.9057 H   0  0  0  0  0  0  0  0  0  0  0  0  # atno 11005 bound_to 11000
  145.7420  139.1767  143.2371 LP  0  0  0  0  0  0  0  0  0  0  0  0  # atno 17320 bound_to 7965
  146.1127  140.7408  142.9495 LP  0  0  0  0  0  0  0  0  0  0  0  0  # atno 17321 bound_to 7965
  139.4820  144.6033  151.7567 LP  0  0  0  0  0  0  0  0  0  0  0  0  # atno 17342 bound_to 10162
  140.5171  144.0936  150.6011 LP  0  0  0  0  0  0  0  0  0  0  0  0  # atno 17343 bound_to 10162
  157.3201  130.6932  149.6264 LP  0  0  0  0  0  0  0  0  0  0  0  0  # atno 17370 bound_to 10713
  155.9664  130.4338  150.5022 LP  0  0  0  0  0  0  0  0  0  0  0  0  # atno 17371 bound_to 10713
  140.5562  134.0579  155.7384 LP  0  0  0  0  0  0  0  0  0  0  0  0  # atno 17394 bound_to 11000
  141.1255  133.9390  157.2643 LP  0  0  0  0  0  0  0  0  0  0  0  0  # atno 17395 bound_to 11000

$$$$
