AV-unprocessed.smi:513|AV-procd|sdf|2775|dock5
  -GOLD-   2262023243D 1   1.00000     0.00000
 Structure written by MMmdl.
 41 43  0  0  0  0  0  0  0  0  2 V2000
  151.7634  145.7816  160.0813 C   0  0  0  0  0  0  0  0  0  0  0  0
  150.8212  144.7603  159.8093 O   0  0  0  0  0  0  0  0  0  0  0  0
  151.0843  144.0836  158.5914 C   0  0  0  0  0  0  0  0  0  0  0  0
  150.6067  142.6261  158.6772 C   0  0  0  0  0  0  0  0  0  0  0  0
  151.7162  141.6881  158.8279 N   0  0  0  0  0  0  0  0  0  0  0  0
  152.1346  140.7646  157.9269 C   0  0  0  0  0  0  0  0  0  0  0  0
  151.5021  140.6331  156.6962 N   0  0  0  0  0  0  0  0  0  0  0  0
  151.0964  141.7528  155.8543 C   0  0  0  0  0  0  0  0  0  0  0  0
  149.7089  141.5075  155.2305 C   0  0  0  0  0  0  0  0  0  0  0  0
  149.7431  140.3000  154.4126 N   0  0  0  0  0  0  0  0  0  0  0  0
  150.1026  139.1744  155.2677 C   0  0  0  0  0  0  0  0  0  0  0  0
  151.4907  139.4159  155.8932 C   0  0  0  0  0  0  0  0  0  0  0  0
  153.1741  140.0247  158.3136 N   0  0  0  0  0  0  0  0  0  0  0  0
  153.4411  140.5239  159.5805 C   0  0  0  0  0  0  0  0  0  0  0  0
  152.5796  141.5224  159.9151 C   0  0  0  0  0  0  0  0  0  0  0  0
  152.6173  142.2405  161.2076 C   0  0  0  0  0  0  0  0  0  0  0  0
  151.8150  143.1364  161.4617 O   0  0  0  0  0  0  0  0  0  0  0  0
  153.6189  141.7814  162.0231 N   0  5  0  0  0  0  0  0  0  0  0  0
  154.5132  140.7752  161.7243 C   0  0  0  0  0  0  0  0  0  0  0  0
  155.3823  140.4284  162.5246 O   0  0  0  0  0  0  0  0  0  0  0  0
  154.4419  140.1391  160.5111 N   0  0  0  0  0  0  0  0  0  0  0  0
  155.3578  139.0649  160.1148 C   0  0  0  0  0  0  0  0  0  0  0  0
  151.5180  146.2627  161.0280 H   0  0  0  0  0  0  0  0  0  0  0  0
  151.7519  146.5446  159.3020 H   0  0  0  0  0  0  0  0  0  0  0  0
  152.7728  145.3763  160.1615 H   0  0  0  0  0  0  0  0  0  0  0  0
  150.5756  144.5929  157.7726 H   0  0  0  0  0  0  0  0  0  0  0  0
  152.1531  144.1082  158.3749 H   0  0  0  0  0  0  0  0  0  0  0  0
  149.9265  142.5107  159.5208 H   0  0  0  0  0  0  0  0  0  0  0  0
  150.0204  142.3608  157.7995 H   0  0  0  0  0  0  0  0  0  0  0  0
  151.0734  142.6619  156.4562 H   0  0  0  0  0  0  0  0  0  0  0  0
  151.8445  141.9109  155.0762 H   0  0  0  0  0  0  0  0  0  0  0  0
  148.9461  141.4127  156.0045 H   0  0  0  0  0  0  0  0  0  0  0  0
  149.4259  142.3526  154.6026 H   0  0  0  0  0  0  0  0  0  0  0  0
  148.8322  140.1401  154.0068 H   0  0  0  0  0  0  0  0  0  0  0  0
  149.3451  139.0395  156.0408 H   0  0  0  0  0  0  0  0  0  0  0  0
  150.1148  138.2643  154.6679 H   0  0  0  0  0  0  0  0  0  0  0  0
  152.2541  139.4867  155.1171 H   0  0  0  0  0  0  0  0  0  0  0  0
  151.7632  138.5689  156.5237 H   0  0  0  0  0  0  0  0  0  0  0  0
  156.1150  138.8194  160.8599 H   0  0  0  0  0  0  0  0  0  0  0  0
  155.8823  139.3443  159.2007 H   0  0  0  0  0  0  0  0  0  0  0  0
  154.7940  138.1539  159.9120 H   0  0  0  0  0  0  0  0  0  0  0  0
  1  2  1  0  0  0  0
  1 23  1  0  0  0  0
  1 24  1  0  0  0  0
  1 25  1  0  0  0  0
  2  3  1  0  0  0  0
  3  4  1  0  0  0  0
  3 26  1  0  0  0  0
  3 27  1  0  0  0  0
  4  5  1  0  0  0  0
  4 28  1  0  0  0  0
  4 29  1  0  0  0  0
  5 15  1  0  0  0  0
  5  6  1  0  0  0  0
  6  7  1  0  0  0  0
  6 13  2  0  0  0  0
  7 12  1  0  0  0  0
  7  8  1  0  0  0  0
  8  9  1  0  0  0  0
  8 30  1  0  0  0  0
  8 31  1  0  0  0  0
  9 10  1  0  0  0  0
  9 32  1  0  0  0  0
  9 33  1  0  0  0  0
 10 11  1  0  0  0  0
 10 34  1  0  0  0  0
 11 12  1  0  0  0  0
 11 35  1  0  0  0  0
 11 36  1  0  0  0  0
 12 37  1  0  0  0  0
 12 38  1  0  0  0  0
 13 14  1  0  0  0  0
 14 21  1  0  0  0  0
 14 15  2  0  0  0  0
 15 16  1  0  0  0  0
 16 17  2  0  0  0  0
 16 18  1  0  0  0  0
 18 19  1  0  0  0  0
 19 20  2  0  0  0  0
 19 21  1  0  0  0  0
 21 22  1  0  0  0  0
 22 39  1  0  0  0  0
 22 40  1  0  0  0  0
 22 41  1  0  0  0  0
M  CHG  1  18  -1
M  END
> <s_m_source_file>
AV-unprocessed.smi

> <i_m_source_file_index>
513

> <i_lp_mmshare_version>
43012

> <i_f3d_flags>
0

> <s_epik_input>
W0NIM11uMWMoPU8pW25IXWMoPU8pYyhjMTIpbihbQ0gyXVtDSDJdT1tDSDNdKWMobjIpTjNbQ0gyXVtDSDJdW05IXVtDSDJdW0NIMl0z

> <s_epik_cmdline>
J2VwaWtfcHl0aG9uJywgJy1waCcsICc3LjAnLCAnLXRuJywgJzgnLCAnLW1hJywgJzIwMCcsICctbWV0YWxfYmluZGluZycsICctaW1hZScsICc8aW5maWxlLm1hZT4nLCAnLW9tYWUnLCAnPG91dGZpbGUubWFlPic=

> <r_epik_Ionization_Penalty>
8.82084

> <r_epik_Ionization_Penalty_Charging>
0.08198

> <r_epik_Ionization_Penalty_Neutral>
8.73886

> <r_epik_State_Penalty>
8.90453

> <r_epik_Charging_Adjusted_Penalty>
8.98651

> <i_epik_Tot_Q>
-1

> <i_epik_Tot_abs_Q>
1

> <r_epik_Metal_State_Penalty>
4.85612

> <b_epik_Metal_Only>
1

> <s_lp_Force_Field>
OPLS_2005

> <r_lp_Energy>
54.8501

> <b_lp_Chiralities_Consistent>
1

> <s_lp_Variant>
AV-unprocessed.smi:513-4

> <Gold.Version>
5.8.1

> <Gold.Id.Protein>
6NUR|6NUR_protein|mol2

> <Gold.PLP.Fitness>
44.0756

> <Gold.PLP.PLP>
-42.1409

> <Gold.PLP.part.hbond>
-3.7464

> <Gold.PLP.part.metal>
0.0000

> <Gold.PLP.part.buried>
-4.8479

> <Gold.PLP.part.nonpolar>
-32.3178

> <Gold.PLP.part.repulsive>
0.2878

> <Gold.PLP.ligand.clash>
0.1608

> <Gold.PLP.ligand.torsion>
1.0585

> <Gold.PLP.Chemscore.Hbond>
1.0673

> <Gold.PLP.Chemscore.CHOScore>
0.0000

> <Gold.PLP.Chemscore.Metal>
0.0000

> <Gold.Chemscore.Hbonds>
donor molecule, donor type, donor heavy atom, donor atom, acceptor molecule, acceptor atom, score
      P1  H  6933  6945       L1    17  0.08
      P1  H  7989  7998       L1    10  0.35
      P1  H  7997  8010       L1    13  0.44

> <Gold.PLP.Chemscore.Internal.Correction>
1.0107

> <Gold.Rescore>
     Score         DG    S(hbond)    S(metal)    S(lipo)     H(rot)  DE(clash)    DE(int)     intcor
     11.18     -13.98       1.42        0.00      65.66       1.53       0.65       2.15       ----

> <Gold.Chemscore.Fitness>
11.1780

> <Gold.Chemscore.DG>
-13.9773

> <Gold.Chemscore.ZeroCoef>
-5.4800

> <Gold.Chemscore.Hbond>
1.4203

> <Gold.Chemscore.Metal>
0.0000

> <Gold.Chemscore.Lipo>
65.6623

> <Gold.Chemscore.Internal_Hbond>
0.0000

> <Gold.Chemscore.DEClash>
0.6534

> <Gold.Chemscore.DEInternal>
2.1459

> <Gold.Chemscore.Rot>
1.5348

> <Gold.Chemscore.Internal.Correction>
   9.000000E+99

> <Gold.Chemscore.Hbonds>
donor molecule, donor type, donor heavy atom, donor atom, acceptor molecule, acceptor atom, score
      P1  H  6933  6945       L1    17  0.02
      P1  H  7989  7998       L1    10  0.01
      P1  H  7997  8010       L1    13  0.21

> <Gold.Chemscore.Hbond.Weighted>
-4.7438

> <Gold.Chemscore.Metal.Weighted>
-0.0000

> <Gold.Chemscore.Lipo.Weighted>
-7.6825

> <Gold.Chemscore.Internal_Hbond.Weighted>
0.0000

> <Gold.Chemscore.DEClash.Weighted>
0.6534

> <Gold.Chemscore.DEInternal.Weighted>
2.1459

> <Gold.Chemscore.Rot.Weighted>
3.9290

> <Gold.Chemscore.Internal.Correction.Weighted>
   9.000000E+99

> <Gold.Protein.RotatedTorsions>
[ 6907 6896 6895 6894 ] final  116.50 input  -60.11 | X-H torsion
[ 7974 7965 7964 7962 ] final   76.37 input  175.53 | X-H torsion
[ 8008 7997 7996 7995 ] final    2.07 input   59.86 | X-H torsion
[ 10167 10162 10161 10158 ] final -121.15 input  -65.29 | X-H torsion
[ 10718 10713 10712 10709 ] final   68.89 input   66.30 | X-H torsion
[ 10763 10752 10751 10750 ] final  170.82 input  -60.55 | X-H torsion
[ 11005 11000 10999 10996 ] final  102.02 input  -57.11 | X-H torsion

> <Gold.Protein.ActiveResidues>
 VAL166  LYS551  ARG553  GLY616  TRP617  ASP618  TYR619  PRO620  LYS621  CYS622 
 ASP623  PHE694  ASN695  SER759  ASP760  ASP761  ALA762  ILE779  LEU786  VAL792 
 PHE793  MET794  SER795  GLU796  ALA797  LYS798  CYS799  TRP800  GLU811  SER814 

> <Gold.Protein.RotatedAtoms>
  152.4674  133.7953  159.6923 H   0  0  0  0  0  0  0  0  0  0  0  0  # atno 6907 bound_to 6896
  150.8645  133.7585  159.2987 H   0  0  0  0  0  0  0  0  0  0  0  0  # atno 6908 bound_to 6896
  151.5139  135.1069  159.9913 H   0  0  0  0  0  0  0  0  0  0  0  0  # atno 6909 bound_to 6896
  145.7037  139.2591  143.1691 H   0  0  0  0  0  0  0  0  0  0  0  0  # atno 7974 bound_to 7965
  154.6873  140.2645  155.6848 H   0  0  0  0  0  0  0  0  0  0  0  0  # atno 8008 bound_to 7997
  156.2719  140.2798  156.1361 H   0  0  0  0  0  0  0  0  0  0  0  0  # atno 8009 bound_to 7997
  155.0947  140.0374  157.2669 H   0  0  0  0  0  0  0  0  0  0  0  0  # atno 8010 bound_to 7997
  140.0281  143.5276  152.2189 H   0  0  0  0  0  0  0  0  0  0  0  0  # atno 10167 bound_to 10162
  157.6315  130.9397  150.0439 H   0  0  0  0  0  0  0  0  0  0  0  0  # atno 10718 bound_to 10713
  154.4030  135.2755  155.2085 H   0  0  0  0  0  0  0  0  0  0  0  0  # atno 10763 bound_to 10752
  154.4102  135.6024  153.5952 H   0  0  0  0  0  0  0  0  0  0  0  0  # atno 10764 bound_to 10752
  152.9831  135.5947  154.4301 H   0  0  0  0  0  0  0  0  0  0  0  0  # atno 10765 bound_to 10752
  139.8775  134.9207  156.4995 H   0  0  0  0  0  0  0  0  0  0  0  0  # atno 11005 bound_to 11000
  146.0775  140.7801  142.9658 LP  0  0  0  0  0  0  0  0  0  0  0  0  # atno 17320 bound_to 7965
  144.6961  140.3437  143.7194 LP  0  0  0  0  0  0  0  0  0  0  0  0  # atno 17321 bound_to 7965
  139.6094  144.7605  151.2986 LP  0  0  0  0  0  0  0  0  0  0  0  0  # atno 17342 bound_to 10162
  140.7314  143.6853  150.7967 LP  0  0  0  0  0  0  0  0  0  0  0  0  # atno 17343 bound_to 10162
  156.1522  130.3642  149.9422 LP  0  0  0  0  0  0  0  0  0  0  0  0  # atno 17370 bound_to 10713
  156.7439  130.9090  151.3634 LP  0  0  0  0  0  0  0  0  0  0  0  0  # atno 17371 bound_to 10713
  140.8599  133.8067  155.9255 LP  0  0  0  0  0  0  0  0  0  0  0  0  # atno 17394 bound_to 11000
  140.9059  134.2320  157.5014 LP  0  0  0  0  0  0  0  0  0  0  0  0  # atno 17395 bound_to 11000

$$$$
