AV-unprocessed.smi:1870|AV-procd|sdf|7598|dock5
  -GOLD-   22720 9313D 1   1.00000     0.00000
 Structure written by MMmdl.
 47 49  0  0  0  0  0  0  0  0  1 V2000
  155.9296  137.6650  163.8043 C   0  0  0  0  0  0  0  0  0  0  0  0
  155.9348  136.7635  162.5994 C   0  0  0  0  0  0  0  0  0  0  0  0
  155.8735  137.3392  161.4438 N   0  0  0  0  0  0  0  0  0  0  0  0
  155.8650  136.6058  160.2741 N   0  0  0  0  0  0  0  0  0  0  0  0
  155.7861  137.4244  159.0573 C   0  0  0  0  0  0  0  0  0  0  0  0
  155.5036  138.9101  159.3764 C   0  0  1  0  0  0  0  0  0  0  0  0
  156.1010  139.6928  158.3619 O   0  0  0  0  0  0  0  0  0  0  0  0
  154.0106  139.2994  159.3936 C   0  0  0  0  0  0  0  0  0  0  0  0
  153.7412  140.6625  159.8555 N   0  0  0  0  0  0  0  0  0  0  0  0
  153.6258  140.7440  161.3109 C   0  0  0  0  0  0  0  0  0  0  0  0
  153.6276  142.2026  161.7938 C   0  0  0  0  0  0  0  0  0  0  0  0
  152.6779  143.0722  160.9854 C   0  0  0  0  0  0  0  0  0  0  0  0
  152.3266  144.3566  161.4482 C   0  0  0  0  0  0  0  0  0  0  0  0
  151.4679  145.1712  160.6850 C   0  0  0  0  0  0  0  0  0  0  0  0
  150.9587  144.7036  159.4580 C   0  0  0  0  0  0  0  0  0  0  0  0
  151.3068  143.4207  158.9924 C   0  0  0  0  0  0  0  0  0  0  0  0
  152.1706  142.6029  159.7496 C   0  0  0  0  0  0  0  0  0  0  0  0
  152.5190  141.2033  159.2563 C   0  0  0  0  0  0  0  0  0  0  0  0
  155.9157  135.2440  160.2107 C   0  0  0  0  0  0  0  0  0  0  0  0
  155.8956  134.6285  159.1437 O   0  0  0  0  0  0  0  0  0  0  0  0
  155.9913  134.5983  161.5231 C   0  0  0  0  0  0  0  0  0  0  0  0
  156.0478  133.1721  161.5031 C   0  0  0  0  0  0  0  0  0  0  0  0
  156.0732  132.0147  161.4891 N   0  0  0  0  0  0  0  0  0  0  0  0
  156.0041  135.3079  162.6792 C   0  0  0  0  0  0  0  0  0  0  0  0
  156.0782  134.6846  164.0664 C   0  0  0  0  0  0  0  0  0  0  0  0
  155.1239  137.3951  164.4874 H   0  0  0  0  0  0  0  0  0  0  0  0
  155.7883  138.7114  163.5288 H   0  0  0  0  0  0  0  0  0  0  0  0
  156.8727  137.5906  164.3462 H   0  0  0  0  0  0  0  0  0  0  0  0
  156.6938  137.3274  158.4584 H   0  0  0  0  0  0  0  0  0  0  0  0
  154.9904  137.0126  158.4386 H   0  0  0  0  0  0  0  0  0  0  0  0
  155.9486  139.1881  160.3326 H   0  0  0  0  0  0  0  0  0  0  0  0
  156.8297  139.2101  158.0027 H   0  0  0  0  0  0  0  0  0  0  0  0
  153.6496  139.1947  158.3689 H   0  0  0  0  0  0  0  0  0  0  0  0
  153.4312  138.5780  159.9725 H   0  0  0  0  0  0  0  0  0  0  0  0
  152.7022  140.2570  161.6285 H   0  0  0  0  0  0  0  0  0  0  0  0
  154.4301  140.2038  161.8064 H   0  0  0  0  0  0  0  0  0  0  0  0
  153.3608  142.2481  162.8502 H   0  0  0  0  0  0  0  0  0  0  0  0
  154.6312  142.6193  161.7008 H   0  0  0  0  0  0  0  0  0  0  0  0
  152.7180  144.7212  162.3865 H   0  0  0  0  0  0  0  0  0  0  0  0
  151.2008  146.1553  161.0404 H   0  0  0  0  0  0  0  0  0  0  0  0
  150.2992  145.3289  158.8745 H   0  0  0  0  0  0  0  0  0  0  0  0
  150.9076  143.0654  158.0537 H   0  0  0  0  0  0  0  0  0  0  0  0
  152.6267  141.2350  158.1713 H   0  0  0  0  0  0  0  0  0  0  0  0
  151.6736  140.5476  159.4712 H   0  0  0  0  0  0  0  0  0  0  0  0
  156.2358  133.6071  164.0262 H   0  0  0  0  0  0  0  0  0  0  0  0
  155.1520  134.8633  164.6132 H   0  0  0  0  0  0  0  0  0  0  0  0
  156.9034  135.1107  164.6382 H   0  0  0  0  0  0  0  0  0  0  0  0
  1  2  1  0  0  0  0
  1 26  1  0  0  0  0
  1 27  1  0  0  0  0
  1 28  1  0  0  0  0
  2 24  1  0  0  0  0
  2  3  2  0  0  0  0
  3  4  1  0  0  0  0
  4  5  1  0  0  0  0
  4 19  1  0  0  0  0
  5  6  1  0  0  0  0
  5 29  1  0  0  0  0
  5 30  1  0  0  0  0
  6  7  1  0  0  0  0
  6  8  1  0  0  0  0
  6 31  1  0  0  0  0
  7 32  1  0  0  0  0
  8  9  1  0  0  0  0
  8 33  1  0  0  0  0
  8 34  1  0  0  0  0
  9 18  1  0  0  0  0
  9 10  1  0  0  0  0
 10 11  1  0  0  0  0
 10 35  1  0  0  0  0
 10 36  1  0  0  0  0
 11 12  1  0  0  0  0
 11 37  1  0  0  0  0
 11 38  1  0  0  0  0
 12 17  2  0  0  0  0
 12 13  1  0  0  0  0
 13 14  2  0  0  0  0
 13 39  1  0  0  0  0
 14 15  1  0  0  0  0
 14 40  1  0  0  0  0
 15 16  2  0  0  0  0
 15 41  1  0  0  0  0
 16 17  1  0  0  0  0
 16 42  1  0  0  0  0
 17 18  1  0  0  0  0
 18 43  1  0  0  0  0
 18 44  1  0  0  0  0
 19 20  2  0  0  0  0
 19 21  1  0  0  0  0
 21 22  1  0  0  0  0
 21 24  2  0  0  0  0
 22 23  3  0  0  0  0
 24 25  1  0  0  0  0
 25 45  1  0  0  0  0
 25 46  1  0  0  0  0
 25 47  1  0  0  0  0
M  END
> <s_m_source_file>
AV-unprocessed.smi

> <i_m_source_file_index>
1870

> <i_lp_mmshare_version>
43012

> <i_f3d_flags>
0

> <s_epik_input>
TiNDYyhjMVtDSDNdKWMoPU8pbihuYzFbQ0gzXSlbQ0gyXVtDQEhdKFtPSF0pW0NIMl1OKFtDSDJdW0NIMl0yKVtDSDJdYyhjMjMpW2NIXVtjSF1bY0hdW2NIXTM=

> <s_epik_cmdline>
J2VwaWtfcHl0aG9uJywgJy1waCcsICc3LjAnLCAnLXRuJywgJzgnLCAnLW1hJywgJzIwMCcsICctbWV0YWxfYmluZGluZycsICctaW1hZScsICc8aW5maWxlLm1hZT4nLCAnLW9tYWUnLCAnPG91dGZpbGUubWFlPic=

> <r_epik_Ionization_Penalty>
2.30251

> <r_epik_Ionization_Penalty_Charging>
1.06171e-10

> <r_epik_Ionization_Penalty_Neutral>
2.30251

> <r_epik_State_Penalty>
2.45335

> <r_epik_Charging_Adjusted_Penalty>
2.45335

> <i_epik_Tot_Q>
0

> <i_epik_Tot_abs_Q>
0

> <r_epik_Metal_State_Penalty>
2.45335

> <b_epik_Metal_Only>
0

> <s_lp_Force_Field>
OPLS_2005

> <r_lp_Energy>
48.2343

> <b_lp_Chiralities_Consistent>
1

> <s_lp_Variant>
AV-unprocessed.smi:1870-6

> <Gold.Version>
5.8.1

> <Gold.Id.Protein>
6NUR|6NUR_protein|mol2

> <Gold.PLP.Fitness>
48.3675

> <Gold.PLP.PLP>
-47.0018

> <Gold.PLP.part.hbond>
-1.0000

> <Gold.PLP.part.metal>
0.0000

> <Gold.PLP.part.buried>
-6.8648

> <Gold.PLP.part.nonpolar>
-39.3768

> <Gold.PLP.part.repulsive>
0.0000

> <Gold.PLP.ligand.clash>
0.0000

> <Gold.PLP.ligand.torsion>
0.8244

> <Gold.PLP.Chemscore.Hbond>
1.0000

> <Gold.PLP.Chemscore.CHOScore>
0.0000

> <Gold.PLP.Chemscore.Metal>
0.0000

> <Gold.Chemscore.Hbonds>
donor molecule, donor type, donor heavy atom, donor atom, acceptor molecule, acceptor atom, score
      P1  H  7997  8010       L1     7  0.07

> <Gold.PLP.Chemscore.Internal.Correction>
0.0144

> <Gold.Rescore>
     Score         DG    S(hbond)    S(metal)    S(lipo)     H(rot)  DE(clash)    DE(int)     intcor
     19.17     -19.65       0.96        0.00     139.48       2.10       0.05       0.42       ----

> <Gold.Chemscore.Fitness>
19.1738

> <Gold.Chemscore.DG>
-19.6485

> <Gold.Chemscore.ZeroCoef>
-5.4800

> <Gold.Chemscore.Hbond>
0.9635

> <Gold.Chemscore.Metal>
0.0000

> <Gold.Chemscore.Lipo>
139.4783

> <Gold.Chemscore.Internal_Hbond>
0.0000

> <Gold.Chemscore.DEClash>
0.0516

> <Gold.Chemscore.DEInternal>
0.4232

> <Gold.Chemscore.Rot>
2.0971

> <Gold.Chemscore.Internal.Correction>
   9.000000E+99

> <Gold.Chemscore.Hbond.Weighted>
-3.2181

> <Gold.Chemscore.Metal.Weighted>
-0.0000

> <Gold.Chemscore.Lipo.Weighted>
-16.3190

> <Gold.Chemscore.Internal_Hbond.Weighted>
0.0000

> <Gold.Chemscore.DEClash.Weighted>
0.0516

> <Gold.Chemscore.DEInternal.Weighted>
0.4232

> <Gold.Chemscore.Rot.Weighted>
5.3685

> <Gold.Chemscore.Internal.Correction.Weighted>
   9.000000E+99

> <Gold.Protein.RotatedTorsions>
[ 6907 6896 6895 6894 ] final  143.38 input  -60.11 | X-H torsion
[ 7974 7965 7964 7962 ] final -129.61 input  175.53 | X-H torsion
[ 8008 7997 7996 7995 ] final  -47.68 input   59.86 | X-H torsion
[ 10167 10162 10161 10158 ] final  168.33 input  -65.29 | X-H torsion
[ 10718 10713 10712 10709 ] final   44.75 input   66.30 | X-H torsion
[ 10763 10752 10751 10750 ] final   31.04 input  -60.55 | X-H torsion
[ 11005 11000 10999 10996 ] final   -5.26 input  -57.11 | X-H torsion

> <Gold.Protein.ActiveResidues>
 VAL166  LYS551  ARG553  GLY616  TRP617  ASP618  TYR619  PRO620  LYS621  CYS622 
 ASP623  PHE694  ASN695  SER759  ASP760  ASP761  ALA762  ILE779  LEU786  VAL792 
 PHE793  MET794  SER795  GLU796  ALA797  LYS798  CYS799  TRP800  GLU811  SER814 

> <Gold.Protein.RotatedAtoms>
  152.2070  133.4882  159.5088 H   0  0  0  0  0  0  0  0  0  0  0  0  # atno 6907 bound_to 6896
  150.6981  134.1517  159.4152 H   0  0  0  0  0  0  0  0  0  0  0  0  # atno 6908 bound_to 6896
  151.9436  135.0202  160.0588 H   0  0  0  0  0  0  0  0  0  0  0  0  # atno 6909 bound_to 6896
  144.9555  140.7390  143.4761 H   0  0  0  0  0  0  0  0  0  0  0  0  # atno 7974 bound_to 7965
  154.4019  140.1340  156.4215 H   0  0  0  0  0  0  0  0  0  0  0  0  # atno 8008 bound_to 7997
  155.7638  140.3485  155.5191 H   0  0  0  0  0  0  0  0  0  0  0  0  # atno 8009 bound_to 7997
  155.8833  140.0991  157.1460 H   0  0  0  0  0  0  0  0  0  0  0  0  # atno 8010 bound_to 7997
  139.4965  144.3826  151.9606 H   0  0  0  0  0  0  0  0  0  0  0  0  # atno 10167 bound_to 10162
  157.4302  130.8020  149.7596 H   0  0  0  0  0  0  0  0  0  0  0  0  # atno 10718 bound_to 10713
  153.0337  135.6449  154.1138 H   0  0  0  0  0  0  0  0  0  0  0  0  # atno 10763 bound_to 10752
  154.0856  135.2870  155.3283 H   0  0  0  0  0  0  0  0  0  0  0  0  # atno 10764 bound_to 10752
  154.6500  135.5429  153.7954 H   0  0  0  0  0  0  0  0  0  0  0  0  # atno 10765 bound_to 10752
  140.6893  133.9085  155.8607 H   0  0  0  0  0  0  0  0  0  0  0  0  # atno 11005 bound_to 11000
  145.2779  139.1929  143.4806 LP  0  0  0  0  0  0  0  0  0  0  0  0  # atno 17320 bound_to 7965
  146.3335  140.2736  142.8607 LP  0  0  0  0  0  0  0  0  0  0  0  0  # atno 17321 bound_to 7965
  140.3262  144.3369  150.5998 LP  0  0  0  0  0  0  0  0  0  0  0  0  # atno 17342 bound_to 10162
  140.5682  143.2184  151.7646 LP  0  0  0  0  0  0  0  0  0  0  0  0  # atno 17343 bound_to 10162
  155.9910  130.3940  150.3001 LP  0  0  0  0  0  0  0  0  0  0  0  0  # atno 17370 bound_to 10713
  157.1157  131.0233  151.3030 LP  0  0  0  0  0  0  0  0  0  0  0  0  # atno 17371 bound_to 10713
  141.0255  134.0830  157.4073 LP  0  0  0  0  0  0  0  0  0  0  0  0  # atno 17394 bound_to 11000
  139.8928  135.0127  156.6866 LP  0  0  0  0  0  0  0  0  0  0  0  0  # atno 17395 bound_to 11000

$$$$
