AV-unprocessed.smi:34|AV-procd|sdf|236|dock8
  -GOLD-   2262015573D 1   1.00000     0.00000
 Structure written by MMmdl.
 54 58  0  0  0  0  0  0  0  0  2 V2000
  154.2714  140.5135  159.6334 O   0  0  0  0  0  0  0  0  0  0  0  0
  153.1307  140.8572  159.3162 C   0  0  0  0  0  0  0  0  0  0  0  0
  152.2907  140.2491  158.4409 N   0  5  0  0  0  0  0  0  0  0  0  0
  152.4958  138.9685  158.0953 C   0  0  0  0  0  0  0  0  0  0  0  0
  153.6060  138.6158  157.3983 N   0  0  0  0  0  0  0  0  0  0  0  0
  153.8078  137.3402  157.0478 C   0  0  0  0  0  0  0  0  0  0  0  0
  153.0385  136.2730  157.2819 N   0  0  0  0  0  0  0  0  0  0  0  0
  151.9134  136.6143  157.9754 C   0  0  0  0  0  0  0  0  0  0  0  0
  151.5766  137.9299  158.4102 C   0  0  0  0  0  0  0  0  0  0  0  0
  150.3667  137.9301  159.0881 N   0  0  0  0  0  0  0  0  0  0  0  0
  150.0312  136.6432  159.0396 C   0  0  0  0  0  0  0  0  0  0  0  0
  150.8769  135.8025  158.4115 N   0  0  0  0  0  0  0  0  0  0  0  0
  150.7108  134.3253  158.2363 C   0  0  1  0  0  0  0  0  0  0  0  0
  149.4247  133.9510  158.6256 O   0  0  0  0  0  0  0  0  0  0  0  0
  148.8876  132.9793  157.7279 C   0  0  1  0  0  0  0  0  0  0  0  0
  147.6392  133.5714  157.0587 C   0  0  0  0  0  0  0  0  0  0  0  0
  147.1512  132.6625  156.0849 O   0  0  0  0  0  0  0  0  0  0  0  0
  145.8577  132.7040  155.7105 C   0  0  0  0  0  0  0  0  0  0  0  0
  145.0909  133.6236  156.0042 O   0  0  0  0  0  0  0  0  0  0  0  0
  145.4491  131.5182  154.9033 C   0  0  0  0  0  0  0  0  0  0  0  0
  146.4080  130.5239  154.5982 C   0  0  0  0  0  0  0  0  0  0  0  0
  146.0518  129.3926  153.8385 C   0  0  0  0  0  0  0  0  0  0  0  0
  144.7326  129.2424  153.3733 C   0  0  0  0  0  0  0  0  0  0  0  0
  143.7695  130.2244  153.6695 C   0  0  0  0  0  0  0  0  0  0  0  0
  144.1234  131.3560  154.4303 C   0  0  0  0  0  0  0  0  0  0  0  0
  150.0085  132.6447  156.7352 C   0  0  2  0  0  0  0  0  0  0  0  0
  150.6790  131.5755  157.1681 F   0  0  0  0  0  0  0  0  0  0  0  0
  150.9173  133.8576  156.7891 C   0  0  1  0  0  0  0  0  0  0  0  0
  150.5657  134.8145  155.8067 O   0  0  0  0  0  0  0  0  0  0  0  0
  152.5722  142.1330  159.8879 C   0  0  0  0  0  0  0  0  0  0  0  0
  151.6153  142.8696  159.1530 C   0  0  0  0  0  0  0  0  0  0  0  0
  151.0983  144.0782  159.6592 C   0  0  0  0  0  0  0  0  0  0  0  0
  151.5405  144.5688  160.9021 C   0  0  0  0  0  0  0  0  0  0  0  0
  152.5031  143.8516  161.6367 C   0  0  0  0  0  0  0  0  0  0  0  0
  153.0203  142.6427  161.1312 C   0  0  0  0  0  0  0  0  0  0  0  0
  154.7177  137.1469  156.4993 H   0  0  0  0  0  0  0  0  0  0  0  0
  149.1158  136.2894  159.4905 H   0  0  0  0  0  0  0  0  0  0  0  0
  151.4287  133.8761  158.9242 H   0  0  0  0  0  0  0  0  0  0  0  0
  148.6009  132.0968  158.3014 H   0  0  0  0  0  0  0  0  0  0  0  0
  146.8640  133.7367  157.8082 H   0  0  0  0  0  0  0  0  0  0  0  0
  147.8639  134.5361  156.6023 H   0  0  0  0  0  0  0  0  0  0  0  0
  147.4275  130.6183  154.9434 H   0  0  0  0  0  0  0  0  0  0  0  0
  146.7924  128.6395  153.6126 H   0  0  0  0  0  0  0  0  0  0  0  0
  144.4598  128.3750  152.7905 H   0  0  0  0  0  0  0  0  0  0  0  0
  142.7565  130.1104  153.3126 H   0  0  0  0  0  0  0  0  0  0  0  0
  143.3593  132.0899  154.6403 H   0  0  0  0  0  0  0  0  0  0  0  0
  149.6529  132.4066  155.7315 H   0  0  0  0  0  0  0  0  0  0  0  0
  151.9646  133.5935  156.6381 H   0  0  0  0  0  0  0  0  0  0  0  0
  149.6739  134.6556  155.5371 H   0  0  0  0  0  0  0  0  0  0  0  0
  151.2668  142.5077  158.1965 H   0  0  0  0  0  0  0  0  0  0  0  0
  150.3630  144.6292  159.0922 H   0  0  0  0  0  0  0  0  0  0  0  0
  151.1450  145.4959  161.2897 H   0  0  0  0  0  0  0  0  0  0  0  0
  152.8483  144.2295  162.5875 H   0  0  0  0  0  0  0  0  0  0  0  0
  153.7665  142.1132  161.7059 H   0  0  0  0  0  0  0  0  0  0  0  0
  1  2  2  0  0  0  0
  2  3  1  0  0  0  0
  2 30  1  0  0  0  0
  3  4  1  0  0  0  0
  4  9  1  0  0  0  0
  4  5  2  0  0  0  0
  5  6  1  0  0  0  0
  6  7  2  0  0  0  0
  6 36  1  0  0  0  0
  7  8  1  0  0  0  0
  8 12  1  0  0  0  0
  8  9  2  0  0  0  0
  9 10  1  0  0  0  0
 10 11  2  0  0  0  0
 11 12  1  0  0  0  0
 11 37  1  0  0  0  0
 12 13  1  0  0  0  0
 13 28  1  0  0  0  0
 13 14  1  0  0  0  0
 13 38  1  0  0  0  0
 14 15  1  0  0  0  0
 15 16  1  0  0  0  0
 15 26  1  0  0  0  0
 15 39  1  0  0  0  0
 16 17  1  0  0  0  0
 16 40  1  0  0  0  0
 16 41  1  0  0  0  0
 17 18  1  0  0  0  0
 18 19  2  0  0  0  0
 18 20  1  0  0  0  0
 20 25  1  0  0  0  0
 20 21  2  0  0  0  0
 21 22  1  0  0  0  0
 21 42  1  0  0  0  0
 22 23  2  0  0  0  0
 22 43  1  0  0  0  0
 23 24  1  0  0  0  0
 23 44  1  0  0  0  0
 24 25  2  0  0  0  0
 24 45  1  0  0  0  0
 25 46  1  0  0  0  0
 26 27  1  0  0  0  0
 26 28  1  0  0  0  0
 26 47  1  0  0  0  0
 28 29  1  0  0  0  0
 28 48  1  0  0  0  0
 29 49  1  0  0  0  0
 30 35  1  0  0  0  0
 30 31  2  0  0  0  0
 31 32  1  0  0  0  0
 31 50  1  0  0  0  0
 32 33  2  0  0  0  0
 32 51  1  0  0  0  0
 33 34  1  0  0  0  0
 33 52  1  0  0  0  0
 34 35  2  0  0  0  0
 34 53  1  0  0  0  0
 35 54  1  0  0  0  0
M  CHG  1   3  -1
M  END
> <s_m_source_file>
AV-unprocessed.smi

> <i_m_source_file_index>
34

> <i_lp_mmshare_version>
43012

> <i_f3d_flags>
0

> <s_epik_input>
W2NIXTFbY0hdW2NIXVtjSF1bY0hdYzFDKD1PKVtOSF1jKG5bY0hdbjIpYyhjMjMpbltjSF1uM1tDQEBIXTRPW0NASF0oW0NAQEhdKEYpW0NASF00W09IXSlbQ0gyXU9DKD1PKWM1W2NIXVtjSF1bY0hdW2NIXVtjSF01

> <s_epik_cmdline>
J2VwaWtfcHl0aG9uJywgJy1waCcsICc3LjAnLCAnLXRuJywgJzgnLCAnLW1hJywgJzIwMCcsICctbWV0YWxfYmluZGluZycsICctaW1hZScsICc8aW5maWxlLm1hZT4nLCAnLW9tYWUnLCAnPG91dGZpbGUubWFlPic=

> <r_lp_tautomer_probability>
1

> <r_epik_Ionization_Penalty>
4.33227

> <r_epik_Ionization_Penalty_Charging>
3.41027

> <r_epik_Ionization_Penalty_Neutral>
0.922001

> <r_epik_State_Penalty>
3.41358

> <r_epik_Charging_Adjusted_Penalty>
6.82385

> <i_epik_Tot_Q>
-1

> <i_epik_Tot_abs_Q>
1

> <r_epik_Metal_State_Penalty>
0.496292

> <b_epik_Metal_Only>
1

> <s_epik_Chemistry_Notes>
This compound has an ester and may undergo hydrolysis at high or low pH. This compound contains an acetal/aminal-like group ( X-CH(R)-Y where X, Y are N, S, or O) that may be acid/base labile, releasing an aldehyde.

> <s_lp_Force_Field>
OPLS_2005

> <r_lp_Energy>
54.5703

> <b_lp_Chiralities_Consistent>
1

> <s_lp_Variant>
AV-unprocessed.smi:34-22

> <Gold.Version>
5.8.1

> <Gold.Id.Protein>
6NUR|6NUR_protein|mol2

> <Gold.PLP.Fitness>
63.0380

> <Gold.PLP.PLP>
-57.1650

> <Gold.PLP.part.hbond>
-4.2219

> <Gold.PLP.part.metal>
0.0000

> <Gold.PLP.part.buried>
-6.2058

> <Gold.PLP.part.nonpolar>
-48.7771

> <Gold.PLP.part.repulsive>
1.6357

> <Gold.PLP.ligand.clash>
0.0000

> <Gold.PLP.ligand.torsion>
1.4362

> <Gold.PLP.Chemscore.Hbond>
2.7778

> <Gold.PLP.Chemscore.CHOScore>
0.0000

> <Gold.PLP.Chemscore.Metal>
0.0000

> <Gold.Chemscore.Hbonds>
donor molecule, donor type, donor heavy atom, donor atom, acceptor molecule, acceptor atom, score
      P1  H  7997  8009       L1     5  1.00
      P1  H 10752 10763       L1     7  0.17

> <Gold.PLP.Chemscore.Internal.Correction>
0.4122

> <Gold.Rescore>
     Score         DG    S(hbond)    S(metal)    S(lipo)     H(rot)  DE(clash)    DE(int)     intcor
     16.98     -19.20       1.40        0.00     136.13       2.69       0.09       2.13       ----

> <Gold.Chemscore.Fitness>
16.9791

> <Gold.Chemscore.DG>
-19.1994

> <Gold.Chemscore.ZeroCoef>
-5.4800

> <Gold.Chemscore.Hbond>
1.4040

> <Gold.Chemscore.Metal>
0.0000

> <Gold.Chemscore.Lipo>
136.1337

> <Gold.Chemscore.Internal_Hbond>
0.0000

> <Gold.Chemscore.DEClash>
0.0888

> <Gold.Chemscore.DEInternal>
2.1316

> <Gold.Chemscore.Rot>
2.6944

> <Gold.Chemscore.Internal.Correction>
   9.000000E+99

> <Gold.Chemscore.Hbonds>
donor molecule, donor type, donor heavy atom, donor atom, acceptor molecule, acceptor atom, score
      P1  H  7997  8009       L1     5  0.79
      P1  H 10752 10763       L1     7  0.02

> <Gold.Chemscore.Hbond.Weighted>
-4.6893

> <Gold.Chemscore.Metal.Weighted>
-0.0000

> <Gold.Chemscore.Lipo.Weighted>
-15.9276

> <Gold.Chemscore.Internal_Hbond.Weighted>
0.0000

> <Gold.Chemscore.DEClash.Weighted>
0.0888

> <Gold.Chemscore.DEInternal.Weighted>
2.1316

> <Gold.Chemscore.Rot.Weighted>
6.8975

> <Gold.Chemscore.Internal.Correction.Weighted>
   9.000000E+99

> <Gold.Protein.RotatedTorsions>
[ 6907 6896 6895 6894 ] final -106.01 input  -60.11 | X-H torsion
[ 7974 7965 7964 7962 ] final   14.97 input  175.53 | X-H torsion
[ 8008 7997 7996 7995 ] final  155.47 input   59.86 | X-H torsion
[ 10167 10162 10161 10158 ] final   -3.52 input  -65.29 | X-H torsion
[ 10718 10713 10712 10709 ] final  -41.78 input   66.30 | X-H torsion
[ 10763 10752 10751 10750 ] final   93.08 input  -60.55 | X-H torsion
[ 11005 11000 10999 10996 ] final  174.14 input  -57.11 | X-H torsion

> <Gold.Protein.ActiveResidues>
 VAL166  LYS551  ARG553  GLY616  TRP617  ASP618  TYR619  PRO620  LYS621  CYS622 
 ASP623  PHE694  ASN695  SER759  ASP760  ASP761  ALA762  ILE779  LEU786  VAL792 
 PHE793  MET794  SER795  GLU796  ALA797  LYS798  CYS799  TRP800  GLU811  SER814 

> <Gold.Protein.RotatedAtoms>
  150.7366  134.0041  159.3647 H   0  0  0  0  0  0  0  0  0  0  0  0  # atno 6907 bound_to 6896
  151.7997  135.0710  160.0408 H   0  0  0  0  0  0  0  0  0  0  0  0  # atno 6908 bound_to 6896
  152.3150  133.5756  159.5742 H   0  0  0  0  0  0  0  0  0  0  0  0  # atno 6909 bound_to 6896
  146.2291  139.8963  142.8546 H   0  0  0  0  0  0  0  0  0  0  0  0  # atno 7974 bound_to 7965
  156.2476  140.1938  156.6807 H   0  0  0  0  0  0  0  0  0  0  0  0  # atno 8008 bound_to 7997
  154.6324  140.0594  156.9774 H   0  0  0  0  0  0  0  0  0  0  0  0  # atno 8009 bound_to 7997
  155.1690  140.3266  155.4399 H   0  0  0  0  0  0  0  0  0  0  0  0  # atno 8010 bound_to 7997
  140.6893  143.6530  150.8333 H   0  0  0  0  0  0  0  0  0  0  0  0  # atno 10167 bound_to 10162
  156.2667  130.4202  149.8483 H   0  0  0  0  0  0  0  0  0  0  0  0  # atno 10718 bound_to 10713
  153.2262  135.4338  155.0545 H   0  0  0  0  0  0  0  0  0  0  0  0  # atno 10763 bound_to 10752
  154.8275  135.3368  154.6854 H   0  0  0  0  0  0  0  0  0  0  0  0  # atno 10764 bound_to 10752
  153.7283  135.7012  153.5052 H   0  0  0  0  0  0  0  0  0  0  0  0  # atno 10765 bound_to 10752
  140.3481  134.7219  157.4249 H   0  0  0  0  0  0  0  0  0  0  0  0  # atno 11005 bound_to 11000
  145.2367  140.9994  143.3959 LP  0  0  0  0  0  0  0  0  0  0  0  0  # atno 17320 bound_to 7965
  144.9485  139.4109  143.6414 LP  0  0  0  0  0  0  0  0  0  0  0  0  # atno 17321 bound_to 7965
  140.0241  143.5511  152.2788 LP  0  0  0  0  0  0  0  0  0  0  0  0  # atno 17342 bound_to 10162
  139.6280  144.7640  151.2596 LP  0  0  0  0  0  0  0  0  0  0  0  0  # atno 17343 bound_to 10162
  156.5979  130.8534  151.3424 LP  0  0  0  0  0  0  0  0  0  0  0  0  # atno 17370 bound_to 10713
  157.7270  130.9636  150.1678 LP  0  0  0  0  0  0  0  0  0  0  0  0  # atno 17371 bound_to 10713
  140.0726  134.5842  155.8626 LP  0  0  0  0  0  0  0  0  0  0  0  0  # atno 17394 bound_to 11000
  141.2020  133.6622  156.5981 LP  0  0  0  0  0  0  0  0  0  0  0  0  # atno 17395 bound_to 11000

$$$$
