AV-unprocessed.smi:1419|AV-procd|sdf|5779|dock4
  -GOLD-   22720 5423D 1   1.00000     0.00000
 Structure written by MMmdl.
 42 43  0  0  0  0  0  0  0  0  2 V2000
  146.3530  131.2109  153.4255 C   0  0  0  0  0  0  0  0  0  0  0  0
  147.2170  132.2599  152.7069 C   0  0  1  0  0  0  0  0  0  0  0  0
  146.4154  133.5049  152.2661 C   0  0  0  0  0  0  0  0  0  0  0  0
  145.4161  133.2075  151.2365 N   0  0  0  0  0  0  0  0  0  0  0  0
  145.5137  132.2953  150.2171 C   0  0  0  0  0  0  0  0  0  0  0  0
  144.3386  132.3684  149.5142 C   0  0  0  0  0  0  0  0  0  0  0  0
  143.5733  133.3188  150.1357 N   0  3  0  0  0  0  0  0  0  0  0  0
  144.2294  133.8258  151.1846 C   0  0  0  0  0  0  0  0  0  0  0  0
  148.3181  132.6508  153.5819 N   0  0  0  0  0  0  0  0  0  0  0  0
  149.1891  131.8103  154.1666 C   0  0  0  0  0  0  0  0  0  0  0  0
  149.1283  130.5903  154.0061 O   0  0  0  0  0  0  0  0  0  0  0  0
  150.1327  132.4131  154.9314 N   0  0  0  0  0  0  0  0  0  0  0  0
  151.3442  131.7998  155.4912 C   0  0  0  0  0  0  0  0  0  0  0  0
  151.1706  131.6974  157.0188 C   0  0  1  0  0  0  0  0  0  0  0  0
  152.4196  131.1322  157.7038 C   0  0  0  0  0  0  0  0  0  0  0  0
  150.9223  132.9981  157.5590 O   0  0  0  0  0  0  0  0  0  0  0  0
  149.8191  133.7094  156.9876 C   0  0  2  0  0  0  0  0  0  0  0  0
  148.4730  133.1255  157.4541 C   0  0  0  0  0  0  0  0  0  0  0  0
  149.9768  133.7727  155.4534 C   0  0  0  0  0  0  0  0  0  0  0  0
  145.5720  130.8198  152.7732 H   0  0  0  0  0  0  0  0  0  0  0  0
  145.8705  131.6323  154.3080 H   0  0  0  0  0  0  0  0  0  0  0  0
  146.9563  130.3621  153.7497 H   0  0  0  0  0  0  0  0  0  0  0  0
  147.6392  131.7826  151.8205 H   0  0  0  0  0  0  0  0  0  0  0  0
  145.8957  133.9468  153.1175 H   0  0  0  0  0  0  0  0  0  0  0  0
  147.0772  134.2752  151.8672 H   0  0  0  0  0  0  0  0  0  0  0  0
  146.3898  131.6804  150.0700 H   0  0  0  0  0  0  0  0  0  0  0  0
  143.9989  131.8294  148.6416 H   0  0  0  0  0  0  0  0  0  0  0  0
  143.8725  134.5866  151.8563 H   0  0  0  0  0  0  0  0  0  0  0  0
  148.4294  133.6384  153.7600 H   0  0  0  0  0  0  0  0  0  0  0  0
  151.5754  130.8190  155.0759 H   0  0  0  0  0  0  0  0  0  0  0  0
  152.2048  132.4265  155.2522 H   0  0  0  0  0  0  0  0  0  0  0  0
  150.3307  131.0404  157.2477 H   0  0  0  0  0  0  0  0  0  0  0  0
  152.6515  130.1325  157.3358 H   0  0  0  0  0  0  0  0  0  0  0  0
  152.2750  131.0638  158.7822 H   0  0  0  0  0  0  0  0  0  0  0  0
  153.2889  131.7654  157.5239 H   0  0  0  0  0  0  0  0  0  0  0  0
  149.8774  134.7278  157.3727 H   0  0  0  0  0  0  0  0  0  0  0  0
  147.6429  133.7286  157.0855 H   0  0  0  0  0  0  0  0  0  0  0  0
  148.4128  133.1123  158.5426 H   0  0  0  0  0  0  0  0  0  0  0  0
  148.3149  132.1070  157.1010 H   0  0  0  0  0  0  0  0  0  0  0  0
  150.8618  134.3560  155.1952 H   0  0  0  0  0  0  0  0  0  0  0  0
  149.1340  134.3059  155.0115 H   0  0  0  0  0  0  0  0  0  0  0  0
  142.6444  133.5987  149.8460 H   0  0  0  0  0  0  0  0  0  0  0  0
  1  2  1  0  0  0  0
  1 20  1  0  0  0  0
  1 21  1  0  0  0  0
  1 22  1  0  0  0  0
  2  3  1  0  0  0  0
  2  9  1  0  0  0  0
  2 23  1  0  0  0  0
  3  4  1  0  0  0  0
  3 24  1  0  0  0  0
  3 25  1  0  0  0  0
  4  8  1  0  0  0  0
  4  5  1  0  0  0  0
  5  6  2  0  0  0  0
  5 26  1  0  0  0  0
  6  7  1  0  0  0  0
  6 27  1  0  0  0  0
  7  8  2  0  0  0  0
  7 42  1  0  0  0  0
  8 28  1  0  0  0  0
  9 10  1  0  0  0  0
  9 29  1  0  0  0  0
 10 11  2  0  0  0  0
 10 12  1  0  0  0  0
 12 19  1  0  0  0  0
 12 13  1  0  0  0  0
 13 14  1  0  0  0  0
 13 30  1  0  0  0  0
 13 31  1  0  0  0  0
 14 15  1  0  0  0  0
 14 16  1  0  0  0  0
 14 32  1  0  0  0  0
 15 33  1  0  0  0  0
 15 34  1  0  0  0  0
 15 35  1  0  0  0  0
 16 17  1  0  0  0  0
 17 18  1  0  0  0  0
 17 19  1  0  0  0  0
 17 36  1  0  0  0  0
 18 37  1  0  0  0  0
 18 38  1  0  0  0  0
 18 39  1  0  0  0  0
 19 40  1  0  0  0  0
 19 41  1  0  0  0  0
M  CHG  1   7   1
M  END
> <s_m_source_file>
AV-unprocessed.smi

> <i_m_source_file_index>
1419

> <i_lp_mmshare_version>
43012

> <i_f3d_flags>
0

> <s_epik_input>
W2NIXTFuW2NIXVtjSF1uMVtDSDJdW0NAQEhdKFtDSDNdKVtOSF1DKD1PKU4yW0NIMl1bQ0BASF0oW0NIM10pT1tDQEBIXShbQ0gzXSlbQ0gyXTI=

> <s_epik_cmdline>
J2VwaWtfcHl0aG9uJywgJy1waCcsICc3LjAnLCAnLXRuJywgJzgnLCAnLW1hJywgJzIwMCcsICctbWV0YWxfYmluZGluZycsICctaW1hZScsICc8aW5maWxlLm1hZT4nLCAnLW9tYWUnLCAnPG91dGZpbGUubWFlPic=

> <r_lp_tautomer_probability>
1

> <r_epik_Ionization_Penalty>
0.253607

> <r_epik_Ionization_Penalty_Charging>
0

> <r_epik_Ionization_Penalty_Neutral>
0.253607

> <r_epik_State_Penalty>
0.245018

> <r_epik_Charging_Adjusted_Penalty>
0.245018

> <i_epik_Tot_Q>
1

> <i_epik_Tot_abs_Q>
1

> <r_epik_Metal_State_Penalty>
0.535379

> <b_epik_Metal_Only>
0

> <s_lp_Force_Field>
OPLS_2005

> <r_lp_Energy>
32.7532

> <b_lp_Chiralities_Consistent>
1

> <s_lp_Variant>
AV-unprocessed.smi:1419-6

> <Gold.Version>
5.8.1

> <Gold.Id.Protein>
6NUR|6NUR_protein|mol2

> <Gold.PLP.Fitness>
42.0829

> <Gold.PLP.PLP>
-31.3965

> <Gold.PLP.part.hbond>
-2.0000

> <Gold.PLP.part.metal>
0.0000

> <Gold.PLP.part.buried>
-5.5336

> <Gold.PLP.part.nonpolar>
-23.7952

> <Gold.PLP.part.repulsive>
0.1446

> <Gold.PLP.ligand.clash>
0.3303

> <Gold.PLP.ligand.torsion>
0.5091

> <Gold.PLP.Chemscore.Hbond>
3.0000

> <Gold.PLP.Chemscore.CHOScore>
0.9991

> <Gold.PLP.Chemscore.Metal>
0.0000

> <Gold.Chemscore.Hbonds>
donor molecule, donor type, donor heavy atom, donor atom, acceptor molecule, acceptor atom, score
      L1  H     7    42       P1 10186  2.00
      P1  H  6896  6909       L1    16  1.00
      L1  C     5    26       P1 10747  0.55

> <Gold.PLP.Chemscore.Internal.Correction>
0.0376

> <Gold.Rescore>
     Score         DG    S(hbond)    S(metal)    S(lipo)     H(rot)  DE(clash)    DE(int)     intcor
     13.36     -15.08       1.96        0.00      61.67       1.63       0.00       1.72       ----

> <Gold.Chemscore.Fitness>
13.3552

> <Gold.Chemscore.DG>
-15.0844

> <Gold.Chemscore.ZeroCoef>
-5.4800

> <Gold.Chemscore.Hbond>
1.9626

> <Gold.Chemscore.Metal>
0.0000

> <Gold.Chemscore.Lipo>
61.6673

> <Gold.Chemscore.Internal_Hbond>
0.0000

> <Gold.Chemscore.DEClash>
0.0044

> <Gold.Chemscore.DEInternal>
1.7248

> <Gold.Chemscore.Rot>
1.6273

> <Gold.Chemscore.Internal.Correction>
   9.000000E+99

> <Gold.Chemscore.Hbonds>
donor molecule, donor type, donor heavy atom, donor atom, acceptor molecule, acceptor atom, score
      L1  H     7    42       P1 10186  1.00
      P1  H  6896  6909       L1    16  0.81

> <Gold.Chemscore.Hbond.Weighted>
-6.5551

> <Gold.Chemscore.Metal.Weighted>
-0.0000

> <Gold.Chemscore.Lipo.Weighted>
-7.2151

> <Gold.Chemscore.Internal_Hbond.Weighted>
0.0000

> <Gold.Chemscore.DEClash.Weighted>
0.0044

> <Gold.Chemscore.DEInternal.Weighted>
1.7248

> <Gold.Chemscore.Rot.Weighted>
4.1658

> <Gold.Chemscore.Internal.Correction.Weighted>
   9.000000E+99

> <Gold.Protein.RotatedTorsions>
[ 6907 6896 6895 6894 ] final  -32.87 input  -60.11 | X-H torsion
[ 7974 7965 7964 7962 ] final  109.82 input  175.53 | X-H torsion
[ 8008 7997 7996 7995 ] final  126.58 input   59.86 | X-H torsion
[ 10167 10162 10161 10158 ] final   84.39 input  -65.29 | X-H torsion
[ 10718 10713 10712 10709 ] final  -60.82 input   66.30 | X-H torsion
[ 10763 10752 10751 10750 ] final  156.11 input  -60.55 | X-H torsion
[ 11005 11000 10999 10996 ] final   70.41 input  -57.11 | X-H torsion

> <Gold.Protein.ActiveResidues>
 VAL166  LYS551  ARG553  GLY616  TRP617  ASP618  TYR619  PRO620  LYS621  CYS622 
 ASP623  PHE694  ASN695  SER759  ASP760  ASP761  ALA762  ILE779  LEU786  VAL792 
 PHE793  MET794  SER795  GLU796  ALA797  LYS798  CYS799  TRP800  GLU811  SER814 

> <Gold.Protein.RotatedAtoms>
  151.0731  134.9811  159.8318 H   0  0  0  0  0  0  0  0  0  0  0  0  # atno 6907 bound_to 6896
  152.5411  134.2275  159.8822 H   0  0  0  0  0  0  0  0  0  0  0  0  # atno 6908 bound_to 6896
  151.2301  133.4412  159.2637 H   0  0  0  0  0  0  0  0  0  0  0  0  # atno 6909 bound_to 6896
  145.2628  139.2696  143.4007 H   0  0  0  0  0  0  0  0  0  0  0  0  # atno 7974 bound_to 7965
  156.2868  140.2689  156.2134 H   0  0  0  0  0  0  0  0  0  0  0  0  # atno 8008 bound_to 7997
  155.0241  140.0386  157.2467 H   0  0  0  0  0  0  0  0  0  0  0  0  # atno 8009 bound_to 7997
  154.7410  140.2725  155.6378 H   0  0  0  0  0  0  0  0  0  0  0  0  # atno 8010 bound_to 7997
  139.9085  144.6286  150.8562 H   0  0  0  0  0  0  0  0  0  0  0  0  # atno 10167 bound_to 10162
  156.0964  130.4192  150.0907 H   0  0  0  0  0  0  0  0  0  0  0  0  # atno 10718 bound_to 10713
  154.1791  135.2800  155.3058 H   0  0  0  0  0  0  0  0  0  0  0  0  # atno 10763 bound_to 10752
  154.6017  135.5527  153.7384 H   0  0  0  0  0  0  0  0  0  0  0  0  # atno 10764 bound_to 10752
  153.0143  135.6393  154.1930 H   0  0  0  0  0  0  0  0  0  0  0  0  # atno 10765 bound_to 10752
  139.9599  134.7079  156.0669 H   0  0  0  0  0  0  0  0  0  0  0  0  # atno 11005 bound_to 11000
  146.3270  140.3050  142.8623 LP  0  0  0  0  0  0  0  0  0  0  0  0  # atno 17320 bound_to 7965
  144.9403  140.8071  143.5635 LP  0  0  0  0  0  0  0  0  0  0  0  0  # atno 17321 bound_to 7965
  140.7691  143.3383  151.2261 LP  0  0  0  0  0  0  0  0  0  0  0  0  # atno 17342 bound_to 10162
  139.6963  143.9607  152.2884 LP  0  0  0  0  0  0  0  0  0  0  0  0  # atno 17343 bound_to 10162
  156.8905  130.9587  151.3589 LP  0  0  0  0  0  0  0  0  0  0  0  0  # atno 17370 bound_to 10713
  157.6126  130.8594  149.8976 LP  0  0  0  0  0  0  0  0  0  0  0  0  # atno 17371 bound_to 10713
  141.1275  133.6595  156.3375 LP  0  0  0  0  0  0  0  0  0  0  0  0  # atno 17394 bound_to 11000
  140.5524  134.6015  157.5411 LP  0  0  0  0  0  0  0  0  0  0  0  0  # atno 17395 bound_to 11000

$$$$
