AV-unprocessed.smi:2110|AV-procd|sdf|8611|dock7
  -GOLD-   2272011353D 1   1.00000     0.00000
 Structure written by MMmdl.
 46 47  0  0  0  0  0  0  0  0  3 V2000
  147.6473  136.7231  162.9766 C   0  0  0  0  0  0  0  0  0  0  0  0
  147.4169  135.2930  162.4652 C   0  0  0  0  0  0  0  0  0  0  0  0
  146.7950  135.2613  161.1262 N   0  0  0  0  0  0  0  0  0  0  0  0
  145.4323  134.6990  161.0265 C   0  0  0  0  0  0  0  0  0  0  0  0
  144.9213  134.1194  162.3551 C   0  0  0  0  0  0  0  0  0  0  0  0
  147.5326  136.0897  159.7767 S   0  0  0  0  0  0  0  0  0  0  0  0
  146.4543  136.2681  158.7920 O   0  0  0  0  0  0  0  0  0  0  0  0
  148.1591  137.3049  160.3269 O   0  0  0  0  0  0  0  0  0  0  0  0
  148.5747  134.9225  159.3230 N   0  5  0  0  0  0  0  0  0  0  0  0
  148.2022  133.8899  158.3694 C   0  0  0  0  0  0  0  0  0  0  0  0
  148.4256  134.3582  156.9396 C   0  0  0  0  0  0  0  0  0  0  0  0
  149.7274  134.6571  156.4772 C   0  0  0  0  0  0  0  0  0  0  0  0
  149.8971  135.0957  155.1513 C   0  0  0  0  0  0  0  0  0  0  0  0
  148.8244  135.2264  154.3429 N   0  3  0  0  0  0  0  0  0  0  0  0
  147.5505  134.9622  154.7251 C   0  0  0  0  0  0  0  0  0  0  0  0
  146.5189  135.1413  153.7743 N   0  0  0  0  0  0  0  0  0  0  0  0
  146.1619  136.5054  153.3912 C   0  0  0  0  0  0  0  0  0  0  0  0
  144.8420  136.5233  152.6014 C   0  0  0  0  0  0  0  0  0  0  0  0
  144.9288  135.6332  151.4953 O   0  0  0  0  0  0  0  0  0  0  0  0
  145.1283  134.2902  151.9191 C   0  0  0  0  0  0  0  0  0  0  0  0
  146.4624  134.1769  152.6752 C   0  0  0  0  0  0  0  0  0  0  0  0
  147.3319  134.5145  156.0536 C   0  0  0  0  0  0  0  0  0  0  0  0
  148.0377  136.7071  163.9940 H   0  0  0  0  0  0  0  0  0  0  0  0
  146.7258  137.3045  162.9857 H   0  0  0  0  0  0  0  0  0  0  0  0
  148.3723  137.2544  162.3602 H   0  0  0  0  0  0  0  0  0  0  0  0
  148.3677  134.7616  162.4247 H   0  0  0  0  0  0  0  0  0  0  0  0
  146.7980  134.7396  163.1716 H   0  0  0  0  0  0  0  0  0  0  0  0
  144.7436  135.4692  160.6808 H   0  0  0  0  0  0  0  0  0  0  0  0
  145.4292  133.9234  160.2604 H   0  0  0  0  0  0  0  0  0  0  0  0
  143.8866  133.7921  162.2557 H   0  0  0  0  0  0  0  0  0  0  0  0
  144.9563  134.8585  163.1537 H   0  0  0  0  0  0  0  0  0  0  0  0
  145.5045  133.2550  162.6716 H   0  0  0  0  0  0  0  0  0  0  0  0
  148.7723  132.9731  158.5227 H   0  0  0  0  0  0  0  0  0  0  0  0
  147.1548  133.6039  158.4710 H   0  0  0  0  0  0  0  0  0  0  0  0
  150.5930  134.5611  157.1191 H   0  0  0  0  0  0  0  0  0  0  0  0
  150.8532  135.3463  154.7158 H   0  0  0  0  0  0  0  0  0  0  0  0
  146.0391  137.1314  154.2750 H   0  0  0  0  0  0  0  0  0  0  0  0
  146.9670  136.9324  152.7916 H   0  0  0  0  0  0  0  0  0  0  0  0
  144.0022  136.2456  153.2405 H   0  0  0  0  0  0  0  0  0  0  0  0
  144.6403  137.5289  152.2326 H   0  0  0  0  0  0  0  0  0  0  0  0
  144.2961  133.9668  152.5466 H   0  0  0  0  0  0  0  0  0  0  0  0
  145.1370  133.6401  151.0443 H   0  0  0  0  0  0  0  0  0  0  0  0
  147.2949  134.3685  151.9970 H   0  0  0  0  0  0  0  0  0  0  0  0
  146.5687  133.1530  153.0329 H   0  0  0  0  0  0  0  0  0  0  0  0
  146.3326  134.3036  156.4057 H   0  0  0  0  0  0  0  0  0  0  0  0
  148.9827  135.5453  153.3873 H   0  0  0  0  0  0  0  0  0  0  0  0
  1  2  1  0  0  0  0
  1 23  1  0  0  0  0
  1 24  1  0  0  0  0
  1 25  1  0  0  0  0
  2  3  1  0  0  0  0
  2 26  1  0  0  0  0
  2 27  1  0  0  0  0
  3  4  1  0  0  0  0
  3  6  1  0  0  0  0
  4  5  1  0  0  0  0
  4 28  1  0  0  0  0
  4 29  1  0  0  0  0
  5 30  1  0  0  0  0
  5 31  1  0  0  0  0
  5 32  1  0  0  0  0
  6  7  2  0  0  0  0
  6  8  2  0  0  0  0
  6  9  1  0  0  0  0
  9 10  1  0  0  0  0
 10 11  1  0  0  0  0
 10 33  1  0  0  0  0
 10 34  1  0  0  0  0
 11 22  1  0  0  0  0
 11 12  2  0  0  0  0
 12 13  1  0  0  0  0
 12 35  1  0  0  0  0
 13 14  2  0  0  0  0
 13 36  1  0  0  0  0
 14 15  1  0  0  0  0
 14 46  1  0  0  0  0
 15 16  1  0  0  0  0
 15 22  2  0  0  0  0
 16 21  1  0  0  0  0
 16 17  1  0  0  0  0
 17 18  1  0  0  0  0
 17 37  1  0  0  0  0
 17 38  1  0  0  0  0
 18 19  1  0  0  0  0
 18 39  1  0  0  0  0
 18 40  1  0  0  0  0
 19 20  1  0  0  0  0
 20 21  1  0  0  0  0
 20 41  1  0  0  0  0
 20 42  1  0  0  0  0
 21 43  1  0  0  0  0
 21 44  1  0  0  0  0
 22 45  1  0  0  0  0
M  CHG  1   9  -1
M  CHG  1  14   1
M  END
> <s_m_source_file>
AV-unprocessed.smi

> <i_m_source_file_index>
2110

> <i_lp_mmshare_version>
43012

> <i_f3d_flags>
0

> <s_epik_input>
W0NIM11bQ0gyXU4oW0NIMl1bQ0gzXSlTKD1PKSg9TylbTkhdW0NIMl1jMVtjSF1bY0hdbmMoW2NIXTEpTjJbQ0gyXVtDSDJdT1tDSDJdW0NIMl0y

> <s_epik_cmdline>
J2VwaWtfcHl0aG9uJywgJy1waCcsICc3LjAnLCAnLXRuJywgJzgnLCAnLW1hJywgJzIwMCcsICctbWV0YWxfYmluZGluZycsICctaW1hZScsICc8aW5maWxlLm1hZT4nLCAnLW9tYWUnLCAnPG91dGZpbGUubWFlPic=

> <r_lp_tautomer_probability>
0.999994

> <r_epik_Ionization_Penalty>
2.03784

> <r_epik_Ionization_Penalty_Charging>
2.03784

> <r_epik_Ionization_Penalty_Neutral>
4.07977e-08

> <r_epik_State_Penalty>
3.04665

> <r_epik_Charging_Adjusted_Penalty>
5.08449

> <i_epik_Tot_Q>
0

> <i_epik_Tot_abs_Q>
2

> <r_epik_Metal_State_Penalty>
1.92951

> <b_epik_Metal_Only>
1

> <s_lp_Force_Field>
OPLS_2005

> <r_lp_Energy>
13.8127

> <b_lp_Chiralities_Consistent>
1

> <s_lp_Variant>
AV-unprocessed.smi:2110-4

> <Gold.Version>
5.8.1

> <Gold.Id.Protein>
6NUR|6NUR_protein|mol2

> <Gold.PLP.Fitness>
44.5056

> <Gold.PLP.PLP>
-29.0111

> <Gold.PLP.part.hbond>
-4.0000

> <Gold.PLP.part.metal>
0.0000

> <Gold.PLP.part.buried>
-5.1725

> <Gold.PLP.part.nonpolar>
-20.7674

> <Gold.PLP.part.repulsive>
0.2502

> <Gold.PLP.ligand.clash>
0.0000

> <Gold.PLP.ligand.torsion>
2.0269

> <Gold.PLP.Chemscore.Hbond>
5.2831

> <Gold.PLP.Chemscore.CHOScore>
0.0000

> <Gold.PLP.Chemscore.Metal>
0.0000

> <Gold.Chemscore.Hbonds>
donor molecule, donor type, donor heavy atom, donor atom, acceptor molecule, acceptor atom, score
      L1  H    14    46       P1  7948  2.00
      P1  H  6896  6908       L1     9  1.53
      P1  H  6931  6943       L1     8  0.66
      P1  H  6934  6947       L1     8  0.62

> <Gold.PLP.Chemscore.Internal.Correction>
3.6989

> <Gold.Rescore>
     Score         DG    S(hbond)    S(metal)    S(lipo)     H(rot)  DE(clash)    DE(int)     intcor
     13.48     -16.99       2.60        0.00      61.79       1.72       0.06       3.46       ----

> <Gold.Chemscore.Fitness>
13.4753

> <Gold.Chemscore.DG>
-16.9884

> <Gold.Chemscore.ZeroCoef>
-5.4800

> <Gold.Chemscore.Hbond>
2.5963

> <Gold.Chemscore.Metal>
0.0000

> <Gold.Chemscore.Lipo>
61.7894

> <Gold.Chemscore.Internal_Hbond>
0.0000

> <Gold.Chemscore.DEClash>
0.0564

> <Gold.Chemscore.DEInternal>
3.4567

> <Gold.Chemscore.Rot>
1.7159

> <Gold.Chemscore.Internal.Correction>
   9.000000E+99

> <Gold.Chemscore.Hbonds>
donor molecule, donor type, donor heavy atom, donor atom, acceptor molecule, acceptor atom, score
      L1  H    14    46       P1  7948  0.74
      P1  H  6896  6908       L1     9  0.23
      P1  H  6931  6943       L1     8  0.60
      P1  H  6934  6947       L1     8  0.59

> <Gold.Chemscore.Hbond.Weighted>
-8.6716

> <Gold.Chemscore.Metal.Weighted>
-0.0000

> <Gold.Chemscore.Lipo.Weighted>
-7.2294

> <Gold.Chemscore.Internal_Hbond.Weighted>
0.0000

> <Gold.Chemscore.DEClash.Weighted>
0.0564

> <Gold.Chemscore.DEInternal.Weighted>
3.4567

> <Gold.Chemscore.Rot.Weighted>
4.3926

> <Gold.Chemscore.Internal.Correction.Weighted>
   9.000000E+99

> <Gold.Protein.RotatedTorsions>
[ 6907 6896 6895 6894 ] final  166.27 input  -60.11 | X-H torsion
[ 7974 7965 7964 7962 ] final   15.66 input  175.53 | X-H torsion
[ 8008 7997 7996 7995 ] final  151.24 input   59.86 | X-H torsion
[ 10167 10162 10161 10158 ] final  -52.95 input  -65.29 | X-H torsion
[ 10718 10713 10712 10709 ] final -116.89 input   66.30 | X-H torsion
[ 10763 10752 10751 10750 ] final  -16.37 input  -60.55 | X-H torsion
[ 11005 11000 10999 10996 ] final   54.47 input  -57.11 | X-H torsion

> <Gold.Protein.ActiveResidues>
 VAL166  LYS551  ARG553  GLY616  TRP617  ASP618  TYR619  PRO620  LYS621  CYS622 
 ASP623  PHE694  ASN695  SER759  ASP760  ASP761  ALA762  ILE779  LEU786  VAL792 
 PHE793  MET794  SER795  GLU796  ALA797  LYS798  CYS799  TRP800  GLU811  SER814 

> <Gold.Protein.RotatedAtoms>
  151.8815  133.3496  159.3767 H   0  0  0  0  0  0  0  0  0  0  0  0  # atno 6907 bound_to 6896
  150.7126  134.5013  159.5572 H   0  0  0  0  0  0  0  0  0  0  0  0  # atno 6908 bound_to 6896
  152.2566  134.8078  160.0488 H   0  0  0  0  0  0  0  0  0  0  0  0  # atno 6909 bound_to 6896
  146.2272  139.8862  142.8562 H   0  0  0  0  0  0  0  0  0  0  0  0  # atno 7974 bound_to 7965
  156.2682  140.2053  156.6144 H   0  0  0  0  0  0  0  0  0  0  0  0  # atno 8008 bound_to 7997
  154.6806  140.0540  157.0286 H   0  0  0  0  0  0  0  0  0  0  0  0  # atno 8009 bound_to 7997
  155.1006  140.3205  155.4551 H   0  0  0  0  0  0  0  0  0  0  0  0  # atno 8010 bound_to 7997
  140.6511  143.2566  151.4722 H   0  0  0  0  0  0  0  0  0  0  0  0  # atno 10167 bound_to 10162
  156.0995  130.6160  150.9094 H   0  0  0  0  0  0  0  0  0  0  0  0  # atno 10718 bound_to 10713
  153.5575  135.7010  153.5563 H   0  0  0  0  0  0  0  0  0  0  0  0  # atno 10763 bound_to 10752
  153.3459  135.4008  155.1608 H   0  0  0  0  0  0  0  0  0  0  0  0  # atno 10764 bound_to 10752
  154.8652  135.3753  154.5090 H   0  0  0  0  0  0  0  0  0  0  0  0  # atno 10765 bound_to 10752
  140.0684  134.5504  155.9074 H   0  0  0  0  0  0  0  0  0  0  0  0  # atno 11005 bound_to 11000
  145.2463  141.0028  143.3906 LP  0  0  0  0  0  0  0  0  0  0  0  0  # atno 17320 bound_to 7965
  144.9410  139.4189  143.6449 LP  0  0  0  0  0  0  0  0  0  0  0  0  # atno 17321 bound_to 7965
  139.5726  144.1893  152.1858 LP  0  0  0  0  0  0  0  0  0  0  0  0  # atno 17342 bound_to 10162
  140.1194  144.5387  150.6872 LP  0  0  0  0  0  0  0  0  0  0  0  0  # atno 17343 bound_to 10162
  157.6163  131.0933  150.8704 LP  0  0  0  0  0  0  0  0  0  0  0  0  # atno 17370 bound_to 10713
  156.8835  130.5187  149.5289 LP  0  0  0  0  0  0  0  0  0  0  0  0  # atno 17371 bound_to 10713
  141.2002  133.6611  156.5884 LP  0  0  0  0  0  0  0  0  0  0  0  0  # atno 17394 bound_to 11000
  140.3664  134.7643  157.4569 LP  0  0  0  0  0  0  0  0  0  0  0  0  # atno 17395 bound_to 11000

$$$$
