AV-unprocessed.smi:249|AV-procd|sdf|1917|dock8
  -GOLD-   2262021 13D 1   1.00000     0.00000
 Structure written by MMmdl.
 64 67  0  0  0  0  0  0  0  0  2 V2000
  152.1201  144.7816  159.6816 C   0  0  0  0  0  0  0  0  0  0  0  0
  151.0765  145.1575  158.6166 C   0  0  0  0  0  0  0  0  0  0  0  0
  150.3461  143.9823  158.0587 N   0  3  1  0  0  0  0  0  0  0  0  0
  151.2810  142.9726  157.4821 C   0  0  0  0  0  0  0  0  0  0  0  0
  150.5375  141.8234  156.7882 C   0  0  0  0  0  0  0  0  0  0  0  0
  149.5780  141.1360  157.7697 C   0  0  2  0  0  0  0  0  0  0  0  0
  148.8637  140.0035  157.1647 N   0  0  0  0  0  0  0  0  0  0  0  0
  148.1088  140.1862  155.9267 C   0  0  0  0  0  0  0  0  0  0  0  0
  149.2213  138.7268  157.4805 C   0  0  0  0  0  0  0  0  0  0  0  0
  148.9942  138.2615  158.7387 N   0  0  0  0  0  0  0  0  0  0  0  0
  149.3443  137.0187  159.0809 C   0  0  0  0  0  0  0  0  0  0  0  0
  149.9222  136.0798  158.3315 N   0  0  0  0  0  0  0  0  0  0  0  0
  150.1440  136.5286  157.0640 C   0  0  0  0  0  0  0  0  0  0  0  0
  149.8319  137.8240  156.5589 C   0  0  0  0  0  0  0  0  0  0  0  0
  150.2024  137.9028  155.2203 N   0  0  0  0  0  0  0  0  0  0  0  0
  150.7116  136.7314  154.9546 C   0  0  0  0  0  0  0  0  0  0  0  0
  150.6970  135.8372  156.0001 N   0  0  0  0  0  0  0  0  0  0  0  0
  151.1984  134.4741  155.9832 C   0  0  0  0  0  0  0  0  0  0  0  0
  150.1715  133.3918  156.4211 C   0  0  2  0  0  0  0  0  0  0  0  0
  150.9319  132.1020  156.8149 C   0  0  0  0  0  0  0  0  0  0  0  0
  151.9422  132.3682  157.7661 O   0  0  0  0  0  0  0  0  0  0  0  0
  149.0855  133.1055  155.3403 C   0  0  2  0  0  0  0  0  0  0  0  0
  149.5818  132.4289  154.0604 C   0  0  0  0  0  0  0  0  0  0  0  0
  148.7317  133.0224  152.9337 C   0  0  0  0  0  0  0  0  0  0  0  0
  147.7916  133.8677  153.5762 O   0  0  0  0  0  0  0  0  0  0  0  0
  148.3979  134.3465  154.7619 C   0  0  0  0  0  0  0  0  0  0  0  0
  148.6200  142.1879  158.3487 C   0  0  0  0  0  0  0  0  0  0  0  0
  149.3818  143.3517  159.0201 C   0  0  2  0  0  0  0  0  0  0  0  0
  148.3514  144.3464  159.5947 C   0  0  0  0  0  0  0  0  0  0  0  0
  152.7315  145.6482  159.9347 H   0  0  0  0  0  0  0  0  0  0  0  0
  152.7911  144.0014  159.3207 H   0  0  0  0  0  0  0  0  0  0  0  0
  151.6642  144.4391  160.6099 H   0  0  0  0  0  0  0  0  0  0  0  0
  150.3665  145.8818  159.0184 H   0  0  0  0  0  0  0  0  0  0  0  0
  151.6304  145.6682  157.8323 H   0  0  0  0  0  0  0  0  0  0  0  0
  151.9378  143.4300  156.7444 H   0  0  0  0  0  0  0  0  0  0  0  0
  151.9225  142.5787  158.2722 H   0  0  0  0  0  0  0  0  0  0  0  0
  149.9949  142.2115  155.9259 H   0  0  0  0  0  0  0  0  0  0  0  0
  151.2599  141.1049  156.4000 H   0  0  0  0  0  0  0  0  0  0  0  0
  150.1608  140.7657  158.6143 H   0  0  0  0  0  0  0  0  0  0  0  0
  147.0392  140.1210  156.1262 H   0  0  0  0  0  0  0  0  0  0  0  0
  148.3693  139.4281  155.1869 H   0  0  0  0  0  0  0  0  0  0  0  0
  148.3028  141.1574  155.4732 H   0  0  0  0  0  0  0  0  0  0  0  0
  149.1307  136.7355  160.1011 H   0  0  0  0  0  0  0  0  0  0  0  0
  151.1002  136.4819  153.9779 H   0  0  0  0  0  0  0  0  0  0  0  0
  151.5632  134.2525  154.9794 H   0  0  0  0  0  0  0  0  0  0  0  0
  152.0740  134.4567  156.6329 H   0  0  0  0  0  0  0  0  0  0  0  0
  149.6584  133.7412  157.3180 H   0  0  0  0  0  0  0  0  0  0  0  0
  150.2683  131.3695  157.2727 H   0  0  0  0  0  0  0  0  0  0  0  0
  151.3755  131.6296  155.9379 H   0  0  0  0  0  0  0  0  0  0  0  0
  152.5137  131.6169  157.8164 H   0  0  0  0  0  0  0  0  0  0  0  0
  148.3070  132.4785  155.7781 H   0  0  0  0  0  0  0  0  0  0  0  0
  150.6339  132.6442  153.8719 H   0  0  0  0  0  0  0  0  0  0  0  0
  149.4646  131.3468  154.1097 H   0  0  0  0  0  0  0  0  0  0  0  0
  149.3496  133.6152  152.2578 H   0  0  0  0  0  0  0  0  0  0  0  0
  148.2225  132.2571  152.3473 H   0  0  0  0  0  0  0  0  0  0  0  0
  147.6480  134.7678  155.4319 H   0  0  0  0  0  0  0  0  0  0  0  0
  149.1214  135.1255  154.5147 H   0  0  0  0  0  0  0  0  0  0  0  0
  147.9743  142.5892  157.5666 H   0  0  0  0  0  0  0  0  0  0  0  0
  147.9611  141.7098  159.0750 H   0  0  0  0  0  0  0  0  0  0  0  0
  149.9576  142.9454  159.8536 H   0  0  0  0  0  0  0  0  0  0  0  0
  147.5738  143.8226  160.1518 H   0  0  0  0  0  0  0  0  0  0  0  0
  147.8604  144.9145  158.8038 H   0  0  0  0  0  0  0  0  0  0  0  0
  148.7985  145.0492  160.2966 H   0  0  0  0  0  0  0  0  0  0  0  0
  149.7892  144.3326  157.2922 H   0  0  0  0  0  0  0  0  0  0  0  0
  1  2  1  0  0  0  0
  1 30  1  0  0  0  0
  1 31  1  0  0  0  0
  1 32  1  0  0  0  0
  2  3  1  0  0  0  0
  2 33  1  0  0  0  0
  2 34  1  0  0  0  0
  3 28  1  0  0  0  0
  3  4  1  0  0  0  0
  3 64  1  0  0  0  0
  4  5  1  0  0  0  0
  4 35  1  0  0  0  0
  4 36  1  0  0  0  0
  5  6  1  0  0  0  0
  5 37  1  0  0  0  0
  5 38  1  0  0  0  0
  6  7  1  0  0  0  0
  6 27  1  0  0  0  0
  6 39  1  0  0  0  0
  7  8  1  0  0  0  0
  7  9  1  0  0  0  0
  8 40  1  0  0  0  0
  8 41  1  0  0  0  0
  8 42  1  0  0  0  0
  9 14  1  0  0  0  0
  9 10  2  0  0  0  0
 10 11  1  0  0  0  0
 11 12  2  0  0  0  0
 11 43  1  0  0  0  0
 12 13  1  0  0  0  0
 13 17  1  0  0  0  0
 13 14  2  0  0  0  0
 14 15  1  0  0  0  0
 15 16  2  0  0  0  0
 16 17  1  0  0  0  0
 16 44  1  0  0  0  0
 17 18  1  0  0  0  0
 18 19  1  0  0  0  0
 18 45  1  0  0  0  0
 18 46  1  0  0  0  0
 19 20  1  0  0  0  0
 19 22  1  0  0  0  0
 19 47  1  0  0  0  0
 20 21  1  0  0  0  0
 20 48  1  0  0  0  0
 20 49  1  0  0  0  0
 21 50  1  0  0  0  0
 22 26  1  0  0  0  0
 22 23  1  0  0  0  0
 22 51  1  0  0  0  0
 23 24  1  0  0  0  0
 23 52  1  0  0  0  0
 23 53  1  0  0  0  0
 24 25  1  0  0  0  0
 24 54  1  0  0  0  0
 24 55  1  0  0  0  0
 25 26  1  0  0  0  0
 26 56  1  0  0  0  0
 26 57  1  0  0  0  0
 27 28  1  0  0  0  0
 27 58  1  0  0  0  0
 27 59  1  0  0  0  0
 28 29  1  0  0  0  0
 28 60  1  0  0  0  0
 29 61  1  0  0  0  0
 29 62  1  0  0  0  0
 29 63  1  0  0  0  0
M  CHG  1   3   1
M  END
> <s_m_source_file>
AV-unprocessed.smi

> <i_m_source_file_index>
249

> <i_lp_mmshare_version>
43012

> <i_f3d_flags>
0

> <s_epik_input>
W0NIM11bQ0gyXU4xW0NIMl1bQ0gyXVtDQEhdKFtDSDJdW0NASF0xW0NIM10pTihbQ0gzXSljKG5bY0hdbjIpYyhjMjMpbltjSF1uM1tDSDJdW0NASF0oW0NIMl1bT0hdKVtDQEBIXTRbQ0gyXVtDSDJdT1tDSDJdNA==

> <s_epik_cmdline>
J2VwaWtfcHl0aG9uJywgJy1waCcsICc3LjAnLCAnLXRuJywgJzgnLCAnLW1hJywgJzIwMCcsICctbWV0YWxfYmluZGluZycsICctaW1hZScsICc8aW5maWxlLm1hZT4nLCAnLW9tYWUnLCAnPG91dGZpbGUubWFlPic=

> <r_lp_tautomer_probability>
1

> <r_epik_Ionization_Penalty>
0.00294688

> <r_epik_Ionization_Penalty_Charging>
0.00169971

> <r_epik_Ionization_Penalty_Neutral>
0.00124717

> <r_epik_State_Penalty>
-0

> <r_epik_Charging_Adjusted_Penalty>
0.00169971

> <i_epik_Tot_Q>
1

> <i_epik_Tot_abs_Q>
1

> <r_epik_Metal_State_Penalty>
-0

> <b_epik_Metal_Only>
0

> <s_lp_Force_Field>
OPLS_2005

> <r_lp_Energy>
53.9477

> <b_lp_Chiralities_Consistent>
1

> <s_lp_Variant>
AV-unprocessed.smi:249-20

> <Gold.Version>
5.8.1

> <Gold.Id.Protein>
6NUR|6NUR_protein|mol2

> <Gold.PLP.Fitness>
51.5086

> <Gold.PLP.PLP>
-38.8572

> <Gold.PLP.part.hbond>
-3.6802

> <Gold.PLP.part.metal>
0.0000

> <Gold.PLP.part.buried>
-4.6395

> <Gold.PLP.part.nonpolar>
-30.9141

> <Gold.PLP.part.repulsive>
0.2820

> <Gold.PLP.ligand.clash>
0.0000

> <Gold.PLP.ligand.torsion>
1.5359

> <Gold.PLP.Chemscore.Hbond>
4.0000

> <Gold.PLP.Chemscore.CHOScore>
1.0115

> <Gold.PLP.Chemscore.Metal>
0.0000

> <Gold.Chemscore.Hbonds>
donor molecule, donor type, donor heavy atom, donor atom, acceptor molecule, acceptor atom, score
      L1  H     3    64       P1  8028  2.00
      P1  H  6896  6907       L1    12  1.00
      P1  H  6896  6909       L1    21  1.00
      L1  C    16    44       P1  7949  0.99

> <Gold.PLP.Chemscore.Internal.Correction>
0.6886

> <Gold.Rescore>
     Score         DG    S(hbond)    S(metal)    S(lipo)     H(rot)  DE(clash)    DE(int)     intcor
     14.71     -18.35       2.56        0.00      95.05       2.65       1.42       2.22       ----

> <Gold.Chemscore.Fitness>
14.7070

> <Gold.Chemscore.DG>
-18.3485

> <Gold.Chemscore.ZeroCoef>
-5.4800

> <Gold.Chemscore.Hbond>
2.5556

> <Gold.Chemscore.Metal>
0.0000

> <Gold.Chemscore.Lipo>
95.0496

> <Gold.Chemscore.Internal_Hbond>
0.0000

> <Gold.Chemscore.DEClash>
1.4206

> <Gold.Chemscore.DEInternal>
2.2208

> <Gold.Chemscore.Rot>
2.6515

> <Gold.Chemscore.Internal.Correction>
   9.000000E+99

> <Gold.Chemscore.Hbonds>
donor molecule, donor type, donor heavy atom, donor atom, acceptor molecule, acceptor atom, score
      L1  H     3    64       P1  8028  0.35
      P1  H  6896  6907       L1    12  0.50
      P1  H  6896  6909       L1    21  0.95

> <Gold.Chemscore.Hbond.Weighted>
-8.5357

> <Gold.Chemscore.Metal.Weighted>
-0.0000

> <Gold.Chemscore.Lipo.Weighted>
-11.1208

> <Gold.Chemscore.Internal_Hbond.Weighted>
0.0000

> <Gold.Chemscore.DEClash.Weighted>
1.4206

> <Gold.Chemscore.DEInternal.Weighted>
2.2208

> <Gold.Chemscore.Rot.Weighted>
6.7880

> <Gold.Chemscore.Internal.Correction.Weighted>
   9.000000E+99

> <Gold.Protein.RotatedTorsions>
[ 6907 6896 6895 6894 ] final  -57.64 input  -60.11 | X-H torsion
[ 7974 7965 7964 7962 ] final   63.65 input  175.53 | X-H torsion
[ 8008 7997 7996 7995 ] final   -8.56 input   59.86 | X-H torsion
[ 10167 10162 10161 10158 ] final  -58.48 input  -65.29 | X-H torsion
[ 10718 10713 10712 10709 ] final   67.27 input   66.30 | X-H torsion
[ 10763 10752 10751 10750 ] final  -45.43 input  -60.55 | X-H torsion
[ 11005 11000 10999 10996 ] final   43.31 input  -57.11 | X-H torsion

> <Gold.Protein.ActiveResidues>
 VAL166  LYS551  ARG553  GLY616  TRP617  ASP618  TYR619  PRO620  LYS621  CYS622 
 ASP623  PHE694  ASN695  SER759  ASP760  ASP761  ALA762  ILE779  LEU786  VAL792 
 PHE793  MET794  SER795  GLU796  ALA797  LYS798  CYS799  TRP800  GLU811  SER814 

> <Gold.Protein.RotatedAtoms>
  150.8069  134.7200  159.6652 H   0  0  0  0  0  0  0  0  0  0  0  0  # atno 6907 bound_to 6896
  152.4189  134.5988  160.0004 H   0  0  0  0  0  0  0  0  0  0  0  0  # atno 6908 bound_to 6896
  151.6209  133.3302  159.3124 H   0  0  0  0  0  0  0  0  0  0  0  0  # atno 6909 bound_to 6896
  145.8594  139.3305  143.0828 H   0  0  0  0  0  0  0  0  0  0  0  0  # atno 7974 bound_to 7965
  154.5729  140.2378  155.8165 H   0  0  0  0  0  0  0  0  0  0  0  0  # atno 8008 bound_to 7997
  156.2121  140.3023  155.9713 H   0  0  0  0  0  0  0  0  0  0  0  0  # atno 8009 bound_to 7997
  155.2679  140.0417  157.2994 H   0  0  0  0  0  0  0  0  0  0  0  0  # atno 8010 bound_to 7997
  140.6195  143.2414  151.5516 H   0  0  0  0  0  0  0  0  0  0  0  0  # atno 10167 bound_to 10162
  157.6220  130.9312  150.0220 H   0  0  0  0  0  0  0  0  0  0  0  0  # atno 10718 bound_to 10713
  154.0285  135.6660  153.4778 H   0  0  0  0  0  0  0  0  0  0  0  0  # atno 10763 bound_to 10752
  153.0550  135.5061  154.7956 H   0  0  0  0  0  0  0  0  0  0  0  0  # atno 10764 bound_to 10752
  154.6893  135.3058  154.9467 H   0  0  0  0  0  0  0  0  0  0  0  0  # atno 10765 bound_to 10752
  140.1657  134.4285  155.8289 H   0  0  0  0  0  0  0  0  0  0  0  0  # atno 11005 bound_to 11000
  145.9266  140.9078  143.0378 LP  0  0  0  0  0  0  0  0  0  0  0  0  # atno 17320 bound_to 7965
  144.6727  140.1361  143.7440 LP  0  0  0  0  0  0  0  0  0  0  0  0  # atno 17321 bound_to 7965
  139.5426  144.2606  152.1381 LP  0  0  0  0  0  0  0  0  0  0  0  0  # atno 17342 bound_to 10162
  140.1823  144.4833  150.6522 LP  0  0  0  0  0  0  0  0  0  0  0  0  # atno 17343 bound_to 10162
  156.1370  130.3642  149.9641 LP  0  0  0  0  0  0  0  0  0  0  0  0  # atno 17370 bound_to 10713
  156.7690  130.9179  151.3644 LP  0  0  0  0  0  0  0  0  0  0  0  0  # atno 17371 bound_to 10713
  141.2213  133.6933  156.7674 LP  0  0  0  0  0  0  0  0  0  0  0  0  # atno 17394 bound_to 11000
  140.2436  134.8594  157.3598 LP  0  0  0  0  0  0  0  0  0  0  0  0  # atno 17395 bound_to 11000

$$$$
