AV-unprocessed.smi:1260|AV-procd|sdf|5298|dock4
  -GOLD-   22720 4413D 1   1.00000     0.00000
 Structure written by MMmdl.
 37 39  0  0  0  0  0  0  0  0  2 V2000
  148.8410  140.0238  155.9249 O   0  0  0  0  0  0  0  0  0  0  0  0
  148.9214  141.2172  155.6358 C   0  0  0  0  0  0  0  0  0  0  0  0
  148.2454  141.7435  154.3704 C   0  0  0  0  0  0  0  0  0  0  0  0
  146.9546  142.3251  154.6868 N   0  0  0  0  0  0  0  0  0  0  0  0
  146.0824  142.9912  153.9272 C   0  0  0  0  0  0  0  0  0  0  0  0
  145.0193  143.3694  154.6198 N   0  0  0  0  0  0  0  0  0  0  0  0
  145.2834  142.8855  155.8905 N   0  0  0  0  0  0  0  0  0  0  0  0
  146.4310  142.2662  155.9365 N   0  0  0  0  0  0  0  0  0  0  0  0
  149.5655  142.1197  156.3921 N   0  0  0  0  0  0  0  0  0  0  0  0
  150.2195  141.8320  157.6650 C   0  0  1  0  0  0  0  0  0  0  0  0
  151.3525  140.7983  157.5416 C   0  0  0  0  0  0  0  0  0  0  0  0
  152.4417  141.2672  158.5273 C   0  0  0  0  0  0  0  0  0  0  0  0
  151.8798  142.4566  159.1964 N   0  3  1  0  0  0  0  0  0  0  0  0
  152.8399  143.4359  159.7503 C   0  0  0  0  0  0  0  0  0  0  0  0
  152.0639  144.5525  160.4773 C   0  0  0  0  0  0  0  0  0  0  0  0
  150.9910  145.1878  159.5694 C   0  0  0  0  0  0  0  0  0  0  0  0
  150.0791  144.1121  158.9482 C   0  0  0  0  0  0  0  0  0  0  0  0
  150.9405  143.0554  158.2359 C   0  0  2  0  0  0  0  0  0  0  0  0
  148.8648  142.5012  153.8882 H   0  0  0  0  0  0  0  0  0  0  0  0
  148.1125  140.9309  153.6544 H   0  0  0  0  0  0  0  0  0  0  0  0
  146.2285  143.2032  152.8783 H   0  0  0  0  0  0  0  0  0  0  0  0
  149.5855  143.0779  156.0735 H   0  0  0  0  0  0  0  0  0  0  0  0
  149.4963  141.4616  158.3950 H   0  0  0  0  0  0  0  0  0  0  0  0
  150.9971  139.7940  157.7748 H   0  0  0  0  0  0  0  0  0  0  0  0
  151.7599  140.7748  156.5296 H   0  0  0  0  0  0  0  0  0  0  0  0
  152.6983  140.5006  159.2590 H   0  0  0  0  0  0  0  0  0  0  0  0
  153.3494  141.5331  157.9834 H   0  0  0  0  0  0  0  0  0  0  0  0
  153.5163  142.9344  160.4433 H   0  0  0  0  0  0  0  0  0  0  0  0
  153.4498  143.8541  158.9482 H   0  0  0  0  0  0  0  0  0  0  0  0
  151.5830  144.1380  161.3644 H   0  0  0  0  0  0  0  0  0  0  0  0
  152.7546  145.3180  160.8320 H   0  0  0  0  0  0  0  0  0  0  0  0
  150.3951  145.9040  160.1359 H   0  0  0  0  0  0  0  0  0  0  0  0
  151.4784  145.7528  158.7738 H   0  0  0  0  0  0  0  0  0  0  0  0
  149.4728  143.6434  159.7246 H   0  0  0  0  0  0  0  0  0  0  0  0
  149.3865  144.5758  158.2456 H   0  0  0  0  0  0  0  0  0  0  0  0
  151.5157  143.5345  157.4399 H   0  0  0  0  0  0  0  0  0  0  0  0
  151.3207  142.1159  159.9657 H   0  0  0  0  0  0  0  0  0  0  0  0
  1  2  2  0  0  0  0
  2  3  1  0  0  0  0
  2  9  1  0  0  0  0
  3  4  1  0  0  0  0
  3 19  1  0  0  0  0
  3 20  1  0  0  0  0
  4  8  1  0  0  0  0
  4  5  1  0  0  0  0
  5  6  2  0  0  0  0
  5 21  1  0  0  0  0
  6  7  1  0  0  0  0
  7  8  2  0  0  0  0
  9 10  1  0  0  0  0
  9 22  1  0  0  0  0
 10 18  1  0  0  0  0
 10 11  1  0  0  0  0
 10 23  1  0  0  0  0
 11 12  1  0  0  0  0
 11 24  1  0  0  0  0
 11 25  1  0  0  0  0
 12 13  1  0  0  0  0
 12 26  1  0  0  0  0
 12 27  1  0  0  0  0
 13 18  1  0  0  0  0
 13 14  1  0  0  0  0
 13 37  1  0  0  0  0
 14 15  1  0  0  0  0
 14 28  1  0  0  0  0
 14 29  1  0  0  0  0
 15 16  1  0  0  0  0
 15 30  1  0  0  0  0
 15 31  1  0  0  0  0
 16 17  1  0  0  0  0
 16 32  1  0  0  0  0
 16 33  1  0  0  0  0
 17 18  1  0  0  0  0
 17 34  1  0  0  0  0
 17 35  1  0  0  0  0
 18 36  1  0  0  0  0
M  CHG  1  13   1
M  END
> <s_m_source_file>
AV-unprocessed.smi

> <i_m_source_file_index>
1260

> <i_lp_mmshare_version>
43012

> <i_f3d_flags>
0

> <s_epik_input>
bjFubltjSF1uMVtDSDJdQyg9TylbTkhdW0NASF0oW0NIMl1bQ0gyXTIpW0NAQEhdKE4yMylbQ0gyXVtDSDJdW0NIMl1bQ0gyXTM=

> <s_epik_cmdline>
J2VwaWtfcHl0aG9uJywgJy1waCcsICc3LjAnLCAnLXRuJywgJzgnLCAnLW1hJywgJzIwMCcsICctbWV0YWxfYmluZGluZycsICctaW1hZScsICc8aW5maWxlLm1hZT4nLCAnLW9tYWUnLCAnPG91dGZpbGUubWFlPic=

> <r_lp_tautomer_probability>
1

> <r_epik_Ionization_Penalty>
0.00234324

> <r_epik_Ionization_Penalty_Charging>
0.00233897

> <r_epik_Ionization_Penalty_Neutral>
4.26861e-06

> <r_epik_State_Penalty>
0.00161477

> <r_epik_Charging_Adjusted_Penalty>
0.00395374

> <i_epik_Tot_Q>
1

> <i_epik_Tot_abs_Q>
1

> <r_epik_Metal_State_Penalty>
-0

> <b_epik_Metal_Only>
0

> <s_lp_Force_Field>
OPLS_2005

> <r_lp_Energy>
36.6869

> <b_lp_Chiralities_Consistent>
1

> <s_lp_Variant>
AV-unprocessed.smi:1260-6

> <Gold.Version>
5.8.1

> <Gold.Id.Protein>
6NUR|6NUR_protein|mol2

> <Gold.PLP.Fitness>
37.2434

> <Gold.PLP.PLP>
-34.9429

> <Gold.PLP.part.hbond>
-1.0000

> <Gold.PLP.part.metal>
0.0000

> <Gold.PLP.part.buried>
-5.9571

> <Gold.PLP.part.nonpolar>
-28.5602

> <Gold.PLP.part.repulsive>
0.6616

> <Gold.PLP.ligand.clash>
0.0000

> <Gold.PLP.ligand.torsion>
0.3560

> <Gold.PLP.Chemscore.Hbond>
1.0000

> <Gold.PLP.Chemscore.CHOScore>
0.0000

> <Gold.PLP.Chemscore.Metal>
0.0000

> <Gold.Chemscore.Hbonds>
donor molecule, donor type, donor heavy atom, donor atom, acceptor molecule, acceptor atom, score
      L1  H     9    22       P1  8028  1.00

> <Gold.PLP.Chemscore.Internal.Correction>
0.0126

> <Gold.Rescore>
     Score         DG    S(hbond)    S(metal)    S(lipo)     H(rot)  DE(clash)    DE(int)     intcor
     12.58     -12.95       1.00        0.00      78.56       1.98       0.00       0.37       ----

> <Gold.Chemscore.Fitness>
12.5798

> <Gold.Chemscore.DG>
-12.9542

> <Gold.Chemscore.ZeroCoef>
-5.4800

> <Gold.Chemscore.Hbond>
1.0000

> <Gold.Chemscore.Metal>
0.0000

> <Gold.Chemscore.Lipo>
78.5642

> <Gold.Chemscore.Internal_Hbond>
0.0000

> <Gold.Chemscore.DEClash>
0.0029

> <Gold.Chemscore.DEInternal>
0.3715

> <Gold.Chemscore.Rot>
1.9757

> <Gold.Chemscore.Internal.Correction>
   9.000000E+99

> <Gold.Chemscore.Hbonds>
donor molecule, donor type, donor heavy atom, donor atom, acceptor molecule, acceptor atom, score
      L1  H     9    22       P1  8028  0.99

> <Gold.Chemscore.Hbond.Weighted>
-3.3399

> <Gold.Chemscore.Metal.Weighted>
-0.0000

> <Gold.Chemscore.Lipo.Weighted>
-9.1920

> <Gold.Chemscore.Internal_Hbond.Weighted>
0.0000

> <Gold.Chemscore.DEClash.Weighted>
0.0029

> <Gold.Chemscore.DEInternal.Weighted>
0.3715

> <Gold.Chemscore.Rot.Weighted>
5.0578

> <Gold.Chemscore.Internal.Correction.Weighted>
   9.000000E+99

> <Gold.Protein.RotatedTorsions>
[ 6907 6896 6895 6894 ] final -130.90 input  -60.11 | X-H torsion
[ 7974 7965 7964 7962 ] final -161.36 input  175.53 | X-H torsion
[ 8008 7997 7996 7995 ] final -135.25 input   59.86 | X-H torsion
[ 10167 10162 10161 10158 ] final   53.05 input  -65.29 | X-H torsion
[ 10718 10713 10712 10709 ] final   91.59 input   66.30 | X-H torsion
[ 10763 10752 10751 10750 ] final  -92.96 input  -60.55 | X-H torsion
[ 11005 11000 10999 10996 ] final  177.80 input  -57.11 | X-H torsion

> <Gold.Protein.ActiveResidues>
 VAL166  LYS551  ARG553  GLY616  TRP617  ASP618  TYR619  PRO620  LYS621  CYS622 
 ASP623  PHE694  ASN695  SER759  ASP760  ASP761  ALA762  ILE779  LEU786  VAL792 
 PHE793  MET794  SER795  GLU796  ALA797  LYS798  CYS799  TRP800  GLU811  SER814 

> <Gold.Protein.RotatedAtoms>
  150.9449  133.6615  159.2783 H   0  0  0  0  0  0  0  0  0  0  0  0  # atno 6907 bound_to 6896
  151.3991  135.0967  159.9560 H   0  0  0  0  0  0  0  0  0  0  0  0  # atno 6908 bound_to 6896
  152.5085  133.8947  159.7466 H   0  0  0  0  0  0  0  0  0  0  0  0  # atno 6909 bound_to 6896
  144.7394  140.3408  143.6135 H   0  0  0  0  0  0  0  0  0  0  0  0  # atno 7974 bound_to 7965
  155.3755  140.0491  157.3045 H   0  0  0  0  0  0  0  0  0  0  0  0  # atno 8008 bound_to 7997
  154.5108  140.2191  155.9122 H   0  0  0  0  0  0  0  0  0  0  0  0  # atno 8009 bound_to 7997
  156.1581  140.3122  155.8765 H   0  0  0  0  0  0  0  0  0  0  0  0  # atno 8010 bound_to 7997
  140.2449  144.3543  150.6367 H   0  0  0  0  0  0  0  0  0  0  0  0  # atno 10167 bound_to 10162
  157.6960  131.0413  150.3753 H   0  0  0  0  0  0  0  0  0  0  0  0  # atno 10718 bound_to 10713
  154.6912  135.5212  153.8395 H   0  0  0  0  0  0  0  0  0  0  0  0  # atno 10763 bound_to 10752
  153.0633  135.6576  154.0421 H   0  0  0  0  0  0  0  0  0  0  0  0  # atno 10764 bound_to 10752
  154.0294  135.2986  155.3350 H   0  0  0  0  0  0  0  0  0  0  0  0  # atno 10765 bound_to 10752
  140.3881  134.6886  157.4491 H   0  0  0  0  0  0  0  0  0  0  0  0  # atno 11005 bound_to 11000
  145.7376  139.1754  143.2394 LP  0  0  0  0  0  0  0  0  0  0  0  0  # atno 17320 bound_to 7965
  146.1159  140.7370  142.9481 LP  0  0  0  0  0  0  0  0  0  0  0  0  # atno 17321 bound_to 7965
  140.6085  143.2168  151.6933 LP  0  0  0  0  0  0  0  0  0  0  0  0  # atno 17342 bound_to 10162
  139.5065  144.3679  152.0498 LP  0  0  0  0  0  0  0  0  0  0  0  0  # atno 17343 bound_to 10162
  156.4173  130.3946  149.6850 LP  0  0  0  0  0  0  0  0  0  0  0  0  # atno 17370 bound_to 10713
  156.4113  130.7723  151.2736 LP  0  0  0  0  0  0  0  0  0  0  0  0  # atno 17371 bound_to 10713
  140.0427  134.6244  155.8960 LP  0  0  0  0  0  0  0  0  0  0  0  0  # atno 17394 bound_to 11000
  141.1900  133.6567  156.5394 LP  0  0  0  0  0  0  0  0  0  0  0  0  # atno 17395 bound_to 11000

$$$$
