AV-unprocessed.smi:1163|AV-procd|sdf|4921|dock1
  -GOLD-   22720 3503D 1   1.00000     0.00000
 Structure written by MMmdl.
 39 40  0  0  0  0  0  0  0  0  1 V2000
  145.0898  130.9324  151.3978 C   0  0  0  0  0  0  0  0  0  0  0  0
  144.7964  131.9418  150.4379 O   0  0  0  0  0  0  0  0  0  0  0  0
  144.9222  133.2627  150.8173 C   0  0  0  0  0  0  0  0  0  0  0  0
  145.7374  133.5718  151.9241 C   0  0  0  0  0  0  0  0  0  0  0  0
  145.8715  134.9182  152.3121 C   0  0  0  0  0  0  0  0  0  0  0  0
  145.1963  135.9160  151.5809 C   0  0  0  0  0  0  0  0  0  0  0  0
  145.3395  137.2641  152.0068 N   0  0  0  0  0  0  0  0  0  0  0  0
  146.0949  137.7528  153.0054 C   0  0  0  0  0  0  0  0  0  0  0  0
  146.7984  137.0817  153.7598 O   0  0  0  0  0  0  0  0  0  0  0  0
  145.9698  139.0843  153.0943 N   0  0  0  0  0  0  0  0  0  0  0  0
  146.6296  139.9408  154.0758 C   0  0  1  0  0  0  0  0  0  0  0  0
  147.3862  141.0946  153.4229 C   0  0  0  0  0  0  0  0  0  0  0  0
  147.0810  142.2737  154.3394 C   0  0  0  0  0  0  0  0  0  0  0  0
  145.6905  142.0438  154.6994 N   0  0  0  0  0  0  0  0  0  0  0  0
  145.2720  142.9015  155.8062 C   0  0  0  0  0  0  0  0  0  0  0  0
  144.2227  143.9520  155.3928 C   0  0  0  0  0  0  0  0  0  0  0  0
  144.5580  144.4413  154.1998 F   0  0  0  0  0  0  0  0  0  0  0  0
  143.0156  143.3934  155.2974 F   0  0  0  0  0  0  0  0  0  0  0  0
  144.1737  144.9648  156.2583 F   0  0  0  0  0  0  0  0  0  0  0  0
  145.6005  140.6160  154.9953 C   0  0  0  0  0  0  0  0  0  0  0  0
  144.3901  135.5027  150.4923 C   0  0  0  0  0  0  0  0  0  0  0  0
  144.2562  134.2131  150.1161 N   0  0  0  0  0  0  0  0  0  0  0  0
  144.9323  129.9514  150.9499 H   0  0  0  0  0  0  0  0  0  0  0  0
  144.4365  131.0062  152.2686 H   0  0  0  0  0  0  0  0  0  0  0  0
  146.1296  130.9841  151.7240 H   0  0  0  0  0  0  0  0  0  0  0  0
  146.2497  132.7901  152.4652 H   0  0  0  0  0  0  0  0  0  0  0  0
  146.4897  135.1787  153.1590 H   0  0  0  0  0  0  0  0  0  0  0  0
  144.7554  137.9326  151.5262 H   0  0  0  0  0  0  0  0  0  0  0  0
  145.3642  139.5465  152.4320 H   0  0  0  0  0  0  0  0  0  0  0  0
  147.3191  139.3691  154.6995 H   0  0  0  0  0  0  0  0  0  0  0  0
  148.4554  140.8993  153.3351 H   0  0  0  0  0  0  0  0  0  0  0  0
  147.0009  141.3006  152.4227 H   0  0  0  0  0  0  0  0  0  0  0  0
  147.7138  142.2366  155.2279 H   0  0  0  0  0  0  0  0  0  0  0  0
  147.2246  143.2370  153.8491 H   0  0  0  0  0  0  0  0  0  0  0  0
  144.9025  142.2970  156.6362 H   0  0  0  0  0  0  0  0  0  0  0  0
  146.1544  143.4272  156.1737 H   0  0  0  0  0  0  0  0  0  0  0  0
  144.5858  140.2465  154.8423 H   0  0  0  0  0  0  0  0  0  0  0  0
  145.8716  140.4300  156.0360 H   0  0  0  0  0  0  0  0  0  0  0  0
  143.8137  136.2017  149.9071 H   0  0  0  0  0  0  0  0  0  0  0  0
  1  2  1  0  0  0  0
  1 23  1  0  0  0  0
  1 24  1  0  0  0  0
  1 25  1  0  0  0  0
  2  3  1  0  0  0  0
  3 22  1  0  0  0  0
  3  4  2  0  0  0  0
  4  5  1  0  0  0  0
  4 26  1  0  0  0  0
  5  6  2  0  0  0  0
  5 27  1  0  0  0  0
  6  7  1  0  0  0  0
  6 21  1  0  0  0  0
  7  8  1  0  0  0  0
  7 28  1  0  0  0  0
  8  9  2  0  0  0  0
  8 10  1  0  0  0  0
 10 11  1  0  0  0  0
 10 29  1  0  0  0  0
 11 20  1  0  0  0  0
 11 12  1  0  0  0  0
 11 30  1  0  0  0  0
 12 13  1  0  0  0  0
 12 31  1  0  0  0  0
 12 32  1  0  0  0  0
 13 14  1  0  0  0  0
 13 33  1  0  0  0  0
 13 34  1  0  0  0  0
 14 15  1  0  0  0  0
 14 20  1  0  0  0  0
 15 16  1  0  0  0  0
 15 35  1  0  0  0  0
 15 36  1  0  0  0  0
 16 17  1  0  0  0  0
 16 18  1  0  0  0  0
 16 19  1  0  0  0  0
 20 37  1  0  0  0  0
 20 38  1  0  0  0  0
 21 22  2  0  0  0  0
 21 39  1  0  0  0  0
M  END
> <s_m_source_file>
AV-unprocessed.smi

> <i_m_source_file_index>
1163

> <i_lp_mmshare_version>
43012

> <i_f3d_flags>
0

> <s_epik_input>
W0NIM11PYzFbY0hdW2NIXWMoW2NIXW4xKVtOSF1DKD1PKVtOSF1bQ0BASF0yW0NIMl1bQ0gyXU4oW0NIMl0yKVtDSDJdQyhGKShGKUY=

> <s_epik_cmdline>
J2VwaWtfcHl0aG9uJywgJy1waCcsICc3LjAnLCAnLXRuJywgJzgnLCAnLW1hJywgJzIwMCcsICctbWV0YWxfYmluZGluZycsICctaW1hZScsICc8aW5maWxlLm1hZT4nLCAnLW9tYWUnLCAnPG91dGZpbGUubWFlPic=

> <r_lp_tautomer_probability>
1

> <r_epik_Ionization_Penalty>
0.0970123

> <r_epik_Ionization_Penalty_Charging>
0

> <r_epik_Ionization_Penalty_Neutral>
0.0970123

> <r_epik_State_Penalty>
0.0870533

> <r_epik_Charging_Adjusted_Penalty>
0.0870533

> <i_epik_Tot_Q>
0

> <i_epik_Tot_abs_Q>
0

> <r_epik_Metal_State_Penalty>
0.0870519

> <b_epik_Metal_Only>
0

> <s_lp_Force_Field>
OPLS_2005

> <r_lp_Energy>
29.6524

> <b_lp_Chiralities_Consistent>
1

> <s_lp_Variant>
AV-unprocessed.smi:1163-2

> <Gold.Version>
5.8.1

> <Gold.Id.Protein>
6NUR|6NUR_protein|mol2

> <Gold.PLP.Fitness>
39.0087

> <Gold.PLP.PLP>
-32.8582

> <Gold.PLP.part.hbond>
-2.0000

> <Gold.PLP.part.metal>
0.0000

> <Gold.PLP.part.buried>
-6.9862

> <Gold.PLP.part.nonpolar>
-26.2869

> <Gold.PLP.part.repulsive>
1.5247

> <Gold.PLP.ligand.clash>
0.0000

> <Gold.PLP.ligand.torsion>
1.3149

> <Gold.PLP.Chemscore.Hbond>
1.7593

> <Gold.PLP.Chemscore.CHOScore>
1.0000

> <Gold.PLP.Chemscore.Metal>
0.0000

> <Gold.Chemscore.Hbonds>
donor molecule, donor type, donor heavy atom, donor atom, acceptor molecule, acceptor atom, score
      L1  H     7    28       P1 10171  0.99
      L1  H    10    29       P1 10175  0.75
      L1  C    21    39       P1 10171  1.00

> <Gold.PLP.Chemscore.Internal.Correction>
0.5026

> <Gold.Rescore>
     Score         DG    S(hbond)    S(metal)    S(lipo)     H(rot)  DE(clash)    DE(int)     intcor
     10.87     -13.73       1.67        0.00      58.88       1.65       0.39       2.47       ----

> <Gold.Chemscore.Fitness>
10.8671

> <Gold.Chemscore.DG>
-13.7258

> <Gold.Chemscore.ZeroCoef>
-5.4800

> <Gold.Chemscore.Hbond>
1.6719

> <Gold.Chemscore.Metal>
0.0000

> <Gold.Chemscore.Lipo>
58.8845

> <Gold.Chemscore.Internal_Hbond>
0.0000

> <Gold.Chemscore.DEClash>
0.3908

> <Gold.Chemscore.DEInternal>
2.4679

> <Gold.Chemscore.Rot>
1.6515

> <Gold.Chemscore.Internal.Correction>
   9.000000E+99

> <Gold.Chemscore.Hbonds>
donor molecule, donor type, donor heavy atom, donor atom, acceptor molecule, acceptor atom, score
      L1  H     7    28       P1 10171  0.87
      L1  H    10    29       P1 10175  0.75

> <Gold.Chemscore.Hbond.Weighted>
-5.5842

> <Gold.Chemscore.Metal.Weighted>
-0.0000

> <Gold.Chemscore.Lipo.Weighted>
-6.8895

> <Gold.Chemscore.Internal_Hbond.Weighted>
0.0000

> <Gold.Chemscore.DEClash.Weighted>
0.3908

> <Gold.Chemscore.DEInternal.Weighted>
2.4679

> <Gold.Chemscore.Rot.Weighted>
4.2279

> <Gold.Chemscore.Internal.Correction.Weighted>
   9.000000E+99

> <Gold.Protein.RotatedTorsions>
[ 6907 6896 6895 6894 ] final  -10.64 input  -60.11 | X-H torsion
[ 7974 7965 7964 7962 ] final  113.49 input  175.53 | X-H torsion
[ 8008 7997 7996 7995 ] final  128.84 input   59.86 | X-H torsion
[ 10167 10162 10161 10158 ] final  137.39 input  -65.29 | X-H torsion
[ 10718 10713 10712 10709 ] final  -23.78 input   66.30 | X-H torsion
[ 10763 10752 10751 10750 ] final   33.55 input  -60.55 | X-H torsion
[ 11005 11000 10999 10996 ] final -177.03 input  -57.11 | X-H torsion

> <Gold.Protein.ActiveResidues>
 VAL166  LYS551  ARG553  GLY616  TRP617  ASP618  TYR619  PRO620  LYS621  CYS622 
 ASP623  PHE694  ASN695  SER759  ASP760  ASP761  ALA762  ILE779  LEU786  VAL792 
 PHE793  MET794  SER795  GLU796  ALA797  LYS798  CYS799  TRP800  GLU811  SER814 

> <Gold.Protein.RotatedAtoms>
  151.3988  135.0968  159.9548 H   0  0  0  0  0  0  0  0  0  0  0  0  # atno 6907 bound_to 6896
  152.5057  133.8909  159.7403 H   0  0  0  0  0  0  0  0  0  0  0  0  # atno 6908 bound_to 6896
  150.9378  133.6635  159.2825 H   0  0  0  0  0  0  0  0  0  0  0  0  # atno 6909 bound_to 6896
  145.2163  139.2882  143.4242 H   0  0  0  0  0  0  0  0  0  0  0  0  # atno 7974 bound_to 7965
  156.2924  140.2635  156.2501 H   0  0  0  0  0  0  0  0  0  0  0  0  # atno 8008 bound_to 7997
  154.9891  140.0389  157.2330 H   0  0  0  0  0  0  0  0  0  0  0  0  # atno 8009 bound_to 7997
  154.7703  140.2777  155.6148 H   0  0  0  0  0  0  0  0  0  0  0  0  # atno 8010 bound_to 7997
  139.5146  144.6412  151.5562 H   0  0  0  0  0  0  0  0  0  0  0  0  # atno 10167 bound_to 10162
  156.4864  130.4556  149.6781 H   0  0  0  0  0  0  0  0  0  0  0  0  # atno 10718 bound_to 10713
  153.0206  135.6384  154.1530 H   0  0  0  0  0  0  0  0  0  0  0  0  # atno 10763 bound_to 10752
  154.1265  135.2843  155.3197 H   0  0  0  0  0  0  0  0  0  0  0  0  # atno 10764 bound_to 10752
  154.6226  135.5520  153.7653 H   0  0  0  0  0  0  0  0  0  0  0  0  # atno 10765 bound_to 10752
  140.4455  134.6392  157.4777 H   0  0  0  0  0  0  0  0  0  0  0  0  # atno 11005 bound_to 11000
  146.3386  140.2455  142.8597 LP  0  0  0  0  0  0  0  0  0  0  0  0  # atno 17320 bound_to 7965
  144.9808  140.8457  143.5398 LP  0  0  0  0  0  0  0  0  0  0  0  0  # atno 17321 bound_to 7965
  140.6180  143.9312  150.6504 LP  0  0  0  0  0  0  0  0  0  0  0  0  # atno 17342 bound_to 10162
  140.2576  143.3547  152.1351 LP  0  0  0  0  0  0  0  0  0  0  0  0  # atno 17343 bound_to 10162
  156.3470  130.7412  151.2366 LP  0  0  0  0  0  0  0  0  0  0  0  0  # atno 17370 bound_to 10713
  157.7478  131.0388  150.4518 LP  0  0  0  0  0  0  0  0  0  0  0  0  # atno 17371 bound_to 10713
  140.0041  134.6790  155.9483 LP  0  0  0  0  0  0  0  0  0  0  0  0  # atno 17394 bound_to 11000
  141.1687  133.6537  156.4572 LP  0  0  0  0  0  0  0  0  0  0  0  0  # atno 17395 bound_to 11000

$$$$
