AV-unprocessed.smi:1802|AV-procd|sdf|7273|dock2
  -GOLD-   22720 8533D 1   1.00000     0.00000
 Structure written by MMmdl.
 41 42  0  0  0  0  0  0  0  0  2 V2000
  143.9871  133.2875  151.2457 C   0  0  0  0  0  0  0  0  0  0  0  0
  145.4153  132.8513  150.8749 C   0  0  2  0  0  0  0  0  0  0  0  0
  145.5002  131.3698  150.4629 C   0  0  0  0  0  0  0  0  0  0  0  0
  145.3805  130.4439  151.6818 C   0  0  0  0  0  0  0  0  0  0  0  0
  146.4004  130.8240  152.7669 C   0  0  0  0  0  0  0  0  0  0  0  0
  146.2528  132.2485  153.1622 N   0  3  1  0  0  0  0  0  0  0  0  0
  147.1108  132.6082  154.3190 C   0  0  0  0  0  0  0  0  0  0  0  0
  148.6081  132.4673  153.9966 C   0  0  0  0  0  0  0  0  0  0  0  0
  149.4907  133.3073  154.9350 C   0  0  0  0  0  0  0  0  0  0  0  0
  149.6365  134.6768  154.4544 N   0  0  0  0  0  0  0  0  0  0  0  0
  150.3820  135.6209  155.0475 C   0  0  0  0  0  0  0  0  0  0  0  0
  151.0254  135.4240  156.0788 O   0  0  0  0  0  0  0  0  0  0  0  0
  150.3248  136.7842  154.3753 N   0  0  0  0  0  0  0  0  0  0  0  0
  150.9646  138.0130  154.6888 C   0  0  0  0  0  0  0  0  0  0  0  0
  150.5218  139.2100  154.2729 N   0  0  0  0  0  0  0  0  0  0  0  0
  151.3307  140.2471  154.7189 N   0  0  0  0  0  0  0  0  0  0  0  0
  152.3507  139.7922  155.4520 C   0  0  0  0  0  0  0  0  0  0  0  0
  152.4225  138.0520  155.6701 S   0  0  0  0  0  0  0  0  0  0  0  0
  146.4268  133.1592  151.9979 C   0  0  0  0  0  0  0  0  0  0  0  0
  143.6188  132.7688  152.1309 H   0  0  0  0  0  0  0  0  0  0  0  0
  143.2917  133.0865  150.4303 H   0  0  0  0  0  0  0  0  0  0  0  0
  143.9472  134.3576  151.4518 H   0  0  0  0  0  0  0  0  0  0  0  0
  145.7010  133.4456  150.0058 H   0  0  0  0  0  0  0  0  0  0  0  0
  144.7313  131.1309  149.7274 H   0  0  0  0  0  0  0  0  0  0  0  0
  146.4577  131.1887  149.9723 H   0  0  0  0  0  0  0  0  0  0  0  0
  144.3710  130.4952  152.0911 H   0  0  0  0  0  0  0  0  0  0  0  0
  145.5329  129.4086  151.3758 H   0  0  0  0  0  0  0  0  0  0  0  0
  146.2507  130.1801  153.6344 H   0  0  0  0  0  0  0  0  0  0  0  0
  147.4167  130.6465  152.4111 H   0  0  0  0  0  0  0  0  0  0  0  0
  146.9254  133.6479  154.5930 H   0  0  0  0  0  0  0  0  0  0  0  0
  146.8386  132.0080  155.1885 H   0  0  0  0  0  0  0  0  0  0  0  0
  148.9173  131.4246  154.0633 H   0  0  0  0  0  0  0  0  0  0  0  0
  148.7774  132.7729  152.9632 H   0  0  0  0  0  0  0  0  0  0  0  0
  149.0809  133.3114  155.9465 H   0  0  0  0  0  0  0  0  0  0  0  0
  150.4847  132.8647  155.0050 H   0  0  0  0  0  0  0  0  0  0  0  0
  149.1411  134.9203  153.6089 H   0  0  0  0  0  0  0  0  0  0  0  0
  149.7535  136.7948  153.5434 H   0  0  0  0  0  0  0  0  0  0  0  0
  153.0657  140.4868  155.8674 H   0  0  0  0  0  0  0  0  0  0  0  0
  147.4437  133.0554  151.6157 H   0  0  0  0  0  0  0  0  0  0  0  0
  146.3184  134.1995  152.3029 H   0  0  0  0  0  0  0  0  0  0  0  0
  145.2984  132.3516  153.4766 H   0  0  0  0  0  0  0  0  0  0  0  0
  1  2  1  0  0  0  0
  1 20  1  0  0  0  0
  1 21  1  0  0  0  0
  1 22  1  0  0  0  0
  2 19  1  0  0  0  0
  2  3  1  0  0  0  0
  2 23  1  0  0  0  0
  3  4  1  0  0  0  0
  3 24  1  0  0  0  0
  3 25  1  0  0  0  0
  4  5  1  0  0  0  0
  4 26  1  0  0  0  0
  4 27  1  0  0  0  0
  5  6  1  0  0  0  0
  5 28  1  0  0  0  0
  5 29  1  0  0  0  0
  6  7  1  0  0  0  0
  6 19  1  0  0  0  0
  6 41  1  0  0  0  0
  7  8  1  0  0  0  0
  7 30  1  0  0  0  0
  7 31  1  0  0  0  0
  8  9  1  0  0  0  0
  8 32  1  0  0  0  0
  8 33  1  0  0  0  0
  9 10  1  0  0  0  0
  9 34  1  0  0  0  0
  9 35  1  0  0  0  0
 10 11  1  0  0  0  0
 10 36  1  0  0  0  0
 11 12  2  0  0  0  0
 11 13  1  0  0  0  0
 13 14  1  0  0  0  0
 13 37  1  0  0  0  0
 14 18  1  0  0  0  0
 14 15  2  0  0  0  0
 15 16  1  0  0  0  0
 16 17  2  0  0  0  0
 17 18  1  0  0  0  0
 17 38  1  0  0  0  0
 19 39  1  0  0  0  0
 19 40  1  0  0  0  0
M  CHG  1   6   1
M  END
> <s_m_source_file>
AV-unprocessed.smi

> <i_m_source_file_index>
1802

> <i_lp_mmshare_version>
43012

> <i_f3d_flags>
0

> <s_epik_input>
W0NIM11bQ0BASF0xW0NIMl1bQ0gyXVtDSDJdTihbQ0gyXTEpW0NIMl1bQ0gyXVtDSDJdW05IXUMoPU8pW05IXWMybm5bY0hdczI=

> <s_epik_cmdline>
J2VwaWtfcHl0aG9uJywgJy1waCcsICc3LjAnLCAnLXRuJywgJzgnLCAnLW1hJywgJzIwMCcsICctbWV0YWxfYmluZGluZycsICctaW1hZScsICc8aW5maWxlLm1hZT4nLCAnLW9tYWUnLCAnPG91dGZpbGUubWFlPic=

> <r_lp_tautomer_probability>
1

> <r_epik_Ionization_Penalty>
0.00272894

> <r_epik_Ionization_Penalty_Charging>
0.000288442

> <r_epik_Ionization_Penalty_Neutral>
0.0024405

> <r_epik_State_Penalty>
-0

> <r_epik_Charging_Adjusted_Penalty>
0.000288442

> <i_epik_Tot_Q>
1

> <i_epik_Tot_abs_Q>
1

> <r_epik_Metal_State_Penalty>
0.350525

> <b_epik_Metal_Only>
0

> <s_lp_Force_Field>
OPLS_2005

> <r_lp_Energy>
17.3239

> <b_lp_Chiralities_Consistent>
1

> <s_lp_Variant>
AV-unprocessed.smi:1802-3

> <Gold.Version>
5.8.1

> <Gold.Id.Protein>
6NUR|6NUR_protein|mol2

> <Gold.PLP.Fitness>
46.3340

> <Gold.PLP.PLP>
-35.6015

> <Gold.PLP.part.hbond>
-4.9211

> <Gold.PLP.part.metal>
0.0000

> <Gold.PLP.part.buried>
-4.5679

> <Gold.PLP.part.nonpolar>
-27.1193

> <Gold.PLP.part.repulsive>
0.3575

> <Gold.PLP.ligand.clash>
0.0000

> <Gold.PLP.ligand.torsion>
0.3908

> <Gold.PLP.Chemscore.Hbond>
3.8240

> <Gold.PLP.Chemscore.CHOScore>
0.0000

> <Gold.PLP.Chemscore.Metal>
0.0000

> <Gold.Chemscore.Hbonds>
donor molecule, donor type, donor heavy atom, donor atom, acceptor molecule, acceptor atom, score
      L1  H    10    36       P1  7948  0.64
      L1  H    13    37       P1  7948  1.00
      P1  H  7989  7998       L1    16  0.68
      P1  H 10752 10765       L1    12  0.10

> <Gold.PLP.Chemscore.Internal.Correction>
0.0421

> <Gold.Rescore>
     Score         DG    S(hbond)    S(metal)    S(lipo)     H(rot)  DE(clash)    DE(int)     intcor
     13.85     -14.62       1.49        0.00      78.77       1.98       0.07       0.70       ----

> <Gold.Chemscore.Fitness>
13.8532

> <Gold.Chemscore.DG>
-14.6221

> <Gold.Chemscore.ZeroCoef>
-5.4800

> <Gold.Chemscore.Hbond>
1.4949

> <Gold.Chemscore.Metal>
0.0000

> <Gold.Chemscore.Lipo>
78.7692

> <Gold.Chemscore.Internal_Hbond>
0.0000

> <Gold.Chemscore.DEClash>
0.0684

> <Gold.Chemscore.DEInternal>
0.7005

> <Gold.Chemscore.Rot>
1.9793

> <Gold.Chemscore.Internal.Correction>
   9.000000E+99

> <Gold.Chemscore.Hbonds>
donor molecule, donor type, donor heavy atom, donor atom, acceptor molecule, acceptor atom, score
      L1  H    10    36       P1  7948  0.14
      L1  H    13    37       P1  7948  0.50
      P1  H  7989  7998       L1    16  0.19

> <Gold.Chemscore.Hbond.Weighted>
-4.9931

> <Gold.Chemscore.Metal.Weighted>
-0.0000

> <Gold.Chemscore.Lipo.Weighted>
-9.2160

> <Gold.Chemscore.Internal_Hbond.Weighted>
0.0000

> <Gold.Chemscore.DEClash.Weighted>
0.0684

> <Gold.Chemscore.DEInternal.Weighted>
0.7005

> <Gold.Chemscore.Rot.Weighted>
5.0670

> <Gold.Chemscore.Internal.Correction.Weighted>
   9.000000E+99

> <Gold.Protein.RotatedTorsions>
[ 6907 6896 6895 6894 ] final  170.64 input  -60.11 | X-H torsion
[ 7974 7965 7964 7962 ] final    6.26 input  175.53 | X-H torsion
[ 8008 7997 7996 7995 ] final  -86.52 input   59.86 | X-H torsion
[ 10167 10162 10161 10158 ] final -137.86 input  -65.29 | X-H torsion
[ 10718 10713 10712 10709 ] final   54.75 input   66.30 | X-H torsion
[ 10763 10752 10751 10750 ] final -167.15 input  -60.55 | X-H torsion
[ 11005 11000 10999 10996 ] final   90.98 input  -57.11 | X-H torsion

> <Gold.Protein.ActiveResidues>
 VAL166  LYS551  ARG553  GLY616  TRP617  ASP618  TYR619  PRO620  LYS621  CYS622 
 ASP623  PHE694  ASN695  SER759  ASP760  ASP761  ALA762  ILE779  LEU786  VAL792 
 PHE793  MET794  SER795  GLU796  ALA797  LYS798  CYS799  TRP800  GLU811  SER814 

> <Gold.Protein.RotatedAtoms>
  151.8129  133.3384  159.3560 H   0  0  0  0  0  0  0  0  0  0  0  0  # atno 6907 bound_to 6896
  150.7320  134.5647  159.5869 H   0  0  0  0  0  0  0  0  0  0  0  0  # atno 6908 bound_to 6896
  152.3062  134.7554  160.0398 H   0  0  0  0  0  0  0  0  0  0  0  0  # atno 6909 bound_to 6896
  146.2436  140.0260  142.8394 H   0  0  0  0  0  0  0  0  0  0  0  0  # atno 7974 bound_to 7965
  154.6528  140.0577  156.9975 H   0  0  0  0  0  0  0  0  0  0  0  0  # atno 8008 bound_to 7997
  155.1345  140.3259  155.4448 H   0  0  0  0  0  0  0  0  0  0  0  0  # atno 8009 bound_to 7997
  156.2584  140.1975  156.6463 H   0  0  0  0  0  0  0  0  0  0  0  0  # atno 8010 bound_to 7997
  139.8535  143.7168  152.2656 H   0  0  0  0  0  0  0  0  0  0  0  0  # atno 10167 bound_to 10162
  157.5284  130.8613  149.8654 H   0  0  0  0  0  0  0  0  0  0  0  0  # atno 10718 bound_to 10713
  154.6761  135.2947  154.9677 H   0  0  0  0  0  0  0  0  0  0  0  0  # atno 10763 bound_to 10752
  154.0688  135.6621  153.4825 H   0  0  0  0  0  0  0  0  0  0  0  0  # atno 10764 bound_to 10752
  153.0517  135.5170  154.7780 H   0  0  0  0  0  0  0  0  0  0  0  0  # atno 10765 bound_to 10752
  139.8846  134.8647  156.3363 H   0  0  0  0  0  0  0  0  0  0  0  0  # atno 11005 bound_to 11000
  145.1198  140.9455  143.4607 LP  0  0  0  0  0  0  0  0  0  0  0  0  # atno 17320 bound_to 7965
  145.0492  139.3195  143.5937 LP  0  0  0  0  0  0  0  0  0  0  0  0  # atno 17321 bound_to 7965
  139.7442  144.7551  151.0605 LP  0  0  0  0  0  0  0  0  0  0  0  0  # atno 17342 bound_to 10162
  140.7784  143.4936  150.9861 LP  0  0  0  0  0  0  0  0  0  0  0  0  # atno 17343 bound_to 10162
  156.0404  130.3740  150.1450 LP  0  0  0  0  0  0  0  0  0  0  0  0  # atno 17370 bound_to 10713
  156.9635  130.9812  151.3474 LP  0  0  0  0  0  0  0  0  0  0  0  0  # atno 17371 bound_to 10713
  140.9689  133.7340  156.0506 LP  0  0  0  0  0  0  0  0  0  0  0  0  # atno 17394 bound_to 11000
  140.7896  134.3632  157.5468 LP  0  0  0  0  0  0  0  0  0  0  0  0  # atno 17395 bound_to 11000

$$$$
