AV-unprocessed.smi:2736|AV-procd|sdf|10546|dock2
  -GOLD-   2272014593D 1   1.00000     0.00000
 Structure written by MMmdl.
 38 40  0  0  0  0  0  0  0  0  1 V2000
  153.7561  138.4018  159.4782 C   0  0  0  0  0  0  0  0  0  0  0  0
  153.1485  139.7092  159.1671 N   0  0  0  0  0  0  0  0  0  0  0  0
  152.3909  139.8185  158.0305 C   0  0  0  0  0  0  0  0  0  0  0  0
  152.1761  138.9001  157.2388 O   0  0  0  0  0  0  0  0  0  0  0  0
  151.8352  141.1592  157.8132 C   0  0  0  0  0  0  0  0  0  0  0  0
  152.0575  142.1962  158.6582 C   0  0  0  0  0  0  0  0  0  0  0  0
  151.4251  143.3526  158.2151 N   0  0  0  0  0  0  0  0  0  0  0  0
  150.8392  142.9380  157.0918 C   0  0  0  0  0  0  0  0  0  0  0  0
  151.0343  141.6414  156.7779 N   0  0  0  0  0  0  0  0  0  0  0  0
  150.5057  140.9598  155.6057 C   0  0  0  0  0  0  0  0  0  0  0  0
  149.0010  141.2226  155.3942 C   0  0  1  0  0  0  0  0  0  0  0  0
  148.8148  142.4111  154.6481 O   0  0  0  0  0  0  0  0  0  0  0  0
  148.3145  140.0136  154.7625 C   0  0  0  0  0  0  0  0  0  0  0  0
  147.6099  140.1592  153.5446 C   0  0  0  0  0  0  0  0  0  0  0  0
  146.9739  139.0546  152.9469 C   0  0  0  0  0  0  0  0  0  0  0  0
  147.0409  137.7896  153.5574 C   0  0  0  0  0  0  0  0  0  0  0  0
  147.7497  137.6301  154.7622 C   0  0  0  0  0  0  0  0  0  0  0  0
  148.3894  138.7318  155.3649 C   0  0  0  0  0  0  0  0  0  0  0  0
  149.2652  138.4716  156.8334 Cl  0  0  0  0  0  0  0  0  0  0  0  0
  152.8615  141.9729  159.8058 N   0  0  0  0  0  0  0  0  0  0  0  0
  153.1166  143.0848  160.7261 C   0  0  0  0  0  0  0  0  0  0  0  0
  153.4075  140.7387  160.0553 C   0  0  0  0  0  0  0  0  0  0  0  0
  154.1147  140.5603  161.0514 O   0  0  0  0  0  0  0  0  0  0  0  0
  153.4536  137.5876  158.8188 H   0  0  0  0  0  0  0  0  0  0  0  0
  153.4945  138.0848  160.4891 H   0  0  0  0  0  0  0  0  0  0  0  0
  154.8435  138.4693  159.4188 H   0  0  0  0  0  0  0  0  0  0  0  0
  150.2504  143.6000  156.4739 H   0  0  0  0  0  0  0  0  0  0  0  0
  151.0813  141.2409  154.7247 H   0  0  0  0  0  0  0  0  0  0  0  0
  150.6758  139.8908  155.7406 H   0  0  0  0  0  0  0  0  0  0  0  0
  148.5393  141.4223  156.3608 H   0  0  0  0  0  0  0  0  0  0  0  0
  148.8211  143.1437  155.2452 H   0  0  0  0  0  0  0  0  0  0  0  0
  147.5537  141.1209  153.0561 H   0  0  0  0  0  0  0  0  0  0  0  0
  146.4359  139.1784  152.0185 H   0  0  0  0  0  0  0  0  0  0  0  0
  146.5538  136.9412  153.0996 H   0  0  0  0  0  0  0  0  0  0  0  0
  147.8053  136.6553  155.2240 H   0  0  0  0  0  0  0  0  0  0  0  0
  152.7904  142.8316  161.7358 H   0  0  0  0  0  0  0  0  0  0  0  0
  152.5961  143.9984  160.4397 H   0  0  0  0  0  0  0  0  0  0  0  0
  154.1825  143.3148  160.7593 H   0  0  0  0  0  0  0  0  0  0  0  0
  1  2  1  0  0  0  0
  1 24  1  0  0  0  0
  1 25  1  0  0  0  0
  1 26  1  0  0  0  0
  2 22  1  0  0  0  0
  2  3  1  0  0  0  0
  3  4  2  0  0  0  0
  3  5  1  0  0  0  0
  5  9  1  0  0  0  0
  5  6  2  0  0  0  0
  6  7  1  0  0  0  0
  6 20  1  0  0  0  0
  7  8  2  0  0  0  0
  8  9  1  0  0  0  0
  8 27  1  0  0  0  0
  9 10  1  0  0  0  0
 10 11  1  0  0  0  0
 10 28  1  0  0  0  0
 10 29  1  0  0  0  0
 11 12  1  0  0  0  0
 11 13  1  0  0  0  0
 11 30  1  0  0  0  0
 12 31  1  0  0  0  0
 13 18  1  0  0  0  0
 13 14  2  0  0  0  0
 14 15  1  0  0  0  0
 14 32  1  0  0  0  0
 15 16  2  0  0  0  0
 15 33  1  0  0  0  0
 16 17  1  0  0  0  0
 16 34  1  0  0  0  0
 17 18  2  0  0  0  0
 17 35  1  0  0  0  0
 18 19  1  0  0  0  0
 20 21  1  0  0  0  0
 20 22  1  0  0  0  0
 21 36  1  0  0  0  0
 21 37  1  0  0  0  0
 21 38  1  0  0  0  0
 22 23  2  0  0  0  0
M  END
> <s_m_source_file>
AV-unprocessed.smi

> <i_m_source_file_index>
2736

> <i_lp_mmshare_version>
43012

> <i_f3d_flags>
0

> <s_epik_input>
Tz1jMW4oW0NIM10pYyg9TyluKFtDSDNdKWMoYzEyKW5bY0hdbjJbQ0gyXVtDQEhdKFtPSF0pYzNbY0hdW2NIXVtjSF1bY0hdYzNDbA==

> <s_epik_cmdline>
J2VwaWtfcHl0aG9uJywgJy1waCcsICc3LjAnLCAnLXRuJywgJzgnLCAnLW1hJywgJzIwMCcsICctbWV0YWxfYmluZGluZycsICctaW1hZScsICc8aW5maWxlLm1hZT4nLCAnLW9tYWUnLCAnPG91dGZpbGUubWFlPic=

> <r_lp_tautomer_probability>
1

> <r_epik_Ionization_Penalty>
1.63404e-06

> <r_epik_Ionization_Penalty_Charging>
3.74189e-09

> <r_epik_Ionization_Penalty_Neutral>
1.63029e-06

> <r_epik_State_Penalty>
-0

> <r_epik_Charging_Adjusted_Penalty>
3.74189e-09

> <i_epik_Tot_Q>
0

> <i_epik_Tot_abs_Q>
0

> <r_epik_Metal_State_Penalty>
-0

> <b_epik_Metal_Only>
0

> <s_lp_Force_Field>
OPLS_2005

> <r_lp_Energy>
36.7388

> <b_lp_Chiralities_Consistent>
1

> <s_lp_Variant>
AV-unprocessed.smi:2736-2

> <Gold.Version>
5.8.1

> <Gold.Id.Protein>
6NUR|6NUR_protein|mol2

> <Gold.PLP.Fitness>
42.4268

> <Gold.PLP.PLP>
-37.3057

> <Gold.PLP.part.hbond>
-1.7852

> <Gold.PLP.part.metal>
0.0000

> <Gold.PLP.part.buried>
-2.8593

> <Gold.PLP.part.nonpolar>
-32.4981

> <Gold.PLP.part.repulsive>
0.0817

> <Gold.PLP.ligand.clash>
0.0000

> <Gold.PLP.ligand.torsion>
0.5038

> <Gold.PLP.Chemscore.Hbond>
1.0419

> <Gold.PLP.Chemscore.CHOScore>
0.9882

> <Gold.PLP.Chemscore.Metal>
0.0000

> <Gold.Chemscore.Hbonds>
donor molecule, donor type, donor heavy atom, donor atom, acceptor molecule, acceptor atom, score
      L1  H    12    31       P1  8028  1.00
      L1  C     8    27       P1  8028  0.76

> <Gold.PLP.Chemscore.Internal.Correction>
0.0383

> <Gold.Rescore>
     Score         DG    S(hbond)    S(metal)    S(lipo)     H(rot)  DE(clash)    DE(int)     intcor
     10.10     -10.64       1.03        0.00      61.61       2.15       0.06       0.48       ----

> <Gold.Chemscore.Fitness>
10.1011

> <Gold.Chemscore.DG>
-10.6389

> <Gold.Chemscore.ZeroCoef>
-5.4800

> <Gold.Chemscore.Hbond>
1.0325

> <Gold.Chemscore.Metal>
0.0000

> <Gold.Chemscore.Lipo>
61.6056

> <Gold.Chemscore.Internal_Hbond>
0.0000

> <Gold.Chemscore.DEClash>
0.0584

> <Gold.Chemscore.DEInternal>
0.4794

> <Gold.Chemscore.Rot>
2.1474

> <Gold.Chemscore.Internal.Correction>
   9.000000E+99

> <Gold.Chemscore.Hbonds>
donor molecule, donor type, donor heavy atom, donor atom, acceptor molecule, acceptor atom, score
      L1  H    12    31       P1  8028  0.97

> <Gold.Chemscore.Hbond.Weighted>
-3.4484

> <Gold.Chemscore.Metal.Weighted>
-0.0000

> <Gold.Chemscore.Lipo.Weighted>
-7.2079

> <Gold.Chemscore.Internal_Hbond.Weighted>
0.0000

> <Gold.Chemscore.DEClash.Weighted>
0.0584

> <Gold.Chemscore.DEInternal.Weighted>
0.4794

> <Gold.Chemscore.Rot.Weighted>
5.4974

> <Gold.Chemscore.Internal.Correction.Weighted>
   9.000000E+99

> <Gold.Protein.RotatedTorsions>
[ 6907 6896 6895 6894 ] final -150.46 input  -60.11 | X-H torsion
[ 7974 7965 7964 7962 ] final  147.13 input  175.53 | X-H torsion
[ 8008 7997 7996 7995 ] final  166.69 input   59.86 | X-H torsion
[ 10167 10162 10161 10158 ] final   -1.06 input  -65.29 | X-H torsion
[ 10718 10713 10712 10709 ] final  -95.92 input   66.30 | X-H torsion
[ 10763 10752 10751 10750 ] final   71.99 input  -60.55 | X-H torsion
[ 11005 11000 10999 10996 ] final  142.53 input  -57.11 | X-H torsion

> <Gold.Protein.ActiveResidues>
 VAL166  LYS551  ARG553  GLY616  TRP617  ASP618  TYR619  PRO620  LYS621  CYS622 
 ASP623  PHE694  ASN695  SER759  ASP760  ASP761  ALA762  ILE779  LEU786  VAL792 
 PHE793  MET794  SER795  GLU796  ALA797  LYS798  CYS799  TRP800  GLU811  SER814 

> <Gold.Protein.RotatedAtoms>
  151.1989  133.4622  159.2595 H   0  0  0  0  0  0  0  0  0  0  0  0  # atno 6907 bound_to 6896
  151.1089  135.0015  159.8494 H   0  0  0  0  0  0  0  0  0  0  0  0  # atno 6908 bound_to 6896
  152.5449  134.1910  159.8727 H   0  0  0  0  0  0  0  0  0  0  0  0  # atno 6909 bound_to 6896
  144.8616  139.5991  143.5928 H   0  0  0  0  0  0  0  0  0  0  0  0  # atno 7974 bound_to 7965
  156.1697  140.1636  156.8469 H   0  0  0  0  0  0  0  0  0  0  0  0  # atno 8008 bound_to 7997
  154.5244  140.0771  156.8265 H   0  0  0  0  0  0  0  0  0  0  0  0  # atno 8009 bound_to 7997
  155.3538  140.3391  155.4242 H   0  0  0  0  0  0  0  0  0  0  0  0  # atno 8010 bound_to 7997
  140.6794  143.6821  150.8097 H   0  0  0  0  0  0  0  0  0  0  0  0  # atno 10167 bound_to 10162
  156.0052  130.5129  150.6148 H   0  0  0  0  0  0  0  0  0  0  0  0  # atno 10718 bound_to 10713
  153.0432  135.5116  154.7677 H   0  0  0  0  0  0  0  0  0  0  0  0  # atno 10763 bound_to 10752
  154.6597  135.2937  154.9884 H   0  0  0  0  0  0  0  0  0  0  0  0  # atno 10764 bound_to 10752
  154.0739  135.6673  153.4880 H   0  0  0  0  0  0  0  0  0  0  0  0  # atno 10765 bound_to 10752
  140.0484  134.9268  157.0972 H   0  0  0  0  0  0  0  0  0  0  0  0  # atno 11005 bound_to 11000
  146.2864  139.7017  142.9192 LP  0  0  0  0  0  0  0  0  0  0  0  0  # atno 17320 bound_to 7965
  145.4302  141.0414  143.2915 LP  0  0  0  0  0  0  0  0  0  0  0  0  # atno 17321 bound_to 7965
  140.0519  143.5241  152.2670 LP  0  0  0  0  0  0  0  0  0  0  0  0  # atno 17342 bound_to 10162
  139.6106  144.7608  151.2960 LP  0  0  0  0  0  0  0  0  0  0  0  0  # atno 17343 bound_to 10162
  157.3974  131.0805  151.1339 LP  0  0  0  0  0  0  0  0  0  0  0  0  # atno 17370 bound_to 10713
  157.2012  130.6395  149.5739 LP  0  0  0  0  0  0  0  0  0  0  0  0  # atno 17371 bound_to 10713
  140.3956  134.2137  155.7165 LP  0  0  0  0  0  0  0  0  0  0  0  0  # atno 17394 bound_to 11000
  141.1918  133.8186  157.0863 LP  0  0  0  0  0  0  0  0  0  0  0  0  # atno 17395 bound_to 11000

$$$$
