#       Name:                AV-unprocessed.smi:3019
#       Creating user name   scv26
#       Creation time:       Fri Mar 27 16:43:10 2020


#       File generated by GOLD software.
#

@<TRIPOS>MOLECULE
AV-unprocessed.smi:3019
    35    36     1
SMALL
NO_CHARGES


@<TRIPOS>ATOM
      1 ****        -3.7364   0.7882   1.0148 C.3            1 S1                 0.0000
      2 ****        -3.0938   1.6743  -0.0609 C.3            1 S1                 0.0000
      3 ****        -3.6050   1.3709  -1.4759 C.3            1 S1                 0.0000
      4 ****        -1.5794   1.6255   0.0075 C.2            1 S1                 0.0000
      5 ****        -0.7702   2.6587   0.3025 N.pl3          1 S1                -1.0000
      6 ****         0.4864   2.2651   0.2761 N.2            1 S1                 0.0000
      7 ****         0.4455   0.9652  -0.0525 C.2            1 S1                 0.0000
      8 ****         1.6624   0.0707  -0.1644 C.3            1 S1                 0.0000
      9 ****         1.9838  -0.5955   1.1876 C.3            1 S1                 0.0000
     10 ****         3.1599  -1.4772   1.0581 N.4            1 S1                 1.0000
     11 ****         2.9818  -2.4655  -0.0230 C.3            1 S1                 0.0000
     12 ****         2.6300  -1.7497  -1.3377 C.3            1 S1                 0.0000
     13 ****         1.4719  -0.9450  -1.1479 O.3            1 S1                 0.0000
     14 ****        -0.8209   0.5544  -0.2081 N.2            1 S1                 0.0000
     15 ****        -3.4040   1.0804   2.0113 H              1 S1                 0.0000
     16 ****        -3.4750  -0.2604   0.8701 H              1 S1                 0.0000
     17 ****        -4.8235   0.8673   0.9915 H              1 S1                 0.0000
     18 ****        -3.3782   2.7031   0.1643 H              1 S1                 0.0000
     19 ****        -3.1822   2.0662  -2.2017 H              1 S1                 0.0000
     20 ****        -4.6905   1.4560  -1.5290 H              1 S1                 0.0000
     21 ****        -3.3342   0.3610  -1.7851 H              1 S1                 0.0000
     22 ****         2.4998   0.7001  -0.4719 H              1 S1                 0.0000
     23 ****         2.1837   0.1578   1.9501 H              1 S1                 0.0000
     24 ****         1.1320  -1.1841   1.5319 H              1 S1                 0.0000
     25 ****         3.9666  -0.9075   0.8463 H              1 S1                 0.0000
     26 ****         3.8957  -3.0491  -0.1352 H              1 S1                 0.0000
     27 ****         2.1864  -3.1591   0.2527 H              1 S1                 0.0000
     28 ****         3.4623  -1.1343  -1.6826 H              1 S1                 0.0000
     29 ****         2.4282  -2.4802  -2.1211 H              1 S1                 0.0000
     30 ****         3.3155  -1.9580   1.9326 H              1 S1                 0.0000
     31 ****        -1.0770   3.5874   0.5108 LP             1 S1                 0.0000
     32 ****         1.2987   2.8181   0.4617 LP             1 S1                 0.0000
     33 ****         1.2394  -0.5089  -2.0173 LP             1 S1                 0.0000
     34 ****         0.7174  -1.5336  -0.8579 LP             1 S1                 0.0000
     35 ****        -1.1315  -0.3677  -0.4388 LP             1 S1                 0.0000
@<TRIPOS>BOND
    1    1    2 1     
    2    1   15 1     
    3    1   16 1     
    4    1   17 1     
    5    2    3 1     
    6    2    4 1     
    7    2   18 1     
    8    3   19 1     
    9    3   20 1     
   10    3   21 1     
   11    4   14 2     
   12    4    5 1     
   13    5    6 1     
   14    6    7 2     
   15    7    8 1     
   16    7   14 1     
   17    8   13 1     
   18    8    9 1     
   19    8   22 1     
   20    9   10 1     
   21    9   23 1     
   22    9   24 1     
   23   10   11 1     
   24   10   25 1     
   25   10   30 1     
   26   11   12 1     
   27   11   26 1     
   28   11   27 1     
   29   12   13 1     
   30   12   28 1     
   31   12   29 1     
   32    5   31 1     
   33    6   32 1     
   34   13   33 1     
   35   13   34 1     
   36   14   35 1     
@<TRIPOS>SUBSTRUCTURE
      1 S1             1
@<TRIPOS>SET
LONE_PAIRS      STATIC     ATOMS    <user>   **** ""
5 31 32 33 34 35
DONOR_HYDROGENS      STATIC     ATOMS    <user>   **** ""
2 25 30
ATOM$BLUE        STATIC     ATOMS    COLORGROUP SYSTEM
5 31 32 33 34 35
ATOM$RED        STATIC     ATOMS    COLORGROUP SYSTEM
2 25 30
