AV-unprocessed.smi:1190|AV-procd|sdf|4983|dock1
  -GOLD-   22720 3583D 1   1.00000     0.00000
 Structure written by MMmdl.
 44 45  0  0  0  0  0  0  0  0  2 V2000
  152.9348  140.5090  158.1513 C   0  0  0  0  0  0  0  0  0  0  0  0
  152.6372  140.6086  156.7628 O   0  0  0  0  0  0  0  0  0  0  0  0
  151.9462  139.5743  156.1654 C   0  0  0  0  0  0  0  0  0  0  0  0
  152.0084  138.2946  156.7511 C   0  0  0  0  0  0  0  0  0  0  0  0
  151.3030  137.2375  156.1463 C   0  0  0  0  0  0  0  0  0  0  0  0
  150.5510  137.4880  154.9809 C   0  0  0  0  0  0  0  0  0  0  0  0
  149.8612  136.3949  154.3891 N   0  0  0  0  0  0  0  0  0  0  0  0
  149.5658  135.1976  154.9239 C   0  0  0  0  0  0  0  0  0  0  0  0
  149.8654  134.8281  156.0586 O   0  0  0  0  0  0  0  0  0  0  0  0
  148.9116  134.4233  154.0455 N   0  0  0  0  0  0  0  0  0  0  0  0
  148.4242  133.0706  154.3076 C   0  0  0  0  0  0  0  0  0  0  0  0
  148.8135  132.0527  153.1985 C   0  0  1  0  0  0  0  0  0  0  0  0
  149.5456  130.8334  153.8047 C   0  0  0  0  0  0  0  0  0  0  0  0
  147.6482  131.5922  152.3723 N   0  3  0  0  0  0  0  0  0  0  0  0
  146.8762  130.4441  152.9247 C   0  0  0  0  0  0  0  0  0  0  0  0
  145.7318  130.0371  151.9799 C   0  0  0  0  0  0  0  0  0  0  0  0
  144.8844  131.1499  151.7369 O   0  0  0  0  0  0  0  0  0  0  0  0
  145.5876  132.2102  151.1073 C   0  0  0  0  0  0  0  0  0  0  0  0
  146.7117  132.6993  152.0341 C   0  0  0  0  0  0  0  0  0  0  0  0
  150.5629  138.8061  154.4614 C   0  0  0  0  0  0  0  0  0  0  0  0
  151.2377  139.8240  155.0368 N   0  0  0  0  0  0  0  0  0  0  0  0
  153.4806  141.3975  158.4684 H   0  0  0  0  0  0  0  0  0  0  0  0
  153.5625  139.6424  158.3635 H   0  0  0  0  0  0  0  0  0  0  0  0
  152.0253  140.4484  158.7509 H   0  0  0  0  0  0  0  0  0  0  0  0
  152.5870  138.1268  157.6476 H   0  0  0  0  0  0  0  0  0  0  0  0
  151.3385  136.2473  156.5769 H   0  0  0  0  0  0  0  0  0  0  0  0
  149.6055  136.5227  153.4209 H   0  0  0  0  0  0  0  0  0  0  0  0
  148.7171  134.8062  153.1318 H   0  0  0  0  0  0  0  0  0  0  0  0
  148.7633  132.7189  155.2837 H   0  0  0  0  0  0  0  0  0  0  0  0
  147.3407  133.1681  154.3728 H   0  0  0  0  0  0  0  0  0  0  0  0
  149.5064  132.5661  152.5296 H   0  0  0  0  0  0  0  0  0  0  0  0
  150.4500  131.1279  154.3359 H   0  0  0  0  0  0  0  0  0  0  0  0
  149.8691  130.1156  153.0540 H   0  0  0  0  0  0  0  0  0  0  0  0
  148.9060  130.3048  154.5120 H   0  0  0  0  0  0  0  0  0  0  0  0
  147.5141  129.5704  153.0531 H   0  0  0  0  0  0  0  0  0  0  0  0
  146.4766  130.7080  153.9052 H   0  0  0  0  0  0  0  0  0  0  0  0
  146.1237  129.6497  151.0379 H   0  0  0  0  0  0  0  0  0  0  0  0
  145.1418  129.2381  152.4293 H   0  0  0  0  0  0  0  0  0  0  0  0
  145.9869  131.8845  150.1453 H   0  0  0  0  0  0  0  0  0  0  0  0
  144.8893  133.0223  150.9034 H   0  0  0  0  0  0  0  0  0  0  0  0
  146.2815  133.1056  152.9509 H   0  0  0  0  0  0  0  0  0  0  0  0
  147.2289  133.5192  151.5399 H   0  0  0  0  0  0  0  0  0  0  0  0
  150.0436  139.0719  153.5547 H   0  0  0  0  0  0  0  0  0  0  0  0
  148.0383  131.2623  151.5008 H   0  0  0  0  0  0  0  0  0  0  0  0
  1  2  1  0  0  0  0
  1 22  1  0  0  0  0
  1 23  1  0  0  0  0
  1 24  1  0  0  0  0
  2  3  1  0  0  0  0
  3 21  1  0  0  0  0
  3  4  2  0  0  0  0
  4  5  1  0  0  0  0
  4 25  1  0  0  0  0
  5  6  2  0  0  0  0
  5 26  1  0  0  0  0
  6  7  1  0  0  0  0
  6 20  1  0  0  0  0
  7  8  1  0  0  0  0
  7 27  1  0  0  0  0
  8  9  2  0  0  0  0
  8 10  1  0  0  0  0
 10 11  1  0  0  0  0
 10 28  1  0  0  0  0
 11 12  1  0  0  0  0
 11 29  1  0  0  0  0
 11 30  1  0  0  0  0
 12 13  1  0  0  0  0
 12 14  1  0  0  0  0
 12 31  1  0  0  0  0
 13 32  1  0  0  0  0
 13 33  1  0  0  0  0
 13 34  1  0  0  0  0
 14 19  1  0  0  0  0
 14 15  1  0  0  0  0
 14 44  1  0  0  0  0
 15 16  1  0  0  0  0
 15 35  1  0  0  0  0
 15 36  1  0  0  0  0
 16 17  1  0  0  0  0
 16 37  1  0  0  0  0
 16 38  1  0  0  0  0
 17 18  1  0  0  0  0
 18 19  1  0  0  0  0
 18 39  1  0  0  0  0
 18 40  1  0  0  0  0
 19 41  1  0  0  0  0
 19 42  1  0  0  0  0
 20 21  2  0  0  0  0
 20 43  1  0  0  0  0
M  CHG  1  14   1
M  END
> <s_m_source_file>
AV-unprocessed.smi

> <i_m_source_file_index>
1190

> <i_lp_mmshare_version>
43012

> <i_f3d_flags>
0

> <s_epik_input>
W0NIM11PYzFbY0hdW2NIXWMoW2NIXW4xKVtOSF1DKD1PKVtOSF1bQ0gyXVtDQEhdKFtDSDNdKU4yW0NIMl1bQ0gyXU9bQ0gyXVtDSDJdMg==

> <s_epik_cmdline>
J2VwaWtfcHl0aG9uJywgJy1waCcsICc3LjAnLCAnLXRuJywgJzgnLCAnLW1hJywgJzIwMCcsICctbWV0YWxfYmluZGluZycsICctaW1hZScsICc8aW5maWxlLm1hZT4nLCAnLW9tYWUnLCAnPG91dGZpbGUubWFlPic=

> <r_lp_tautomer_probability>
1

> <r_epik_Ionization_Penalty>
0.602608

> <r_epik_Ionization_Penalty_Charging>
0.602531

> <r_epik_Ionization_Penalty_Neutral>
7.70246e-05

> <r_epik_State_Penalty>
0.617039

> <r_epik_Charging_Adjusted_Penalty>
1.21957

> <i_epik_Tot_Q>
1

> <i_epik_Tot_abs_Q>
1

> <r_epik_Metal_State_Penalty>
0.617043

> <b_epik_Metal_Only>
0

> <s_lp_Force_Field>
OPLS_2005

> <r_lp_Energy>
23.7469

> <b_lp_Chiralities_Consistent>
1

> <s_lp_Variant>
AV-unprocessed.smi:1190-4

> <Gold.Version>
5.8.1

> <Gold.Id.Protein>
6NUR|6NUR_protein|mol2

> <Gold.PLP.Fitness>
44.2844

> <Gold.PLP.PLP>
-31.4182

> <Gold.PLP.part.hbond>
-5.0048

> <Gold.PLP.part.metal>
0.0000

> <Gold.PLP.part.buried>
-2.0945

> <Gold.PLP.part.nonpolar>
-24.7291

> <Gold.PLP.part.repulsive>
0.2622

> <Gold.PLP.ligand.clash>
0.0000

> <Gold.PLP.ligand.torsion>
1.5453

> <Gold.PLP.Chemscore.Hbond>
4.2764

> <Gold.PLP.Chemscore.CHOScore>
1.0000

> <Gold.PLP.Chemscore.Metal>
0.0000

> <Gold.Chemscore.Hbonds>
donor molecule, donor type, donor heavy atom, donor atom, acceptor molecule, acceptor atom, score
      L1  H     7    27       P1  7948  1.00
      L1  H    10    28       P1  7948  0.99
      L1  H    14    44       P1 10747  1.00
      P1  H  7989  7998       L1    21  1.00
      P1  H  7997  8010       L1     2  0.16
      L1  C    20    43       P1  7957  0.80

> <Gold.PLP.Chemscore.Internal.Correction>
0.1279

> <Gold.Rescore>
     Score         DG    S(hbond)    S(metal)    S(lipo)     H(rot)  DE(clash)    DE(int)     intcor
     16.46     -19.09       2.85        0.00      73.91       1.79       0.01       2.61       ----

> <Gold.Chemscore.Fitness>
16.4567

> <Gold.Chemscore.DG>
-19.0853

> <Gold.Chemscore.ZeroCoef>
-5.4800

> <Gold.Chemscore.Hbond>
2.8549

> <Gold.Chemscore.Metal>
0.0000

> <Gold.Chemscore.Lipo>
73.9089

> <Gold.Chemscore.Internal_Hbond>
0.0000

> <Gold.Chemscore.DEClash>
0.0149

> <Gold.Chemscore.DEInternal>
2.6137

> <Gold.Chemscore.Rot>
1.7881

> <Gold.Chemscore.Internal.Correction>
   9.000000E+99

> <Gold.Chemscore.Hbonds>
donor molecule, donor type, donor heavy atom, donor atom, acceptor molecule, acceptor atom, score
      L1  H     7    27       P1  7948  0.55
      L1  H    10    28       P1  7948  0.28
      L1  H    14    44       P1 10747  0.98
      P1  H  7989  7998       L1    21  0.26

> <Gold.Chemscore.Hbond.Weighted>
-9.5354

> <Gold.Chemscore.Metal.Weighted>
-0.0000

> <Gold.Chemscore.Lipo.Weighted>
-8.6473

> <Gold.Chemscore.Internal_Hbond.Weighted>
0.0000

> <Gold.Chemscore.DEClash.Weighted>
0.0149

> <Gold.Chemscore.DEInternal.Weighted>
2.6137

> <Gold.Chemscore.Rot.Weighted>
4.5775

> <Gold.Chemscore.Internal.Correction.Weighted>
   9.000000E+99

> <Gold.Protein.RotatedTorsions>
[ 6907 6896 6895 6894 ] final  -90.63 input  -60.11 | X-H torsion
[ 7974 7965 7964 7962 ] final    1.04 input  175.53 | X-H torsion
[ 8008 7997 7996 7995 ] final   65.65 input   59.86 | X-H torsion
[ 10167 10162 10161 10158 ] final   26.53 input  -65.29 | X-H torsion
[ 10718 10713 10712 10709 ] final -106.26 input   66.30 | X-H torsion
[ 10763 10752 10751 10750 ] final   38.79 input  -60.55 | X-H torsion
[ 11005 11000 10999 10996 ] final  -52.90 input  -57.11 | X-H torsion

> <Gold.Protein.ActiveResidues>
 VAL166  LYS551  ARG553  GLY616  TRP617  ASP618  TYR619  PRO620  LYS621  CYS622 
 ASP623  PHE694  ASN695  SER759  ASP760  ASP761  ALA762  ILE779  LEU786  VAL792 
 PHE793  MET794  SER795  GLU796  ALA797  LYS798  CYS799  TRP800  GLU811  SER814 

> <Gold.Protein.RotatedAtoms>
  150.6884  134.2403  159.4469 H   0  0  0  0  0  0  0  0  0  0  0  0  # atno 6907 bound_to 6896
  152.0347  134.9744  160.0582 H   0  0  0  0  0  0  0  0  0  0  0  0  # atno 6908 bound_to 6896
  152.1270  133.4351  159.4739 H   0  0  0  0  0  0  0  0  0  0  0  0  # atno 6909 bound_to 6896
  146.2438  140.1046  142.8346 H   0  0  0  0  0  0  0  0  0  0  0  0  # atno 7974 bound_to 7965
  155.6650  140.3497  155.4797 H   0  0  0  0  0  0  0  0  0  0  0  0  # atno 8008 bound_to 7997
  155.9736  140.1160  157.0813 H   0  0  0  0  0  0  0  0  0  0  0  0  # atno 8009 bound_to 7997
  154.4173  140.1152  156.5327 H   0  0  0  0  0  0  0  0  0  0  0  0  # atno 8010 bound_to 7997
  140.5015  144.0308  150.6334 H   0  0  0  0  0  0  0  0  0  0  0  0  # atno 10167 bound_to 10162
  156.0382  130.5604  150.7655 H   0  0  0  0  0  0  0  0  0  0  0  0  # atno 10718 bound_to 10713
  152.9989  135.6239  154.2361 H   0  0  0  0  0  0  0  0  0  0  0  0  # atno 10763 bound_to 10752
  154.2103  135.2800  155.2962 H   0  0  0  0  0  0  0  0  0  0  0  0  # atno 10764 bound_to 10752
  154.5612  135.5704  153.7068 H   0  0  0  0  0  0  0  0  0  0  0  0  # atno 10765 bound_to 10752
  141.0948  133.6626  156.4092 H   0  0  0  0  0  0  0  0  0  0  0  0  # atno 11005 bound_to 11000
  145.0539  140.9038  143.4979 LP  0  0  0  0  0  0  0  0  0  0  0  0  # atno 17320 bound_to 7965
  145.1149  139.2732  143.5618 LP  0  0  0  0  0  0  0  0  0  0  0  0  # atno 17321 bound_to 7965
  140.3605  143.2911  152.0389 LP  0  0  0  0  0  0  0  0  0  0  0  0  # atno 17342 bound_to 10162
  139.4873  144.6306  151.7077 LP  0  0  0  0  0  0  0  0  0  0  0  0  # atno 17343 bound_to 10162
  157.5163  131.0929  151.0135 LP  0  0  0  0  0  0  0  0  0  0  0  0  # atno 17370 bound_to 10713
  157.0477  130.5774  149.5365 LP  0  0  0  0  0  0  0  0  0  0  0  0  # atno 17371 bound_to 10713
  140.5166  134.6344  157.5303 LP  0  0  0  0  0  0  0  0  0  0  0  0  # atno 17394 bound_to 11000
  139.9782  134.7180  155.9909 LP  0  0  0  0  0  0  0  0  0  0  0  0  # atno 17395 bound_to 11000

$$$$
