AV-unprocessed.smi:2228|AV-procd|sdf|9026|dock9
  -GOLD-   2272012233D 1   1.00000     0.00000
 Structure written by MMmdl.
 40 41  0  0  0  0  0  0  0  0  1 V2000
  146.8790  139.3026  152.8770 C   0  0  0  0  0  0  0  0  0  0  0  0
  146.8298  139.6761  154.2454 O   0  0  0  0  0  0  0  0  0  0  0  0
  148.0497  139.4564  154.9404 C   0  0  1  0  0  0  0  0  0  0  0  0
  148.4200  137.9724  154.8706 C   0  0  0  0  0  0  0  0  0  0  0  0
  149.9399  137.9574  154.9891 C   0  0  0  0  0  0  0  0  0  0  0  0
  150.3836  139.1779  154.1824 C   0  0  0  0  0  0  0  0  0  0  0  0
  149.2468  140.2095  154.3161 C   0  0  2  0  0  0  0  0  0  0  0  0
  149.6525  141.3220  155.1715 N   0  0  0  0  0  0  0  0  0  0  0  0
  150.3704  141.2112  156.2980 C   0  0  0  0  0  0  0  0  0  0  0  0
  150.7512  140.1346  156.7586 O   0  0  0  0  0  0  0  0  0  0  0  0
  150.6127  142.4186  156.8379 N   0  0  0  0  0  0  0  0  0  0  0  0
  151.3618  142.7239  158.0049 C   0  0  0  0  0  0  0  0  0  0  0  0
  151.3118  144.0762  158.4115 C   0  0  0  0  0  0  0  0  0  0  0  0
  152.0244  144.4841  159.5569 C   0  0  0  0  0  0  0  0  0  0  0  0
  151.9849  145.9288  160.0093 C   0  0  0  0  0  0  0  0  0  0  0  0
  152.7686  143.5235  160.2679 C   0  0  0  0  0  0  0  0  0  0  0  0
  152.7642  142.1962  159.7960 C   0  0  0  0  0  0  0  0  0  0  0  0
  153.5389  141.1112  160.5140 C   0  0  0  0  0  0  0  0  0  0  0  0
  152.0817  141.8071  158.6981 N   0  0  0  0  0  0  0  0  0  0  0  0
  145.9245  139.5312  152.4033 H   0  0  0  0  0  0  0  0  0  0  0  0
  147.0616  138.2343  152.7561 H   0  0  0  0  0  0  0  0  0  0  0  0
  147.6573  139.8513  152.3454 H   0  0  0  0  0  0  0  0  0  0  0  0
  147.9332  139.7205  155.9939 H   0  0  0  0  0  0  0  0  0  0  0  0
  147.9290  137.3798  155.6431 H   0  0  0  0  0  0  0  0  0  0  0  0
  148.1312  137.5608  153.9022 H   0  0  0  0  0  0  0  0  0  0  0  0
  150.2289  138.0788  156.0338 H   0  0  0  0  0  0  0  0  0  0  0  0
  150.3815  137.0295  154.6249 H   0  0  0  0  0  0  0  0  0  0  0  0
  151.3539  139.5547  154.5096 H   0  0  0  0  0  0  0  0  0  0  0  0
  150.4885  138.8960  153.1338 H   0  0  0  0  0  0  0  0  0  0  0  0
  148.9785  140.5678  153.3203 H   0  0  0  0  0  0  0  0  0  0  0  0
  149.3785  142.2460  154.8711 H   0  0  0  0  0  0  0  0  0  0  0  0
  150.2312  143.2136  156.3473 H   0  0  0  0  0  0  0  0  0  0  0  0
  150.7341  144.7971  157.8509 H   0  0  0  0  0  0  0  0  0  0  0  0
  152.6392  146.0945  160.8657 H   0  0  0  0  0  0  0  0  0  0  0  0
  150.9706  146.2066  160.2962 H   0  0  0  0  0  0  0  0  0  0  0  0
  152.3068  146.5874  159.2024 H   0  0  0  0  0  0  0  0  0  0  0  0
  153.3271  143.7961  161.1516 H   0  0  0  0  0  0  0  0  0  0  0  0
  154.1529  141.5272  161.3132 H   0  0  0  0  0  0  0  0  0  0  0  0
  154.1964  140.5879  159.8191 H   0  0  0  0  0  0  0  0  0  0  0  0
  152.8535  140.3853  160.9523 H   0  0  0  0  0  0  0  0  0  0  0  0
  1  2  1  0  0  0  0
  1 20  1  0  0  0  0
  1 21  1  0  0  0  0
  1 22  1  0  0  0  0
  2  3  1  0  0  0  0
  3  7  1  0  0  0  0
  3  4  1  0  0  0  0
  3 23  1  0  0  0  0
  4  5  1  0  0  0  0
  4 24  1  0  0  0  0
  4 25  1  0  0  0  0
  5  6  1  0  0  0  0
  5 26  1  0  0  0  0
  5 27  1  0  0  0  0
  6  7  1  0  0  0  0
  6 28  1  0  0  0  0
  6 29  1  0  0  0  0
  7  8  1  0  0  0  0
  7 30  1  0  0  0  0
  8  9  1  0  0  0  0
  8 31  1  0  0  0  0
  9 10  2  0  0  0  0
  9 11  1  0  0  0  0
 11 12  1  0  0  0  0
 11 32  1  0  0  0  0
 12 19  1  0  0  0  0
 12 13  2  0  0  0  0
 13 14  1  0  0  0  0
 13 33  1  0  0  0  0
 14 15  1  0  0  0  0
 14 16  2  0  0  0  0
 15 34  1  0  0  0  0
 15 35  1  0  0  0  0
 15 36  1  0  0  0  0
 16 17  1  0  0  0  0
 16 37  1  0  0  0  0
 17 18  1  0  0  0  0
 17 19  2  0  0  0  0
 18 38  1  0  0  0  0
 18 39  1  0  0  0  0
 18 40  1  0  0  0  0
M  END
> <s_m_source_file>
AV-unprocessed.smi

> <i_m_source_file_index>
2228

> <i_lp_mmshare_version>
43012

> <i_f3d_flags>
0

> <s_epik_input>
W0NIM11PW0NAQEhdMVtDSDJdW0NIMl1bQ0gyXVtDQEhdMVtOSF1DKD1PKVtOSF1jMltjSF1jKFtDSDNdKVtjSF1jKG4yKVtDSDNd

> <s_epik_cmdline>
J2VwaWtfcHl0aG9uJywgJy1waCcsICc3LjAnLCAnLXRuJywgJzgnLCAnLW1hJywgJzIwMCcsICctbWV0YWxfYmluZGluZycsICctaW1hZScsICc8aW5maWxlLm1hZT4nLCAnLW9tYWUnLCAnPG91dGZpbGUubWFlPic=

> <r_lp_tautomer_probability>
1

> <r_epik_Ionization_Penalty>
0.000275391

> <r_epik_Ionization_Penalty_Charging>
0

> <r_epik_Ionization_Penalty_Neutral>
0.000275391

> <r_epik_State_Penalty>
-0

> <r_epik_Charging_Adjusted_Penalty>
0

> <i_epik_Tot_Q>
0

> <i_epik_Tot_abs_Q>
0

> <r_epik_Metal_State_Penalty>
-0

> <b_epik_Metal_Only>
0

> <s_lp_Force_Field>
OPLS_2005

> <r_lp_Energy>
19.8708

> <b_lp_Chiralities_Consistent>
1

> <s_lp_Variant>
AV-unprocessed.smi:2228-4

> <Gold.Version>
5.8.1

> <Gold.Id.Protein>
6NUR|6NUR_protein|mol2

> <Gold.PLP.Fitness>
40.8666

> <Gold.PLP.PLP>
-38.8177

> <Gold.PLP.part.hbond>
-0.8256

> <Gold.PLP.part.metal>
0.0000

> <Gold.PLP.part.buried>
-2.9487

> <Gold.PLP.part.nonpolar>
-34.9306

> <Gold.PLP.part.repulsive>
0.3155

> <Gold.PLP.ligand.clash>
0.0000

> <Gold.PLP.ligand.torsion>
0.2699

> <Gold.PLP.Chemscore.Hbond>
0.8613

> <Gold.PLP.Chemscore.CHOScore>
0.0000

> <Gold.PLP.Chemscore.Metal>
0.0000

> <Gold.Chemscore.Hbonds>
donor molecule, donor type, donor heavy atom, donor atom, acceptor molecule, acceptor atom, score
      L1  H    11    32       P1  8028  0.75

> <Gold.PLP.Chemscore.Internal.Correction>
0.0050

> <Gold.Rescore>
     Score         DG    S(hbond)    S(metal)    S(lipo)     H(rot)  DE(clash)    DE(int)     intcor
     13.71     -17.86       1.11        0.00     100.67       1.21       0.20       3.94       ----

> <Gold.Chemscore.Fitness>
13.7141

> <Gold.Chemscore.DG>
-17.8559

> <Gold.Chemscore.ZeroCoef>
-5.4800

> <Gold.Chemscore.Hbond>
1.1080

> <Gold.Chemscore.Metal>
0.0000

> <Gold.Chemscore.Lipo>
100.6650

> <Gold.Chemscore.Internal_Hbond>
0.0000

> <Gold.Chemscore.DEClash>
0.2020

> <Gold.Chemscore.DEInternal>
3.9398

> <Gold.Chemscore.Rot>
1.2119

> <Gold.Chemscore.Internal.Correction>
   9.000000E+99

> <Gold.Chemscore.Hbonds>
donor molecule, donor type, donor heavy atom, donor atom, acceptor molecule, acceptor atom, score
      L1  H    11    32       P1  8028  0.75

> <Gold.Chemscore.Hbond.Weighted>
-3.7007

> <Gold.Chemscore.Metal.Weighted>
-0.0000

> <Gold.Chemscore.Lipo.Weighted>
-11.7778

> <Gold.Chemscore.Internal_Hbond.Weighted>
0.0000

> <Gold.Chemscore.DEClash.Weighted>
0.2020

> <Gold.Chemscore.DEInternal.Weighted>
3.9398

> <Gold.Chemscore.Rot.Weighted>
3.1026

> <Gold.Chemscore.Internal.Correction.Weighted>
   9.000000E+99

> <Gold.Protein.RotatedTorsions>
[ 6907 6896 6895 6894 ] final  -18.72 input  -60.11 | X-H torsion
[ 7974 7965 7964 7962 ] final  -29.28 input  175.53 | X-H torsion
[ 8008 7997 7996 7995 ] final  -27.65 input   59.86 | X-H torsion
[ 10167 10162 10161 10158 ] final   72.22 input  -65.29 | X-H torsion
[ 10718 10713 10712 10709 ] final -141.17 input   66.30 | X-H torsion
[ 10763 10752 10751 10750 ] final  103.44 input  -60.55 | X-H torsion
[ 11005 11000 10999 10996 ] final  -66.84 input  -57.11 | X-H torsion

> <Gold.Protein.ActiveResidues>
 VAL166  LYS551  ARG553  GLY616  TRP617  ASP618  TYR619  PRO620  LYS621  CYS622 
 ASP623  PHE694  ASN695  SER759  ASP760  ASP761  ALA762  ILE779  LEU786  VAL792 
 PHE793  MET794  SER795  GLU796  ALA797  LYS798  CYS799  TRP800  GLU811  SER814 

> <Gold.Protein.RotatedAtoms>
  151.2739  135.0693  159.9144 H   0  0  0  0  0  0  0  0  0  0  0  0  # atno 6907 bound_to 6896
  152.5346  134.0101  159.7945 H   0  0  0  0  0  0  0  0  0  0  0  0  # atno 6908 bound_to 6896
  151.0344  133.5711  159.2688 H   0  0  0  0  0  0  0  0  0  0  0  0  # atno 6909 bound_to 6896
  146.1228  140.5392  142.8728 H   0  0  0  0  0  0  0  0  0  0  0  0  # atno 7974 bound_to 7965
  154.4367  140.1866  156.0965 H   0  0  0  0  0  0  0  0  0  0  0  0  # atno 8008 bound_to 7997
  156.0325  140.3329  155.7129 H   0  0  0  0  0  0  0  0  0  0  0  0  # atno 8009 bound_to 7997
  155.5818  140.0622  157.2772 H   0  0  0  0  0  0  0  0  0  0  0  0  # atno 8010 bound_to 7997
  140.0376  144.5415  150.7458 H   0  0  0  0  0  0  0  0  0  0  0  0  # atno 10167 bound_to 10162
  156.3309  130.7585  151.1703 H   0  0  0  0  0  0  0  0  0  0  0  0  # atno 10718 bound_to 10713
  153.3528  135.3976  155.1659 H   0  0  0  0  0  0  0  0  0  0  0  0  # atno 10763 bound_to 10752
  154.8665  135.3660  154.5200 H   0  0  0  0  0  0  0  0  0  0  0  0  # atno 10764 bound_to 10752
  153.5653  135.7080  153.5589 H   0  0  0  0  0  0  0  0  0  0  0  0  # atno 10765 bound_to 10752
  141.1492  133.6707  156.6200 H   0  0  0  0  0  0  0  0  0  0  0  0  # atno 11005 bound_to 11000
  144.7613  140.5428  143.6733 LP  0  0  0  0  0  0  0  0  0  0  0  0  # atno 17320 bound_to 7965
  145.5430  139.1475  143.3436 LP  0  0  0  0  0  0  0  0  0  0  0  0  # atno 17321 bound_to 7965
  140.7274  143.2651  151.4071 LP  0  0  0  0  0  0  0  0  0  0  0  0  # atno 17342 bound_to 10162
  139.6035  144.1247  152.2223 LP  0  0  0  0  0  0  0  0  0  0  0  0  # atno 17343 bound_to 10162
  157.7430  131.0481  150.4980 LP  0  0  0  0  0  0  0  0  0  0  0  0  # atno 17370 bound_to 10713
  156.5146  130.4147  149.6283 LP  0  0  0  0  0  0  0  0  0  0  0  0  # atno 17371 bound_to 10713
  140.3547  134.7738  157.4492 LP  0  0  0  0  0  0  0  0  0  0  0  0  # atno 17394 bound_to 11000
  140.0832  134.5702  155.8519 LP  0  0  0  0  0  0  0  0  0  0  0  0  # atno 17395 bound_to 11000

$$$$
