AV-unprocessed.smi:1994|AV-procd|sdf|8074|dock10
  -GOLD-   2272010283D 1   1.00000     0.00000
 Structure written by MMmdl.
 40 42  0  0  0  0  0  0  0  0  2 V2000
  147.2091  139.7906  153.0460 C   0  0  0  0  0  0  0  0  0  0  0  0
  146.9358  140.8362  154.0745 C   0  0  0  0  0  0  0  0  0  0  0  0
  145.9460  141.7715  154.0247 N   0  3  0  0  0  0  0  0  0  0  0  0
  146.0032  142.5802  155.1607 C   0  0  0  0  0  0  0  0  0  0  0  0
  145.2128  143.6565  155.5521 C   0  0  0  0  0  0  0  0  0  0  0  0
  145.5396  144.2683  156.7800 C   0  0  0  0  0  0  0  0  0  0  0  0
  146.6137  143.8055  157.5675 C   0  0  0  0  0  0  0  0  0  0  0  0
  147.4074  142.7125  157.1609 C   0  0  0  0  0  0  0  0  0  0  0  0
  147.0803  142.1147  155.9435 C   0  0  0  0  0  0  0  0  0  0  0  0
  147.6255  141.0376  155.2334 N   0  0  0  0  0  0  0  0  0  0  0  0
  148.7865  140.3130  155.7751 C   0  0  0  0  0  0  0  0  0  0  0  0
  150.1203  140.7769  155.1572 C   0  0  2  0  0  0  0  0  0  0  0  0
  150.4594  139.9508  154.0617 O   0  0  0  0  0  0  0  0  0  0  0  0
  151.2761  140.7498  156.1677 C   0  0  0  0  0  0  0  0  0  0  0  0
  151.3336  142.0063  156.8296 O   0  0  0  0  0  0  0  0  0  0  0  0
  152.0190  142.0879  158.0231 C   0  0  0  0  0  0  0  0  0  0  0  0
  152.3191  140.9724  158.8459 C   0  0  0  0  0  0  0  0  0  0  0  0
  153.0267  141.1451  160.0515 C   0  0  0  0  0  0  0  0  0  0  0  0
  153.4420  142.4291  160.4498 C   0  0  0  0  0  0  0  0  0  0  0  0
  153.1479  143.5418  159.6406 C   0  0  0  0  0  0  0  0  0  0  0  0
  152.4405  143.3705  158.4347 C   0  0  0  0  0  0  0  0  0  0  0  0
  152.1633  144.4499  157.6647 F   0  0  0  0  0  0  0  0  0  0  0  0
  146.4790  139.8463  152.2380 H   0  0  0  0  0  0  0  0  0  0  0  0
  147.1554  138.7980  153.4932 H   0  0  0  0  0  0  0  0  0  0  0  0
  148.2047  139.9296  152.6242 H   0  0  0  0  0  0  0  0  0  0  0  0
  144.3885  144.0114  154.9509 H   0  0  0  0  0  0  0  0  0  0  0  0
  144.9542  145.1086  157.1250 H   0  0  0  0  0  0  0  0  0  0  0  0
  146.8334  144.2987  158.5036 H   0  0  0  0  0  0  0  0  0  0  0  0
  148.2242  142.3649  157.7759 H   0  0  0  0  0  0  0  0  0  0  0  0
  148.7959  140.4848  156.8520 H   0  0  0  0  0  0  0  0  0  0  0  0
  148.6405  139.2408  155.6442 H   0  0  0  0  0  0  0  0  0  0  0  0
  150.0123  141.7932  154.7761 H   0  0  0  0  0  0  0  0  0  0  0  0
  149.6614  139.6725  153.6391 H   0  0  0  0  0  0  0  0  0  0  0  0
  151.1312  139.9389  156.8840 H   0  0  0  0  0  0  0  0  0  0  0  0
  152.2168  140.5753  155.6422 H   0  0  0  0  0  0  0  0  0  0  0  0
  152.0183  139.9720  158.5743 H   0  0  0  0  0  0  0  0  0  0  0  0
  153.2516  140.2899  160.6718 H   0  0  0  0  0  0  0  0  0  0  0  0
  153.9852  142.5602  161.3738 H   0  0  0  0  0  0  0  0  0  0  0  0
  153.4651  144.5286  159.9443 H   0  0  0  0  0  0  0  0  0  0  0  0
  145.2809  141.8498  153.2661 H   0  0  0  0  0  0  0  0  0  0  0  0
  1  2  1  0  0  0  0
  1 23  1  0  0  0  0
  1 24  1  0  0  0  0
  1 25  1  0  0  0  0
  2 10  1  0  0  0  0
  2  3  2  0  0  0  0
  3  4  1  0  0  0  0
  3 40  1  0  0  0  0
  4  9  2  0  0  0  0
  4  5  1  0  0  0  0
  5  6  2  0  0  0  0
  5 26  1  0  0  0  0
  6  7  1  0  0  0  0
  6 27  1  0  0  0  0
  7  8  2  0  0  0  0
  7 28  1  0  0  0  0
  8  9  1  0  0  0  0
  8 29  1  0  0  0  0
  9 10  1  0  0  0  0
 10 11  1  0  0  0  0
 11 12  1  0  0  0  0
 11 30  1  0  0  0  0
 11 31  1  0  0  0  0
 12 13  1  0  0  0  0
 12 14  1  0  0  0  0
 12 32  1  0  0  0  0
 13 33  1  0  0  0  0
 14 15  1  0  0  0  0
 14 34  1  0  0  0  0
 14 35  1  0  0  0  0
 15 16  1  0  0  0  0
 16 21  1  0  0  0  0
 16 17  2  0  0  0  0
 17 18  1  0  0  0  0
 17 36  1  0  0  0  0
 18 19  2  0  0  0  0
 18 37  1  0  0  0  0
 19 20  1  0  0  0  0
 19 38  1  0  0  0  0
 20 21  2  0  0  0  0
 20 39  1  0  0  0  0
 21 22  1  0  0  0  0
M  CHG  1   3   1
M  END
> <s_m_source_file>
AV-unprocessed.smi

> <i_m_source_file_index>
1994

> <i_lp_mmshare_version>
43012

> <i_f3d_flags>
0

> <s_epik_input>
W2NIXTFbY0hdW2NIXVtjSF1jKGMxMiluKGMobjIpW0NIM10pW0NIMl1bQ0BIXShbT0hdKVtDSDJdT2MzW2NIXVtjSF1bY0hdW2NIXWMzRg==

> <s_epik_cmdline>
J2VwaWtfcHl0aG9uJywgJy1waCcsICc3LjAnLCAnLXRuJywgJzgnLCAnLW1hJywgJzIwMCcsICctbWV0YWxfYmluZGluZycsICctaW1hZScsICc8aW5maWxlLm1hZT4nLCAnLW9tYWUnLCAnPG91dGZpbGUubWFlPic=

> <r_lp_tautomer_probability>
1

> <r_epik_Ionization_Penalty>
1.03916

> <r_epik_Ionization_Penalty_Charging>
1.03916

> <r_epik_Ionization_Penalty_Neutral>
2.3993e-06

> <r_epik_State_Penalty>
1.09101

> <r_epik_Charging_Adjusted_Penalty>
2.13018

> <i_epik_Tot_Q>
1

> <i_epik_Tot_abs_Q>
1

> <r_epik_Metal_State_Penalty>
5.08156

> <b_epik_Metal_Only>
0

> <s_lp_Force_Field>
OPLS_2005

> <r_lp_Energy>
18.7982

> <b_lp_Chiralities_Consistent>
1

> <s_lp_Variant>
AV-unprocessed.smi:1994-3

> <Gold.Version>
5.8.1

> <Gold.Id.Protein>
6NUR|6NUR_protein|mol2

> <Gold.PLP.Fitness>
49.2187

> <Gold.PLP.PLP>
-43.2358

> <Gold.PLP.part.hbond>
-2.9848

> <Gold.PLP.part.metal>
0.0000

> <Gold.PLP.part.buried>
-5.1014

> <Gold.PLP.part.nonpolar>
-35.1747

> <Gold.PLP.part.repulsive>
0.0615

> <Gold.PLP.ligand.clash>
0.0000

> <Gold.PLP.ligand.torsion>
1.5220

> <Gold.PLP.Chemscore.Hbond>
3.0000

> <Gold.PLP.Chemscore.CHOScore>
0.0000

> <Gold.PLP.Chemscore.Metal>
0.0000

> <Gold.Chemscore.Hbonds>
donor molecule, donor type, donor heavy atom, donor atom, acceptor molecule, acceptor atom, score
      L1  H     3    40       P1 10175  0.21
      P1  H  7989  7998       L1    13  0.85

> <Gold.PLP.Chemscore.Internal.Correction>
0.0270

> <Gold.Rescore>
     Score         DG    S(hbond)    S(metal)    S(lipo)     H(rot)  DE(clash)    DE(int)     intcor
     15.77     -17.31       1.82        0.00      98.71       2.27       0.06       1.48       ----

> <Gold.Chemscore.Fitness>
15.7677

> <Gold.Chemscore.DG>
-17.3098

> <Gold.Chemscore.ZeroCoef>
-5.4800

> <Gold.Chemscore.Hbond>
1.8245

> <Gold.Chemscore.Metal>
0.0000

> <Gold.Chemscore.Lipo>
98.7083

> <Gold.Chemscore.Internal_Hbond>
0.0000

> <Gold.Chemscore.DEClash>
0.0637

> <Gold.Chemscore.DEInternal>
1.4784

> <Gold.Chemscore.Rot>
2.2706

> <Gold.Chemscore.Internal.Correction>
   9.000000E+99

> <Gold.Chemscore.Hbonds>
donor molecule, donor type, donor heavy atom, donor atom, acceptor molecule, acceptor atom, score
      P1  H  7989  7998       L1    13  0.14

> <Gold.Chemscore.Hbond.Weighted>
-6.0938

> <Gold.Chemscore.Metal.Weighted>
-0.0000

> <Gold.Chemscore.Lipo.Weighted>
-11.5489

> <Gold.Chemscore.Internal_Hbond.Weighted>
0.0000

> <Gold.Chemscore.DEClash.Weighted>
0.0637

> <Gold.Chemscore.DEInternal.Weighted>
1.4784

> <Gold.Chemscore.Rot.Weighted>
5.8128

> <Gold.Chemscore.Internal.Correction.Weighted>
   9.000000E+99

> <Gold.Protein.RotatedTorsions>
[ 6907 6896 6895 6894 ] final -150.40 input  -60.11 | X-H torsion
[ 7974 7965 7964 7962 ] final   -8.92 input  175.53 | X-H torsion
[ 8008 7997 7996 7995 ] final -171.66 input   59.86 | X-H torsion
[ 10167 10162 10161 10158 ] final  146.82 input  -65.29 | X-H torsion
[ 10718 10713 10712 10709 ] final  127.79 input   66.30 | X-H torsion
[ 10763 10752 10751 10750 ] final  -11.76 input  -60.55 | X-H torsion
[ 11005 11000 10999 10996 ] final  112.17 input  -57.11 | X-H torsion

> <Gold.Protein.ActiveResidues>
 VAL166  LYS551  ARG553  GLY616  TRP617  ASP618  TYR619  PRO620  LYS621  CYS622 
 ASP623  PHE694  ASN695  SER759  ASP760  ASP761  ALA762  ILE779  LEU786  VAL792 
 PHE793  MET794  SER795  GLU796  ALA797  LYS798  CYS799  TRP800  GLU811  SER814 

> <Gold.Protein.RotatedAtoms>
  151.1980  133.4628  159.2595 H   0  0  0  0  0  0  0  0  0  0  0  0  # atno 6907 bound_to 6896
  151.1098  135.0020  159.8498 H   0  0  0  0  0  0  0  0  0  0  0  0  # atno 6908 bound_to 6896
  152.5449  134.1900  159.8723 H   0  0  0  0  0  0  0  0  0  0  0  0  # atno 6909 bound_to 6896
  146.2267  140.2539  142.8348 H   0  0  0  0  0  0  0  0  0  0  0  0  # atno 7974 bound_to 7965
  155.9344  140.1097  157.1106 H   0  0  0  0  0  0  0  0  0  0  0  0  # atno 8008 bound_to 7997
  154.4077  140.1231  156.4911 H   0  0  0  0  0  0  0  0  0  0  0  0  # atno 8009 bound_to 7997
  155.7039  140.3471  155.4947 H   0  0  0  0  0  0  0  0  0  0  0  0  # atno 8010 bound_to 7997
  139.4900  144.5801  151.6888 H   0  0  0  0  0  0  0  0  0  0  0  0  # atno 10167 bound_to 10162
  157.5302  131.1098  150.9021 H   0  0  0  0  0  0  0  0  0  0  0  0  # atno 10718 bound_to 10713
  153.4885  135.7017  153.5897 H   0  0  0  0  0  0  0  0  0  0  0  0  # atno 10763 bound_to 10752
  153.4080  135.3855  155.2031 H   0  0  0  0  0  0  0  0  0  0  0  0  # atno 10764 bound_to 10752
  154.8718  135.3897  154.4343 H   0  0  0  0  0  0  0  0  0  0  0  0  # atno 10765 bound_to 10752
  139.8921  134.9524  156.6544 H   0  0  0  0  0  0  0  0  0  0  0  0  # atno 11005 bound_to 11000
  144.9391  140.8058  143.5642 LP  0  0  0  0  0  0  0  0  0  0  0  0  # atno 17320 bound_to 7965
  145.2489  139.2040  143.4953 LP  0  0  0  0  0  0  0  0  0  0  0  0  # atno 17321 bound_to 7965
  140.5406  144.0585  150.6087 LP  0  0  0  0  0  0  0  0  0  0  0  0  # atno 17342 bound_to 10162
  140.3606  143.2910  152.0387 LP  0  0  0  0  0  0  0  0  0  0  0  0  # atno 17343 bound_to 10162
  156.9605  130.5453  149.5286 LP  0  0  0  0  0  0  0  0  0  0  0  0  # atno 17370 bound_to 10713
  156.0416  130.5498  150.8785 LP  0  0  0  0  0  0  0  0  0  0  0  0  # atno 17371 bound_to 10713
  140.7495  133.8909  155.8336 LP  0  0  0  0  0  0  0  0  0  0  0  0  # atno 17394 bound_to 11000
  141.0012  134.1148  157.4315 LP  0  0  0  0  0  0  0  0  0  0  0  0  # atno 17395 bound_to 11000

$$$$
