AV-unprocessed.smi:2691|AV-procd|sdf|10392|dock8
  -GOLD-   2272014423D 1   1.00000     0.00000
 Structure written by MMmdl.
 50 52  0  0  0  0  0  0  0  0  2 V2000
  152.0425  145.3109  160.5909 C   0  0  0  0  0  0  0  0  0  0  0  0
  151.8427  143.9898  159.8677 C   0  0  0  0  0  0  0  0  0  0  0  0
  151.1262  143.9896  158.6492 C   0  0  0  0  0  0  0  0  0  0  0  0
  150.9616  142.7661  158.0103 C   0  0  0  0  0  0  0  0  0  0  0  0
  150.3187  142.4352  156.8149 N   0  3  0  0  0  0  0  0  0  0  0  0
  150.4242  141.0945  156.5984 C   0  0  0  0  0  0  0  0  0  0  0  0
  151.1235  140.5656  157.6388 N   0  0  0  0  0  0  0  0  0  0  0  0
  151.5248  139.1771  157.9004 C   0  0  0  0  0  0  0  0  0  0  0  0
  153.0551  139.0018  157.9614 C   0  0  2  0  0  0  0  0  0  0  0  0
  153.5126  138.7198  156.6528 O   0  0  0  0  0  0  0  0  0  0  0  0
  153.4652  137.8444  158.8985 C   0  0  0  0  0  0  0  0  0  0  0  0
  154.3269  138.3103  159.9972 N   0  0  0  0  0  0  0  0  0  0  0  0
  153.9029  138.0012  161.3047 C   0  0  0  0  0  0  0  0  0  0  0  0
  154.5742  138.3770  162.3462 N   0  0  0  0  0  0  0  0  0  0  0  0
  155.7545  139.1113  162.1850 C   0  0  0  0  0  0  0  0  0  0  0  0
  156.4924  139.5237  163.4521 C   0  0  0  0  0  0  0  0  0  0  0  0
  156.8775  138.3044  164.3050 C   0  0  0  0  0  0  0  0  0  0  0  0
  155.6886  140.5518  164.2634 C   0  0  0  0  0  0  0  0  0  0  0  0
  156.2003  139.4367  160.9473 C   0  0  0  0  0  0  0  0  0  0  0  0
  155.4598  139.0306  159.7531 C   0  0  0  0  0  0  0  0  0  0  0  0
  155.8265  139.3222  158.6147 O   0  0  0  0  0  0  0  0  0  0  0  0
  151.4798  141.5704  158.5436 C   0  0  0  0  0  0  0  0  0  0  0  0
  152.1872  141.5519  159.7428 C   0  0  0  0  0  0  0  0  0  0  0  0
  152.3658  142.7860  160.4078 C   0  0  0  0  0  0  0  0  0  0  0  0
  153.1328  142.7975  161.7189 C   0  0  0  0  0  0  0  0  0  0  0  0
  151.5979  146.1396  160.0391 H   0  0  0  0  0  0  0  0  0  0  0  0
  153.1046  145.5251  160.7133 H   0  0  0  0  0  0  0  0  0  0  0  0
  151.5787  145.2807  161.5771 H   0  0  0  0  0  0  0  0  0  0  0  0
  150.7246  144.9018  158.2324 H   0  0  0  0  0  0  0  0  0  0  0  0
  150.0297  140.5497  155.7526 H   0  0  0  0  0  0  0  0  0  0  0  0
  151.0559  138.8565  158.8316 H   0  0  0  0  0  0  0  0  0  0  0  0
  151.1005  138.5558  157.1104 H   0  0  0  0  0  0  0  0  0  0  0  0
  153.5073  139.9364  158.2956 H   0  0  0  0  0  0  0  0  0  0  0  0
  152.8319  138.2550  156.1893 H   0  0  0  0  0  0  0  0  0  0  0  0
  152.5694  137.3864  159.3230 H   0  0  0  0  0  0  0  0  0  0  0  0
  153.9322  137.0335  158.3359 H   0  0  0  0  0  0  0  0  0  0  0  0
  152.9732  137.4335  161.3743 H   0  0  0  0  0  0  0  0  0  0  0  0
  157.4214  140.0093  163.1484 H   0  0  0  0  0  0  0  0  0  0  0  0
  157.4674  137.5922  163.7270 H   0  0  0  0  0  0  0  0  0  0  0  0
  155.9980  137.7811  164.6814 H   0  0  0  0  0  0  0  0  0  0  0  0
  157.4759  138.6034  165.1661 H   0  0  0  0  0  0  0  0  0  0  0  0
  155.4475  141.4265  163.6583 H   0  0  0  0  0  0  0  0  0  0  0  0
  156.2564  140.8968  165.1276 H   0  0  0  0  0  0  0  0  0  0  0  0
  154.7521  140.1312  164.6302 H   0  0  0  0  0  0  0  0  0  0  0  0
  157.1118  140.0049  160.8312 H   0  0  0  0  0  0  0  0  0  0  0  0
  152.5858  140.6352  160.1517 H   0  0  0  0  0  0  0  0  0  0  0  0
  153.4413  141.7927  162.0093 H   0  0  0  0  0  0  0  0  0  0  0  0
  152.5154  143.2001  162.5223 H   0  0  0  0  0  0  0  0  0  0  0  0
  154.0308  143.4094  161.6310 H   0  0  0  0  0  0  0  0  0  0  0  0
  149.8453  143.0748  156.1895 H   0  0  0  0  0  0  0  0  0  0  0  0
  1  2  1  0  0  0  0
  1 26  1  0  0  0  0
  1 27  1  0  0  0  0
  1 28  1  0  0  0  0
  2 24  1  0  0  0  0
  2  3  2  0  0  0  0
  3  4  1  0  0  0  0
  3 29  1  0  0  0  0
  4 22  2  0  0  0  0
  4  5  1  0  0  0  0
  5  6  2  0  0  0  0
  5 50  1  0  0  0  0
  6  7  1  0  0  0  0
  6 30  1  0  0  0  0
  7  8  1  0  0  0  0
  7 22  1  0  0  0  0
  8  9  1  0  0  0  0
  8 31  1  0  0  0  0
  8 32  1  0  0  0  0
  9 10  1  0  0  0  0
  9 11  1  0  0  0  0
  9 33  1  0  0  0  0
 10 34  1  0  0  0  0
 11 12  1  0  0  0  0
 11 35  1  0  0  0  0
 11 36  1  0  0  0  0
 12 20  1  0  0  0  0
 12 13  1  0  0  0  0
 13 14  2  0  0  0  0
 13 37  1  0  0  0  0
 14 15  1  0  0  0  0
 15 16  1  0  0  0  0
 15 19  2  0  0  0  0
 16 17  1  0  0  0  0
 16 18  1  0  0  0  0
 16 38  1  0  0  0  0
 17 39  1  0  0  0  0
 17 40  1  0  0  0  0
 17 41  1  0  0  0  0
 18 42  1  0  0  0  0
 18 43  1  0  0  0  0
 18 44  1  0  0  0  0
 19 20  1  0  0  0  0
 19 45  1  0  0  0  0
 20 21  2  0  0  0  0
 22 23  1  0  0  0  0
 23 24  2  0  0  0  0
 23 46  1  0  0  0  0
 24 25  1  0  0  0  0
 25 47  1  0  0  0  0
 25 48  1  0  0  0  0
 25 49  1  0  0  0  0
M  CHG  1   5   1
M  END
> <s_m_source_file>
AV-unprocessed.smi

> <i_m_source_file_index>
2691

> <i_lp_mmshare_version>
43012

> <i_f3d_flags>
0

> <s_epik_input>
W0NIM11jKFtjSF0xKWMoW0NIM10pW2NIXWMoYzEyKW4oW2NIXW4yKVtDSDJdW0NASF0oW09IXSlbQ0gyXW4zW2NIXW5jKFtDSF0oW0NIM10pW0NIM10pW2NIXWMzPU8=

> <s_epik_cmdline>
J2VwaWtfcHl0aG9uJywgJy1waCcsICc3LjAnLCAnLXRuJywgJzgnLCAnLW1hJywgJzIwMCcsICctbWV0YWxfYmluZGluZycsICctaW1hZScsICc8aW5maWxlLm1hZT4nLCAnLW9tYWUnLCAnPG91dGZpbGUubWFlPic=

> <r_lp_tautomer_probability>
1

> <r_epik_Ionization_Penalty>
1.0357

> <r_epik_Ionization_Penalty_Charging>
1.03568

> <r_epik_Ionization_Penalty_Neutral>
1.29543e-05

> <r_epik_State_Penalty>
1.08724

> <r_epik_Charging_Adjusted_Penalty>
2.12292

> <i_epik_Tot_Q>
1

> <i_epik_Tot_abs_Q>
1

> <r_epik_Metal_State_Penalty>
1.18376

> <b_epik_Metal_Only>
0

> <s_lp_Force_Field>
OPLS_2005

> <r_lp_Energy>
24.5824

> <b_lp_Chiralities_Consistent>
1

> <s_lp_Variant>
AV-unprocessed.smi:2691-3

> <Gold.Version>
5.8.1

> <Gold.Id.Protein>
6NUR|6NUR_protein|mol2

> <Gold.PLP.Fitness>
52.3292

> <Gold.PLP.PLP>
-43.3267

> <Gold.PLP.part.hbond>
-2.9530

> <Gold.PLP.part.metal>
0.0000

> <Gold.PLP.part.buried>
-5.7063

> <Gold.PLP.part.nonpolar>
-35.2793

> <Gold.PLP.part.repulsive>
0.0733

> <Gold.PLP.ligand.clash>
0.0000

> <Gold.PLP.ligand.torsion>
1.2150

> <Gold.PLP.Chemscore.Hbond>
3.7840

> <Gold.PLP.Chemscore.CHOScore>
0.0000

> <Gold.PLP.Chemscore.Metal>
0.0000

> <Gold.Chemscore.Hbonds>
donor molecule, donor type, donor heavy atom, donor atom, acceptor molecule, acceptor atom, score
      L1  H     5    50       P1  8028  2.00
      P1  H  7997  8008       L1    10  0.83
      P1  H  7997  8010       L1    21  1.00

> <Gold.PLP.Chemscore.Internal.Correction>
0.0805

> <Gold.Rescore>
     Score         DG    S(hbond)    S(metal)    S(lipo)     H(rot)  DE(clash)    DE(int)     intcor
     19.10     -21.32       2.39        0.00     122.24       2.52       0.38       1.84       ----

> <Gold.Chemscore.Fitness>
19.0969

> <Gold.Chemscore.DG>
-21.3159

> <Gold.Chemscore.ZeroCoef>
-5.4800

> <Gold.Chemscore.Hbond>
2.3909

> <Gold.Chemscore.Metal>
0.0000

> <Gold.Chemscore.Lipo>
122.2390

> <Gold.Chemscore.Internal_Hbond>
0.0000

> <Gold.Chemscore.DEClash>
0.3785

> <Gold.Chemscore.DEInternal>
1.8404

> <Gold.Chemscore.Rot>
2.5202

> <Gold.Chemscore.Internal.Correction>
   9.000000E+99

> <Gold.Chemscore.Hbonds>
donor molecule, donor type, donor heavy atom, donor atom, acceptor molecule, acceptor atom, score
      L1  H     5    50       P1  8028  0.97
      P1  H  7997  8008       L1    10  0.21
      P1  H  7997  8010       L1    21  0.92

> <Gold.Chemscore.Hbond.Weighted>
-7.9856

> <Gold.Chemscore.Metal.Weighted>
-0.0000

> <Gold.Chemscore.Lipo.Weighted>
-14.3020

> <Gold.Chemscore.Internal_Hbond.Weighted>
0.0000

> <Gold.Chemscore.DEClash.Weighted>
0.3785

> <Gold.Chemscore.DEInternal.Weighted>
1.8404

> <Gold.Chemscore.Rot.Weighted>
6.4517

> <Gold.Chemscore.Internal.Correction.Weighted>
   9.000000E+99

> <Gold.Protein.RotatedTorsions>
[ 6907 6896 6895 6894 ] final  -26.38 input  -60.11 | X-H torsion
[ 7974 7965 7964 7962 ] final   65.35 input  175.53 | X-H torsion
[ 8008 7997 7996 7995 ] final  -43.41 input   59.86 | X-H torsion
[ 10167 10162 10161 10158 ] final  -89.02 input  -65.29 | X-H torsion
[ 10718 10713 10712 10709 ] final  145.92 input   66.30 | X-H torsion
[ 10763 10752 10751 10750 ] final    8.04 input  -60.55 | X-H torsion
[ 11005 11000 10999 10996 ] final -160.26 input  -57.11 | X-H torsion

> <Gold.Protein.ActiveResidues>
 VAL166  LYS551  ARG553  GLY616  TRP617  ASP618  TYR619  PRO620  LYS621  CYS622 
 ASP623  PHE694  ASN695  SER759  ASP760  ASP761  ALA762  ILE779  LEU786  VAL792 
 PHE793  MET794  SER795  GLU796  ALA797  LYS798  CYS799  TRP800  GLU811  SER814 

> <Gold.Protein.RotatedAtoms>
  151.1618  135.0277  159.8713 H   0  0  0  0  0  0  0  0  0  0  0  0  # atno 6907 bound_to 6896
  152.5451  134.1270  159.8433 H   0  0  0  0  0  0  0  0  0  0  0  0  # atno 6908 bound_to 6896
  151.1366  133.4953  159.2630 H   0  0  0  0  0  0  0  0  0  0  0  0  # atno 6909 bound_to 6896
  145.8395  139.3187  143.0940 H   0  0  0  0  0  0  0  0  0  0  0  0  # atno 7974 bound_to 7965
  154.3997  140.1448  156.3514 H   0  0  0  0  0  0  0  0  0  0  0  0  # atno 8008 bound_to 7997
  155.8265  140.3467  155.5525 H   0  0  0  0  0  0  0  0  0  0  0  0  # atno 8009 bound_to 7997
  155.8233  140.0901  157.1826 H   0  0  0  0  0  0  0  0  0  0  0  0  # atno 8010 bound_to 7997
  140.3690  143.2804  151.9524 H   0  0  0  0  0  0  0  0  0  0  0  0  # atno 10167 bound_to 10162
  157.3394  131.0933  151.1095 H   0  0  0  0  0  0  0  0  0  0  0  0  # atno 10718 bound_to 10713
  153.2295  135.6891  153.7906 H   0  0  0  0  0  0  0  0  0  0  0  0  # atno 10763 bound_to 10752
  153.7075  135.3287  155.3240 H   0  0  0  0  0  0  0  0  0  0  0  0  # atno 10764 bound_to 10752
  154.8307  135.4582  154.1175 H   0  0  0  0  0  0  0  0  0  0  0  0  # atno 10765 bound_to 10752
  140.6335  134.4626  157.5230 H   0  0  0  0  0  0  0  0  0  0  0  0  # atno 11005 bound_to 11000
  145.9481  140.8929  143.0273 LP  0  0  0  0  0  0  0  0  0  0  0  0  # atno 17320 bound_to 7965
  144.6734  140.1642  143.7420 LP  0  0  0  0  0  0  0  0  0  0  0  0  # atno 17321 bound_to 7965
  139.4806  144.5924  151.7748 LP  0  0  0  0  0  0  0  0  0  0  0  0  # atno 17342 bound_to 10162
  140.5052  144.1108  150.5981 LP  0  0  0  0  0  0  0  0  0  0  0  0  # atno 17343 bound_to 10162
  157.2313  130.6526  149.5851 LP  0  0  0  0  0  0  0  0  0  0  0  0  # atno 17370 bound_to 10713
  155.9705  130.4598  150.6049 LP  0  0  0  0  0  0  0  0  0  0  0  0  # atno 17371 bound_to 10713
  139.9107  134.8351  156.1540 LP  0  0  0  0  0  0  0  0  0  0  0  0  # atno 17394 bound_to 11000
  141.0658  133.6820  156.2042 LP  0  0  0  0  0  0  0  0  0  0  0  0  # atno 17395 bound_to 11000

$$$$
