AV-unprocessed.smi:2895|AV-procd|sdf|11132|dock7
  -GOLD-   2272016 03D 1   1.00000     0.00000
 Structure written by MMmdl.
 54 57  0  0  0  0  0  0  0  0  3 V2000
  149.0508  141.8181  153.8620 O   0  0  0  0  0  0  0  0  0  0  0  0
  148.9104  140.8888  154.6581 C   0  0  0  0  0  0  0  0  0  0  0  0
  149.7162  140.7390  155.7234 N   0  0  0  0  0  0  0  0  0  0  0  0
  150.8197  141.6259  156.0752 C   0  0  0  0  0  0  0  0  0  0  0  0
  151.5225  141.1817  157.3696 C   0  0  0  0  0  0  0  0  0  0  0  0
  151.9064  142.3585  158.2461 C   0  0  0  0  0  0  0  0  0  0  0  0
  151.7450  143.6806  157.7760 C   0  0  0  0  0  0  0  0  0  0  0  0
  152.1073  144.7574  158.6110 C   0  0  0  0  0  0  0  0  0  0  0  0
  152.6032  144.5149  159.8443 N   0  3  0  0  0  0  0  0  0  0  0  0
  152.7738  143.2664  160.3319 C   0  0  0  0  0  0  0  0  0  0  0  0
  152.4275  142.1505  159.5426 C   0  0  0  0  0  0  0  0  0  0  0  0
  147.9257  139.9602  154.5499 N   0  0  0  0  0  0  0  0  0  0  0  0
  147.7748  138.7467  155.3693 C   0  0  0  0  0  0  0  0  0  0  0  0
  148.0121  137.5003  154.4904 C   0  0  0  0  0  0  0  0  0  0  0  0
  147.1305  137.4786  153.2871 N   0  3  0  0  0  0  0  0  0  0  0  0
  145.7387  137.0178  153.5781 C   0  0  2  0  0  0  0  0  0  0  0  0
  145.6569  135.5814  154.1522 C   0  0  0  0  0  0  0  0  0  0  0  0
  144.5948  134.9060  153.2643 C   0  0  2  0  0  0  0  0  0  0  0  0
  145.2219  134.5879  151.8962 C   0  0  0  0  0  0  0  0  0  0  0  0
  145.3720  135.9837  151.2657 C   0  0  0  0  0  0  0  0  0  0  0  0
  144.7960  136.9191  152.3513 C   0  0  1  0  0  0  0  0  0  0  0  0
  143.6675  136.0646  152.9192 C   0  0  0  0  0  0  0  0  0  0  0  0
  147.2115  138.7629  152.5341 C   0  0  0  0  0  0  0  0  0  0  0  0
  146.9604  139.9798  153.4450 C   0  0  0  0  0  0  0  0  0  0  0  0
  149.5383  139.9642  156.3459 H   0  0  0  0  0  0  0  0  0  0  0  0
  151.5308  141.6753  155.2488 H   0  0  0  0  0  0  0  0  0  0  0  0
  150.4170  142.6317  156.1985 H   0  0  0  0  0  0  0  0  0  0  0  0
  150.8763  140.5069  157.9328 H   0  0  0  0  0  0  0  0  0  0  0  0
  152.4263  140.6170  157.1377 H   0  0  0  0  0  0  0  0  0  0  0  0
  151.3470  143.8678  156.7890 H   0  0  0  0  0  0  0  0  0  0  0  0
  152.0158  145.7969  158.3318 H   0  0  0  0  0  0  0  0  0  0  0  0
  153.1792  143.1988  161.3311 H   0  0  0  0  0  0  0  0  0  0  0  0
  152.5615  141.1506  159.9294 H   0  0  0  0  0  0  0  0  0  0  0  0
  148.4426  138.7056  156.2293 H   0  0  0  0  0  0  0  0  0  0  0  0
  146.7692  138.7301  155.7908 H   0  0  0  0  0  0  0  0  0  0  0  0
  149.0471  137.5020  154.1463 H   0  0  0  0  0  0  0  0  0  0  0  0
  147.9009  136.5946  155.0855 H   0  0  0  0  0  0  0  0  0  0  0  0
  145.2863  137.7062  154.2932 H   0  0  0  0  0  0  0  0  0  0  0  0
  146.6026  135.0400  154.1073 H   0  0  0  0  0  0  0  0  0  0  0  0
  145.3384  135.6059  155.1951 H   0  0  0  0  0  0  0  0  0  0  0  0
  144.1105  134.0486  153.7324 H   0  0  0  0  0  0  0  0  0  0  0  0
  146.1746  134.0646  151.9845 H   0  0  0  0  0  0  0  0  0  0  0  0
  144.5539  133.9667  151.2980 H   0  0  0  0  0  0  0  0  0  0  0  0
  146.4058  136.2139  151.0085 H   0  0  0  0  0  0  0  0  0  0  0  0
  144.7835  136.0503  150.3498 H   0  0  0  0  0  0  0  0  0  0  0  0
  144.4625  137.8842  151.9689 H   0  0  0  0  0  0  0  0  0  0  0  0
  142.9065  135.8049  152.1809 H   0  0  0  0  0  0  0  0  0  0  0  0
  143.1824  136.5057  153.7919 H   0  0  0  0  0  0  0  0  0  0  0  0
  148.2151  138.8387  152.1130 H   0  0  0  0  0  0  0  0  0  0  0  0
  146.5398  138.7765  151.6775 H   0  0  0  0  0  0  0  0  0  0  0  0
  145.9481  139.9538  153.8501 H   0  0  0  0  0  0  0  0  0  0  0  0
  147.0126  140.8941  152.8523 H   0  0  0  0  0  0  0  0  0  0  0  0
  147.5098  136.7736  152.6711 H   0  0  0  0  0  0  0  0  0  0  0  0
  152.8595  145.3084  160.4324 H   0  0  0  0  0  0  0  0  0  0  0  0
  1  2  2  0  0  0  0
  2  3  1  0  0  0  0
  2 12  1  0  0  0  0
  3  4  1  0  0  0  0
  3 25  1  0  0  0  0
  4  5  1  0  0  0  0
  4 26  1  0  0  0  0
  4 27  1  0  0  0  0
  5  6  1  0  0  0  0
  5 28  1  0  0  0  0
  5 29  1  0  0  0  0
  6 11  1  0  0  0  0
  6  7  2  0  0  0  0
  7  8  1  0  0  0  0
  7 30  1  0  0  0  0
  8  9  2  0  0  0  0
  8 31  1  0  0  0  0
  9 10  1  0  0  0  0
  9 54  1  0  0  0  0
 10 11  2  0  0  0  0
 10 32  1  0  0  0  0
 11 33  1  0  0  0  0
 12 24  1  0  0  0  0
 12 13  1  0  0  0  0
 13 14  1  0  0  0  0
 13 34  1  0  0  0  0
 13 35  1  0  0  0  0
 14 15  1  0  0  0  0
 14 36  1  0  0  0  0
 14 37  1  0  0  0  0
 15 16  1  0  0  0  0
 15 23  1  0  0  0  0
 15 53  1  0  0  0  0
 16 21  1  0  0  0  0
 16 17  1  0  0  0  0
 16 38  1  0  0  0  0
 17 18  1  0  0  0  0
 17 39  1  0  0  0  0
 17 40  1  0  0  0  0
 18 22  1  0  0  0  0
 18 19  1  0  0  0  0
 18 41  1  0  0  0  0
 19 20  1  0  0  0  0
 19 42  1  0  0  0  0
 19 43  1  0  0  0  0
 20 21  1  0  0  0  0
 20 44  1  0  0  0  0
 20 45  1  0  0  0  0
 21 22  1  0  0  0  0
 21 46  1  0  0  0  0
 22 47  1  0  0  0  0
 22 48  1  0  0  0  0
 23 24  1  0  0  0  0
 23 49  1  0  0  0  0
 23 50  1  0  0  0  0
 24 51  1  0  0  0  0
 24 52  1  0  0  0  0
M  CHG  1   9   1
M  CHG  1  15   1
M  END
> <s_m_source_file>
AV-unprocessed.smi

> <i_m_source_file_index>
2895

> <i_lp_mmshare_version>
43012

> <i_f3d_flags>
0

> <s_epik_input>
W0NIMl0xW0NIMl1bQ0BASF0oW0NIMl0yKVtDQEBIXShbQ0gyXVtDQEhdMTIpTihbQ0gyXVtDSDJdMylbQ0gyXVtDSDJdTjNDKD1PKVtOSF1bQ0gyXVtDSDJdYzRbY0hdW2NIXW5bY0hdW2NIXTQ=

> <s_epik_cmdline>
J2VwaWtfcHl0aG9uJywgJy1waCcsICc3LjAnLCAnLXRuJywgJzgnLCAnLW1hJywgJzIwMCcsICctbWV0YWxfYmluZGluZycsICctaW1hZScsICc8aW5maWxlLm1hZT4nLCAnLW9tYWUnLCAnPG91dGZpbGUubWFlPic=

> <r_epik_Ionization_Penalty>
1.44916

> <r_epik_Ionization_Penalty_Charging>
1.44913

> <r_epik_Ionization_Penalty_Neutral>
2.64641e-05

> <r_epik_State_Penalty>
1.53218

> <r_epik_Charging_Adjusted_Penalty>
2.98131

> <i_epik_Tot_Q>
2

> <i_epik_Tot_abs_Q>
2

> <r_epik_Metal_State_Penalty>
1.58241

> <b_epik_Metal_Only>
0

> <s_lp_Force_Field>
OPLS_2005

> <r_lp_Energy>
107.451

> <b_lp_Chiralities_Consistent>
1

> <s_lp_Variant>
AV-unprocessed.smi:2895-5

> <Gold.Version>
5.8.1

> <Gold.Id.Protein>
6NUR|6NUR_protein|mol2

> <Gold.PLP.Fitness>
47.5045

> <Gold.PLP.PLP>
-41.0191

> <Gold.PLP.part.hbond>
-2.4711

> <Gold.PLP.part.metal>
0.0000

> <Gold.PLP.part.buried>
-1.8287

> <Gold.PLP.part.nonpolar>
-37.0176

> <Gold.PLP.part.repulsive>
0.3760

> <Gold.PLP.ligand.clash>
0.0000

> <Gold.PLP.ligand.torsion>
0.3757

> <Gold.PLP.Chemscore.Hbond>
2.3840

> <Gold.PLP.Chemscore.CHOScore>
0.0000

> <Gold.PLP.Chemscore.Metal>
0.0000

> <Gold.Chemscore.Hbonds>
donor molecule, donor type, donor heavy atom, donor atom, acceptor molecule, acceptor atom, score
      L1  H    15    53       P1  7948  1.79
      P1  H  8011  8017       L1     1  0.54

> <Gold.PLP.Chemscore.Internal.Correction>
0.0849

> <Gold.Rescore>
     Score         DG    S(hbond)    S(metal)    S(lipo)     H(rot)  DE(clash)    DE(int)     intcor
     19.31     -20.13       1.46        0.00     115.57       1.46       0.49       0.33       ----

> <Gold.Chemscore.Fitness>
19.3074

> <Gold.Chemscore.DG>
-20.1310

> <Gold.Chemscore.ZeroCoef>
-5.4800

> <Gold.Chemscore.Hbond>
1.4552

> <Gold.Chemscore.Metal>
0.0000

> <Gold.Chemscore.Lipo>
115.5656

> <Gold.Chemscore.Internal_Hbond>
0.0000

> <Gold.Chemscore.DEClash>
0.4888

> <Gold.Chemscore.DEInternal>
0.3348

> <Gold.Chemscore.Rot>
1.4572

> <Gold.Chemscore.Internal.Correction>
   9.000000E+99

> <Gold.Chemscore.Hbonds>
donor molecule, donor type, donor heavy atom, donor atom, acceptor molecule, acceptor atom, score
      L1  H    15    53       P1  7948  0.88
      P1  H  8011  8017       L1     1  0.56

> <Gold.Chemscore.Hbond.Weighted>
-4.8603

> <Gold.Chemscore.Metal.Weighted>
-0.0000

> <Gold.Chemscore.Lipo.Weighted>
-13.5212

> <Gold.Chemscore.Internal_Hbond.Weighted>
0.0000

> <Gold.Chemscore.DEClash.Weighted>
0.4888

> <Gold.Chemscore.DEInternal.Weighted>
0.3348

> <Gold.Chemscore.Rot.Weighted>
3.7305

> <Gold.Chemscore.Internal.Correction.Weighted>
   9.000000E+99

> <Gold.Protein.RotatedTorsions>
[ 6907 6896 6895 6894 ] final   71.54 input  -60.11 | X-H torsion
[ 7974 7965 7964 7962 ] final -114.37 input  175.53 | X-H torsion
[ 8008 7997 7996 7995 ] final  -53.06 input   59.86 | X-H torsion
[ 10167 10162 10161 10158 ] final   28.98 input  -65.29 | X-H torsion
[ 10718 10713 10712 10709 ] final   53.58 input   66.30 | X-H torsion
[ 10763 10752 10751 10750 ] final   31.32 input  -60.55 | X-H torsion
[ 11005 11000 10999 10996 ] final  -42.23 input  -57.11 | X-H torsion

> <Gold.Protein.ActiveResidues>
 VAL166  LYS551  ARG553  GLY616  TRP617  ASP618  TYR619  PRO620  LYS621  CYS622 
 ASP623  PHE694  ASN695  SER759  ASP760  ASP761  ALA762  ILE779  LEU786  VAL792 
 PHE793  MET794  SER795  GLU796  ALA797  LYS798  CYS799  TRP800  GLU811  SER814 

> <Gold.Protein.RotatedAtoms>
  152.4816  134.4705  159.9633 H   0  0  0  0  0  0  0  0  0  0  0  0  # atno 6907 bound_to 6896
  151.4710  133.3563  159.2831 H   0  0  0  0  0  0  0  0  0  0  0  0  # atno 6908 bound_to 6896
  150.8892  134.8320  159.7342 H   0  0  0  0  0  0  0  0  0  0  0  0  # atno 6909 bound_to 6896
  145.1210  140.8669  143.3814 H   0  0  0  0  0  0  0  0  0  0  0  0  # atno 7974 bound_to 7965
  154.4123  140.1209  156.5093 H   0  0  0  0  0  0  0  0  0  0  0  0  # atno 8008 bound_to 7997
  155.6816  140.3496  155.4838 H   0  0  0  0  0  0  0  0  0  0  0  0  # atno 8009 bound_to 7997
  155.9547  140.1111  157.0937 H   0  0  0  0  0  0  0  0  0  0  0  0  # atno 8010 bound_to 7997
  140.4806  144.0622  150.6264 H   0  0  0  0  0  0  0  0  0  0  0  0  # atno 10167 bound_to 10162
  157.5179  130.8545  149.8520 H   0  0  0  0  0  0  0  0  0  0  0  0  # atno 10718 bound_to 10713
  153.0322  135.6442  154.1180 H   0  0  0  0  0  0  0  0  0  0  0  0  # atno 10763 bound_to 10752
  154.0901  135.2867  155.3275 H   0  0  0  0  0  0  0  0  0  0  0  0  # atno 10764 bound_to 10752
  154.6471  135.5439  153.7921 H   0  0  0  0  0  0  0  0  0  0  0  0  # atno 10765 bound_to 10752
  141.0301  133.6824  156.2566 H   0  0  0  0  0  0  0  0  0  0  0  0  # atno 11005 bound_to 11000
  145.0740  139.3010  143.5817 LP  0  0  0  0  0  0  0  0  0  0  0  0  # atno 17320 bound_to 7965
  146.3521  140.0224  142.8657 LP  0  0  0  0  0  0  0  0  0  0  0  0  # atno 17321 bound_to 7965
  140.3863  143.2776  152.0112 LP  0  0  0  0  0  0  0  0  0  0  0  0  # atno 17342 bound_to 10162
  139.4833  144.6114  151.7427 LP  0  0  0  0  0  0  0  0  0  0  0  0  # atno 17343 bound_to 10162
  156.0333  130.3758  150.1628 LP  0  0  0  0  0  0  0  0  0  0  0  0  # atno 17370 bound_to 10713
  156.9816  130.9866  151.3436 LP  0  0  0  0  0  0  0  0  0  0  0  0  # atno 17371 bound_to 10713
  140.6422  134.5154  157.5570 LP  0  0  0  0  0  0  0  0  0  0  0  0  # atno 17394 bound_to 11000
  139.9202  134.8164  156.1236 LP  0  0  0  0  0  0  0  0  0  0  0  0  # atno 17395 bound_to 11000

$$$$
