AV-unprocessed.smi:1492|AV-procd|sdf|6041|dock6
  -GOLD-   22720 6153D 1   1.00000     0.00000
 Structure written by MMmdl.
 52 53  0  0  0  0  0  0  0  0  1 V2000
  145.7223  139.3075  157.4989 C   0  0  0  0  0  0  0  0  0  0  0  0
  147.2526  139.2672  157.3349 C   0  0  0  0  0  0  0  0  0  0  0  0
  147.8125  138.3219  156.2249 C   0  0  2  0  0  0  0  0  0  0  0  0
  147.0410  138.5989  154.9072 C   0  0  0  0  0  0  0  0  0  0  0  0
  147.5032  136.8424  156.6220 C   0  0  0  0  0  0  0  0  0  0  0  0
  147.5506  136.6338  158.0671 N   0  0  0  0  0  0  0  0  0  0  0  0
  148.2811  135.7153  158.7153 C   0  0  0  0  0  0  0  0  0  0  0  0
  148.9009  134.8121  158.1547 O   0  0  0  0  0  0  0  0  0  0  0  0
  148.3528  135.8737  160.2343 C   0  0  0  0  0  0  0  0  0  0  0  0
  146.9953  135.8802  160.9381 C   0  0  0  0  0  0  0  0  0  0  0  0
  146.5883  134.8782  161.7581 C   0  0  0  0  0  0  0  0  0  0  0  0
  147.4055  133.6342  162.0598 C   0  0  0  0  0  0  0  0  0  0  0  0
  145.3642  134.9311  162.4008 N   0  0  0  0  0  0  0  0  0  0  0  0
  144.5654  136.0413  162.1835 C   0  0  0  0  0  0  0  0  0  0  0  0
  143.2551  136.0059  162.9390 C   0  0  0  0  0  0  0  0  0  0  0  0
  144.8647  137.0470  161.4193 N   0  0  0  0  0  0  0  0  0  0  0  0
  146.0974  137.0440  160.7476 C   0  0  0  0  0  0  0  0  0  0  0  0
  146.4168  137.9935  160.0337 O   0  0  0  0  0  0  0  0  0  0  0  0
  149.2771  138.5144  156.0048 N   0  0  0  0  0  0  0  0  0  0  0  0
  149.8511  137.7700  154.8781 C   0  0  0  0  0  0  0  0  0  0  0  0
  151.3824  137.9039  154.8231 C   0  0  0  0  0  0  0  0  0  0  0  0
  151.7430  139.2779  154.7506 O   0  0  0  0  0  0  0  0  0  0  0  0
  151.2502  140.0287  155.8538 C   0  0  0  0  0  0  0  0  0  0  0  0
  149.7181  139.9116  155.9167 C   0  0  0  0  0  0  0  0  0  0  0  0
  145.1023  134.1659  163.0054 H   0  0  0  0  0  0  0  0  0  0  0  0
  145.4475  140.0023  158.2927 H   0  0  0  0  0  0  0  0  0  0  0  0
  145.3129  138.3354  157.7714 H   0  0  0  0  0  0  0  0  0  0  0  0
  145.2222  139.6464  156.5920 H   0  0  0  0  0  0  0  0  0  0  0  0
  147.5815  140.2896  157.1518 H   0  0  0  0  0  0  0  0  0  0  0  0
  147.6718  138.9915  158.3022 H   0  0  0  0  0  0  0  0  0  0  0  0
  146.0196  138.2201  154.9422 H   0  0  0  0  0  0  0  0  0  0  0  0
  147.5249  138.1242  154.0532 H   0  0  0  0  0  0  0  0  0  0  0  0
  146.9691  139.6647  154.6903 H   0  0  0  0  0  0  0  0  0  0  0  0
  146.5096  136.5524  156.2802 H   0  0  0  0  0  0  0  0  0  0  0  0
  148.1830  136.1484  156.1263 H   0  0  0  0  0  0  0  0  0  0  0  0
  147.0744  137.3247  158.6289 H   0  0  0  0  0  0  0  0  0  0  0  0
  148.9985  135.0931  160.6375 H   0  0  0  0  0  0  0  0  0  0  0  0
  148.8694  136.8069  160.4609 H   0  0  0  0  0  0  0  0  0  0  0  0
  148.3688  133.9036  162.4926 H   0  0  0  0  0  0  0  0  0  0  0  0
  147.5854  133.0669  161.1465 H   0  0  0  0  0  0  0  0  0  0  0  0
  146.8945  132.9786  162.7661 H   0  0  0  0  0  0  0  0  0  0  0  0
  142.7008  136.9352  162.8013 H   0  0  0  0  0  0  0  0  0  0  0  0
  143.4343  135.8736  164.0064 H   0  0  0  0  0  0  0  0  0  0  0  0
  142.6349  135.1821  162.5850 H   0  0  0  0  0  0  0  0  0  0  0  0
  149.6155  136.7097  154.9493 H   0  0  0  0  0  0  0  0  0  0  0  0
  149.4341  138.1260  153.9362 H   0  0  0  0  0  0  0  0  0  0  0  0
  151.8397  137.4460  155.7007 H   0  0  0  0  0  0  0  0  0  0  0  0
  151.7774  137.3855  153.9495 H   0  0  0  0  0  0  0  0  0  0  0  0
  151.7038  139.6721  156.7788 H   0  0  0  0  0  0  0  0  0  0  0  0
  151.5457  141.0712  155.7353 H   0  0  0  0  0  0  0  0  0  0  0  0
  149.2968  140.3846  155.0298 H   0  0  0  0  0  0  0  0  0  0  0  0
  149.3735  140.4860  156.7745 H   0  0  0  0  0  0  0  0  0  0  0  0
  1  2  1  0  0  0  0
  1 26  1  0  0  0  0
  1 27  1  0  0  0  0
  1 28  1  0  0  0  0
  2  3  1  0  0  0  0
  2 29  1  0  0  0  0
  2 30  1  0  0  0  0
  3  4  1  0  0  0  0
  3  5  1  0  0  0  0
  3 19  1  0  0  0  0
  4 31  1  0  0  0  0
  4 32  1  0  0  0  0
  4 33  1  0  0  0  0
  5  6  1  0  0  0  0
  5 34  1  0  0  0  0
  5 35  1  0  0  0  0
  6  7  1  0  0  0  0
  6 36  1  0  0  0  0
  7  8  2  0  0  0  0
  7  9  1  0  0  0  0
  9 37  1  0  0  0  0
  9 38  1  0  0  0  0
  9 10  1  0  0  0  0
 10 17  1  0  0  0  0
 10 11  2  0  0  0  0
 11 12  1  0  0  0  0
 11 13  1  0  0  0  0
 12 39  1  0  0  0  0
 12 40  1  0  0  0  0
 12 41  1  0  0  0  0
 13 25  1  0  0  0  0
 13 14  1  0  0  0  0
 14 15  1  0  0  0  0
 14 16  2  0  0  0  0
 15 42  1  0  0  0  0
 15 43  1  0  0  0  0
 15 44  1  0  0  0  0
 16 17  1  0  0  0  0
 17 18  2  0  0  0  0
 19 24  1  0  0  0  0
 19 20  1  0  0  0  0
 20 21  1  0  0  0  0
 20 45  1  0  0  0  0
 20 46  1  0  0  0  0
 21 22  1  0  0  0  0
 21 47  1  0  0  0  0
 21 48  1  0  0  0  0
 22 23  1  0  0  0  0
 23 24  1  0  0  0  0
 23 49  1  0  0  0  0
 23 50  1  0  0  0  0
 24 51  1  0  0  0  0
 24 52  1  0  0  0  0
M  END
> <s_m_source_file>
AV-unprocessed.smi

> <i_m_source_file_index>
1492

> <i_lp_mmshare_version>
43012

> <i_f3d_flags>
0

> <s_epik_input>
W0NIMl0xW0NIMl1PW0NIMl1bQ0gyXU4xW0NAQF0oW0NIM10pKFtDSDJdW0NIM10pW0NIMl1bTkhdQyg9TylbQ0gyXWMyYyhbQ0gzXSluYyhbQ0gzXSlbbkhdYzI9Tw==

> <s_epik_cmdline>
J2VwaWtfcHl0aG9uJywgJy1waCcsICc3LjAnLCAnLXRuJywgJzgnLCAnLW1hJywgJzIwMCcsICctbWV0YWxfYmluZGluZycsICctaW1hZScsICc8aW5maWxlLm1hZT4nLCAnLW9tYWUnLCAnPG91dGZpbGUubWFlPic=

> <r_lp_tautomer_probability>
0.156392

> <r_epik_Ionization_Penalty>
0.342516

> <r_epik_Ionization_Penalty_Charging>
0.0141408

> <r_epik_Ionization_Penalty_Neutral>
0.328375

> <r_epik_State_Penalty>
1.47662

> <r_epik_Charging_Adjusted_Penalty>
1.49076

> <i_epik_Tot_Q>
0

> <i_epik_Tot_abs_Q>
0

> <r_epik_Metal_State_Penalty>
1.65506

> <b_epik_Metal_Only>
0

> <s_lp_Force_Field>
OPLS_2005

> <r_lp_Energy>
47.0207

> <b_lp_Chiralities_Consistent>
1

> <s_lp_Variant>
AV-unprocessed.smi:1492-6

> <Gold.Version>
5.8.1

> <Gold.Id.Protein>
6NUR|6NUR_protein|mol2

> <Gold.PLP.Fitness>
37.0469

> <Gold.PLP.PLP>
-29.6128

> <Gold.PLP.part.hbond>
-2.8126

> <Gold.PLP.part.metal>
0.0000

> <Gold.PLP.part.buried>
-6.4310

> <Gold.PLP.part.nonpolar>
-20.8937

> <Gold.PLP.part.repulsive>
0.1539

> <Gold.PLP.ligand.clash>
0.0181

> <Gold.PLP.ligand.torsion>
0.8648

> <Gold.PLP.Chemscore.Hbond>
2.9760

> <Gold.PLP.Chemscore.CHOScore>
0.0000

> <Gold.PLP.Chemscore.Metal>
0.0000

> <Gold.Chemscore.Hbonds>
donor molecule, donor type, donor heavy atom, donor atom, acceptor molecule, acceptor atom, score
      P1  H  6896  6909       L1     8  0.54
      P1  H  6934  6947       L1    18  1.00
      P1  H  7989  7998       L1    22  0.65

> <Gold.PLP.Chemscore.Internal.Correction>
0.2539

> <Gold.Rescore>
     Score         DG    S(hbond)    S(metal)    S(lipo)     H(rot)  DE(clash)    DE(int)     intcor
     14.51     -16.77       2.90        0.00      60.03       2.12       0.03       2.22       ----

> <Gold.Chemscore.Fitness>
14.5129

> <Gold.Chemscore.DG>
-16.7693

> <Gold.Chemscore.ZeroCoef>
-5.4800

> <Gold.Chemscore.Hbond>
2.8987

> <Gold.Chemscore.Metal>
0.0000

> <Gold.Chemscore.Lipo>
60.0289

> <Gold.Chemscore.Internal_Hbond>
0.0000

> <Gold.Chemscore.DEClash>
0.0348

> <Gold.Chemscore.DEInternal>
2.2216

> <Gold.Chemscore.Rot>
2.1155

> <Gold.Chemscore.Internal.Correction>
   9.000000E+99

> <Gold.Chemscore.Hbonds>
donor molecule, donor type, donor heavy atom, donor atom, acceptor molecule, acceptor atom, score
      P1  H  6896  6909       L1     8  0.27
      P1  H  6934  6947       L1    18  0.62
      P1  H  7989  7998       L1    22  0.05

> <Gold.Chemscore.Hbond.Weighted>
-9.6816

> <Gold.Chemscore.Metal.Weighted>
-0.0000

> <Gold.Chemscore.Lipo.Weighted>
-7.0234

> <Gold.Chemscore.Internal_Hbond.Weighted>
0.0000

> <Gold.Chemscore.DEClash.Weighted>
0.0348

> <Gold.Chemscore.DEInternal.Weighted>
2.2216

> <Gold.Chemscore.Rot.Weighted>
5.4157

> <Gold.Chemscore.Internal.Correction.Weighted>
   9.000000E+99

> <Gold.Protein.RotatedTorsions>
[ 6907 6896 6895 6894 ] final   39.40 input  -60.11 | X-H torsion
[ 7974 7965 7964 7962 ] final -153.34 input  175.53 | X-H torsion
[ 8008 7997 7996 7995 ] final -110.01 input   59.86 | X-H torsion
[ 10167 10162 10161 10158 ] final  120.21 input  -65.29 | X-H torsion
[ 10718 10713 10712 10709 ] final -152.23 input   66.30 | X-H torsion
[ 10763 10752 10751 10750 ] final -134.52 input  -60.55 | X-H torsion
[ 11005 11000 10999 10996 ] final  137.61 input  -57.11 | X-H torsion

> <Gold.Protein.ActiveResidues>
 VAL166  LYS551  ARG553  GLY616  TRP617  ASP618  TYR619  PRO620  LYS621  CYS622 
 ASP623  PHE694  ASN695  SER759  ASP760  ASP761  ALA762  ILE779  LEU786  VAL792 
 PHE793  MET794  SER795  GLU796  ALA797  LYS798  CYS799  TRP800  GLU811  SER814 

> <Gold.Protein.RotatedAtoms>
  152.1690  134.8849  160.0535 H   0  0  0  0  0  0  0  0  0  0  0  0  # atno 6907 bound_to 6896
  151.9816  133.3755  159.4118 H   0  0  0  0  0  0  0  0  0  0  0  0  # atno 6908 bound_to 6896
  150.6899  134.3955  159.5139 H   0  0  0  0  0  0  0  0  0  0  0  0  # atno 6909 bound_to 6896
  144.7746  140.4539  143.5883 H   0  0  0  0  0  0  0  0  0  0  0  0  # atno 7974 bound_to 7965
  154.9680  140.0398  157.2221 H   0  0  0  0  0  0  0  0  0  0  0  0  # atno 8008 bound_to 7997
  154.7827  140.2821  155.6029 H   0  0  0  0  0  0  0  0  0  0  0  0  # atno 8009 bound_to 7997
  156.2938  140.2588  156.2657 H   0  0  0  0  0  0  0  0  0  0  0  0  # atno 8010 bound_to 7997
  139.5997  144.7053  151.3092 H   0  0  0  0  0  0  0  0  0  0  0  0  # atno 10167 bound_to 10162
  156.4698  130.8253  151.2482 H   0  0  0  0  0  0  0  0  0  0  0  0  # atno 10718 bound_to 10713
  154.8718  135.3732  154.4749 H   0  0  0  0  0  0  0  0  0  0  0  0  # atno 10763 bound_to 10752
  153.5407  135.7026  153.5643 H   0  0  0  0  0  0  0  0  0  0  0  0  # atno 10764 bound_to 10752
  153.3806  135.3997  155.1819 H   0  0  0  0  0  0  0  0  0  0  0  0  # atno 10765 bound_to 10752
  140.0126  134.9432  157.0309 H   0  0  0  0  0  0  0  0  0  0  0  0  # atno 11005 bound_to 11000
  145.6224  139.1526  143.3015 LP  0  0  0  0  0  0  0  0  0  0  0  0  # atno 17320 bound_to 7965
  146.1916  140.6333  142.9143 LP  0  0  0  0  0  0  0  0  0  0  0  0  # atno 17321 bound_to 7965
  140.7240  143.7057  150.7809 LP  0  0  0  0  0  0  0  0  0  0  0  0  # atno 17342 bound_to 10162
  140.0631  143.5135  152.2618 LP  0  0  0  0  0  0  0  0  0  0  0  0  # atno 17343 bound_to 10162
  157.7492  131.0080  150.3211 LP  0  0  0  0  0  0  0  0  0  0  0  0  # atno 17370 bound_to 10713
  156.3630  130.3850  149.7236 LP  0  0  0  0  0  0  0  0  0  0  0  0  # atno 17371 bound_to 10713
  140.4527  134.1565  155.7183 LP  0  0  0  0  0  0  0  0  0  0  0  0  # atno 17394 bound_to 11000
  141.1721  133.8587  157.1537 LP  0  0  0  0  0  0  0  0  0  0  0  0  # atno 17395 bound_to 11000

$$$$
