AV-unprocessed.smi:444|AV-procd|sdf|2588|dock1
  -GOLD-   2262022583D 1   1.00000     0.00000
 Structure written by MMmdl.
 45 46  0  0  0  0  0  0  0  0  1 V2000
  152.3571  144.9487  158.6460 C   0  0  0  0  0  0  0  0  0  0  0  0
  152.2678  143.4367  158.6174 C   0  0  0  0  0  0  0  0  0  0  0  0
  152.9052  142.6679  159.6101 C   0  0  0  0  0  0  0  0  0  0  0  0
  152.8186  141.2645  159.5750 C   0  0  0  0  0  0  0  0  0  0  0  0
  152.0957  140.6216  158.5488 C   0  0  0  0  0  0  0  0  0  0  0  0
  152.0123  139.1068  158.5265 C   0  0  0  0  0  0  0  0  0  0  0  0
  151.4501  141.3814  157.5458 C   0  0  0  0  0  0  0  0  0  0  0  0
  150.7578  140.6899  156.5728 O   0  0  0  0  0  0  0  0  0  0  0  0
  150.0612  141.4282  155.5778 C   0  0  0  0  0  0  0  0  0  0  0  0
  149.4548  140.4420  154.5650 C   0  0  1  0  0  0  0  0  0  0  0  0
  149.4496  141.0894  153.3073 O   0  0  0  0  0  0  0  0  0  0  0  0
  150.2965  139.1521  154.4442 C   0  0  0  0  0  0  0  0  0  0  0  0
  149.9526  138.1737  155.4839 N   0  0  0  0  0  0  0  0  0  0  0  0
  148.9098  138.5660  156.3009 N   0  0  0  0  0  0  0  0  0  0  0  0
  148.4744  137.8041  157.2498 C   0  0  0  0  0  0  0  0  0  0  0  0
  147.3337  138.3361  158.0749 C   0  0  0  0  0  0  0  0  0  0  0  0
  149.0914  136.5003  157.4707 C   0  0  0  0  0  0  0  0  0  0  0  0
  148.5356  135.6452  158.6015 C   0  0  0  0  0  0  0  0  0  0  0  0
  150.1183  136.1290  156.6657 C   0  0  0  0  0  0  0  0  0  0  0  0
  150.7853  134.8752  156.8099 C   0  0  0  0  0  0  0  0  0  0  0  0
  151.3088  133.8507  156.9373 N   0  0  0  0  0  0  0  0  0  0  0  0
  150.6173  136.9877  155.5890 C   0  0  0  0  0  0  0  0  0  0  0  0
  151.5467  136.6781  154.8421 O   0  0  0  0  0  0  0  0  0  0  0  0
  151.5459  142.7960  157.5902 C   0  0  0  0  0  0  0  0  0  0  0  0
  152.7392  145.3054  159.6030 H   0  0  0  0  0  0  0  0  0  0  0  0
  151.3735  145.3917  158.4886 H   0  0  0  0  0  0  0  0  0  0  0  0
  153.0231  145.3012  157.8582 H   0  0  0  0  0  0  0  0  0  0  0  0
  153.4619  143.1497  160.4006 H   0  0  0  0  0  0  0  0  0  0  0  0
  153.3105  140.6832  160.3411 H   0  0  0  0  0  0  0  0  0  0  0  0
  150.9743  138.7846  158.6143 H   0  0  0  0  0  0  0  0  0  0  0  0
  152.5755  138.6623  159.3476 H   0  0  0  0  0  0  0  0  0  0  0  0
  152.4147  138.7193  157.5904 H   0  0  0  0  0  0  0  0  0  0  0  0
  149.2868  142.0642  156.0112 H   0  0  0  0  0  0  0  0  0  0  0  0
  150.7803  142.0747  155.0725 H   0  0  0  0  0  0  0  0  0  0  0  0
  148.4341  140.1975  154.8622 H   0  0  0  0  0  0  0  0  0  0  0  0
  149.3442  140.4368  152.6320 H   0  0  0  0  0  0  0  0  0  0  0  0
  150.2266  138.7310  153.4394 H   0  0  0  0  0  0  0  0  0  0  0  0
  151.3528  139.3987  154.5662 H   0  0  0  0  0  0  0  0  0  0  0  0
  147.6079  138.3846  159.1289 H   0  0  0  0  0  0  0  0  0  0  0  0
  146.4573  137.6944  157.9819 H   0  0  0  0  0  0  0  0  0  0  0  0
  147.0407  139.3405  157.7652 H   0  0  0  0  0  0  0  0  0  0  0  0
  149.0251  134.6736  158.6636 H   0  0  0  0  0  0  0  0  0  0  0  0
  147.4700  135.4633  158.4580 H   0  0  0  0  0  0  0  0  0  0  0  0
  148.6737  136.1446  159.5611 H   0  0  0  0  0  0  0  0  0  0  0  0
  151.0714  143.4142  156.8435 H   0  0  0  0  0  0  0  0  0  0  0  0
  1  2  1  0  0  0  0
  1 25  1  0  0  0  0
  1 26  1  0  0  0  0
  1 27  1  0  0  0  0
  2 24  1  0  0  0  0
  2  3  2  0  0  0  0
  3  4  1  0  0  0  0
  3 28  1  0  0  0  0
  4  5  2  0  0  0  0
  4 29  1  0  0  0  0
  5  6  1  0  0  0  0
  5  7  1  0  0  0  0
  6 30  1  0  0  0  0
  6 31  1  0  0  0  0
  6 32  1  0  0  0  0
  7  8  1  0  0  0  0
  7 24  2  0  0  0  0
  8  9  1  0  0  0  0
  9 10  1  0  0  0  0
  9 33  1  0  0  0  0
  9 34  1  0  0  0  0
 10 11  1  0  0  0  0
 10 12  1  0  0  0  0
 10 35  1  0  0  0  0
 11 36  1  0  0  0  0
 12 13  1  0  0  0  0
 12 37  1  0  0  0  0
 12 38  1  0  0  0  0
 13 22  1  0  0  0  0
 13 14  1  0  0  0  0
 14 15  2  0  0  0  0
 15 16  1  0  0  0  0
 15 17  1  0  0  0  0
 16 39  1  0  0  0  0
 16 40  1  0  0  0  0
 16 41  1  0  0  0  0
 17 18  1  0  0  0  0
 17 19  2  0  0  0  0
 18 42  1  0  0  0  0
 18 43  1  0  0  0  0
 18 44  1  0  0  0  0
 19 20  1  0  0  0  0
 19 22  1  0  0  0  0
 20 21  3  0  0  0  0
 22 23  2  0  0  0  0
 24 45  1  0  0  0  0
M  END
> <s_m_source_file>
AV-unprocessed.smi

> <i_m_source_file_index>
444

> <i_lp_mmshare_version>
43012

> <i_f3d_flags>
0

> <s_epik_input>
W0NIM11jMVtjSF1bY0hdYyhbQ0gzXSljKFtjSF0xKU9bQ0gyXVtDQEhdKFtPSF0pW0NIMl1uMm5jKFtDSDNdKWMoW0NIM10pYyhDI04pYzI9Tw==

> <s_epik_cmdline>
J2VwaWtfcHl0aG9uJywgJy1waCcsICc3LjAnLCAnLXRuJywgJzgnLCAnLW1hJywgJzIwMCcsICctbWV0YWxfYmluZGluZycsICctaW1hZScsICc8aW5maWxlLm1hZT4nLCAnLW9tYWUnLCAnPG91dGZpbGUubWFlPic=

> <r_lp_tautomer_probability>
1

> <r_epik_Ionization_Penalty>
1.17331e-07

> <r_epik_Ionization_Penalty_Charging>
1.57223e-10

> <r_epik_Ionization_Penalty_Neutral>
1.17174e-07

> <r_epik_State_Penalty>
-0

> <r_epik_Charging_Adjusted_Penalty>
1.57223e-10

> <i_epik_Tot_Q>
0

> <i_epik_Tot_abs_Q>
0

> <r_epik_Metal_State_Penalty>
-0

> <b_epik_Metal_Only>
0

> <s_lp_Force_Field>
OPLS_2005

> <r_lp_Energy>
32.4142

> <b_lp_Chiralities_Consistent>
1

> <s_lp_Variant>
AV-unprocessed.smi:444-2

> <Gold.Version>
5.8.1

> <Gold.Id.Protein>
6NUR|6NUR_protein|mol2

> <Gold.PLP.Fitness>
50.6953

> <Gold.PLP.PLP>
-43.3914

> <Gold.PLP.part.hbond>
-4.2917

> <Gold.PLP.part.metal>
0.0000

> <Gold.PLP.part.buried>
-6.0375

> <Gold.PLP.part.nonpolar>
-33.5464

> <Gold.PLP.part.repulsive>
0.1611

> <Gold.PLP.ligand.clash>
0.0000

> <Gold.PLP.ligand.torsion>
0.6605

> <Gold.PLP.Chemscore.Hbond>
2.8580

> <Gold.PLP.Chemscore.CHOScore>
0.0000

> <Gold.PLP.Chemscore.Metal>
0.0000

> <Gold.Chemscore.Hbonds>
donor molecule, donor type, donor heavy atom, donor atom, acceptor molecule, acceptor atom, score
      L1  H    11    36       P1  7957  0.93
      P1  H  6896  6909       L1    21  0.10
      P1  H  7989  7998       L1    11  0.02
      P1  H  8011  8017       L1    11  0.90
      P1  H 10752 10765       L1    23  1.00

> <Gold.PLP.Chemscore.Internal.Correction>
0.0507

> <Gold.Rescore>
     Score         DG    S(hbond)    S(metal)    S(lipo)     H(rot)  DE(clash)    DE(int)     intcor
     19.63     -20.91       2.71        0.00     104.59       2.29       0.10       1.18       ----

> <Gold.Chemscore.Fitness>
19.6331

> <Gold.Chemscore.DG>
-20.9105

> <Gold.Chemscore.ZeroCoef>
-5.4800

> <Gold.Chemscore.Hbond>
2.7115

> <Gold.Chemscore.Metal>
0.0000

> <Gold.Chemscore.Lipo>
104.5944

> <Gold.Chemscore.Internal_Hbond>
0.0000

> <Gold.Chemscore.DEClash>
0.1024

> <Gold.Chemscore.DEInternal>
1.1751

> <Gold.Chemscore.Rot>
2.2905

> <Gold.Chemscore.Internal.Correction>
   9.000000E+99

> <Gold.Chemscore.Hbonds>
donor molecule, donor type, donor heavy atom, donor atom, acceptor molecule, acceptor atom, score
      L1  H    11    36       P1  7957  0.85
      P1  H  6896  6909       L1    21  0.07
      P1  H  8011  8017       L1    11  0.18
      P1  H 10752 10765       L1    23  1.00

> <Gold.Chemscore.Hbond.Weighted>
-9.0565

> <Gold.Chemscore.Metal.Weighted>
-0.0000

> <Gold.Chemscore.Lipo.Weighted>
-12.2375

> <Gold.Chemscore.Internal_Hbond.Weighted>
0.0000

> <Gold.Chemscore.DEClash.Weighted>
0.1024

> <Gold.Chemscore.DEInternal.Weighted>
1.1751

> <Gold.Chemscore.Rot.Weighted>
5.8636

> <Gold.Chemscore.Internal.Correction.Weighted>
   9.000000E+99

> <Gold.Protein.RotatedTorsions>
[ 6907 6896 6895 6894 ] final  -47.01 input  -60.11 | X-H torsion
[ 7974 7965 7964 7962 ] final -135.79 input  175.53 | X-H torsion
[ 8008 7997 7996 7995 ] final  170.09 input   59.86 | X-H torsion
[ 10167 10162 10161 10158 ] final   -7.62 input  -65.29 | X-H torsion
[ 10718 10713 10712 10709 ] final  -43.83 input   66.30 | X-H torsion
[ 10763 10752 10751 10750 ] final  177.63 input  -60.55 | X-H torsion
[ 11005 11000 10999 10996 ] final  121.91 input  -57.11 | X-H torsion

> <Gold.Protein.ActiveResidues>
 VAL166  LYS551  ARG553  GLY616  TRP617  ASP618  TYR619  PRO620  LYS621  CYS622 
 ASP623  PHE694  ASN695  SER759  ASP760  ASP761  ALA762  ILE779  LEU786  VAL792 
 PHE793  MET794  SER795  GLU796  ALA797  LYS798  CYS799  TRP800  GLU811  SER814 

> <Gold.Protein.RotatedAtoms>
  150.9053  134.8467  159.7387 H   0  0  0  0  0  0  0  0  0  0  0  0  # atno 6907 bound_to 6896
  152.4915  134.4441  159.9563 H   0  0  0  0  0  0  0  0  0  0  0  0  # atno 6908 bound_to 6896
  151.4489  133.3583  159.2827 H   0  0  0  0  0  0  0  0  0  0  0  0  # atno 6909 bound_to 6896
  144.8983  140.6737  143.5101 H   0  0  0  0  0  0  0  0  0  0  0  0  # atno 7974 bound_to 7965
  156.1397  140.1547  156.8939 H   0  0  0  0  0  0  0  0  0  0  0  0  # atno 8008 bound_to 7997
  154.4977  140.0833  156.7770 H   0  0  0  0  0  0  0  0  0  0  0  0  # atno 8009 bound_to 7997
  155.4101  140.3418  155.4265 H   0  0  0  0  0  0  0  0  0  0  0  0  # atno 8010 bound_to 7997
  140.7034  143.6060  150.8750 H   0  0  0  0  0  0  0  0  0  0  0  0  # atno 10167 bound_to 10162
  156.2449  130.4183  149.8717 H   0  0  0  0  0  0  0  0  0  0  0  0  # atno 10718 bound_to 10713
  154.4971  135.2782  155.1451 H   0  0  0  0  0  0  0  0  0  0  0  0  # atno 10763 bound_to 10752
  154.3099  135.6231  153.5465 H   0  0  0  0  0  0  0  0  0  0  0  0  # atno 10764 bound_to 10752
  152.9896  135.5717  154.5405 H   0  0  0  0  0  0  0  0  0  0  0  0  # atno 10765 bound_to 10752
  139.9246  134.9640  156.8030 H   0  0  0  0  0  0  0  0  0  0  0  0  # atno 11005 bound_to 11000
  145.3660  139.1670  143.4357 LP  0  0  0  0  0  0  0  0  0  0  0  0  # atno 17320 bound_to 7965
  146.3094  140.3727  142.8676 LP  0  0  0  0  0  0  0  0  0  0  0  0  # atno 17321 bound_to 7965
  139.9784  143.5979  152.2951 LP  0  0  0  0  0  0  0  0  0  0  0  0  # atno 17342 bound_to 10162
  139.6591  144.7662  151.1998 LP  0  0  0  0  0  0  0  0  0  0  0  0  # atno 17343 bound_to 10162
  156.6286  130.8656  151.3490 LP  0  0  0  0  0  0  0  0  0  0  0  0  # atno 17370 bound_to 10713
  157.7191  130.9535  150.1367 LP  0  0  0  0  0  0  0  0  0  0  0  0  # atno 17371 bound_to 10713
  140.6374  133.9849  155.7691 LP  0  0  0  0  0  0  0  0  0  0  0  0  # atno 17394 bound_to 11000
  141.0793  134.0086  157.3410 LP  0  0  0  0  0  0  0  0  0  0  0  0  # atno 17395 bound_to 11000

$$$$
