#       Name:                AV-unprocessed.smi:3308
#       Creating user name   scv26
#       Creation time:       Fri Mar 27 19:04:21 2020


#       File generated by GOLD software.
#

@<TRIPOS>MOLECULE
AV-unprocessed.smi:3308
    44    45     1
SMALL
NO_CHARGES


@<TRIPOS>ATOM
      1 ****        -1.7271  -2.0054   1.6685 C.3            1 S1                 0.0000
      2 ****        -1.2588  -1.1297   0.4922 C.3            1 S1                 0.0000
      3 ****         0.2178  -1.0336   0.5288 N.4            1 S1                 1.0000
      4 ****         0.7538   0.3444   0.5632 C.3            1 S1                 0.0000
      5 ****         2.2883   0.3754   0.5337 C.2            1 S1                 0.0000
      6 ****         2.9200  -0.6823   0.5491 O.2            1 S1                 0.0000
      7 ****         2.9005   1.5766   0.4904 N.am           1 S1                 0.0000
      8 ****         4.3518   1.7430   0.4412 C.3            1 S1                 0.0000
      9 ****         4.5885   3.2224   0.1359 C.3            1 S1                 0.0000
     10 ****         3.3382   3.9150   0.6596 C.3            1 S1                 0.0000
     11 ****         2.2301   2.8767   0.4780 C.3            1 S1                 0.0000
     12 ****        -1.7339  -1.6584  -0.8886 C.3            1 S1                 0.0000
     13 ****        -1.3749  -0.7114  -2.0497 C.3            1 S1                 0.0000
     14 ****        -3.1627  -1.9465  -0.9054 N.pl3          1 S1                 0.0000
     15 ****        -3.7872  -3.1579  -1.1213 C.2            1 S1                 0.0000
     16 ****        -5.1334  -2.9423  -1.0495 C.2            1 S1                 0.0000
     17 ****        -5.2394  -1.5489  -0.7842 C.2            1 S1                 0.0000
     18 ****        -4.0597  -0.9555  -0.6995 N.2            1 S1                 0.0000
     19 ****        -2.8140  -2.0285   1.7503 H              1 S1                 0.0000
     20 ****        -1.3457  -1.6236   2.6161 H              1 S1                 0.0000
     21 ****        -1.3794  -3.0333   1.5605 H              1 S1                 0.0000
     22 ****        -1.6826  -0.1358   0.6482 H              1 S1                 0.0000
     23 ****         0.5491  -1.5138   1.3534 H              1 S1                 0.0000
     24 ****         0.3672   0.9025  -0.2902 H              1 S1                 0.0000
     25 ****         0.4013   0.8373   1.4703 H              1 S1                 0.0000
     26 ****         4.7720   1.4805   1.4132 H              1 S1                 0.0000
     27 ****         4.8151   1.1039  -0.3123 H              1 S1                 0.0000
     28 ****         5.5051   3.6056   0.5854 H              1 S1                 0.0000
     29 ****         4.6599   3.3669  -0.9430 H              1 S1                 0.0000
     30 ****         3.4627   4.1356   1.7206 H              1 S1                 0.0000
     31 ****         3.1277   4.8538   0.1463 H              1 S1                 0.0000
     32 ****         1.7354   3.0140  -0.4845 H              1 S1                 0.0000
     33 ****         1.4798   2.9664   1.2646 H              1 S1                 0.0000
     34 ****        -1.2268  -2.6066  -1.0741 H              1 S1                 0.0000
     35 ****        -0.2960  -0.6009  -2.1585 H              1 S1                 0.0000
     36 ****        -1.7978   0.2828  -1.9015 H              1 S1                 0.0000
     37 ****        -1.7541  -1.0948  -2.9976 H              1 S1                 0.0000
     38 ****        -3.2289  -4.0638  -1.3062 H              1 S1                 0.0000
     39 ****        -5.9233  -3.6689  -1.1698 H              1 S1                 0.0000
     40 ****        -6.1322  -0.9557  -0.6523 H              1 S1                 0.0000
     41 ****         0.5919  -1.5049  -0.2825 H              1 S1                 0.0000
     42 ****         2.4330  -1.5551   0.5807 LP             1 S1                 0.0000
     43 ****         3.9198  -0.6679   0.5301 LP             1 S1                 0.0000
     44 ****        -3.8729   0.0108  -0.5226 LP             1 S1                 0.0000
@<TRIPOS>BOND
    1    1    2 1     
    2    1   19 1     
    3    1   20 1     
    4    1   21 1     
    5    2    3 1     
    6    2   12 1     
    7    2   22 1     
    8    3    4 1     
    9    3   23 1     
   10    3   41 1     
   11    4    5 1     
   12    4   24 1     
   13    4   25 1     
   14    5    6 2     
   15    5    7 am    
   16    7   11 1     
   17    7    8 1     
   18    8    9 1     
   19    8   26 1     
   20    8   27 1     
   21    9   10 1     
   22    9   28 1     
   23    9   29 1     
   24   10   11 1     
   25   10   30 1     
   26   10   31 1     
   27   11   32 1     
   28   11   33 1     
   29   12   13 1     
   30   12   14 1     
   31   12   34 1     
   32   13   35 1     
   33   13   36 1     
   34   13   37 1     
   35   14   18 1     
   36   14   15 1     
   37   15   16 2     
   38   15   38 1     
   39   16   17 1     
   40   16   39 1     
   41   17   18 2     
   42   17   40 1     
   43    6   42 1     
   44    6   43 1     
   45   18   44 1     
@<TRIPOS>SUBSTRUCTURE
      1 S1             1
@<TRIPOS>SET
LONE_PAIRS      STATIC     ATOMS    <user>   **** ""
3 42 43 44
DONOR_HYDROGENS      STATIC     ATOMS    <user>   **** ""
2 23 41
ATOM$BLUE        STATIC     ATOMS    COLORGROUP SYSTEM
3 42 43 44
ATOM$RED        STATIC     ATOMS    COLORGROUP SYSTEM
2 23 41
