#       Name:                AV-unprocessed.smi:160
#       Creating user name   scv26
#       Creation time:       Thu Mar 26 19:06:58 2020


#       File generated by GOLD software.
#

@<TRIPOS>MOLECULE
AV-unprocessed.smi:160
    41    42     1
SMALL
NO_CHARGES


@<TRIPOS>ATOM
      1 ****        -3.6335   2.1731   0.3388 N.pl3          1 S1                -1.0000
      2 ****        -4.0925   1.0160  -0.1853 C.2            1 S1                 0.0000
      3 ****        -5.2688   0.7382  -0.4166 O.2            1 S1                 0.0000
      4 ****        -3.0198   0.0000  -0.4986 C.2            1 S1                 0.0000
      5 ****        -3.3474  -1.2162  -1.0325 N.2            1 S1                 0.0000
      6 ****        -2.1333  -1.7408  -1.1269 C.2            1 S1                 0.0000
      7 ****        -1.1548  -0.9417  -0.6925 N.pl3          1 S1                 0.0000
      8 ****         0.3244  -1.1831  -0.6398 C.3            1 S1                 0.0000
      9 ****         0.9760  -0.0425  -1.1153 O.3            1 S1                 0.0000
     10 ****         1.5206   0.6924  -0.0237 C.3            1 S1                 0.0000
     11 ****         2.6616   1.5940  -0.5198 C.3            1 S1                 0.0000
     12 ****         2.1392   2.7936  -1.0493 O.3            1 S1                 0.0000
     13 ****         1.9886  -0.4377   0.8952 C.3            1 S1                 0.0000
     14 ****         2.2395  -0.0057   2.2198 O.3            1 S1                 0.0000
     15 ****         0.8584  -1.4600   0.7867 C.3            1 S1                 0.0000
     16 ****        -0.1098  -1.3172   1.8153 O.3            1 S1                 0.0000
     17 ****        -1.7199   0.2197  -0.2777 N.2            1 S1                 0.0000
     18 ****         0.4871  -2.0128  -1.3285 H              1 S1                 0.0000
     19 ****         0.7395   1.2748   0.4693 H              1 S1                 0.0000
     20 ****         2.9017  -0.8771   0.4904 H              1 S1                 0.0000
     21 ****         1.2497  -2.4767   0.8310 H              1 S1                 0.0000
     22 ****        -2.6216   2.2774   0.4809 H              1 S1                 0.0000
     23 ****        -1.9538  -2.7313  -1.5179 H              1 S1                 0.0000
     24 ****         3.3153   1.8623   0.3105 H              1 S1                 0.0000
     25 ****         3.2752   1.0855  -1.2639 H              1 S1                 0.0000
     26 ****         2.8590   3.3416  -1.3211 H              1 S1                 0.0000
     27 ****         2.3743  -0.7671   2.7626 H              1 S1                 0.0000
     28 ****        -0.8553  -1.8591   1.6078 H              1 S1                 0.0000
     29 ****        -4.2635   2.9104   0.5826 LP             1 S1                 0.0000
     30 ****        -5.9886   1.4019  -0.2132 LP             1 S1                 0.0000
     31 ****        -5.5049  -0.1512  -0.8079 LP             1 S1                 0.0000
     32 ****        -4.2387  -1.5969  -1.2787 LP             1 S1                 0.0000
     33 ****         0.3227   0.5315  -1.6089 LP             1 S1                 0.0000
     34 ****         1.7137  -0.3148  -1.7330 LP             1 S1                 0.0000
     35 ****         1.6023   3.2651  -0.3496 LP             1 S1                 0.0000
     36 ****         1.5560   2.5891  -1.8354 LP             1 S1                 0.0000
     37 ****         1.4565   0.5159   2.5587 LP             1 S1                 0.0000
     38 ****         3.0567   0.5704   2.2378 LP             1 S1                 0.0000
     39 ****        -0.3959  -0.3610   1.8775 LP             1 S1                 0.0000
     40 ****         0.2826  -1.6052   2.6889 LP             1 S1                 0.0000
     41 ****        -1.2766   1.0336   0.0980 LP             1 S1                 0.0000
@<TRIPOS>BOND
    1    1    2 1     
    2    1   22 1     
    3    2    3 2     
    4    2    4 1     
    5    4   17 2     
    6    4    5 1     
    7    5    6 2     
    8    6    7 1     
    9    6   23 1     
   10    7    8 1     
   11    7   17 1     
   12    8   18 1     
   13    8   15 1     
   14    8    9 1     
   15    9   10 1     
   16   10   19 1     
   17   10   11 1     
   18   10   13 1     
   19   11   12 1     
   20   11   24 1     
   21   11   25 1     
   22   12   26 1     
   23   13   20 1     
   24   13   14 1     
   25   13   15 1     
   26   14   27 1     
   27   15   21 1     
   28   15   16 1     
   29   16   28 1     
   30    1   29 1     
   31    3   30 1     
   32    3   31 1     
   33    5   32 1     
   34    9   33 1     
   35    9   34 1     
   36   12   35 1     
   37   12   36 1     
   38   14   37 1     
   39   14   38 1     
   40   16   39 1     
   41   16   40 1     
   42   17   41 1     
@<TRIPOS>SUBSTRUCTURE
      1 S1             1
@<TRIPOS>SET
LONE_PAIRS      STATIC     ATOMS    <user>   **** ""
13 29 30 31 32 33 34 35 36 37 38 39 40 41
DONOR_HYDROGENS      STATIC     ATOMS    <user>   **** ""
4 22 26 27 28
ATOM$BLUE        STATIC     ATOMS    COLORGROUP SYSTEM
13 29 30 31 32 33 34 35 36 37 38 39 40 41
ATOM$RED        STATIC     ATOMS    COLORGROUP SYSTEM
4 22 26 27 28
