AV-unprocessed.smi:79|AV-procd|sdf|780|dock7
  -GOLD-   2262017143D 1   1.00000     0.00000
 Structure written by MMmdl.
 56 59  0  0  0  0  0  0  0  0  2 V2000
  144.6685  131.9617  151.4279 C   0  0  0  0  0  0  0  0  0  0  0  0
  146.0304  132.1565  152.1105 C   0  0  1  0  0  0  0  0  0  0  0  0
  146.8213  131.0166  151.8486 O   0  0  0  0  0  0  0  0  0  0  0  0
  146.7878  133.4009  151.6052 C   0  0  0  0  0  0  0  0  0  0  0  0
  147.5519  134.0874  152.6781 N   0  3  1  0  0  0  0  0  0  0  0  0
  146.6903  134.8494  153.6229 C   0  0  0  0  0  0  0  0  0  0  0  0
  147.5334  135.5848  154.6819 C   0  0  0  0  0  0  0  0  0  0  0  0
  148.4212  134.6574  155.3750 N   0  0  0  0  0  0  0  0  0  0  0  0
  147.8274  134.0565  156.4381 C   0  0  0  0  0  0  0  0  0  0  0  0
  146.9638  133.0226  156.2590 N   0  0  0  0  0  0  0  0  0  0  0  0
  146.3666  132.4542  157.3107 C   0  0  0  0  0  0  0  0  0  0  0  0
  146.4841  132.7628  158.6035 N   0  0  0  0  0  0  0  0  0  0  0  0
  147.3436  133.8057  158.7878 C   0  0  0  0  0  0  0  0  0  0  0  0
  148.0458  134.5065  157.7681 C   0  0  0  0  0  0  0  0  0  0  0  0
  148.8206  135.5133  158.3289 N   0  0  0  0  0  0  0  0  0  0  0  0
  148.5947  135.4095  159.6105 C   0  0  0  0  0  0  0  0  0  0  0  0
  147.7295  134.4022  159.9762 N   0  0  0  0  0  0  0  0  0  0  0  0
  147.3043  134.0603  161.3248 C   0  0  0  0  0  0  0  0  0  0  0  0
  146.6335  135.2111  162.1066 C   0  0  0  0  0  0  0  0  0  0  0  0
  145.4789  134.6768  162.9746 C   0  0  0  0  0  0  0  0  0  0  0  0
  144.5303  133.9535  162.2155 O   0  0  0  0  0  0  0  0  0  0  0  0
  147.5746  136.2250  162.7761 C   0  0  0  0  0  0  0  0  0  0  0  0
  147.3814  137.1934  161.7242 O   0  0  0  0  0  0  0  0  0  0  0  0
  146.2739  136.4160  161.2238 C   0  0  0  0  0  0  0  0  0  0  0  0
  149.2941  133.9033  154.4676 C   0  0  1  0  0  0  0  0  0  0  0  0
  150.3195  133.0047  155.1854 C   0  0  0  0  0  0  0  0  0  0  0  0
  148.4818  133.1644  153.3812 C   0  0  0  0  0  0  0  0  0  0  0  0
  144.0004  132.7985  151.6318 H   0  0  0  0  0  0  0  0  0  0  0  0
  144.1758  131.0574  151.7871 H   0  0  0  0  0  0  0  0  0  0  0  0
  144.7735  131.8752  150.3458 H   0  0  0  0  0  0  0  0  0  0  0  0
  145.8925  132.2023  153.1903 H   0  0  0  0  0  0  0  0  0  0  0  0
  147.4844  131.2434  151.2142 H   0  0  0  0  0  0  0  0  0  0  0  0
  147.4707  133.1344  150.7964 H   0  0  0  0  0  0  0  0  0  0  0  0
  146.0625  134.0926  151.1738 H   0  0  0  0  0  0  0  0  0  0  0  0
  146.0869  135.5792  153.0853 H   0  0  0  0  0  0  0  0  0  0  0  0
  145.9942  134.1648  154.1105 H   0  0  0  0  0  0  0  0  0  0  0  0
  148.1416  136.3535  154.2042 H   0  0  0  0  0  0  0  0  0  0  0  0
  146.8816  136.1058  155.3848 H   0  0  0  0  0  0  0  0  0  0  0  0
  145.6994  131.6355  157.0840 H   0  0  0  0  0  0  0  0  0  0  0  0
  149.0574  136.0719  160.3269 H   0  0  0  0  0  0  0  0  0  0  0  0
  146.6246  133.2108  161.2469 H   0  0  0  0  0  0  0  0  0  0  0  0
  148.1712  133.6886  161.8723 H   0  0  0  0  0  0  0  0  0  0  0  0
  145.8525  134.0010  163.7445 H   0  0  0  0  0  0  0  0  0  0  0  0
  144.9722  135.4869  163.4997 H   0  0  0  0  0  0  0  0  0  0  0  0
  144.8885  133.1004  162.0226 H   0  0  0  0  0  0  0  0  0  0  0  0
  147.2153  136.5975  163.7366 H   0  0  0  0  0  0  0  0  0  0  0  0
  148.6107  135.8977  162.8525 H   0  0  0  0  0  0  0  0  0  0  0  0
  146.3508  136.2223  160.1532 H   0  0  0  0  0  0  0  0  0  0  0  0
  145.3158  136.8804  161.4623 H   0  0  0  0  0  0  0  0  0  0  0  0
  149.8833  134.6631  153.9523 H   0  0  0  0  0  0  0  0  0  0  0  0
  151.0407  132.6019  154.4739 H   0  0  0  0  0  0  0  0  0  0  0  0
  149.8559  132.1553  155.6855 H   0  0  0  0  0  0  0  0  0  0  0  0
  150.8788  133.5689  155.9325 H   0  0  0  0  0  0  0  0  0  0  0  0
  147.9156  132.3365  153.8088 H   0  0  0  0  0  0  0  0  0  0  0  0
  149.1687  132.7269  152.6556 H   0  0  0  0  0  0  0  0  0  0  0  0
  148.1408  134.7659  152.2171 H   0  0  0  0  0  0  0  0  0  0  0  0
  1  2  1  0  0  0  0
  1 28  1  0  0  0  0
  1 29  1  0  0  0  0
  1 30  1  0  0  0  0
  2  3  1  0  0  0  0
  2  4  1  0  0  0  0
  2 31  1  0  0  0  0
  3 32  1  0  0  0  0
  4  5  1  0  0  0  0
  4 33  1  0  0  0  0
  4 34  1  0  0  0  0
  5 27  1  0  0  0  0
  5  6  1  0  0  0  0
  5 56  1  0  0  0  0
  6  7  1  0  0  0  0
  6 35  1  0  0  0  0
  6 36  1  0  0  0  0
  7  8  1  0  0  0  0
  7 37  1  0  0  0  0
  7 38  1  0  0  0  0
  8  9  1  0  0  0  0
  8 25  1  0  0  0  0
  9 14  1  0  0  0  0
  9 10  2  0  0  0  0
 10 11  1  0  0  0  0
 11 12  2  0  0  0  0
 11 39  1  0  0  0  0
 12 13  1  0  0  0  0
 13 17  1  0  0  0  0
 13 14  2  0  0  0  0
 14 15  1  0  0  0  0
 15 16  2  0  0  0  0
 16 17  1  0  0  0  0
 16 40  1  0  0  0  0
 17 18  1  0  0  0  0
 18 19  1  0  0  0  0
 18 41  1  0  0  0  0
 18 42  1  0  0  0  0
 19 24  1  0  0  0  0
 19 20  1  0  0  0  0
 19 22  1  0  0  0  0
 20 21  1  0  0  0  0
 20 43  1  0  0  0  0
 20 44  1  0  0  0  0
 21 45  1  0  0  0  0
 22 23  1  0  0  0  0
 22 46  1  0  0  0  0
 22 47  1  0  0  0  0
 23 24  1  0  0  0  0
 24 48  1  0  0  0  0
 24 49  1  0  0  0  0
 25 26  1  0  0  0  0
 25 27  1  0  0  0  0
 25 50  1  0  0  0  0
 26 51  1  0  0  0  0
 26 52  1  0  0  0  0
 26 53  1  0  0  0  0
 27 54  1  0  0  0  0
 27 55  1  0  0  0  0
M  CHG  1   5   1
M  END
> <s_m_source_file>
AV-unprocessed.smi

> <i_m_source_file_index>
79

> <i_lp_mmshare_version>
43012

> <i_f3d_flags>
0

> <s_epik_input>
W0NIM11bQ0BIXShbT0hdKVtDSDJdTjFbQ0gyXVtDSDJdTihbQ0BASF0oW0NIM10pW0NIMl0xKWMobltjSF1uMiljKGMyMyluW2NIXW4zW0NIMl1DNChbQ0gyXVtPSF0pW0NIMl1PW0NIMl00

> <s_epik_cmdline>
J2VwaWtfcHl0aG9uJywgJy1waCcsICc3LjAnLCAnLXRuJywgJzgnLCAnLW1hJywgJzIwMCcsICctbWV0YWxfYmluZGluZycsICctaW1hZScsICc8aW5maWxlLm1hZT4nLCAnLW9tYWUnLCAnPG91dGZpbGUubWFlPic=

> <r_lp_tautomer_probability>
1

> <r_epik_Ionization_Penalty>
0.00515943

> <r_epik_Ionization_Penalty_Charging>
0.00509693

> <r_epik_Ionization_Penalty_Neutral>
6.25007e-05

> <r_epik_State_Penalty>
-0

> <r_epik_Charging_Adjusted_Penalty>
0.00509693

> <i_epik_Tot_Q>
1

> <i_epik_Tot_abs_Q>
1

> <r_epik_Metal_State_Penalty>
-0

> <b_epik_Metal_Only>
0

> <s_lp_Force_Field>
OPLS_2005

> <r_lp_Energy>
48.5729

> <b_lp_Chiralities_Consistent>
1

> <s_lp_Variant>
AV-unprocessed.smi:79-4

> <Gold.Version>
5.8.1

> <Gold.Id.Protein>
6NUR|6NUR_protein|mol2

> <Gold.PLP.Fitness>
49.1664

> <Gold.PLP.PLP>
-37.3360

> <Gold.PLP.part.hbond>
-4.0000

> <Gold.PLP.part.metal>
0.0000

> <Gold.PLP.part.buried>
-2.8711

> <Gold.PLP.part.nonpolar>
-29.5748

> <Gold.PLP.part.repulsive>
0.0789

> <Gold.PLP.ligand.clash>
0.0000

> <Gold.PLP.ligand.torsion>
1.6167

> <Gold.PLP.Chemscore.Hbond>
4.7440

> <Gold.PLP.Chemscore.CHOScore>
0.0000

> <Gold.PLP.Chemscore.Metal>
0.0000

> <Gold.Chemscore.Hbonds>
donor molecule, donor type, donor heavy atom, donor atom, acceptor molecule, acceptor atom, score
      L1  H     3    32       P1 10747  1.00
      L1  H     5    56       P1  7948  2.00
      P1  H  6931  6943       L1    23  0.91
      P1  H  6934  6947       L1    23  0.82

> <Gold.PLP.Chemscore.Internal.Correction>
0.8318

> <Gold.Rescore>
     Score         DG    S(hbond)    S(metal)    S(lipo)     H(rot)  DE(clash)    DE(int)     intcor
     12.42     -14.20       2.67        0.00      79.60       3.72       0.13       1.65       ----

> <Gold.Chemscore.Fitness>
12.4160

> <Gold.Chemscore.DG>
-14.1961

> <Gold.Chemscore.ZeroCoef>
-5.4800

> <Gold.Chemscore.Hbond>
2.6745

> <Gold.Chemscore.Metal>
0.0000

> <Gold.Chemscore.Lipo>
79.5977

> <Gold.Chemscore.Internal_Hbond>
0.0000

> <Gold.Chemscore.DEClash>
0.1349

> <Gold.Chemscore.DEInternal>
1.6452

> <Gold.Chemscore.Rot>
3.7226

> <Gold.Chemscore.Internal.Correction>
   9.000000E+99

> <Gold.Chemscore.Hbonds>
donor molecule, donor type, donor heavy atom, donor atom, acceptor molecule, acceptor atom, score
      L1  H     3    32       P1 10747  0.95
      L1  H     5    56       P1  7948  0.35
      P1  H  6931  6943       L1    23  0.23
      P1  H  6934  6947       L1    23  0.48

> <Gold.Chemscore.Hbond.Weighted>
-8.9330

> <Gold.Chemscore.Metal.Weighted>
-0.0000

> <Gold.Chemscore.Lipo.Weighted>
-9.3129

> <Gold.Chemscore.Internal_Hbond.Weighted>
0.0000

> <Gold.Chemscore.DEClash.Weighted>
0.1349

> <Gold.Chemscore.DEInternal.Weighted>
1.6452

> <Gold.Chemscore.Rot.Weighted>
9.5298

> <Gold.Chemscore.Internal.Correction.Weighted>
   9.000000E+99

> <Gold.Protein.RotatedTorsions>
[ 6907 6896 6895 6894 ] final  136.34 input  -60.11 | X-H torsion
[ 7974 7965 7964 7962 ] final   61.70 input  175.53 | X-H torsion
[ 8008 7997 7996 7995 ] final  -93.17 input   59.86 | X-H torsion
[ 10167 10162 10161 10158 ] final -117.66 input  -65.29 | X-H torsion
[ 10718 10713 10712 10709 ] final  105.62 input   66.30 | X-H torsion
[ 10763 10752 10751 10750 ] final -143.73 input  -60.55 | X-H torsion
[ 11005 11000 10999 10996 ] final -110.66 input  -57.11 | X-H torsion

> <Gold.Protein.ActiveResidues>
 VAL166  LYS551  ARG553  GLY616  TRP617  ASP618  TYR619  PRO620  LYS621  CYS622 
 ASP623  PHE694  ASN695  SER759  ASP760  ASP761  ALA762  ILE779  LEU786  VAL792 
 PHE793  MET794  SER795  GLU796  ALA797  LYS798  CYS799  TRP800  GLU811  SER814 

> <Gold.Protein.RotatedAtoms>
  152.2904  133.5556  159.5553 H   0  0  0  0  0  0  0  0  0  0  0  0  # atno 6907 bound_to 6896
  150.7233  134.0436  159.3783 H   0  0  0  0  0  0  0  0  0  0  0  0  # atno 6908 bound_to 6896
  151.8342  135.0612  160.0491 H   0  0  0  0  0  0  0  0  0  0  0  0  # atno 6909 bound_to 6896
  145.8817  139.3448  143.0702 H   0  0  0  0  0  0  0  0  0  0  0  0  # atno 7974 bound_to 7965
  154.7323  140.0501  157.0737 H   0  0  0  0  0  0  0  0  0  0  0  0  # atno 8008 bound_to 7997
  155.0286  140.3155  155.4747 H   0  0  0  0  0  0  0  0  0  0  0  0  # atno 8009 bound_to 7997
  156.2844  140.2154  156.5407 H   0  0  0  0  0  0  0  0  0  0  0  0  # atno 8010 bound_to 7997
  140.0659  143.4923  152.2006 H   0  0  0  0  0  0  0  0  0  0  0  0  # atno 10167 bound_to 10162
  157.6699  131.0832  150.5884 H   0  0  0  0  0  0  0  0  0  0  0  0  # atno 10718 bound_to 10713
  154.8458  135.3460  154.6234 H   0  0  0  0  0  0  0  0  0  0  0  0  # atno 10763 bound_to 10752
  153.6843  135.6978  153.5113 H   0  0  0  0  0  0  0  0  0  0  0  0  # atno 10764 bound_to 10752
  153.2644  135.4312  155.0882 H   0  0  0  0  0  0  0  0  0  0  0  0  # atno 10765 bound_to 10752
  141.0779  133.9270  157.2351 H   0  0  0  0  0  0  0  0  0  0  0  0  # atno 11005 bound_to 11000
  145.9015  140.9240  143.0500 LP  0  0  0  0  0  0  0  0  0  0  0  0  # atno 17320 bound_to 7965
  144.6727  140.1039  143.7459 LP  0  0  0  0  0  0  0  0  0  0  0  0  # atno 17321 bound_to 7965
  139.5865  144.7533  151.3507 LP  0  0  0  0  0  0  0  0  0  0  0  0  # atno 17342 bound_to 10162
  140.7149  143.7292  150.7636 LP  0  0  0  0  0  0  0  0  0  0  0  0  # atno 17343 bound_to 10162
  156.6184  130.4399  149.5831 LP  0  0  0  0  0  0  0  0  0  0  0  0  # atno 17370 bound_to 10713
  156.2375  130.6831  151.1523 LP  0  0  0  0  0  0  0  0  0  0  0  0  # atno 17371 bound_to 10713
  139.9592  135.0158  156.9213 LP  0  0  0  0  0  0  0  0  0  0  0  0  # atno 17394 bound_to 11000
  140.5533  134.0606  155.7376 LP  0  0  0  0  0  0  0  0  0  0  0  0  # atno 17395 bound_to 11000

$$$$
