AV-unprocessed.smi:2741|AV-procd|sdf|10559|dock10
  -GOLD-   2272015 13D 1   1.00000     0.00000
 Structure written by MMmdl.
 39 40  0  0  0  0  0  0  0  0  1 V2000
  150.3315  136.2273  159.0294 O   0  0  0  0  0  0  0  0  0  0  0  0
  149.1965  136.3125  158.5590 C   0  0  0  0  0  0  0  0  0  0  0  0
  148.0228  136.7777  159.4312 C   0  0  0  0  0  0  0  0  0  0  0  0
  147.6654  135.8006  160.4733 N   0  0  0  0  0  0  0  0  0  0  0  0
  147.5946  134.4463  160.0912 C   0  0  0  0  0  0  0  0  0  0  0  0
  147.2942  133.4563  160.9537 C   0  0  0  0  0  0  0  0  0  0  0  0
  147.1772  132.0104  160.4971 C   0  0  0  0  0  0  0  0  0  0  0  0
  148.3493  131.5438  160.0657 F   0  0  0  0  0  0  0  0  0  0  0  0
  146.7553  131.2277  161.4911 F   0  0  0  0  0  0  0  0  0  0  0  0
  146.3001  131.9197  159.4985 F   0  0  0  0  0  0  0  0  0  0  0  0
  147.0085  133.8538  162.3185 C   0  0  0  0  0  0  0  0  0  0  0  0
  147.0648  135.1452  162.6988 C   0  0  0  0  0  0  0  0  0  0  0  0
  147.4149  136.2081  161.7541 C   0  0  0  0  0  0  0  0  0  0  0  0
  147.4784  137.3908  162.0920 O   0  0  0  0  0  0  0  0  0  0  0  0
  148.9015  136.0025  157.2879 N   0  0  0  0  0  0  0  0  0  0  0  0
  149.8683  135.5785  156.2812 C   0  0  0  0  0  0  0  0  0  0  0  0
  150.0031  136.6051  155.1389 C   0  0  1  0  0  0  0  0  0  0  0  0
  148.7842  137.5355  154.9953 C   0  0  0  0  0  0  0  0  0  0  0  0
  149.3322  138.9321  154.6608 C   0  0  0  0  0  0  0  0  0  0  0  0
  150.8256  138.7337  154.3894 C   0  0  1  0  0  0  0  0  0  0  0  0
  151.5828  139.8877  154.6877 O   0  0  0  0  0  0  0  0  0  0  0  0
  151.2072  137.5462  155.2695 C   0  0  0  0  0  0  0  0  0  0  0  0
  148.2608  137.7392  159.8907 H   0  0  0  0  0  0  0  0  0  0  0  0
  147.1734  136.9766  158.7767 H   0  0  0  0  0  0  0  0  0  0  0  0
  147.8050  134.2605  159.0480 H   0  0  0  0  0  0  0  0  0  0  0  0
  146.7491  133.1038  163.0512 H   0  0  0  0  0  0  0  0  0  0  0  0
  146.8487  135.4048  163.7249 H   0  0  0  0  0  0  0  0  0  0  0  0
  147.9416  136.0933  156.9879 H   0  0  0  0  0  0  0  0  0  0  0  0
  150.8382  135.4010  156.7487 H   0  0  0  0  0  0  0  0  0  0  0  0
  149.5373  134.6188  155.8828 H   0  0  0  0  0  0  0  0  0  0  0  0
  150.1117  136.0680  154.1951 H   0  0  0  0  0  0  0  0  0  0  0  0
  148.1193  137.1733  154.2104 H   0  0  0  0  0  0  0  0  0  0  0  0
  148.2010  137.5772  155.9159 H   0  0  0  0  0  0  0  0  0  0  0  0
  148.8185  139.3910  153.8155 H   0  0  0  0  0  0  0  0  0  0  0  0
  149.1893  139.5851  155.5232 H   0  0  0  0  0  0  0  0  0  0  0  0
  150.9744  138.4704  153.3411 H   0  0  0  0  0  0  0  0  0  0  0  0
  152.3401  139.6293  155.1904 H   0  0  0  0  0  0  0  0  0  0  0  0
  151.3209  137.8662  156.3067 H   0  0  0  0  0  0  0  0  0  0  0  0
  152.1422  137.0787  154.9580 H   0  0  0  0  0  0  0  0  0  0  0  0
  1  2  2  0  0  0  0
  2  3  1  0  0  0  0
  2 15  1  0  0  0  0
  3  4  1  0  0  0  0
  3 23  1  0  0  0  0
  3 24  1  0  0  0  0
  4 13  1  0  0  0  0
  4  5  1  0  0  0  0
  5  6  2  0  0  0  0
  5 25  1  0  0  0  0
  6  7  1  0  0  0  0
  6 11  1  0  0  0  0
  7  8  1  0  0  0  0
  7  9  1  0  0  0  0
  7 10  1  0  0  0  0
 11 12  2  0  0  0  0
 11 26  1  0  0  0  0
 12 13  1  0  0  0  0
 12 27  1  0  0  0  0
 13 14  2  0  0  0  0
 15 16  1  0  0  0  0
 15 28  1  0  0  0  0
 16 17  1  0  0  0  0
 16 29  1  0  0  0  0
 16 30  1  0  0  0  0
 17 22  1  0  0  0  0
 17 18  1  0  0  0  0
 17 31  1  0  0  0  0
 18 19  1  0  0  0  0
 18 32  1  0  0  0  0
 18 33  1  0  0  0  0
 19 20  1  0  0  0  0
 19 34  1  0  0  0  0
 19 35  1  0  0  0  0
 20 21  1  0  0  0  0
 20 22  1  0  0  0  0
 20 36  1  0  0  0  0
 21 37  1  0  0  0  0
 22 38  1  0  0  0  0
 22 39  1  0  0  0  0
M  END
> <s_m_source_file>
AV-unprocessed.smi

> <i_m_source_file_index>
2741

> <i_lp_mmshare_version>
43012

> <i_f3d_flags>
0

> <s_epik_input>
W09IXVtDQEBIXShbQ0gyXTEpW0NIMl1bQ0gyXVtDQEhdMVtDSDJdW05IXUMoPU8pW0NIMl1uMltjSF1jKEMoRikoRilGKVtjSF1bY0hdYzI9Tw==

> <s_epik_cmdline>
J2VwaWtfcHl0aG9uJywgJy1waCcsICc3LjAnLCAnLXRuJywgJzgnLCAnLW1hJywgJzIwMCcsICctbWV0YWxfYmluZGluZycsICctaW1hZScsICc8aW5maWxlLm1hZT4nLCAnLW9tYWUnLCAnPG91dGZpbGUubWFlPic=

> <r_lp_tautomer_probability>
1

> <r_epik_Ionization_Penalty>
1.17551e-06

> <r_epik_Ionization_Penalty_Charging>
1.78841e-08

> <r_epik_Ionization_Penalty_Neutral>
1.15762e-06

> <r_epik_State_Penalty>
-0

> <r_epik_Charging_Adjusted_Penalty>
1.78841e-08

> <i_epik_Tot_Q>
0

> <i_epik_Tot_abs_Q>
0

> <r_epik_Metal_State_Penalty>
-0

> <b_epik_Metal_Only>
0

> <s_lp_Force_Field>
OPLS_2005

> <r_lp_Energy>
32.8711

> <b_lp_Chiralities_Consistent>
1

> <s_lp_Variant>
AV-unprocessed.smi:2741-2

> <Gold.Version>
5.8.1

> <Gold.Id.Protein>
6NUR|6NUR_protein|mol2

> <Gold.PLP.Fitness>
46.2131

> <Gold.PLP.PLP>
-37.6728

> <Gold.PLP.part.hbond>
-3.9078

> <Gold.PLP.part.metal>
0.0000

> <Gold.PLP.part.buried>
-4.8762

> <Gold.PLP.part.nonpolar>
-29.6017

> <Gold.PLP.part.repulsive>
0.0517

> <Gold.PLP.ligand.clash>
0.0000

> <Gold.PLP.ligand.torsion>
0.8648

> <Gold.PLP.Chemscore.Hbond>
3.4080

> <Gold.PLP.Chemscore.CHOScore>
0.0000

> <Gold.PLP.Chemscore.Metal>
0.0000

> <Gold.Chemscore.Hbonds>
donor molecule, donor type, donor heavy atom, donor atom, acceptor molecule, acceptor atom, score
      P1  H  6896  6907       L1     1  1.00
      P1  H  6931  6943       L1    14  0.82
      P1  H  6934  6947       L1    14  0.61
      P1  H  7989  7998       L1    21  1.00

> <Gold.PLP.Chemscore.Internal.Correction>
0.0460

> <Gold.Rescore>
     Score         DG    S(hbond)    S(metal)    S(lipo)     H(rot)  DE(clash)    DE(int)     intcor
     17.00     -17.87       3.29        0.00      66.30       2.48       0.07       0.80       ----

> <Gold.Chemscore.Fitness>
17.0009

> <Gold.Chemscore.DG>
-17.8701

> <Gold.Chemscore.ZeroCoef>
-5.4800

> <Gold.Chemscore.Hbond>
3.2884

> <Gold.Chemscore.Metal>
0.0000

> <Gold.Chemscore.Lipo>
66.3028

> <Gold.Chemscore.Internal_Hbond>
0.0000

> <Gold.Chemscore.DEClash>
0.0672

> <Gold.Chemscore.DEInternal>
0.8021

> <Gold.Chemscore.Rot>
2.4807

> <Gold.Chemscore.Internal.Correction>
   9.000000E+99

> <Gold.Chemscore.Hbonds>
donor molecule, donor type, donor heavy atom, donor atom, acceptor molecule, acceptor atom, score
      P1  H  6896  6907       L1     1  0.95
      P1  H  6931  6943       L1    14  0.78
      P1  H  6934  6947       L1    14  0.57
      P1  H  7989  7998       L1    21  0.76

> <Gold.Chemscore.Hbond.Weighted>
-10.9833

> <Gold.Chemscore.Metal.Weighted>
-0.0000

> <Gold.Chemscore.Lipo.Weighted>
-7.7574

> <Gold.Chemscore.Internal_Hbond.Weighted>
0.0000

> <Gold.Chemscore.DEClash.Weighted>
0.0672

> <Gold.Chemscore.DEInternal.Weighted>
0.8021

> <Gold.Chemscore.Rot.Weighted>
6.3507

> <Gold.Chemscore.Internal.Correction.Weighted>
   9.000000E+99

> <Gold.Protein.RotatedTorsions>
[ 6907 6896 6895 6894 ] final  -24.79 input  -60.11 | X-H torsion
[ 7974 7965 7964 7962 ] final  108.31 input  175.53 | X-H torsion
[ 8008 7997 7996 7995 ] final   23.03 input   59.86 | X-H torsion
[ 10167 10162 10161 10158 ] final  -21.61 input  -65.29 | X-H torsion
[ 10718 10713 10712 10709 ] final   -4.75 input   66.30 | X-H torsion
[ 10763 10752 10751 10750 ] final -161.36 input  -60.55 | X-H torsion
[ 11005 11000 10999 10996 ] final  147.55 input  -57.11 | X-H torsion

> <Gold.Protein.ActiveResidues>
 VAL166  LYS551  ARG553  GLY616  TRP617  ASP618  TYR619  PRO620  LYS621  CYS622 
 ASP623  PHE694  ASN695  SER759  ASP760  ASP761  ALA762  ILE779  LEU786  VAL792 
 PHE793  MET794  SER795  GLU796  ALA797  LYS798  CYS799  TRP800  GLU811  SER814 

> <Gold.Protein.RotatedAtoms>
  151.1845  135.0375  159.8806 H   0  0  0  0  0  0  0  0  0  0  0  0  # atno 6907 bound_to 6896
  152.5443  134.1026  159.8334 H   0  0  0  0  0  0  0  0  0  0  0  0  # atno 6908 bound_to 6896
  151.1147  133.5100  159.2636 H   0  0  0  0  0  0  0  0  0  0  0  0  # atno 6909 bound_to 6896
  145.2824  139.2628  143.3908 H   0  0  0  0  0  0  0  0  0  0  0  0  # atno 7974 bound_to 7965
  154.9747  140.3094  155.4972 H   0  0  0  0  0  0  0  0  0  0  0  0  # atno 8008 bound_to 7997
  156.2961  140.2277  156.4781 H   0  0  0  0  0  0  0  0  0  0  0  0  # atno 8009 bound_to 7997
  154.7844  140.0444  157.1141 H   0  0  0  0  0  0  0  0  0  0  0  0  # atno 8010 bound_to 7997
  140.7283  143.4611  151.0378 H   0  0  0  0  0  0  0  0  0  0  0  0  # atno 10167 bound_to 10162
  156.7567  130.5256  149.5793 H   0  0  0  0  0  0  0  0  0  0  0  0  # atno 10718 bound_to 10713
  154.7310  135.3046  154.8891 H   0  0  0  0  0  0  0  0  0  0  0  0  # atno 10763 bound_to 10752
  153.9734  135.6739  153.4752 H   0  0  0  0  0  0  0  0  0  0  0  0  # atno 10764 bound_to 10752
  153.0918  135.4955  154.8625 H   0  0  0  0  0  0  0  0  0  0  0  0  # atno 10765 bound_to 10752
  140.0885  134.9055  157.1614 H   0  0  0  0  0  0  0  0  0  0  0  0  # atno 11005 bound_to 11000
  146.3212  140.3294  142.8639 LP  0  0  0  0  0  0  0  0  0  0  0  0  # atno 17320 bound_to 7965
  144.9242  140.7902  143.5729 LP  0  0  0  0  0  0  0  0  0  0  0  0  # atno 17321 bound_to 7965
  139.8296  143.7709  152.3179 LP  0  0  0  0  0  0  0  0  0  0  0  0  # atno 17342 bound_to 10162
  139.7820  144.7441  151.0075 LP  0  0  0  0  0  0  0  0  0  0  0  0  # atno 17343 bound_to 10162
  156.1366  130.6215  151.0408 LP  0  0  0  0  0  0  0  0  0  0  0  0  # atno 17370 bound_to 10713
  157.6753  131.0852  150.7510 LP  0  0  0  0  0  0  0  0  0  0  0  0  # atno 17371 bound_to 10713
  140.3385  134.2730  155.7216 LP  0  0  0  0  0  0  0  0  0  0  0  0  # atno 17394 bound_to 11000
  141.2070  133.7817  157.0142 LP  0  0  0  0  0  0  0  0  0  0  0  0  # atno 17395 bound_to 11000

$$$$
