AV-unprocessed.smi:387|AV-procd|sdf|2474|dock4
  -GOLD-   2262022413D 1   1.00000     0.00000
 Structure written by MMmdl.
 39 40  0  0  0  0  0  0  0  0  1 V2000
  147.0125  140.9048  153.2230 C   0  0  0  0  0  0  0  0  0  0  0  0
  146.8043  141.8436  154.4246 C   0  0  0  0  0  0  0  0  0  0  0  0
  146.0503  143.1042  153.9511 C   0  0  0  0  0  0  0  0  0  0  0  0
  145.9936  141.0999  155.5071 C   0  0  0  0  0  0  0  0  0  0  0  0
  148.1383  142.1964  154.9250 N   0  0  0  0  0  0  0  0  0  0  0  0
  149.0899  141.3832  155.4163 C   0  0  0  0  0  0  0  0  0  0  0  0
  148.9629  140.1620  155.5149 O   0  0  0  0  0  0  0  0  0  0  0  0
  150.3837  142.0802  155.8649 C   0  0  0  0  0  0  0  0  0  0  0  0
  151.2534  141.2302  156.7074 N   0  0  0  0  0  0  0  0  0  0  0  0
  151.7021  139.9900  156.1857 C   0  0  0  0  0  0  0  0  0  0  0  0
  151.4015  139.6351  155.0444 O   0  0  0  0  0  0  0  0  0  0  0  0
  152.5139  139.1827  157.0932 C   0  0  0  0  0  0  0  0  0  0  0  0
  152.9562  137.9141  156.6168 C   0  0  0  0  0  0  0  0  0  0  0  0
  153.3340  136.8956  156.2178 N   0  0  0  0  0  0  0  0  0  0  0  0
  152.8211  139.6243  158.3302 C   0  0  0  0  0  0  0  0  0  0  0  0
  152.4076  140.8503  158.8038 N   0  0  0  0  0  0  0  0  0  0  0  0
  152.6104  141.2307  160.1733 C   0  0  0  0  0  0  0  0  0  0  0  0
  153.0688  142.6342  160.5187 C   0  0  0  0  0  0  0  0  0  0  0  0
  154.0203  141.4721  160.6666 C   0  0  0  0  0  0  0  0  0  0  0  0
  151.5640  141.6662  158.0185 C   0  0  0  0  0  0  0  0  0  0  0  0
  151.1010  142.7199  158.4625 O   0  0  0  0  0  0  0  0  0  0  0  0
  146.0601  140.5966  152.7900 H   0  0  0  0  0  0  0  0  0  0  0  0
  147.5479  139.9999  153.5133 H   0  0  0  0  0  0  0  0  0  0  0  0
  147.5893  141.3890  152.4339 H   0  0  0  0  0  0  0  0  0  0  0  0
  146.6273  143.6569  153.2089 H   0  0  0  0  0  0  0  0  0  0  0  0
  145.8322  143.7858  154.7732 H   0  0  0  0  0  0  0  0  0  0  0  0
  145.0960  142.8414  153.4936 H   0  0  0  0  0  0  0  0  0  0  0  0
  145.0388  140.7514  155.1117 H   0  0  0  0  0  0  0  0  0  0  0  0
  145.7697  141.7361  156.3633 H   0  0  0  0  0  0  0  0  0  0  0  0
  146.5325  140.2268  155.8769 H   0  0  0  0  0  0  0  0  0  0  0  0
  148.3631  143.1802  154.8951 H   0  0  0  0  0  0  0  0  0  0  0  0
  150.9169  142.4248  154.9773 H   0  0  0  0  0  0  0  0  0  0  0  0
  150.1168  143.0013  156.3857 H   0  0  0  0  0  0  0  0  0  0  0  0
  153.4184  138.9963  158.9756 H   0  0  0  0  0  0  0  0  0  0  0  0
  151.9329  140.7659  160.8876 H   0  0  0  0  0  0  0  0  0  0  0  0
  153.2587  143.3302  159.7036 H   0  0  0  0  0  0  0  0  0  0  0  0
  152.6728  143.0802  161.4286 H   0  0  0  0  0  0  0  0  0  0  0  0
  154.2611  141.1451  161.6761 H   0  0  0  0  0  0  0  0  0  0  0  0
  154.8349  141.4020  159.9481 H   0  0  0  0  0  0  0  0  0  0  0  0
  1  2  1  0  0  0  0
  1 22  1  0  0  0  0
  1 23  1  0  0  0  0
  1 24  1  0  0  0  0
  2  3  1  0  0  0  0
  2  4  1  0  0  0  0
  2  5  1  0  0  0  0
  3 25  1  0  0  0  0
  3 26  1  0  0  0  0
  3 27  1  0  0  0  0
  4 28  1  0  0  0  0
  4 29  1  0  0  0  0
  4 30  1  0  0  0  0
  5  6  1  0  0  0  0
  5 31  1  0  0  0  0
  6  7  2  0  0  0  0
  6  8  1  0  0  0  0
  8  9  1  0  0  0  0
  8 32  1  0  0  0  0
  8 33  1  0  0  0  0
  9 20  1  0  0  0  0
  9 10  1  0  0  0  0
 10 11  2  0  0  0  0
 10 12  1  0  0  0  0
 12 13  1  0  0  0  0
 12 15  2  0  0  0  0
 13 14  3  0  0  0  0
 15 16  1  0  0  0  0
 15 34  1  0  0  0  0
 16 17  1  0  0  0  0
 16 20  1  0  0  0  0
 17 19  1  0  0  0  0
 17 18  1  0  0  0  0
 17 35  1  0  0  0  0
 18 19  1  0  0  0  0
 18 36  1  0  0  0  0
 18 37  1  0  0  0  0
 19 38  1  0  0  0  0
 19 39  1  0  0  0  0
 20 21  2  0  0  0  0
M  END
> <s_m_source_file>
AV-unprocessed.smi

> <i_m_source_file_index>
387

> <i_lp_mmshare_version>
43012

> <i_f3d_flags>
0

> <s_epik_input>
W0NIM11DKFtDSDNdKShbQ0gzXSlbTkhdQyg9TylbQ0gyXW4xYyg9TyljKEMjTilbY0hdbihjMT1PKVtDSF0yW0NIMl1bQ0gyXTI=

> <s_epik_cmdline>
J2VwaWtfcHl0aG9uJywgJy1waCcsICc3LjAnLCAnLXRuJywgJzgnLCAnLW1hJywgJzIwMCcsICctbWV0YWxfYmluZGluZycsICctaW1hZScsICc8aW5maWxlLm1hZT4nLCAnLW9tYWUnLCAnPG91dGZpbGUubWFlPic=

> <r_lp_tautomer_probability>
1

> <r_epik_Ionization_Penalty>
2.47136e-08

> <r_epik_Ionization_Penalty_Charging>
8.30431e-11

> <r_epik_Ionization_Penalty_Neutral>
2.46306e-08

> <r_epik_State_Penalty>
-0

> <r_epik_Charging_Adjusted_Penalty>
8.30431e-11

> <i_epik_Tot_Q>
0

> <i_epik_Tot_abs_Q>
0

> <r_epik_Metal_State_Penalty>
-0

> <b_epik_Metal_Only>
0

> <s_lp_Force_Field>
OPLS_2005

> <r_lp_Energy>
29.2267

> <b_lp_Chiralities_Consistent>
1

> <s_lp_Variant>
AV-unprocessed.smi:387-1

> <Gold.Version>
5.8.1

> <Gold.Id.Protein>
6NUR|6NUR_protein|mol2

> <Gold.PLP.Fitness>
47.8692

> <Gold.PLP.PLP>
-40.1725

> <Gold.PLP.part.hbond>
-3.0000

> <Gold.PLP.part.metal>
0.0000

> <Gold.PLP.part.buried>
-4.4815

> <Gold.PLP.part.nonpolar>
-32.0533

> <Gold.PLP.part.repulsive>
0.3293

> <Gold.PLP.ligand.clash>
0.0000

> <Gold.PLP.ligand.torsion>
0.3750

> <Gold.PLP.Chemscore.Hbond>
2.7440

> <Gold.PLP.Chemscore.CHOScore>
0.0000

> <Gold.PLP.Chemscore.Metal>
0.0000

> <Gold.Chemscore.Hbonds>
donor molecule, donor type, donor heavy atom, donor atom, acceptor molecule, acceptor atom, score
      L1  H     5    31       P1  8028  1.00
      P1  H  7989  7998       L1    11  1.00
      P1  H 10752 10765       L1    14  0.67

> <Gold.PLP.Chemscore.Internal.Correction>
0.2148

> <Gold.Rescore>
     Score         DG    S(hbond)    S(metal)    S(lipo)     H(rot)  DE(clash)    DE(int)     intcor
     12.18     -18.29       2.59        0.00      74.37       1.78       0.17       5.94       ----

> <Gold.Chemscore.Fitness>
12.1759

> <Gold.Chemscore.DG>
-18.2895

> <Gold.Chemscore.ZeroCoef>
-5.4800

> <Gold.Chemscore.Hbond>
2.5911

> <Gold.Chemscore.Metal>
0.0000

> <Gold.Chemscore.Lipo>
74.3681

> <Gold.Chemscore.Internal_Hbond>
0.0000

> <Gold.Chemscore.DEClash>
0.1704

> <Gold.Chemscore.DEInternal>
5.9432

> <Gold.Chemscore.Rot>
1.7757

> <Gold.Chemscore.Internal.Correction>
   9.000000E+99

> <Gold.Chemscore.Hbonds>
donor molecule, donor type, donor heavy atom, donor atom, acceptor molecule, acceptor atom, score
      L1  H     5    31       P1  8028  0.97
      P1  H  7989  7998       L1    11  0.96
      P1  H 10752 10765       L1    14  0.66

> <Gold.Chemscore.Hbond.Weighted>
-8.6543

> <Gold.Chemscore.Metal.Weighted>
-0.0000

> <Gold.Chemscore.Lipo.Weighted>
-8.7011

> <Gold.Chemscore.Internal_Hbond.Weighted>
0.0000

> <Gold.Chemscore.DEClash.Weighted>
0.1704

> <Gold.Chemscore.DEInternal.Weighted>
5.9432

> <Gold.Chemscore.Rot.Weighted>
4.5459

> <Gold.Chemscore.Internal.Correction.Weighted>
   9.000000E+99

> <Gold.Protein.RotatedTorsions>
[ 6907 6896 6895 6894 ] final  -54.55 input  -60.11 | X-H torsion
[ 7974 7965 7964 7962 ] final  160.30 input  175.53 | X-H torsion
[ 8008 7997 7996 7995 ] final  108.37 input   59.86 | X-H torsion
[ 10167 10162 10161 10158 ] final  152.47 input  -65.29 | X-H torsion
[ 10718 10713 10712 10709 ] final -145.51 input   66.30 | X-H torsion
[ 10763 10752 10751 10750 ] final -128.63 input  -60.55 | X-H torsion
[ 11005 11000 10999 10996 ] final  -92.32 input  -57.11 | X-H torsion

> <Gold.Protein.ActiveResidues>
 VAL166  LYS551  ARG553  GLY616  TRP617  ASP618  TYR619  PRO620  LYS621  CYS622 
 ASP623  PHE694  ASN695  SER759  ASP760  ASP761  ALA762  ILE779  LEU786  VAL792 
 PHE793  MET794  SER795  GLU796  ALA797  LYS798  CYS799  TRP800  GLU811  SER814 

> <Gold.Protein.RotatedAtoms>
  150.8328  134.7589  159.6867 H   0  0  0  0  0  0  0  0  0  0  0  0  # atno 6907 bound_to 6896
  152.4430  134.5549  159.9887 H   0  0  0  0  0  0  0  0  0  0  0  0  # atno 6908 bound_to 6896
  151.5705  133.3353  159.3024 H   0  0  0  0  0  0  0  0  0  0  0  0  # atno 6909 bound_to 6896
  144.7744  139.7737  143.6284 H   0  0  0  0  0  0  0  0  0  0  0  0  # atno 7974 bound_to 7965
  156.1898  140.3077  155.9309 H   0  0  0  0  0  0  0  0  0  0  0  0  # atno 8008 bound_to 7997
  155.3200  140.0455  157.3056 H   0  0  0  0  0  0  0  0  0  0  0  0  # atno 8009 bound_to 7997
  154.5438  140.2270  155.8606 H   0  0  0  0  0  0  0  0  0  0  0  0  # atno 8010 bound_to 7997
  139.4833  144.5355  151.7652 H   0  0  0  0  0  0  0  0  0  0  0  0  # atno 10167 bound_to 10162
  156.3834  130.7848  151.2043 H   0  0  0  0  0  0  0  0  0  0  0  0  # atno 10718 bound_to 10713
  154.8756  135.3922  154.3788 H   0  0  0  0  0  0  0  0  0  0  0  0  # atno 10763 bound_to 10752
  153.4538  135.7028  153.6097 H   0  0  0  0  0  0  0  0  0  0  0  0  # atno 10764 bound_to 10752
  153.4626  135.3808  155.2315 H   0  0  0  0  0  0  0  0  0  0  0  0  # atno 10765 bound_to 10752
  141.1524  133.7813  157.0004 H   0  0  0  0  0  0  0  0  0  0  0  0  # atno 11005 bound_to 11000
  146.1914  139.5156  142.9803 LP  0  0  0  0  0  0  0  0  0  0  0  0  # atno 17320 bound_to 7965
  145.6228  141.0319  143.1905 LP  0  0  0  0  0  0  0  0  0  0  0  0  # atno 17321 bound_to 7965
  140.4887  144.1342  150.5946 LP  0  0  0  0  0  0  0  0  0  0  0  0  # atno 17342 bound_to 10162
  140.4195  143.2618  151.9733 LP  0  0  0  0  0  0  0  0  0  0  0  0  # atno 17343 bound_to 10162
  157.7494  131.0337  150.4285 LP  0  0  0  0  0  0  0  0  0  0  0  0  # atno 17370 bound_to 10713
  156.4533  130.4016  149.6622 LP  0  0  0  0  0  0  0  0  0  0  0  0  # atno 17371 bound_to 10713
  140.0944  134.9573  157.1826 LP  0  0  0  0  0  0  0  0  0  0  0  0  # atno 17394 bound_to 11000
  140.3402  134.2712  155.7213 LP  0  0  0  0  0  0  0  0  0  0  0  0  # atno 17395 bound_to 11000

$$$$
