#       Name:                AV-unprocessed.smi:34
#       Creating user name   scv26
#       Creation time:       Thu Mar 26 15:52:47 2020


#       File generated by GOLD software.
#

@<TRIPOS>MOLECULE
AV-unprocessed.smi:34
    66    70     1
SMALL
NO_CHARGES


@<TRIPOS>ATOM
      1 ****        -4.2912   1.3813  -0.0970 O.2            1 S1                 0.0000
      2 ****        -4.4645   0.2086   0.2365 C.2            1 S1                 0.0000
      3 ****        -3.3570  -0.6810   0.5394 N.am           1 S1                 0.0000
      4 ****        -2.0306  -0.4312   0.4344 C.ar           1 S1                 0.0000
      5 ****        -1.5459   0.7446  -0.0443 N.ar           1 S1                 0.0000
      6 ****        -0.2277   0.9426  -0.1302 C.ar           1 S1                 0.0000
      7 ****         0.7614   0.1110   0.2006 N.ar           1 S1                 0.0000
      8 ****         0.2869  -1.0743   0.6795 C.ar           1 S1                 0.0000
      9 ****        -1.0869  -1.4172   0.8246 C.ar           1 S1                 0.0000
     10 ****        -1.1994  -2.7010   1.3414 N.2            1 S1                 0.0000
     11 ****         0.0377  -3.0901   1.4920 C.2            1 S1                 0.0000
     12 ****         0.9975  -2.1741   1.1223 N.pl3          1 S1                 0.0000
     13 ****         2.4844  -2.3496   1.1970 C.3            1 S1                 0.0000
     14 ****         3.1139  -1.5592   0.2300 O.3            1 S1                 0.0000
     15 ****         4.2624  -0.8983   0.7714 C.3            1 S1                 0.0000
     16 ****         3.9823   0.6118   0.8420 C.3            1 S1                 0.0000
     17 ****         3.9214   1.1343  -0.4755 O.3            1 S1                 0.0000
     18 ****         3.3539   2.3354  -0.7033 C.2            1 S1                 0.0000
     19 ****         2.8934   3.0540   0.1863 O.2            1 S1                 0.0000
     20 ****         3.3296   2.7005  -2.1488 C.ar           1 S1                 0.0000
     21 ****         2.7249   3.9159  -2.5460 C.ar           1 S1                 0.0000
     22 ****         2.6844   4.2868  -3.9042 C.ar           1 S1                 0.0000
     23 ****         3.2483   3.4467  -4.8817 C.ar           1 S1                 0.0000
     24 ****         3.8517   2.2344  -4.4996 C.ar           1 S1                 0.0000
     25 ****         3.8929   1.8615  -3.1419 C.ar           1 S1                 0.0000
     26 ****         4.4640  -1.5537   2.1417 C.3            1 S1                 0.0000
     27 ****         5.0999  -0.8017   3.0422 F              1 S1                 0.0000
     28 ****         3.0658  -1.9627   2.5629 C.3            1 S1                 0.0000
     29 ****         2.3572  -0.9132   3.1998 O.3            1 S1                 0.0000
     30 ****        -5.8398  -0.3583   0.4393 C.ar           1 S1                 0.0000
     31 ****        -6.9100   0.4930   0.7961 C.ar           1 S1                 0.0000
     32 ****        -8.2071  -0.0272   0.9716 C.ar           1 S1                 0.0000
     33 ****        -8.4468  -1.4015   0.7844 C.ar           1 S1                 0.0000
     34 ****        -7.3892  -2.2548   0.4176 C.ar           1 S1                 0.0000
     35 ****        -6.0915  -1.7359   0.2418 C.ar           1 S1                 0.0000
     36 ****        -3.6084  -1.6060   0.8559 H              1 S1                 0.0000
     37 ****         0.0784   1.9034  -0.5176 H              1 S1                 0.0000
     38 ****         0.2875  -4.0649   1.8850 H              1 S1                 0.0000
     39 ****         2.6529  -3.3999   0.9547 H              1 S1                 0.0000
     40 ****         5.1319  -1.0779   0.1380 H              1 S1                 0.0000
     41 ****         3.0559   0.8048   1.3828 H              1 S1                 0.0000
     42 ****         4.7830   1.1214   1.3787 H              1 S1                 0.0000
     43 ****         2.2844   4.5767  -1.8132 H              1 S1                 0.0000
     44 ****         2.2198   5.2173  -4.1954 H              1 S1                 0.0000
     45 ****         3.2175   3.7311  -5.9232 H              1 S1                 0.0000
     46 ****         4.2843   1.5882  -5.2492 H              1 S1                 0.0000
     47 ****         4.3634   0.9243  -2.8830 H              1 S1                 0.0000
     48 ****         5.0697  -2.4522   2.0149 H              1 S1                 0.0000
     49 ****         3.0706  -2.8310   3.2223 H              1 S1                 0.0000
     50 ****         1.4550  -1.1768   3.2980 H              1 S1                 0.0000
     51 ****        -6.7430   1.5507   0.9418 H              1 S1                 0.0000
     52 ****        -9.0188   0.6293   1.2486 H              1 S1                 0.0000
     53 ****        -9.4418  -1.7998   0.9182 H              1 S1                 0.0000
     54 ****        -7.5737  -3.3085   0.2677 H              1 S1                 0.0000
     55 ****        -5.2965  -2.4069  -0.0497 H              1 S1                 0.0000
     56 ****        -3.3641   1.7495  -0.1665 LP             1 S1                 0.0000
     57 ****        -5.0776   1.9653  -0.2982 LP             1 S1                 0.0000
     58 ****        -2.1779   1.4637  -0.3331 LP             1 S1                 0.0000
     59 ****         1.7328   0.3301   0.1086 LP             1 S1                 0.0000
     60 ****        -2.0346  -3.2098   1.5500 LP             1 S1                 0.0000
     61 ****         2.4675  -0.8718  -0.1010 LP             1 S1                 0.0000
     62 ****         3.4006  -2.1410  -0.5311 LP             1 S1                 0.0000
     63 ****         2.9292   2.7544   1.1398 LP             1 S1                 0.0000
     64 ****         2.4841   3.9364  -0.0455 LP             1 S1                 0.0000
     65 ****         2.4078  -0.0849   2.6419 LP             1 S1                 0.0000
     66 ****         2.7561  -0.7341   4.0992 LP             1 S1                 0.0000
@<TRIPOS>BOND
    1    1    2 2     
    2    2    3 am    
    3    2   30 1     
    4    3    4 1     
    5    3   36 1     
    6    4    9 ar    
    7    4    5 ar    
    8    5    6 ar    
    9    6    7 ar    
   10    6   37 1     
   11    7    8 ar    
   12    8   12 1     
   13    8    9 ar    
   14    9   10 1     
   15   10   11 2     
   16   11   12 1     
   17   11   38 1     
   18   12   13 1     
   19   13   28 1     
   20   13   14 1     
   21   13   39 1     
   22   14   15 1     
   23   15   16 1     
   24   15   26 1     
   25   15   40 1     
   26   16   17 1     
   27   16   41 1     
   28   16   42 1     
   29   17   18 1     
   30   18   19 2     
   31   18   20 1     
   32   20   25 ar    
   33   20   21 ar    
   34   21   22 ar    
   35   21   43 1     
   36   22   23 ar    
   37   22   44 1     
   38   23   24 ar    
   39   23   45 1     
   40   24   25 ar    
   41   24   46 1     
   42   25   47 1     
   43   26   27 1     
   44   26   28 1     
   45   26   48 1     
   46   28   29 1     
   47   28   49 1     
   48   29   50 1     
   49   30   35 ar    
   50   30   31 ar    
   51   31   32 ar    
   52   31   51 1     
   53   32   33 ar    
   54   32   52 1     
   55   33   34 ar    
   56   33   53 1     
   57   34   35 ar    
   58   34   54 1     
   59   35   55 1     
   60    1   56 1     
   61    1   57 1     
   62    5   58 1     
   63    7   59 1     
   64   10   60 1     
   65   14   61 1     
   66   14   62 1     
   67   19   63 1     
   68   19   64 1     
   69   29   65 1     
   70   29   66 1     
@<TRIPOS>SUBSTRUCTURE
      1 S1             1
@<TRIPOS>SET
LONE_PAIRS      STATIC     ATOMS    <user>   **** ""
11 56 57 58 59 60 61 62 63 64 65 66
DONOR_HYDROGENS      STATIC     ATOMS    <user>   **** ""
2 36 50
ATOM$BLUE        STATIC     ATOMS    COLORGROUP SYSTEM
11 56 57 58 59 60 61 62 63 64 65 66
ATOM$RED        STATIC     ATOMS    COLORGROUP SYSTEM
2 36 50
