AV-unprocessed.smi:1232|AV-procd|sdf|5167|dock4
  -GOLD-   22720 4243D 1   1.00000     0.00000
 Structure written by MMmdl.
 53 54  0  0  0  0  0  0  0  0  1 V2000
  145.8923  137.1543  152.9218 C   0  0  0  0  0  0  0  0  0  0  0  0
  146.4792  136.6471  154.2343 C   0  0  0  0  0  0  0  0  0  0  0  0
  145.9074  136.8821  155.2985 O   0  0  0  0  0  0  0  0  0  0  0  0
  147.6269  135.9554  154.1443 N   0  0  0  0  0  0  0  0  0  0  0  0
  148.3790  135.4041  155.2738 C   0  0  2  0  0  0  0  0  0  0  0  0
  149.7178  136.1579  155.3788 C   0  0  0  0  0  0  0  0  0  0  0  0
  150.4381  136.0180  156.3687 O   0  0  0  0  0  0  0  0  0  0  0  0
  150.0360  136.9505  154.3436 N   0  0  0  0  0  0  0  0  0  0  0  0
  151.2841  137.6955  154.2169 C   0  0  0  0  0  0  0  0  0  0  0  0
  151.4242  138.8471  155.2035 C   0  0  0  0  0  0  0  0  0  0  0  0
  150.5174  139.9279  155.2275 C   0  0  0  0  0  0  0  0  0  0  0  0
  150.7150  140.9657  156.1573 C   0  0  0  0  0  0  0  0  0  0  0  0
  151.8124  140.8953  157.0472 C   0  0  0  0  0  0  0  0  0  0  0  0
  152.0335  141.9322  157.9784 N   0  0  0  0  0  0  0  0  0  0  0  0
  151.1770  143.1136  157.9058 C   0  0  0  0  0  0  0  0  0  0  0  0
  151.7423  144.2354  158.7919 C   0  0  0  0  0  0  0  0  0  0  0  0
  151.9104  143.7567  160.1225 O   0  0  0  0  0  0  0  0  0  0  0  0
  152.8320  142.6716  160.1908 C   0  0  1  0  0  0  0  0  0  0  0  0
  153.0141  142.2865  161.6627 C   0  0  0  0  0  0  0  0  0  0  0  0
  152.2992  141.4973  159.3470 C   0  0  0  0  0  0  0  0  0  0  0  0
  152.6697  139.8446  157.0361 N   0  0  0  0  0  0  0  0  0  0  0  0
  152.4778  138.8545  156.1391 C   0  0  0  0  0  0  0  0  0  0  0  0
  148.6280  133.8877  155.0236 C   0  0  0  0  0  0  0  0  0  0  0  0
  149.3676  133.2275  156.2039 C   0  0  0  0  0  0  0  0  0  0  0  0
  149.4070  133.6086  153.7212 C   0  0  0  0  0  0  0  0  0  0  0  0
  146.4845  137.9869  152.5413 H   0  0  0  0  0  0  0  0  0  0  0  0
  144.8675  137.4994  153.0635 H   0  0  0  0  0  0  0  0  0  0  0  0
  145.8849  136.3634  152.1713 H   0  0  0  0  0  0  0  0  0  0  0  0
  148.0247  135.8176  153.2268 H   0  0  0  0  0  0  0  0  0  0  0  0
  147.8042  135.5313  156.1940 H   0  0  0  0  0  0  0  0  0  0  0  0
  149.3854  137.0122  153.5738 H   0  0  0  0  0  0  0  0  0  0  0  0
  152.1113  137.0042  154.3782 H   0  0  0  0  0  0  0  0  0  0  0  0
  151.3852  138.0673  153.1957 H   0  0  0  0  0  0  0  0  0  0  0  0
  149.6807  139.9702  154.5463 H   0  0  0  0  0  0  0  0  0  0  0  0
  150.0212  141.7927  156.1852 H   0  0  0  0  0  0  0  0  0  0  0  0
  151.1058  143.4655  156.8759 H   0  0  0  0  0  0  0  0  0  0  0  0
  150.1700  142.8509  158.2329 H   0  0  0  0  0  0  0  0  0  0  0  0
  152.6945  144.5978  158.4009 H   0  0  0  0  0  0  0  0  0  0  0  0
  151.0594  145.0848  158.8032 H   0  0  0  0  0  0  0  0  0  0  0  0
  153.7963  142.9972  159.7964 H   0  0  0  0  0  0  0  0  0  0  0  0
  153.7215  141.4639  161.7682 H   0  0  0  0  0  0  0  0  0  0  0  0
  152.0693  141.9757  162.1097 H   0  0  0  0  0  0  0  0  0  0  0  0
  153.3953  143.1286  162.2407 H   0  0  0  0  0  0  0  0  0  0  0  0
  151.3724  141.1151  159.7772 H   0  0  0  0  0  0  0  0  0  0  0  0
  153.0203  140.6814  159.3750 H   0  0  0  0  0  0  0  0  0  0  0  0
  153.1932  138.0457  156.1673 H   0  0  0  0  0  0  0  0  0  0  0  0
  147.6612  133.3885  154.9344 H   0  0  0  0  0  0  0  0  0  0  0  0
  150.3401  133.6926  156.3693 H   0  0  0  0  0  0  0  0  0  0  0  0
  149.5362  132.1663  156.0176 H   0  0  0  0  0  0  0  0  0  0  0  0
  148.8024  133.2994  157.1331 H   0  0  0  0  0  0  0  0  0  0  0  0
  150.3704  134.1194  153.7202 H   0  0  0  0  0  0  0  0  0  0  0  0
  148.8580  133.9290  152.8356 H   0  0  0  0  0  0  0  0  0  0  0  0
  149.5988  132.5420  153.6009 H   0  0  0  0  0  0  0  0  0  0  0  0
  1  2  1  0  0  0  0
  1 26  1  0  0  0  0
  1 27  1  0  0  0  0
  1 28  1  0  0  0  0
  2  3  2  0  0  0  0
  2  4  1  0  0  0  0
  4  5  1  0  0  0  0
  4 29  1  0  0  0  0
  5  6  1  0  0  0  0
  5 23  1  0  0  0  0
  5 30  1  0  0  0  0
  6  7  2  0  0  0  0
  6  8  1  0  0  0  0
  8  9  1  0  0  0  0
  8 31  1  0  0  0  0
  9 10  1  0  0  0  0
  9 32  1  0  0  0  0
  9 33  1  0  0  0  0
 10 22  1  0  0  0  0
 10 11  2  0  0  0  0
 11 12  1  0  0  0  0
 11 34  1  0  0  0  0
 12 13  2  0  0  0  0
 12 35  1  0  0  0  0
 13 14  1  0  0  0  0
 13 21  1  0  0  0  0
 14 20  1  0  0  0  0
 14 15  1  0  0  0  0
 15 16  1  0  0  0  0
 15 36  1  0  0  0  0
 15 37  1  0  0  0  0
 16 17  1  0  0  0  0
 16 38  1  0  0  0  0
 16 39  1  0  0  0  0
 17 18  1  0  0  0  0
 18 19  1  0  0  0  0
 18 20  1  0  0  0  0
 18 40  1  0  0  0  0
 19 41  1  0  0  0  0
 19 42  1  0  0  0  0
 19 43  1  0  0  0  0
 20 44  1  0  0  0  0
 20 45  1  0  0  0  0
 21 22  2  0  0  0  0
 22 46  1  0  0  0  0
 23 24  1  0  0  0  0
 23 25  1  0  0  0  0
 23 47  1  0  0  0  0
 24 48  1  0  0  0  0
 24 49  1  0  0  0  0
 24 50  1  0  0  0  0
 25 51  1  0  0  0  0
 25 52  1  0  0  0  0
 25 53  1  0  0  0  0
M  END
> <s_m_source_file>
AV-unprocessed.smi

> <i_m_source_file_index>
1232

> <i_lp_mmshare_version>
43012

> <i_f3d_flags>
0

> <s_epik_input>
W0NIM11DKD1PKVtOSF1bQ0BASF0oW0NIXShbQ0gzXSlbQ0gzXSlDKD1PKVtOSF1bQ0gyXWMxW2NIXVtjSF1jKG5bY0hdMSlOMltDSDJdW0NIMl1PW0NAQEhdKFtDSDNdKVtDSDJdMg==

> <s_epik_cmdline>
J2VwaWtfcHl0aG9uJywgJy1waCcsICc3LjAnLCAnLXRuJywgJzgnLCAnLW1hJywgJzIwMCcsICctbWV0YWxfYmluZGluZycsICctaW1hZScsICc8aW5maWxlLm1hZT4nLCAnLW9tYWUnLCAnPG91dGZpbGUubWFlPic=

> <r_lp_tautomer_probability>
1

> <r_epik_Ionization_Penalty>
0.00557618

> <r_epik_Ionization_Penalty_Charging>
0

> <r_epik_Ionization_Penalty_Neutral>
0.00557618

> <r_epik_State_Penalty>
0.00408363

> <r_epik_Charging_Adjusted_Penalty>
0.00408363

> <i_epik_Tot_Q>
0

> <i_epik_Tot_abs_Q>
0

> <r_epik_Metal_State_Penalty>
-0

> <b_epik_Metal_Only>
0

> <s_lp_Force_Field>
OPLS_2005

> <r_lp_Energy>
17.3881

> <b_lp_Chiralities_Consistent>
1

> <s_lp_Variant>
AV-unprocessed.smi:1232-1

> <Gold.Version>
5.8.1

> <Gold.Id.Protein>
6NUR|6NUR_protein|mol2

> <Gold.PLP.Fitness>
50.9098

> <Gold.PLP.PLP>
-42.8782

> <Gold.PLP.part.hbond>
-3.3979

> <Gold.PLP.part.metal>
0.0000

> <Gold.PLP.part.buried>
-4.0433

> <Gold.PLP.part.nonpolar>
-36.1857

> <Gold.PLP.part.repulsive>
0.1239

> <Gold.PLP.ligand.clash>
0.0000

> <Gold.PLP.ligand.torsion>
0.5071

> <Gold.PLP.Chemscore.Hbond>
2.8960

> <Gold.PLP.Chemscore.CHOScore>
0.0000

> <Gold.PLP.Chemscore.Metal>
0.0000

> <Gold.Chemscore.Hbonds>
donor molecule, donor type, donor heavy atom, donor atom, acceptor molecule, acceptor atom, score
      L1  H     4    29       P1  7948  1.00
      L1  H     8    31       P1  7948  0.83
      P1  H  7997  8010       L1    21  0.98

> <Gold.PLP.Chemscore.Internal.Correction>
0.3578

> <Gold.Rescore>
     Score         DG    S(hbond)    S(metal)    S(lipo)     H(rot)  DE(clash)    DE(int)     intcor
     19.64     -20.46       2.22        0.00     111.39       2.13       0.19       0.63       ----

> <Gold.Chemscore.Fitness>
19.6404

> <Gold.Chemscore.DG>
-20.4631

> <Gold.Chemscore.ZeroCoef>
-5.4800

> <Gold.Chemscore.Hbond>
2.2178

> <Gold.Chemscore.Metal>
0.0000

> <Gold.Chemscore.Lipo>
111.3926

> <Gold.Chemscore.Internal_Hbond>
0.0000

> <Gold.Chemscore.DEClash>
0.1910

> <Gold.Chemscore.DEInternal>
0.6316

> <Gold.Chemscore.Rot>
2.1317

> <Gold.Chemscore.Internal.Correction>
   9.000000E+99

> <Gold.Chemscore.Hbonds>
donor molecule, donor type, donor heavy atom, donor atom, acceptor molecule, acceptor atom, score
      L1  H     4    29       P1  7948  0.98
      L1  H     8    31       P1  7948  0.78
      P1  H  7997  8010       L1    21  0.24

> <Gold.Chemscore.Hbond.Weighted>
-7.4073

> <Gold.Chemscore.Metal.Weighted>
-0.0000

> <Gold.Chemscore.Lipo.Weighted>
-13.0329

> <Gold.Chemscore.Internal_Hbond.Weighted>
0.0000

> <Gold.Chemscore.DEClash.Weighted>
0.1910

> <Gold.Chemscore.DEInternal.Weighted>
0.6316

> <Gold.Chemscore.Rot.Weighted>
5.4572

> <Gold.Chemscore.Internal.Correction.Weighted>
   9.000000E+99

> <Gold.Protein.RotatedTorsions>
[ 6907 6896 6895 6894 ] final  122.81 input  -60.11 | X-H torsion
[ 7974 7965 7964 7962 ] final   39.61 input  175.53 | X-H torsion
[ 8008 7997 7996 7995 ] final   43.65 input   59.86 | X-H torsion
[ 10167 10162 10161 10158 ] final  -64.75 input  -65.29 | X-H torsion
[ 10718 10713 10712 10709 ] final   69.42 input   66.30 | X-H torsion
[ 10763 10752 10751 10750 ] final  120.81 input  -60.55 | X-H torsion
[ 11005 11000 10999 10996 ] final   72.01 input  -57.11 | X-H torsion

> <Gold.Protein.ActiveResidues>
 VAL166  LYS551  ARG553  GLY616  TRP617  ASP618  TYR619  PRO620  LYS621  CYS622 
 ASP623  PHE694  ASN695  SER759  ASP760  ASP761  ALA762  ILE779  LEU786  VAL792 
 PHE793  MET794  SER795  GLU796  ALA797  LYS798  CYS799  TRP800  GLU811  SER814 

> <Gold.Protein.RotatedAtoms>
  152.4213  133.7121  159.6484 H   0  0  0  0  0  0  0  0  0  0  0  0  # atno 6907 bound_to 6896
  150.8089  133.8447  159.3197 H   0  0  0  0  0  0  0  0  0  0  0  0  # atno 6908 bound_to 6896
  151.6163  135.1038  160.0143 H   0  0  0  0  0  0  0  0  0  0  0  0  # atno 6909 bound_to 6896
  146.0970  139.5630  142.9439 H   0  0  0  0  0  0  0  0  0  0  0  0  # atno 7974 bound_to 7965
  155.3062  140.3388  155.4245 H   0  0  0  0  0  0  0  0  0  0  0  0  # atno 8008 bound_to 7997
  156.1977  140.1721  156.8002 H   0  0  0  0  0  0  0  0  0  0  0  0  # atno 8009 bound_to 7997
  154.5520  140.0704  156.8667 H   0  0  0  0  0  0  0  0  0  0  0  0  # atno 8010 bound_to 7997
  140.5779  143.2324  151.6404 H   0  0  0  0  0  0  0  0  0  0  0  0  # atno 10167 bound_to 10162
  157.6345  130.9425  150.0511 H   0  0  0  0  0  0  0  0  0  0  0  0  # atno 10718 bound_to 10713
  153.6043  135.3442  155.2956 H   0  0  0  0  0  0  0  0  0  0  0  0  # atno 10763 bound_to 10752
  154.8630  135.4235  154.2378 H   0  0  0  0  0  0  0  0  0  0  0  0  # atno 10764 bound_to 10752
  153.3214  135.7038  153.7099 H   0  0  0  0  0  0  0  0  0  0  0  0  # atno 10765 bound_to 10752
  139.9513  134.7222  156.0856 H   0  0  0  0  0  0  0  0  0  0  0  0  # atno 11005 bound_to 11000
  145.5928  141.0367  143.2060 LP  0  0  0  0  0  0  0  0  0  0  0  0  # atno 17320 bound_to 7965
  144.7403  139.7468  143.7313 LP  0  0  0  0  0  0  0  0  0  0  0  0  # atno 17321 bound_to 7965
  139.5153  144.3383  152.0763 LP  0  0  0  0  0  0  0  0  0  0  0  0  # atno 17342 bound_to 10162
  140.2529  144.4149  150.6215 LP  0  0  0  0  0  0  0  0  0  0  0  0  # atno 17343 bound_to 10162
  156.1572  130.3643  149.9351 LP  0  0  0  0  0  0  0  0  0  0  0  0  # atno 17370 bound_to 10713
  156.7357  130.9060  151.3629 LP  0  0  0  0  0  0  0  0  0  0  0  0  # atno 17371 bound_to 10713
  141.1176  133.6623  156.3134 LP  0  0  0  0  0  0  0  0  0  0  0  0  # atno 17394 bound_to 11000
  140.5712  134.5838  157.5458 LP  0  0  0  0  0  0  0  0  0  0  0  0  # atno 17395 bound_to 11000

$$$$
