AV-unprocessed.smi:2562|AV-procd|sdf|10053|dock1
  -GOLD-   2272014 93D 1   1.00000     0.00000
 Structure written by MMmdl.
 30 31  0  0  0  0  0  0  0  0  3 V2000
  153.0682  142.5030  161.1173 C   0  0  0  0  0  0  0  0  0  0  0  0
  152.8039  142.0736  159.6699 C   0  0  0  0  0  0  0  0  0  0  0  0
  152.6035  140.5585  159.5299 C   0  0  0  0  0  0  0  0  0  0  0  0
  152.3651  140.1462  158.0934 C   0  0  0  0  0  0  0  0  0  0  0  0
  153.2233  139.4269  157.3543 N   0  0  0  0  0  0  0  0  0  0  0  0
  152.6585  139.3173  156.1692 N   0  5  0  0  0  0  0  0  0  0  0  0
  151.4846  139.9728  156.1626 C   0  0  0  0  0  0  0  0  0  0  0  0
  150.5241  140.0495  154.9954 C   0  0  1  0  0  0  0  0  0  0  0  0
  150.1480  138.6416  154.4952 C   0  0  0  0  0  0  0  0  0  0  0  0
  149.2005  138.7365  153.3682 N   0  3  0  0  0  0  0  0  0  0  0  0
  148.0142  139.5394  153.7225 C   0  0  0  0  0  0  0  0  0  0  0  0
  148.4493  140.9181  154.2467 C   0  0  0  0  0  0  0  0  0  0  0  0
  149.3337  140.7512  155.3488 O   0  0  0  0  0  0  0  0  0  0  0  0
  151.2892  140.4901  157.3716 N   0  0  0  0  0  0  0  0  0  0  0  0
  153.2082  143.5821  161.1821 H   0  0  0  0  0  0  0  0  0  0  0  0
  153.9654  142.0259  161.5124 H   0  0  0  0  0  0  0  0  0  0  0  0
  152.2327  142.2368  161.7651 H   0  0  0  0  0  0  0  0  0  0  0  0
  151.9208  142.5933  159.2967 H   0  0  0  0  0  0  0  0  0  0  0  0
  153.6374  142.3903  159.0418 H   0  0  0  0  0  0  0  0  0  0  0  0
  153.4776  140.0265  159.9071 H   0  0  0  0  0  0  0  0  0  0  0  0
  151.7545  140.2337  160.1321 H   0  0  0  0  0  0  0  0  0  0  0  0
  151.0294  140.5988  154.1989 H   0  0  0  0  0  0  0  0  0  0  0  0
  151.0363  138.0986  154.1707 H   0  0  0  0  0  0  0  0  0  0  0  0
  149.6922  138.0620  155.2993 H   0  0  0  0  0  0  0  0  0  0  0  0
  149.6718  139.1793  152.5924 H   0  0  0  0  0  0  0  0  0  0  0  0
  147.3728  139.6447  152.8473 H   0  0  0  0  0  0  0  0  0  0  0  0
  147.4385  139.0119  154.4843 H   0  0  0  0  0  0  0  0  0  0  0  0
  148.9342  141.5006  153.4616 H   0  0  0  0  0  0  0  0  0  0  0  0
  147.5796  141.4876  154.5750 H   0  0  0  0  0  0  0  0  0  0  0  0
  148.9115  137.8085  153.0939 H   0  0  0  0  0  0  0  0  0  0  0  0
  1  2  1  0  0  0  0
  1 15  1  0  0  0  0
  1 16  1  0  0  0  0
  1 17  1  0  0  0  0
  2  3  1  0  0  0  0
  2 18  1  0  0  0  0
  2 19  1  0  0  0  0
  3  4  1  0  0  0  0
  3 20  1  0  0  0  0
  3 21  1  0  0  0  0
  4 14  1  0  0  0  0
  4  5  2  0  0  0  0
  5  6  1  0  0  0  0
  6  7  1  0  0  0  0
  7  8  1  0  0  0  0
  7 14  2  0  0  0  0
  8 13  1  0  0  0  0
  8  9  1  0  0  0  0
  8 22  1  0  0  0  0
  9 10  1  0  0  0  0
  9 23  1  0  0  0  0
  9 24  1  0  0  0  0
 10 11  1  0  0  0  0
 10 25  1  0  0  0  0
 10 30  1  0  0  0  0
 11 12  1  0  0  0  0
 11 26  1  0  0  0  0
 11 27  1  0  0  0  0
 12 13  1  0  0  0  0
 12 28  1  0  0  0  0
 12 29  1  0  0  0  0
M  CHG  1   6  -1
M  CHG  1  10   1
M  END
> <s_m_source_file>
AV-unprocessed.smi

> <i_m_source_file_index>
2562

> <i_lp_mmshare_version>
43012

> <i_f3d_flags>
0

> <s_epik_input>
W0NIM11bQ0gyXVtDSDJdYzFuW25IXWMobjEpW0NAQEhdMltDSDJdW05IXVtDSDJdW0NIMl1PMg==

> <s_epik_cmdline>
J2VwaWtfcHl0aG9uJywgJy1waCcsICc3LjAnLCAnLXRuJywgJzgnLCAnLW1hJywgJzIwMCcsICctbWV0YWxfYmluZGluZycsICctaW1hZScsICc8aW5maWxlLm1hZT4nLCAnLW9tYWUnLCAnPG91dGZpbGUubWFlPic=

> <r_epik_Ionization_Penalty>
3.5188

> <r_epik_Ionization_Penalty_Charging>
3.5188

> <r_epik_Ionization_Penalty_Neutral>
2.11677e-13

> <r_epik_State_Penalty>
2.51144

> <r_epik_Charging_Adjusted_Penalty>
6.03025

> <i_epik_Tot_Q>
0

> <i_epik_Tot_abs_Q>
2

> <r_epik_Metal_State_Penalty>
0.975833

> <b_epik_Metal_Only>
0

> <s_lp_Force_Field>
OPLS_2005

> <r_lp_Energy>
5.22066

> <b_lp_Chiralities_Consistent>
1

> <s_lp_Variant>
AV-unprocessed.smi:2562-12

> <Gold.Version>
5.8.1

> <Gold.Id.Protein>
6NUR|6NUR_protein|mol2

> <Gold.PLP.Fitness>
40.0162

> <Gold.PLP.PLP>
-28.1445

> <Gold.PLP.part.hbond>
-3.9026

> <Gold.PLP.part.metal>
0.0000

> <Gold.PLP.part.buried>
-1.5922

> <Gold.PLP.part.nonpolar>
-23.0343

> <Gold.PLP.part.repulsive>
0.1760

> <Gold.PLP.ligand.clash>
0.0000

> <Gold.PLP.ligand.torsion>
0.0741

> <Gold.PLP.Chemscore.Hbond>
4.0000

> <Gold.PLP.Chemscore.CHOScore>
0.0000

> <Gold.PLP.Chemscore.Metal>
0.0000

> <Gold.Chemscore.Hbonds>
donor molecule, donor type, donor heavy atom, donor atom, acceptor molecule, acceptor atom, score
      L1  H    10    25       P1  7957  1.00
      L1  H    10    30       P1  7948  2.00
      P1  H  7997  8009       L1     5  1.00

> <Gold.PLP.Chemscore.Internal.Correction>
0.0200

> <Gold.Rescore>
     Score         DG    S(hbond)    S(metal)    S(lipo)     H(rot)  DE(clash)    DE(int)     intcor
     16.79     -16.90       2.61        0.00      55.41       1.48       0.00       0.11       ----

> <Gold.Chemscore.Fitness>
16.7921

> <Gold.Chemscore.DG>
-16.9031

> <Gold.Chemscore.ZeroCoef>
-5.4800

> <Gold.Chemscore.Hbond>
2.6137

> <Gold.Chemscore.Metal>
0.0000

> <Gold.Chemscore.Lipo>
55.4114

> <Gold.Chemscore.Internal_Hbond>
0.0000

> <Gold.Chemscore.DEClash>
0.0021

> <Gold.Chemscore.DEInternal>
0.1088

> <Gold.Chemscore.Rot>
1.4804

> <Gold.Chemscore.Internal.Correction>
   9.000000E+99

> <Gold.Chemscore.Hbonds>
donor molecule, donor type, donor heavy atom, donor atom, acceptor molecule, acceptor atom, score
      L1  H    10    25       P1  7957  0.91
      L1  H    10    30       P1  7948  0.93
      P1  H  7997  8009       L1     5  0.40

> <Gold.Chemscore.Hbond.Weighted>
-8.7298

> <Gold.Chemscore.Metal.Weighted>
-0.0000

> <Gold.Chemscore.Lipo.Weighted>
-6.4831

> <Gold.Chemscore.Internal_Hbond.Weighted>
0.0000

> <Gold.Chemscore.DEClash.Weighted>
0.0021

> <Gold.Chemscore.DEInternal.Weighted>
0.1088

> <Gold.Chemscore.Rot.Weighted>
3.7899

> <Gold.Chemscore.Internal.Correction.Weighted>
   9.000000E+99

> <Gold.Protein.RotatedTorsions>
[ 6907 6896 6895 6894 ] final   -3.57 input  -60.11 | X-H torsion
[ 7974 7965 7964 7962 ] final -154.80 input  175.53 | X-H torsion
[ 8008 7997 7996 7995 ] final  151.65 input   59.86 | X-H torsion
[ 10167 10162 10161 10158 ] final -125.97 input  -65.29 | X-H torsion
[ 10718 10713 10712 10709 ] final -163.22 input   66.30 | X-H torsion
[ 10763 10752 10751 10750 ] final -137.84 input  -60.55 | X-H torsion
[ 11005 11000 10999 10996 ] final   75.45 input  -57.11 | X-H torsion

> <Gold.Protein.ActiveResidues>
 VAL166  LYS551  ARG553  GLY616  TRP617  ASP618  TYR619  PRO620  LYS621  CYS622 
 ASP623  PHE694  ASN695  SER759  ASP760  ASP761  ALA762  ILE779  LEU786  VAL792 
 PHE793  MET794  SER795  GLU796  ALA797  LYS798  CYS799  TRP800  GLU811  SER814 

> <Gold.Protein.RotatedAtoms>
  151.5116  135.1065  159.9854 H   0  0  0  0  0  0  0  0  0  0  0  0  # atno 6907 bound_to 6896
  152.4659  133.7918  159.6917 H   0  0  0  0  0  0  0  0  0  0  0  0  # atno 6908 bound_to 6896
  150.8643  133.7534  159.3007 H   0  0  0  0  0  0  0  0  0  0  0  0  # atno 6909 bound_to 6896
  144.7671  140.4337  143.5934 H   0  0  0  0  0  0  0  0  0  0  0  0  # atno 7974 bound_to 7965
  156.2664  140.2042  156.6209 H   0  0  0  0  0  0  0  0  0  0  0  0  # atno 8008 bound_to 7997
  154.6757  140.0545  157.0237 H   0  0  0  0  0  0  0  0  0  0  0  0  # atno 8009 bound_to 7997
  155.1072  140.3212  155.4534 H   0  0  0  0  0  0  0  0  0  0  0  0  # atno 8010 bound_to 7997
  139.9765  143.5789  152.2394 H   0  0  0  0  0  0  0  0  0  0  0  0  # atno 10167 bound_to 10162
  156.6215  130.8892  151.2958 H   0  0  0  0  0  0  0  0  0  0  0  0  # atno 10718 bound_to 10713
  154.8652  135.3630  154.5288 H   0  0  0  0  0  0  0  0  0  0  0  0  # atno 10763 bound_to 10752
  153.5915  135.7015  153.5426 H   0  0  0  0  0  0  0  0  0  0  0  0  # atno 10764 bound_to 10752
  153.3369  135.4109  155.1503 H   0  0  0  0  0  0  0  0  0  0  0  0  # atno 10765 bound_to 10752
  139.9343  134.7518  156.1272 H   0  0  0  0  0  0  0  0  0  0  0  0  # atno 11005 bound_to 11000
  145.6436  139.1554  143.2901 LP  0  0  0  0  0  0  0  0  0  0  0  0  # atno 17320 bound_to 7965
  146.1788  140.6531  142.9199 LP  0  0  0  0  0  0  0  0  0  0  0  0  # atno 17321 bound_to 7965
  139.6442  144.7657  151.2278 LP  0  0  0  0  0  0  0  0  0  0  0  0  # atno 17342 bound_to 10162
  140.7504  143.6267  150.8462 LP  0  0  0  0  0  0  0  0  0  0  0  0  # atno 17343 bound_to 10162
  157.7226  130.9579  150.1501 LP  0  0  0  0  0  0  0  0  0  0  0  0  # atno 17370 bound_to 10713
  156.2307  130.3682  149.8448 LP  0  0  0  0  0  0  0  0  0  0  0  0  # atno 17371 bound_to 10713
  141.0949  133.6699  156.2623 LP  0  0  0  0  0  0  0  0  0  0  0  0  # atno 17394 bound_to 11000
  140.6117  134.5452  157.5534 LP  0  0  0  0  0  0  0  0  0  0  0  0  # atno 17395 bound_to 11000

$$$$
