AV-unprocessed.smi:1278|AV-procd|sdf|5353|dock5
  -GOLD-   22720 4483D 1   1.00000     0.00000
 Structure written by MMmdl.
 38 39  0  0  0  0  0  0  0  0  3 V2000
  147.7085  133.3222  152.3642 C   0  0  0  0  0  0  0  0  0  0  0  0
  146.2561  133.5737  152.8067 C   0  0  2  0  0  0  0  0  0  0  0  0
  145.2483  133.4432  151.6499 C   0  0  0  0  0  0  0  0  0  0  0  0
  145.3256  134.6514  150.7059 C   0  0  0  0  0  0  0  0  0  0  0  0
  145.1771  135.9691  151.4824 C   0  0  0  0  0  0  0  0  0  0  0  0
  146.1895  136.0722  152.5645 N   0  3  1  0  0  0  0  0  0  0  0  0
  146.1594  137.3959  153.2341 C   0  0  0  0  0  0  0  0  0  0  0  0
  146.4790  138.5490  152.2644 C   0  0  0  0  0  0  0  0  0  0  0  0
  147.6746  139.2732  152.6781 N   0  0  0  0  0  0  0  0  0  0  0  0
  147.9287  139.7179  153.9170 C   0  0  0  0  0  0  0  0  0  0  0  0
  147.1122  139.5197  154.8199 O   0  0  0  0  0  0  0  0  0  0  0  0
  149.1088  140.3669  154.0302 N   0  5  0  0  0  0  0  0  0  0  0  0
  149.8555  140.2144  155.1360 C   0  0  0  0  0  0  0  0  0  0  0  0
  151.1932  140.2208  155.1189 N   0  0  0  0  0  0  0  0  0  0  0  0
  151.7656  140.0504  156.3808 C   0  0  0  0  0  0  0  0  0  0  0  0
  150.8416  139.9200  157.3834 C   0  0  0  0  0  0  0  0  0  0  0  0
  149.2157  140.0078  156.7686 S   0  0  0  0  0  0  0  0  0  0  0  0
  146.0896  134.9330  153.5177 C   0  0  0  0  0  0  0  0  0  0  0  0
  148.0540  134.0722  151.6527 H   0  0  0  0  0  0  0  0  0  0  0  0
  147.8096  132.3450  151.8912 H   0  0  0  0  0  0  0  0  0  0  0  0
  148.3863  133.3434  153.2182 H   0  0  0  0  0  0  0  0  0  0  0  0
  146.0180  132.7946  153.5323 H   0  0  0  0  0  0  0  0  0  0  0  0
  145.4141  132.5178  151.0972 H   0  0  0  0  0  0  0  0  0  0  0  0
  144.2394  133.3778  152.0597 H   0  0  0  0  0  0  0  0  0  0  0  0
  146.2744  134.6454  150.1687 H   0  0  0  0  0  0  0  0  0  0  0  0
  144.5458  134.5787  149.9474 H   0  0  0  0  0  0  0  0  0  0  0  0
  145.2902  136.8033  150.7888 H   0  0  0  0  0  0  0  0  0  0  0  0
  144.1764  136.0462  151.9109 H   0  0  0  0  0  0  0  0  0  0  0  0
  145.1639  137.5715  153.6445 H   0  0  0  0  0  0  0  0  0  0  0  0
  146.8435  137.3898  154.0842 H   0  0  0  0  0  0  0  0  0  0  0  0
  146.6135  138.1934  151.2427 H   0  0  0  0  0  0  0  0  0  0  0  0
  145.6486  139.2549  152.2400 H   0  0  0  0  0  0  0  0  0  0  0  0
  148.3722  139.4518  151.9703 H   0  0  0  0  0  0  0  0  0  0  0  0
  152.8415  140.0353  156.4727 H   0  0  0  0  0  0  0  0  0  0  0  0
  151.0159  139.7800  158.4394 H   0  0  0  0  0  0  0  0  0  0  0  0
  145.1183  134.9710  154.0138 H   0  0  0  0  0  0  0  0  0  0  0  0
  146.8381  135.0208  154.3043 H   0  0  0  0  0  0  0  0  0  0  0  0
  147.0910  136.0027  152.1145 H   0  0  0  0  0  0  0  0  0  0  0  0
  1  2  1  0  0  0  0
  1 19  1  0  0  0  0
  1 20  1  0  0  0  0
  1 21  1  0  0  0  0
  2 18  1  0  0  0  0
  2  3  1  0  0  0  0
  2 22  1  0  0  0  0
  3  4  1  0  0  0  0
  3 23  1  0  0  0  0
  3 24  1  0  0  0  0
  4  5  1  0  0  0  0
  4 25  1  0  0  0  0
  4 26  1  0  0  0  0
  5  6  1  0  0  0  0
  5 27  1  0  0  0  0
  5 28  1  0  0  0  0
  6  7  1  0  0  0  0
  6 18  1  0  0  0  0
  6 38  1  0  0  0  0
  7  8  1  0  0  0  0
  7 29  1  0  0  0  0
  7 30  1  0  0  0  0
  8  9  1  0  0  0  0
  8 31  1  0  0  0  0
  8 32  1  0  0  0  0
  9 10  1  0  0  0  0
  9 33  1  0  0  0  0
 10 11  2  0  0  0  0
 10 12  1  0  0  0  0
 12 13  1  0  0  0  0
 13 17  1  0  0  0  0
 13 14  2  0  0  0  0
 14 15  1  0  0  0  0
 15 16  2  0  0  0  0
 15 34  1  0  0  0  0
 16 17  1  0  0  0  0
 16 35  1  0  0  0  0
 18 36  1  0  0  0  0
 18 37  1  0  0  0  0
M  CHG  1   6   1
M  CHG  1  12  -1
M  END
> <s_m_source_file>
AV-unprocessed.smi

> <i_m_source_file_index>
1278

> <i_lp_mmshare_version>
43012

> <i_f3d_flags>
0

> <s_epik_input>
W0NIM11bQ0BASF0xW0NIMl1bQ0gyXVtDSDJdTihbQ0gyXTEpW0NIMl1bQ0gyXVtOSF1DKD1PKVtOSF1jMm5bY0hdW2NIXXMy

> <s_epik_cmdline>
J2VwaWtfcHl0aG9uJywgJy1waCcsICc3LjAnLCAnLXRuJywgJzgnLCAnLW1hJywgJzIwMCcsICctbWV0YWxfYmluZGluZycsICctaW1hZScsICc8aW5maWxlLm1hZT4nLCAnLW9tYWUnLCAnPG91dGZpbGUubWFlPic=

> <r_lp_tautomer_probability>
0.999

> <r_epik_Ionization_Penalty>
6.22019

> <r_epik_Ionization_Penalty_Charging>
5.38911

> <r_epik_Ionization_Penalty_Neutral>
0.831074

> <r_epik_State_Penalty>
5.38904

> <r_epik_Charging_Adjusted_Penalty>
10.7782

> <i_epik_Tot_Q>
0

> <i_epik_Tot_abs_Q>
2

> <r_epik_Metal_State_Penalty>
1.41502

> <b_epik_Metal_Only>
1

> <s_lp_Force_Field>
OPLS_2005

> <r_lp_Energy>
8.40837

> <b_lp_Chiralities_Consistent>
1

> <s_lp_Variant>
AV-unprocessed.smi:1278-7

> <Gold.Version>
5.8.1

> <Gold.Id.Protein>
6NUR|6NUR_protein|mol2

> <Gold.PLP.Fitness>
37.9739

> <Gold.PLP.PLP>
-27.8768

> <Gold.PLP.part.hbond>
-3.0760

> <Gold.PLP.part.metal>
0.0000

> <Gold.PLP.part.buried>
-4.3313

> <Gold.PLP.part.nonpolar>
-21.9832

> <Gold.PLP.part.repulsive>
1.8854

> <Gold.PLP.ligand.clash>
0.0000

> <Gold.PLP.ligand.torsion>
0.9799

> <Gold.PLP.Chemscore.Hbond>
4.0000

> <Gold.PLP.Chemscore.CHOScore>
0.0000

> <Gold.PLP.Chemscore.Metal>
0.0000

> <Gold.Chemscore.Hbonds>
donor molecule, donor type, donor heavy atom, donor atom, acceptor molecule, acceptor atom, score
      L1  H     6    38       P1  7948  2.00
      L1  H     9    33       P1  7957  1.00
      P1  H  7989  7998       L1    14  1.00

> <Gold.PLP.Chemscore.Internal.Correction>
0.0568

> <Gold.Rescore>
     Score         DG    S(hbond)    S(metal)    S(lipo)     H(rot)  DE(clash)    DE(int)     intcor
     13.88     -17.51       2.90        0.00      54.30       1.57       0.04       3.59       ----

> <Gold.Chemscore.Fitness>
13.8799

> <Gold.Chemscore.DG>
-17.5088

> <Gold.Chemscore.ZeroCoef>
-5.4800

> <Gold.Chemscore.Hbond>
2.9010

> <Gold.Chemscore.Metal>
0.0000

> <Gold.Chemscore.Lipo>
54.2952

> <Gold.Chemscore.Internal_Hbond>
0.0000

> <Gold.Chemscore.DEClash>
0.0381

> <Gold.Chemscore.DEInternal>
3.5907

> <Gold.Chemscore.Rot>
1.5676

> <Gold.Chemscore.Internal.Correction>
   9.000000E+99

> <Gold.Chemscore.Hbonds>
donor molecule, donor type, donor heavy atom, donor atom, acceptor molecule, acceptor atom, score
      L1  H     6    38       P1  7948  1.00
      L1  H     9    33       P1  7957  0.97
      P1  H  7989  7998       L1    14  0.49

> <Gold.Chemscore.Hbond.Weighted>
-9.6892

> <Gold.Chemscore.Metal.Weighted>
-0.0000

> <Gold.Chemscore.Lipo.Weighted>
-6.3525

> <Gold.Chemscore.Internal_Hbond.Weighted>
0.0000

> <Gold.Chemscore.DEClash.Weighted>
0.0381

> <Gold.Chemscore.DEInternal.Weighted>
3.5907

> <Gold.Chemscore.Rot.Weighted>
4.0130

> <Gold.Chemscore.Internal.Correction.Weighted>
   9.000000E+99

> <Gold.Protein.RotatedTorsions>
[ 6907 6896 6895 6894 ] final   97.14 input  -60.11 | X-H torsion
[ 7974 7965 7964 7962 ] final   40.77 input  175.53 | X-H torsion
[ 8008 7997 7996 7995 ] final   55.65 input   59.86 | X-H torsion
[ 10167 10162 10161 10158 ] final -147.38 input  -65.29 | X-H torsion
[ 10718 10713 10712 10709 ] final   48.92 input   66.30 | X-H torsion
[ 10763 10752 10751 10750 ] final   74.25 input  -60.55 | X-H torsion
[ 11005 11000 10999 10996 ] final   41.78 input  -57.11 | X-H torsion

> <Gold.Protein.ActiveResidues>
 VAL166  LYS551  ARG553  GLY616  TRP617  ASP618  TYR619  PRO620  LYS621  CYS622 
 ASP623  PHE694  ASN695  SER759  ASP760  ASP761  ALA762  ILE779  LEU786  VAL792 
 PHE793  MET794  SER795  GLU796  ALA797  LYS798  CYS799  TRP800  GLU811  SER814 

> <Gold.Protein.RotatedAtoms>
  152.5427  134.0779  159.8222 H   0  0  0  0  0  0  0  0  0  0  0  0  # atno 6907 bound_to 6896
  151.0884  133.5327  159.2623 H   0  0  0  0  0  0  0  0  0  0  0  0  # atno 6908 bound_to 6896
  151.2128  135.0496  159.8972 H   0  0  0  0  0  0  0  0  0  0  0  0  # atno 6909 bound_to 6896
  146.0878  139.5494  142.9495 H   0  0  0  0  0  0  0  0  0  0  0  0  # atno 7974 bound_to 7965
  155.5046  140.3475  155.4377 H   0  0  0  0  0  0  0  0  0  0  0  0  # atno 8008 bound_to 7997
  156.0891  140.1406  156.9643 H   0  0  0  0  0  0  0  0  0  0  0  0  # atno 8009 bound_to 7997
  154.4624  140.0930  156.6906 H   0  0  0  0  0  0  0  0  0  0  0  0  # atno 8010 bound_to 7997
  139.7627  143.8353  152.2610 H   0  0  0  0  0  0  0  0  0  0  0  0  # atno 10167 bound_to 10162
  157.4735  130.8270  149.8014 H   0  0  0  0  0  0  0  0  0  0  0  0  # atno 10718 bound_to 10713
  153.0574  135.5032  154.8015 H   0  0  0  0  0  0  0  0  0  0  0  0  # atno 10763 bound_to 10752
  154.6830  135.2971  154.9589 H   0  0  0  0  0  0  0  0  0  0  0  0  # atno 10764 bound_to 10752
  154.0369  135.6722  153.4839 H   0  0  0  0  0  0  0  0  0  0  0  0  # atno 10765 bound_to 10752
  140.1801  134.4114  155.8205 H   0  0  0  0  0  0  0  0  0  0  0  0  # atno 11005 bound_to 11000
  145.6097  141.0341  143.1973 LP  0  0  0  0  0  0  0  0  0  0  0  0  # atno 17320 bound_to 7965
  144.7338  139.7646  143.7337 LP  0  0  0  0  0  0  0  0  0  0  0  0  # atno 17321 bound_to 7965
  139.8364  144.7230  150.9385 LP  0  0  0  0  0  0  0  0  0  0  0  0  # atno 17342 bound_to 10162
  140.7808  143.4023  151.1129 LP  0  0  0  0  0  0  0  0  0  0  0  0  # atno 17343 bound_to 10162
  156.0085  130.3844  150.2346 LP  0  0  0  0  0  0  0  0  0  0  0  0  # atno 17370 bound_to 10713
  157.0530  131.0068  151.3247 LP  0  0  0  0  0  0  0  0  0  0  0  0  # atno 17371 bound_to 10713
  141.2222  133.6996  156.7916 LP  0  0  0  0  0  0  0  0  0  0  0  0  # atno 17394 bound_to 11000
  140.2277  134.8709  157.3444 LP  0  0  0  0  0  0  0  0  0  0  0  0  # atno 17395 bound_to 11000

$$$$
