AV-unprocessed.smi:1220|AV-procd|sdf|5114|dock10
  -GOLD-   22720 4173D 1   1.00000     0.00000
 Structure written by MMmdl.
 35 36  0  0  0  0  0  0  0  0  1 V2000
  153.6628  140.5315  161.9097 C   0  0  0  0  0  0  0  0  0  0  0  0
  152.8886  141.1073  160.7163 C   0  0  2  0  0  0  0  0  0  0  0  0
  152.0747  142.3547  161.1238 C   0  0  0  0  0  0  0  0  0  0  0  0
  151.8020  143.2396  160.0047 N   0  0  0  0  0  0  0  0  0  0  0  0
  152.6743  144.0780  159.3424 C   0  0  0  0  0  0  0  0  0  0  0  0
  151.9602  144.7262  158.3762 C   0  0  0  0  0  0  0  0  0  0  0  0
  150.6438  144.2065  158.5237 C   0  0  0  0  0  0  0  0  0  0  0  0
  150.5532  143.3138  159.4963 N   0  0  0  0  0  0  0  0  0  0  0  0
  152.0103  140.0707  160.1749 N   0  0  0  0  0  0  0  0  0  0  0  0
  152.0679  139.5646  158.9324 C   0  0  0  0  0  0  0  0  0  0  0  0
  152.9176  139.8940  158.1045 O   0  0  0  0  0  0  0  0  0  0  0  0
  150.9817  138.5486  158.5619 C   0  0  2  0  0  0  0  0  0  0  0  0
  149.6923  139.2239  158.0471 C   0  0  0  0  0  0  0  0  0  0  0  0
  148.5746  138.1759  158.0176 C   0  0  0  0  0  0  0  0  0  0  0  0
  148.9065  137.0571  159.4294 S   0  0  0  0  0  0  0  0  0  0  0  0
  148.0384  137.4210  160.5592 O   0  0  0  0  0  0  0  0  0  0  0  0
  148.9684  135.6729  158.9372 O   0  0  0  0  0  0  0  0  0  0  0  0
  150.6027  137.6646  159.7632 C   0  0  0  0  0  0  0  0  0  0  0  0
  154.3513  141.2694  162.3225 H   0  0  0  0  0  0  0  0  0  0  0  0
  154.2519  139.6628  161.6138 H   0  0  0  0  0  0  0  0  0  0  0  0
  152.9892  140.2218  162.7094 H   0  0  0  0  0  0  0  0  0  0  0  0
  153.6261  141.3989  159.9663 H   0  0  0  0  0  0  0  0  0  0  0  0
  151.1262  142.0617  161.5760 H   0  0  0  0  0  0  0  0  0  0  0  0
  152.6155  142.9249  161.8804 H   0  0  0  0  0  0  0  0  0  0  0  0
  153.7166  144.1491  159.6167 H   0  0  0  0  0  0  0  0  0  0  0  0
  152.3218  145.4610  157.6723 H   0  0  0  0  0  0  0  0  0  0  0  0
  149.7575  144.4492  157.9565 H   0  0  0  0  0  0  0  0  0  0  0  0
  151.2785  139.7359  160.7847 H   0  0  0  0  0  0  0  0  0  0  0  0
  151.3525  137.8969  157.7686 H   0  0  0  0  0  0  0  0  0  0  0  0
  149.3960  140.0285  158.7219 H   0  0  0  0  0  0  0  0  0  0  0  0
  149.8368  139.6712  157.0633 H   0  0  0  0  0  0  0  0  0  0  0  0
  147.5784  138.6097  158.1039 H   0  0  0  0  0  0  0  0  0  0  0  0
  148.6212  137.5861  157.1022 H   0  0  0  0  0  0  0  0  0  0  0  0
  151.2773  136.8177  159.8897 H   0  0  0  0  0  0  0  0  0  0  0  0
  150.5793  138.2286  160.6971 H   0  0  0  0  0  0  0  0  0  0  0  0
  1  2  1  0  0  0  0
  1 19  1  0  0  0  0
  1 20  1  0  0  0  0
  1 21  1  0  0  0  0
  2  3  1  0  0  0  0
  2  9  1  0  0  0  0
  2 22  1  0  0  0  0
  3  4  1  0  0  0  0
  3 23  1  0  0  0  0
  3 24  1  0  0  0  0
  4  8  1  0  0  0  0
  4  5  1  0  0  0  0
  5  6  2  0  0  0  0
  5 25  1  0  0  0  0
  6  7  1  0  0  0  0
  6 26  1  0  0  0  0
  7  8  2  0  0  0  0
  7 27  1  0  0  0  0
  9 10  1  0  0  0  0
  9 28  1  0  0  0  0
 10 11  2  0  0  0  0
 10 12  1  0  0  0  0
 12 18  1  0  0  0  0
 12 13  1  0  0  0  0
 12 29  1  0  0  0  0
 13 14  1  0  0  0  0
 13 30  1  0  0  0  0
 13 31  1  0  0  0  0
 14 15  1  0  0  0  0
 14 32  1  0  0  0  0
 14 33  1  0  0  0  0
 15 16  2  0  0  0  0
 15 17  2  0  0  0  0
 15 18  1  0  0  0  0
 18 34  1  0  0  0  0
 18 35  1  0  0  0  0
M  END
> <s_m_source_file>
AV-unprocessed.smi

> <i_m_source_file_index>
1220

> <i_lp_mmshare_version>
43012

> <i_f3d_flags>
0

> <s_epik_input>
bjFbY0hdW2NIXVtjSF1uMVtDSDJdW0NAQEhdKFtDSDNdKVtOSF1DKD1PKVtDQEBIXShbQ0gyXTIpW0NIMl1bQ0gyXVMyKD1PKT1P

> <s_epik_cmdline>
J2VwaWtfcHl0aG9uJywgJy1waCcsICc3LjAnLCAnLXRuJywgJzgnLCAnLW1hJywgJzIwMCcsICctbWV0YWxfYmluZGluZycsICctaW1hZScsICc8aW5maWxlLm1hZT4nLCAnLW9tYWUnLCAnPG91dGZpbGUubWFlPic=

> <r_lp_tautomer_probability>
1

> <r_epik_Ionization_Penalty>
0.000293905

> <r_epik_Ionization_Penalty_Charging>
0

> <r_epik_Ionization_Penalty_Neutral>
0.000293905

> <r_epik_State_Penalty>
-0

> <r_epik_Charging_Adjusted_Penalty>
0

> <i_epik_Tot_Q>
0

> <i_epik_Tot_abs_Q>
0

> <r_epik_Metal_State_Penalty>
-0

> <b_epik_Metal_Only>
0

> <s_lp_Force_Field>
OPLS_2005

> <r_lp_Energy>
3.03909

> <b_lp_Chiralities_Consistent>
1

> <s_lp_Variant>
AV-unprocessed.smi:1220-1

> <Gold.Version>
5.8.1

> <Gold.Id.Protein>
6NUR|6NUR_protein|mol2

> <Gold.PLP.Fitness>
47.0576

> <Gold.PLP.PLP>
-36.9546

> <Gold.PLP.part.hbond>
-3.9163

> <Gold.PLP.part.metal>
0.0000

> <Gold.PLP.part.buried>
-3.7648

> <Gold.PLP.part.nonpolar>
-29.2616

> <Gold.PLP.part.repulsive>
0.1850

> <Gold.PLP.ligand.clash>
0.0000

> <Gold.PLP.ligand.torsion>
1.1143

> <Gold.PLP.Chemscore.Hbond>
2.9088

> <Gold.PLP.Chemscore.CHOScore>
1.1980

> <Gold.PLP.Chemscore.Metal>
0.0000

> <Gold.Chemscore.Hbonds>
donor molecule, donor type, donor heavy atom, donor atom, acceptor molecule, acceptor atom, score
      P1  H  6896  6909       L1    17  0.52
      P1  H  6931  6943       L1    16  0.67
      P1  H  6934  6947       L1    16  0.69
      P1  H  7997  8009       L1    11  1.00
      L1  C     7    27       P1  8028  0.61
      L1  C     7    27       P1  8029  0.52

> <Gold.PLP.Chemscore.Internal.Correction>
0.0112

> <Gold.Rescore>
     Score         DG    S(hbond)    S(metal)    S(lipo)     H(rot)  DE(clash)    DE(int)     intcor
     19.11     -20.48       3.04        0.00      79.66       1.75       0.07       1.30       ----

> <Gold.Chemscore.Fitness>
19.1071

> <Gold.Chemscore.DG>
-20.4751

> <Gold.Chemscore.ZeroCoef>
-5.4800

> <Gold.Chemscore.Hbond>
3.0375

> <Gold.Chemscore.Metal>
0.0000

> <Gold.Chemscore.Lipo>
79.6557

> <Gold.Chemscore.Internal_Hbond>
0.0000

> <Gold.Chemscore.DEClash>
0.0689

> <Gold.Chemscore.DEInternal>
1.2991

> <Gold.Chemscore.Rot>
1.7460

> <Gold.Chemscore.Internal.Correction>
   9.000000E+99

> <Gold.Chemscore.Hbonds>
donor molecule, donor type, donor heavy atom, donor atom, acceptor molecule, acceptor atom, score
      P1  H  6896  6909       L1    17  0.50
      P1  H  6931  6943       L1    16  0.51
      P1  H  6934  6947       L1    16  0.68
      P1  H  7997  8009       L1    11  0.96

> <Gold.Chemscore.Hbond.Weighted>
-10.1451

> <Gold.Chemscore.Metal.Weighted>
-0.0000

> <Gold.Chemscore.Lipo.Weighted>
-9.3197

> <Gold.Chemscore.Internal_Hbond.Weighted>
0.0000

> <Gold.Chemscore.DEClash.Weighted>
0.0689

> <Gold.Chemscore.DEInternal.Weighted>
1.2991

> <Gold.Chemscore.Rot.Weighted>
4.4697

> <Gold.Chemscore.Internal.Correction.Weighted>
   9.000000E+99

> <Gold.Protein.RotatedTorsions>
[ 6907 6896 6895 6894 ] final   30.66 input  -60.11 | X-H torsion
[ 7974 7965 7964 7962 ] final  -41.98 input  175.53 | X-H torsion
[ 8008 7997 7996 7995 ] final  165.68 input   59.86 | X-H torsion
[ 10167 10162 10161 10158 ] final -172.26 input  -65.29 | X-H torsion
[ 10718 10713 10712 10709 ] final -144.35 input   66.30 | X-H torsion
[ 10763 10752 10751 10750 ] final   67.87 input  -60.55 | X-H torsion
[ 11005 11000 10999 10996 ] final -175.88 input  -57.11 | X-H torsion

> <Gold.Protein.ActiveResidues>
 VAL166  LYS551  ARG553  GLY616  TRP617  ASP618  TYR619  PRO620  LYS621  CYS622 
 ASP623  PHE694  ASN695  SER759  ASP760  ASP761  ALA762  ILE779  LEU786  VAL792 
 PHE793  MET794  SER795  GLU796  ALA797  LYS798  CYS799  TRP800  GLU811  SER814 

> <Gold.Protein.RotatedAtoms>
  152.0491  134.9665  160.0574 H   0  0  0  0  0  0  0  0  0  0  0  0  # atno 6907 bound_to 6896
  152.1073  133.4277  159.4623 H   0  0  0  0  0  0  0  0  0  0  0  0  # atno 6908 bound_to 6896
  150.6842  134.2609  159.4592 H   0  0  0  0  0  0  0  0  0  0  0  0  # atno 6909 bound_to 6896
  146.0159  140.6908  142.9201 H   0  0  0  0  0  0  0  0  0  0  0  0  # atno 7974 bound_to 7965
  156.1781  140.1663  156.8325 H   0  0  0  0  0  0  0  0  0  0  0  0  # atno 8008 bound_to 7997
  154.5329  140.0753  156.8410 H   0  0  0  0  0  0  0  0  0  0  0  0  # atno 8009 bound_to 7997
  155.3370  140.3382  155.4241 H   0  0  0  0  0  0  0  0  0  0  0  0  # atno 8010 bound_to 7997
  139.5755  144.1543  152.1444 H   0  0  0  0  0  0  0  0  0  0  0  0  # atno 10167 bound_to 10162
  156.3690  130.7778  151.1956 H   0  0  0  0  0  0  0  0  0  0  0  0  # atno 10718 bound_to 10713
  153.0207  135.5268  154.7046 H   0  0  0  0  0  0  0  0  0  0  0  0  # atno 10763 bound_to 10752
  154.6145  135.2882  155.0397 H   0  0  0  0  0  0  0  0  0  0  0  0  # atno 10764 bound_to 10752
  154.1407  135.6578  153.4994 H   0  0  0  0  0  0  0  0  0  0  0  0  # atno 10765 bound_to 10752
  140.4583  134.6278  157.4832 H   0  0  0  0  0  0  0  0  0  0  0  0  # atno 11005 bound_to 11000
  144.6971  140.3481  143.7187 LP  0  0  0  0  0  0  0  0  0  0  0  0  # atno 17320 bound_to 7965
  145.7269  139.1725  143.2453 LP  0  0  0  0  0  0  0  0  0  0  0  0  # atno 17321 bound_to 7965
  140.1085  144.5478  150.6941 LP  0  0  0  0  0  0  0  0  0  0  0  0  # atno 17342 bound_to 10162
  140.7037  143.2453  151.4788 LP  0  0  0  0  0  0  0  0  0  0  0  0  # atno 17343 bound_to 10162
  157.7482  131.0378  150.4471 LP  0  0  0  0  0  0  0  0  0  0  0  0  # atno 17370 bound_to 10713
  156.4695  130.4049  149.6527 LP  0  0  0  0  0  0  0  0  0  0  0  0  # atno 17371 bound_to 10713
  139.9962  134.6908  155.9606 LP  0  0  0  0  0  0  0  0  0  0  0  0  # atno 17394 bound_to 11000
  141.1633  133.6538  156.4392 LP  0  0  0  0  0  0  0  0  0  0  0  0  # atno 17395 bound_to 11000

$$$$
