AV-unprocessed.smi:2594|AV-procd|sdf|10166|dock2
  -GOLD-   2272014183D 1   1.00000     0.00000
 Structure written by MMmdl.
 29 30  0  0  0  0  0  0  0  0  1 V2000
  150.5548  140.3396  154.9684 O   0  0  0  0  0  0  0  0  0  0  0  0
  149.9378  141.3996  155.0862 C   0  0  0  0  0  0  0  0  0  0  0  0
  148.8472  141.7886  154.0794 C   0  0  0  0  0  0  0  0  0  0  0  0
  147.8437  140.7397  153.8932 N   0  0  0  0  0  0  0  0  0  0  0  0
  148.2146  139.6009  153.2481 N   0  0  0  0  0  0  0  0  0  0  0  0
  147.2347  138.7821  153.1414 C   0  0  0  0  0  0  0  0  0  0  0  0
  145.6970  139.3100  153.8375 S   0  0  0  0  0  0  0  0  0  0  0  0
  146.5204  140.8187  154.3189 C   0  0  0  0  0  0  0  0  0  0  0  0
  145.9620  141.7352  154.9197 O   0  0  0  0  0  0  0  0  0  0  0  0
  150.1535  142.2663  156.0871 N   0  0  0  0  0  0  0  0  0  0  0  0
  151.1578  142.1031  157.1319 C   0  0  0  0  0  0  0  0  0  0  0  0
  151.1323  143.2768  158.1253 C   0  0  2  0  0  0  0  0  0  0  0  0
  152.0416  144.4376  157.7313 C   0  0  0  0  0  0  0  0  0  0  0  0
  152.2541  145.1171  159.0650 C   0  0  0  0  0  0  0  0  0  0  0  0
  152.3397  143.9280  160.0197 C   0  0  0  0  0  0  0  0  0  0  0  0
  151.6150  142.8667  159.4017 O   0  0  0  0  0  0  0  0  0  0  0  0
  148.3722  142.7094  154.4212 H   0  0  0  0  0  0  0  0  0  0  0  0
  149.3036  142.0167  153.1147 H   0  0  0  0  0  0  0  0  0  0  0  0
  147.2643  137.8018  152.6661 H   0  0  0  0  0  0  0  0  0  0  0  0
  149.6016  143.1114  156.1131 H   0  0  0  0  0  0  0  0  0  0  0  0
  150.9652  141.1653  157.6536 H   0  0  0  0  0  0  0  0  0  0  0  0
  152.1474  142.0096  156.6819 H   0  0  0  0  0  0  0  0  0  0  0  0
  150.1157  143.6533  158.2518 H   0  0  0  0  0  0  0  0  0  0  0  0
  152.9923  144.0695  157.3426 H   0  0  0  0  0  0  0  0  0  0  0  0
  151.5945  145.0929  156.9832 H   0  0  0  0  0  0  0  0  0  0  0  0
  153.1420  145.7494  159.0891 H   0  0  0  0  0  0  0  0  0  0  0  0
  151.3881  145.7335  159.3105 H   0  0  0  0  0  0  0  0  0  0  0  0
  153.3752  143.6106  160.1466 H   0  0  0  0  0  0  0  0  0  0  0  0
  151.9348  144.1626  161.0041 H   0  0  0  0  0  0  0  0  0  0  0  0
  1  2  2  0  0  0  0
  2  3  1  0  0  0  0
  2 10  1  0  0  0  0
  3  4  1  0  0  0  0
  3 17  1  0  0  0  0
  3 18  1  0  0  0  0
  4  8  1  0  0  0  0
  4  5  1  0  0  0  0
  5  6  2  0  0  0  0
  6  7  1  0  0  0  0
  6 19  1  0  0  0  0
  7  8  1  0  0  0  0
  8  9  2  0  0  0  0
 10 11  1  0  0  0  0
 10 20  1  0  0  0  0
 11 12  1  0  0  0  0
 11 21  1  0  0  0  0
 11 22  1  0  0  0  0
 12 16  1  0  0  0  0
 12 13  1  0  0  0  0
 12 23  1  0  0  0  0
 13 14  1  0  0  0  0
 13 24  1  0  0  0  0
 13 25  1  0  0  0  0
 14 15  1  0  0  0  0
 14 26  1  0  0  0  0
 14 27  1  0  0  0  0
 15 16  1  0  0  0  0
 15 28  1  0  0  0  0
 15 29  1  0  0  0  0
M  END
> <s_m_source_file>
AV-unprocessed.smi

> <i_m_source_file_index>
2594

> <i_lp_mmshare_version>
43012

> <i_f3d_flags>
0

> <s_epik_input>
TzFbQ0gyXVtDSDJdW0NIMl1bQ0BIXTFbQ0gyXVtOSF1DKD1PKVtDSDJdbjJuW2NIXXNjMj1P

> <s_epik_cmdline>
J2VwaWtfcHl0aG9uJywgJy1waCcsICc3LjAnLCAnLXRuJywgJzgnLCAnLW1hJywgJzIwMCcsICctbWV0YWxfYmluZGluZycsICctaW1hZScsICc8aW5maWxlLm1hZT4nLCAnLW9tYWUnLCAnPG91dGZpbGUubWFlPic=

> <r_lp_tautomer_probability>
1

> <r_epik_Ionization_Penalty>
2.49222e-07

> <r_epik_Ionization_Penalty_Charging>
1.4085e-08

> <r_epik_Ionization_Penalty_Neutral>
2.35137e-07

> <r_epik_State_Penalty>
-0

> <r_epik_Charging_Adjusted_Penalty>
1.4085e-08

> <i_epik_Tot_Q>
0

> <i_epik_Tot_abs_Q>
0

> <r_epik_Metal_State_Penalty>
-0

> <b_epik_Metal_Only>
0

> <s_lp_Force_Field>
OPLS_2005

> <r_lp_Energy>
18.2258

> <b_lp_Chiralities_Consistent>
1

> <s_lp_Variant>
AV-unprocessed.smi:2594-1

> <Gold.Version>
5.8.1

> <Gold.Id.Protein>
6NUR|6NUR_protein|mol2

> <Gold.PLP.Fitness>
38.4252

> <Gold.PLP.PLP>
-30.6808

> <Gold.PLP.part.hbond>
-2.0000

> <Gold.PLP.part.metal>
0.0000

> <Gold.PLP.part.buried>
-4.4990

> <Gold.PLP.part.nonpolar>
-25.0647

> <Gold.PLP.part.repulsive>
1.7465

> <Gold.PLP.ligand.clash>
0.0000

> <Gold.PLP.ligand.torsion>
0.4806

> <Gold.PLP.Chemscore.Hbond>
1.8960

> <Gold.PLP.Chemscore.CHOScore>
1.0000

> <Gold.PLP.Chemscore.Metal>
0.0000

> <Gold.Chemscore.Hbonds>
donor molecule, donor type, donor heavy atom, donor atom, acceptor molecule, acceptor atom, score
      L1  H    10    20       P1  8028  1.00
      P1  H  7989  7998       L1     1  0.80
      L1  C     6    19       P1  7948  1.00

> <Gold.PLP.Chemscore.Internal.Correction>
0.0177

> <Gold.Rescore>
     Score         DG    S(hbond)    S(metal)    S(lipo)     H(rot)  DE(clash)    DE(int)     intcor
     13.58     -14.41       1.60        0.00      74.32       2.00       0.19       0.63       ----

> <Gold.Chemscore.Fitness>
13.5823

> <Gold.Chemscore.DG>
-14.4084

> <Gold.Chemscore.ZeroCoef>
-5.4800

> <Gold.Chemscore.Hbond>
1.5991

> <Gold.Chemscore.Metal>
0.0000

> <Gold.Chemscore.Lipo>
74.3183

> <Gold.Chemscore.Internal_Hbond>
0.0000

> <Gold.Chemscore.DEClash>
0.1946

> <Gold.Chemscore.DEInternal>
0.6315

> <Gold.Chemscore.Rot>
1.9952

> <Gold.Chemscore.Internal.Correction>
   9.000000E+99

> <Gold.Chemscore.Hbonds>
donor molecule, donor type, donor heavy atom, donor atom, acceptor molecule, acceptor atom, score
      L1  H    10    20       P1  8028  1.00
      P1  H  7989  7998       L1     1  0.12

> <Gold.Chemscore.Hbond.Weighted>
-5.3409

> <Gold.Chemscore.Metal.Weighted>
-0.0000

> <Gold.Chemscore.Lipo.Weighted>
-8.6952

> <Gold.Chemscore.Internal_Hbond.Weighted>
0.0000

> <Gold.Chemscore.DEClash.Weighted>
0.1946

> <Gold.Chemscore.DEInternal.Weighted>
0.6315

> <Gold.Chemscore.Rot.Weighted>
5.1077

> <Gold.Chemscore.Internal.Correction.Weighted>
   9.000000E+99

> <Gold.Protein.RotatedTorsions>
[ 6907 6896 6895 6894 ] final   72.05 input  -60.11 | X-H torsion
[ 7974 7965 7964 7962 ] final  -40.59 input  175.53 | X-H torsion
[ 8008 7997 7996 7995 ] final   -6.07 input   59.86 | X-H torsion
[ 10167 10162 10161 10158 ] final   99.56 input  -65.29 | X-H torsion
[ 10718 10713 10712 10709 ] final -125.06 input   66.30 | X-H torsion
[ 10763 10752 10751 10750 ] final    8.58 input  -60.55 | X-H torsion
[ 11005 11000 10999 10996 ] final -162.38 input  -57.11 | X-H torsion

> <Gold.Protein.ActiveResidues>
 VAL166  LYS551  ARG553  GLY616  TRP617  ASP618  TYR619  PRO620  LYS621  CYS622 
 ASP623  PHE694  ASN695  SER759  ASP760  ASP761  ALA762  ILE779  LEU786  VAL792 
 PHE793  MET794  SER795  GLU796  ALA797  LYS798  CYS799  TRP800  GLU811  SER814 

> <Gold.Protein.RotatedAtoms>
  152.4846  134.4628  159.9610 H   0  0  0  0  0  0  0  0  0  0  0  0  # atno 6907 bound_to 6896
  151.4627  133.3582  159.2819 H   0  0  0  0  0  0  0  0  0  0  0  0  # atno 6908 bound_to 6896
  150.8945  134.8377  159.7377 H   0  0  0  0  0  0  0  0  0  0  0  0  # atno 6909 bound_to 6896
  146.0291  140.6755  142.9141 H   0  0  0  0  0  0  0  0  0  0  0  0  # atno 7974 bound_to 7965
  154.5974  140.2442  155.7838 H   0  0  0  0  0  0  0  0  0  0  0  0  # atno 8008 bound_to 7997
  156.2288  140.2973  156.0089 H   0  0  0  0  0  0  0  0  0  0  0  0  # atno 8009 bound_to 7997
  155.2269  140.0402  157.2947 H   0  0  0  0  0  0  0  0  0  0  0  0  # atno 8010 bound_to 7997
  139.7607  144.6955  151.0297 H   0  0  0  0  0  0  0  0  0  0  0  0  # atno 10167 bound_to 10162
  156.1642  130.6623  151.0092 H   0  0  0  0  0  0  0  0  0  0  0  0  # atno 10718 bound_to 10713
  153.2235  135.6884  153.7973 H   0  0  0  0  0  0  0  0  0  0  0  0  # atno 10763 bound_to 10752
  153.7163  135.3274  155.3258 H   0  0  0  0  0  0  0  0  0  0  0  0  # atno 10764 bound_to 10752
  154.8280  135.4602  154.1091 H   0  0  0  0  0  0  0  0  0  0  0  0  # atno 10765 bound_to 10752
  140.6099  134.4860  157.5214 H   0  0  0  0  0  0  0  0  0  0  0  0  # atno 11005 bound_to 11000
  144.7022  140.3703  143.7146 LP  0  0  0  0  0  0  0  0  0  0  0  0  # atno 17320 bound_to 7965
  145.7070  139.1675  143.2560 LP  0  0  0  0  0  0  0  0  0  0  0  0  # atno 17321 bound_to 7965
  140.7807  143.4701  151.0158 LP  0  0  0  0  0  0  0  0  0  0  0  0  # atno 17342 bound_to 10162
  139.8387  143.7593  152.3180 LP  0  0  0  0  0  0  0  0  0  0  0  0  # atno 17343 bound_to 10162
  157.6755  131.0851  150.7504 LP  0  0  0  0  0  0  0  0  0  0  0  0  # atno 17370 bound_to 10713
  156.7566  130.4785  149.5445 LP  0  0  0  0  0  0  0  0  0  0  0  0  # atno 17371 bound_to 10713
  139.9196  134.8175  156.1253 LP  0  0  0  0  0  0  0  0  0  0  0  0  # atno 17394 bound_to 11000
  141.0815  133.6752  156.2346 LP  0  0  0  0  0  0  0  0  0  0  0  0  # atno 17395 bound_to 11000

$$$$
