AV-unprocessed.smi:2191|AV-procd|sdf|8895|dock5
  -GOLD-   2272012103D 1   1.00000     0.00000
 Structure written by MMmdl.
 37 39  0  0  0  0  0  0  0  0  2 V2000
  153.0098  139.3045  156.1482 O   0  0  0  0  0  0  0  0  0  0  0  0
  151.7903  139.5880  156.8052 C   0  0  1  0  0  0  0  0  0  0  0  0
  152.1026  140.1425  158.2025 C   0  0  0  0  0  0  0  0  0  0  0  0
  151.9931  141.5596  158.1701 O   0  0  0  0  0  0  0  0  0  0  0  0
  152.2220  142.2587  159.3357 C   0  0  0  0  0  0  0  0  0  0  0  0
  151.8903  143.6296  159.3358 C   0  0  0  0  0  0  0  0  0  0  0  0
  152.0927  144.4207  160.4831 C   0  0  0  0  0  0  0  0  0  0  0  0
  152.6302  143.8446  161.6488 C   0  0  0  0  0  0  0  0  0  0  0  0
  152.9634  142.4776  161.6640 C   0  0  0  0  0  0  0  0  0  0  0  0
  152.7618  141.6865  160.5160 C   0  0  0  0  0  0  0  0  0  0  0  0
  150.9575  140.5677  155.9536 C   0  0  0  0  0  0  0  0  0  0  0  0
  150.0930  139.8849  154.9824 N   0  0  0  0  0  0  0  0  0  0  0  0
  150.2102  138.6520  154.4190 C   0  0  0  0  0  0  0  0  0  0  0  0
  149.1499  138.4807  153.5810 N   0  3  0  0  0  0  0  0  0  0  0  0
  148.3443  139.6213  153.6092 C   0  0  0  0  0  0  0  0  0  0  0  0
  147.1646  139.9221  152.9353 C   0  0  0  0  0  0  0  0  0  0  0  0
  146.5922  141.1850  153.1946 C   0  0  0  0  0  0  0  0  0  0  0  0
  147.1910  142.0936  154.0917 C   0  0  0  0  0  0  0  0  0  0  0  0
  148.3881  141.7790  154.7683 C   0  0  0  0  0  0  0  0  0  0  0  0
  148.9458  140.5281  154.5073 C   0  0  0  0  0  0  0  0  0  0  0  0
  152.9809  138.4144  155.8323 H   0  0  0  0  0  0  0  0  0  0  0  0
  151.2531  138.6452  156.9131 H   0  0  0  0  0  0  0  0  0  0  0  0
  151.3893  139.7402  158.9243 H   0  0  0  0  0  0  0  0  0  0  0  0
  153.1048  139.8391  158.5103 H   0  0  0  0  0  0  0  0  0  0  0  0
  151.4774  144.0804  158.4451 H   0  0  0  0  0  0  0  0  0  0  0  0
  151.8356  145.4695  160.4683 H   0  0  0  0  0  0  0  0  0  0  0  0
  152.7862  144.4496  162.5298 H   0  0  0  0  0  0  0  0  0  0  0  0
  153.3745  142.0333  162.5583 H   0  0  0  0  0  0  0  0  0  0  0  0
  153.0286  140.6420  160.5678 H   0  0  0  0  0  0  0  0  0  0  0  0
  150.3301  141.2000  156.5831 H   0  0  0  0  0  0  0  0  0  0  0  0
  151.6122  141.2392  155.3960 H   0  0  0  0  0  0  0  0  0  0  0  0
  150.9994  137.9378  154.6050 H   0  0  0  0  0  0  0  0  0  0  0  0
  146.7030  139.2286  152.2477 H   0  0  0  0  0  0  0  0  0  0  0  0
  145.6751  141.4625  152.6953 H   0  0  0  0  0  0  0  0  0  0  0  0
  146.7224  143.0516  154.2652 H   0  0  0  0  0  0  0  0  0  0  0  0
  148.8392  142.4800  155.4553 H   0  0  0  0  0  0  0  0  0  0  0  0
  148.9906  137.6454  153.0324 H   0  0  0  0  0  0  0  0  0  0  0  0
  1  2  1  0  0  0  0
  1 21  1  0  0  0  0
  2  3  1  0  0  0  0
  2 11  1  0  0  0  0
  2 22  1  0  0  0  0
  3  4  1  0  0  0  0
  3 23  1  0  0  0  0
  3 24  1  0  0  0  0
  4  5  1  0  0  0  0
  5 10  1  0  0  0  0
  5  6  2  0  0  0  0
  6  7  1  0  0  0  0
  6 25  1  0  0  0  0
  7  8  2  0  0  0  0
  7 26  1  0  0  0  0
  8  9  1  0  0  0  0
  8 27  1  0  0  0  0
  9 10  2  0  0  0  0
  9 28  1  0  0  0  0
 10 29  1  0  0  0  0
 11 12  1  0  0  0  0
 11 30  1  0  0  0  0
 11 31  1  0  0  0  0
 12 20  1  0  0  0  0
 12 13  1  0  0  0  0
 13 14  2  0  0  0  0
 13 32  1  0  0  0  0
 14 15  1  0  0  0  0
 14 37  1  0  0  0  0
 15 20  2  0  0  0  0
 15 16  1  0  0  0  0
 16 17  2  0  0  0  0
 16 33  1  0  0  0  0
 17 18  1  0  0  0  0
 17 34  1  0  0  0  0
 18 19  2  0  0  0  0
 18 35  1  0  0  0  0
 19 20  1  0  0  0  0
 19 36  1  0  0  0  0
M  CHG  1  14   1
M  END
> <s_m_source_file>
AV-unprocessed.smi

> <i_m_source_file_index>
2191

> <i_lp_mmshare_version>
43012

> <i_f3d_flags>
0

> <s_epik_input>
W2NIXTFbY0hdW2NIXVtjSF1jKGMxMiluKFtjSF1uMilbQ0gyXVtDQEhdKFtPSF0pW0NIMl1PYzNbY0hdW2NIXVtjSF1bY0hdW2NIXTM=

> <s_epik_cmdline>
J2VwaWtfcHl0aG9uJywgJy1waCcsICc3LjAnLCAnLXRuJywgJzgnLCAnLW1hJywgJzIwMCcsICctbWV0YWxfYmluZGluZycsICctaW1hZScsICc8aW5maWxlLm1hZT4nLCAnLW9tYWUnLCAnPG91dGZpbGUubWFlPic=

> <r_lp_tautomer_probability>
1

> <r_epik_Ionization_Penalty>
1.35015

> <r_epik_Ionization_Penalty_Charging>
1.35015

> <r_epik_Ionization_Penalty_Neutral>
2.3993e-06

> <r_epik_State_Penalty>
1.42814

> <r_epik_Charging_Adjusted_Penalty>
2.77829

> <i_epik_Tot_Q>
1

> <i_epik_Tot_abs_Q>
1

> <r_epik_Metal_State_Penalty>
5.46522

> <b_epik_Metal_Only>
0

> <s_lp_Force_Field>
OPLS_2005

> <r_lp_Energy>
19.3108

> <b_lp_Chiralities_Consistent>
1

> <s_lp_Variant>
AV-unprocessed.smi:2191-4

> <Gold.Version>
5.8.1

> <Gold.Id.Protein>
6NUR|6NUR_protein|mol2

> <Gold.PLP.Fitness>
54.4196

> <Gold.PLP.PLP>
-48.0594

> <Gold.PLP.part.hbond>
-2.7656

> <Gold.PLP.part.metal>
0.0000

> <Gold.PLP.part.buried>
0.6697

> <Gold.PLP.part.nonpolar>
-46.3274

> <Gold.PLP.part.repulsive>
0.0701

> <Gold.PLP.ligand.clash>
0.0000

> <Gold.PLP.ligand.torsion>
1.3389

> <Gold.PLP.Chemscore.Hbond>
3.0000

> <Gold.PLP.Chemscore.CHOScore>
0.0000

> <Gold.PLP.Chemscore.Metal>
0.0000

> <Gold.Chemscore.Hbonds>
donor molecule, donor type, donor heavy atom, donor atom, acceptor molecule, acceptor atom, score
      L1  H    14    37       P1  7948  2.00
      P1  H  7997  8008       L1     1  1.00

> <Gold.PLP.Chemscore.Internal.Correction>
0.0379

> <Gold.Rescore>
     Score         DG    S(hbond)    S(metal)    S(lipo)     H(rot)  DE(clash)    DE(int)     intcor
     18.86     -20.44       1.87        0.00     125.05       2.31       0.24       1.34       ----

> <Gold.Chemscore.Fitness>
18.8586

> <Gold.Chemscore.DG>
-20.4391

> <Gold.Chemscore.ZeroCoef>
-5.4800

> <Gold.Chemscore.Hbond>
1.8652

> <Gold.Chemscore.Metal>
0.0000

> <Gold.Chemscore.Lipo>
125.0506

> <Gold.Chemscore.Internal_Hbond>
0.0000

> <Gold.Chemscore.DEClash>
0.2382

> <Gold.Chemscore.DEInternal>
1.3424

> <Gold.Chemscore.Rot>
2.3053

> <Gold.Chemscore.Internal.Correction>
   9.000000E+99

> <Gold.Chemscore.Hbonds>
donor molecule, donor type, donor heavy atom, donor atom, acceptor molecule, acceptor atom, score
      L1  H    14    37       P1  7948  1.00
      P1  H  7997  8008       L1     1  0.94

> <Gold.Chemscore.Hbond.Weighted>
-6.2297

> <Gold.Chemscore.Metal.Weighted>
-0.0000

> <Gold.Chemscore.Lipo.Weighted>
-14.6309

> <Gold.Chemscore.Internal_Hbond.Weighted>
0.0000

> <Gold.Chemscore.DEClash.Weighted>
0.2382

> <Gold.Chemscore.DEInternal.Weighted>
1.3424

> <Gold.Chemscore.Rot.Weighted>
5.9015

> <Gold.Chemscore.Internal.Correction.Weighted>
   9.000000E+99

> <Gold.Protein.RotatedTorsions>
[ 6907 6896 6895 6894 ] final  -14.13 input  -60.11 | X-H torsion
[ 7974 7965 7964 7962 ] final -159.01 input  175.53 | X-H torsion
[ 8008 7997 7996 7995 ] final  -58.64 input   59.86 | X-H torsion
[ 10167 10162 10161 10158 ] final   14.99 input  -65.29 | X-H torsion
[ 10718 10713 10712 10709 ] final -167.33 input   66.30 | X-H torsion
[ 10763 10752 10751 10750 ] final  -94.48 input  -60.55 | X-H torsion
[ 11005 11000 10999 10996 ] final  113.87 input  -57.11 | X-H torsion

> <Gold.Protein.ActiveResidues>
 VAL166  LYS551  ARG553  GLY616  TRP617  ASP618  TYR619  PRO620  LYS621  CYS622 
 ASP623  PHE694  ASN695  SER759  ASP760  ASP761  ALA762  ILE779  LEU786  VAL792 
 PHE793  MET794  SER795  GLU796  ALA797  LYS798  CYS799  TRP800  GLU811  SER814 

> <Gold.Protein.RotatedAtoms>
  151.3442  135.0870  159.9380 H   0  0  0  0  0  0  0  0  0  0  0  0  # atno 6907 bound_to 6896
  152.5204  133.9417  159.7640 H   0  0  0  0  0  0  0  0  0  0  0  0  # atno 6908 bound_to 6896
  150.9780  133.6221  159.2757 H   0  0  0  0  0  0  0  0  0  0  0  0  # atno 6909 bound_to 6896
  144.7482  140.3746  143.6068 H   0  0  0  0  0  0  0  0  0  0  0  0  # atno 7974 bound_to 7965
  154.4317  140.1079  156.5989 H   0  0  0  0  0  0  0  0  0  0  0  0  # atno 8008 bound_to 7997
  155.5933  140.3492  155.4554 H   0  0  0  0  0  0  0  0  0  0  0  0  # atno 8009 bound_to 7997
  156.0230  140.1244  157.0327 H   0  0  0  0  0  0  0  0  0  0  0  0  # atno 8010 bound_to 7997
  140.5898  143.8818  150.6863 H   0  0  0  0  0  0  0  0  0  0  0  0  # atno 10167 bound_to 10162
  156.6808  130.9121  151.3056 H   0  0  0  0  0  0  0  0  0  0  0  0  # atno 10718 bound_to 10713
  154.7059  135.5156  153.8594 H   0  0  0  0  0  0  0  0  0  0  0  0  # atno 10763 bound_to 10752
  153.0741  135.6610  154.0193 H   0  0  0  0  0  0  0  0  0  0  0  0  # atno 10764 bound_to 10752
  154.0044  135.3008  155.3379 H   0  0  0  0  0  0  0  0  0  0  0  0  # atno 10765 bound_to 10752
  139.8965  134.9558  156.6806 H   0  0  0  0  0  0  0  0  0  0  0  0  # atno 11005 bound_to 11000
  145.7042  139.1668  143.2576 LP  0  0  0  0  0  0  0  0  0  0  0  0  # atno 17320 bound_to 7965
  146.1394  140.7078  142.9374 LP  0  0  0  0  0  0  0  0  0  0  0  0  # atno 17321 bound_to 7965
  140.2338  143.3715  152.1543 LP  0  0  0  0  0  0  0  0  0  0  0  0  # atno 17342 bound_to 10162
  139.5220  144.7053  151.5372 LP  0  0  0  0  0  0  0  0  0  0  0  0  # atno 17343 bound_to 10162
  157.7044  130.9369  150.0885 LP  0  0  0  0  0  0  0  0  0  0  0  0  # atno 17370 bound_to 10713
  156.1869  130.3652  149.8961 LP  0  0  0  0  0  0  0  0  0  0  0  0  # atno 17371 bound_to 10713
  140.7302  133.9065  155.8206 LP  0  0  0  0  0  0  0  0  0  0  0  0  # atno 17394 bound_to 11000
  141.0159  134.0956  157.4173 LP  0  0  0  0  0  0  0  0  0  0  0  0  # atno 17395 bound_to 11000

$$$$
