AV-unprocessed.smi:1474|AV-procd|sdf|5975|dock2
  -GOLD-   22720 6 63D 1   1.00000     0.00000
 Structure written by MMmdl.
 43 44  0  0  0  0  0  0  0  0  1 V2000
  151.5310  144.7573  160.7561 C   0  0  0  0  0  0  0  0  0  0  0  0
  152.1412  143.9952  159.7295 O   0  0  0  0  0  0  0  0  0  0  0  0
  152.7120  142.7911  160.2140 C   0  0  0  0  0  0  0  0  0  0  0  0
  152.9353  141.8310  159.0419 C   0  0  0  0  0  0  0  0  0  0  0  0
  151.6854  141.5929  158.4016 O   0  0  0  0  0  0  0  0  0  0  0  0
  151.6511  140.7384  157.3190 C   0  0  0  0  0  0  0  0  0  0  0  0
  150.4792  140.6894  156.5380 C   0  0  0  0  0  0  0  0  0  0  0  0
  150.4350  139.8166  155.4344 C   0  0  0  0  0  0  0  0  0  0  0  0
  151.5624  139.0161  155.1494 C   0  0  0  0  0  0  0  0  0  0  0  0
  151.5905  138.0544  153.9699 C   0  0  0  0  0  0  0  0  0  0  0  0
  150.6634  136.9332  154.0878 N   0  0  0  0  0  0  0  0  0  0  0  0
  150.5215  136.1659  155.1801 C   0  0  0  0  0  0  0  0  0  0  0  0
  151.1754  136.3404  156.2087 O   0  0  0  0  0  0  0  0  0  0  0  0
  149.4660  135.0468  155.0964 C   0  0  1  0  0  0  0  0  0  0  0  0
  150.0547  133.7229  154.5743 C   0  0  0  0  0  0  0  0  0  0  0  0
  150.9932  133.0352  155.5840 C   0  0  0  0  0  0  0  0  0  0  0  0
  150.4687  133.0529  157.0278 C   0  0  0  0  0  0  0  0  0  0  0  0
  150.9655  132.2968  157.8595 O   0  0  0  0  0  0  0  0  0  0  0  0
  149.5035  133.9273  157.3622 N   0  0  0  0  0  0  0  0  0  0  0  0
  148.7570  134.7920  156.4458 C   0  0  0  0  0  0  0  0  0  0  0  0
  152.6900  139.1429  155.9872 C   0  0  0  0  0  0  0  0  0  0  0  0
  152.7407  139.9781  157.0465 N   0  0  0  0  0  0  0  0  0  0  0  0
  151.1058  145.6678  160.3335 H   0  0  0  0  0  0  0  0  0  0  0  0
  152.2561  145.0465  161.5179 H   0  0  0  0  0  0  0  0  0  0  0  0
  150.7242  144.2000  161.2339 H   0  0  0  0  0  0  0  0  0  0  0  0
  153.6685  143.0139  160.6892 H   0  0  0  0  0  0  0  0  0  0  0  0
  152.0717  142.3291  160.9671 H   0  0  0  0  0  0  0  0  0  0  0  0
  153.6644  142.2475  158.3447 H   0  0  0  0  0  0  0  0  0  0  0  0
  153.3347  140.8904  159.4242 H   0  0  0  0  0  0  0  0  0  0  0  0
  149.6304  141.3117  156.7808 H   0  0  0  0  0  0  0  0  0  0  0  0
  149.5475  139.7682  154.8211 H   0  0  0  0  0  0  0  0  0  0  0  0
  151.3349  138.6127  153.0694 H   0  0  0  0  0  0  0  0  0  0  0  0
  152.6042  137.6782  153.8209 H   0  0  0  0  0  0  0  0  0  0  0  0
  150.0893  136.7276  153.2832 H   0  0  0  0  0  0  0  0  0  0  0  0
  148.7055  135.3797  154.3879 H   0  0  0  0  0  0  0  0  0  0  0  0
  149.2364  133.0435  154.3319 H   0  0  0  0  0  0  0  0  0  0  0  0
  150.5865  133.8907  153.6368 H   0  0  0  0  0  0  0  0  0  0  0  0
  151.1745  132.0045  155.2779 H   0  0  0  0  0  0  0  0  0  0  0  0
  151.9646  133.5304  155.5802 H   0  0  0  0  0  0  0  0  0  0  0  0
  149.2132  133.9445  158.3293 H   0  0  0  0  0  0  0  0  0  0  0  0
  148.5394  135.7335  156.9523 H   0  0  0  0  0  0  0  0  0  0  0  0
  147.7918  134.3187  156.2622 H   0  0  0  0  0  0  0  0  0  0  0  0
  153.5785  138.5563  155.8050 H   0  0  0  0  0  0  0  0  0  0  0  0
  1  2  1  0  0  0  0
  1 23  1  0  0  0  0
  1 24  1  0  0  0  0
  1 25  1  0  0  0  0
  2  3  1  0  0  0  0
  3  4  1  0  0  0  0
  3 26  1  0  0  0  0
  3 27  1  0  0  0  0
  4  5  1  0  0  0  0
  4 28  1  0  0  0  0
  4 29  1  0  0  0  0
  5  6  1  0  0  0  0
  6 22  1  0  0  0  0
  6  7  2  0  0  0  0
  7  8  1  0  0  0  0
  7 30  1  0  0  0  0
  8  9  2  0  0  0  0
  8 31  1  0  0  0  0
  9 10  1  0  0  0  0
  9 21  1  0  0  0  0
 10 11  1  0  0  0  0
 10 32  1  0  0  0  0
 10 33  1  0  0  0  0
 11 12  1  0  0  0  0
 11 34  1  0  0  0  0
 12 13  2  0  0  0  0
 12 14  1  0  0  0  0
 14 20  1  0  0  0  0
 14 15  1  0  0  0  0
 14 35  1  0  0  0  0
 15 16  1  0  0  0  0
 15 36  1  0  0  0  0
 15 37  1  0  0  0  0
 16 17  1  0  0  0  0
 16 38  1  0  0  0  0
 16 39  1  0  0  0  0
 17 18  2  0  0  0  0
 17 19  1  0  0  0  0
 19 20  1  0  0  0  0
 19 40  1  0  0  0  0
 20 41  1  0  0  0  0
 20 42  1  0  0  0  0
 21 22  2  0  0  0  0
 21 43  1  0  0  0  0
M  END
> <s_m_source_file>
AV-unprocessed.smi

> <i_m_source_file_index>
1474

> <i_lp_mmshare_version>
43012

> <i_f3d_flags>
0

> <s_epik_input>
W0NIM11PW0NIMl1bQ0gyXU9jMVtjSF1bY0hdYyhbY0hdbjEpW0NIMl1bTkhdQyg9TylbQ0BASF0yW0NIMl1bQ0gyXUMoPU8pW05IXVtDSDJdMg==

> <s_epik_cmdline>
J2VwaWtfcHl0aG9uJywgJy1waCcsICc3LjAnLCAnLXRuJywgJzgnLCAnLW1hJywgJzIwMCcsICctbWV0YWxfYmluZGluZycsICctaW1hZScsICc8aW5maWxlLm1hZT4nLCAnLW9tYWUnLCAnPG91dGZpbGUubWFlPic=

> <r_lp_tautomer_probability>
1

> <r_epik_Ionization_Penalty>
6.19599e-05

> <r_epik_Ionization_Penalty_Charging>
0

> <r_epik_Ionization_Penalty_Neutral>
6.19599e-05

> <r_epik_State_Penalty>
-0

> <r_epik_Charging_Adjusted_Penalty>
0

> <i_epik_Tot_Q>
0

> <i_epik_Tot_abs_Q>
0

> <r_epik_Metal_State_Penalty>
-0

> <b_epik_Metal_Only>
0

> <s_lp_Force_Field>
OPLS_2005

> <r_lp_Energy>
8.64292

> <b_lp_Chiralities_Consistent>
1

> <s_lp_Variant>
AV-unprocessed.smi:1474-2

> <Gold.Version>
5.8.1

> <Gold.Id.Protein>
6NUR|6NUR_protein|mol2

> <Gold.PLP.Fitness>
42.1602

> <Gold.PLP.PLP>
-36.6076

> <Gold.PLP.part.hbond>
-4.0000

> <Gold.PLP.part.metal>
0.0000

> <Gold.PLP.part.buried>
-3.9116

> <Gold.PLP.part.nonpolar>
-28.6998

> <Gold.PLP.part.repulsive>
0.1307

> <Gold.PLP.ligand.clash>
0.0000

> <Gold.PLP.ligand.torsion>
1.0455

> <Gold.PLP.Chemscore.Hbond>
2.4920

> <Gold.PLP.Chemscore.CHOScore>
0.0000

> <Gold.PLP.Chemscore.Metal>
0.0000

> <Gold.Chemscore.Hbonds>
donor molecule, donor type, donor heavy atom, donor atom, acceptor molecule, acceptor atom, score
      L1  H    11    34       P1  7948  0.65
      P1  H  6896  6909       L1    18  0.35
      P1  H  7997  8008       L1    22  0.40

> <Gold.PLP.Chemscore.Internal.Correction>
0.1675

> <Gold.Rescore>
     Score         DG    S(hbond)    S(metal)    S(lipo)     H(rot)  DE(clash)    DE(int)     intcor
     12.48     -15.34       1.99        0.00      82.65       2.52       0.42       2.44       ----

> <Gold.Chemscore.Fitness>
12.4820

> <Gold.Chemscore.DG>
-15.3435

> <Gold.Chemscore.ZeroCoef>
-5.4800

> <Gold.Chemscore.Hbond>
1.9896

> <Gold.Chemscore.Metal>
0.0000

> <Gold.Chemscore.Lipo>
82.6470

> <Gold.Chemscore.Internal_Hbond>
0.0000

> <Gold.Chemscore.DEClash>
0.4226

> <Gold.Chemscore.DEInternal>
2.4389

> <Gold.Chemscore.Rot>
2.5201

> <Gold.Chemscore.Internal.Correction>
   9.000000E+99

> <Gold.Chemscore.Hbonds>
donor molecule, donor type, donor heavy atom, donor atom, acceptor molecule, acceptor atom, score
      L1  H    11    34       P1  7948  0.06
      P1  H  6896  6909       L1    18  0.02
      P1  H  7997  8008       L1    22  0.04

> <Gold.Chemscore.Hbond.Weighted>
-6.6452

> <Gold.Chemscore.Metal.Weighted>
-0.0000

> <Gold.Chemscore.Lipo.Weighted>
-9.6697

> <Gold.Chemscore.Internal_Hbond.Weighted>
0.0000

> <Gold.Chemscore.DEClash.Weighted>
0.4226

> <Gold.Chemscore.DEInternal.Weighted>
2.4389

> <Gold.Chemscore.Rot.Weighted>
6.4514

> <Gold.Chemscore.Internal.Correction.Weighted>
   9.000000E+99

> <Gold.Protein.RotatedTorsions>
[ 6907 6896 6895 6894 ] final   -3.48 input  -60.11 | X-H torsion
[ 7974 7965 7964 7962 ] final -117.93 input  175.53 | X-H torsion
[ 8008 7997 7996 7995 ] final  -91.43 input   59.86 | X-H torsion
[ 10167 10162 10161 10158 ] final  -72.16 input  -65.29 | X-H torsion
[ 10718 10713 10712 10709 ] final   74.67 input   66.30 | X-H torsion
[ 10763 10752 10751 10750 ] final -103.70 input  -60.55 | X-H torsion
[ 11005 11000 10999 10996 ] final -111.09 input  -57.11 | X-H torsion

> <Gold.Protein.ActiveResidues>
 VAL166  LYS551  ARG553  GLY616  TRP617  ASP618  TYR619  PRO620  LYS621  CYS622 
 ASP623  PHE694  ASN695  SER759  ASP760  ASP761  ALA762  ILE779  LEU786  VAL792 
 PHE793  MET794  SER795  GLU796  ALA797  LYS798  CYS799  TRP800  GLU811  SER814 

> <Gold.Protein.RotatedAtoms>
  151.5131  135.1065  159.9858 H   0  0  0  0  0  0  0  0  0  0  0  0  # atno 6907 bound_to 6896
  152.4653  133.7906  159.6910 H   0  0  0  0  0  0  0  0  0  0  0  0  # atno 6908 bound_to 6896
  150.8634  133.7546  159.3010 H   0  0  0  0  0  0  0  0  0  0  0  0  # atno 6909 bound_to 6896
  145.0796  140.8416  143.4047 H   0  0  0  0  0  0  0  0  0  0  0  0  # atno 7974 bound_to 7965
  154.7106  140.0519  157.0546 H   0  0  0  0  0  0  0  0  0  0  0  0  # atno 8008 bound_to 7997
  155.0560  140.3184  155.4657 H   0  0  0  0  0  0  0  0  0  0  0  0  # atno 8009 bound_to 7997
  156.2788  140.2107  156.5686 H   0  0  0  0  0  0  0  0  0  0  0  0  # atno 8010 bound_to 7997
  140.5215  143.2331  151.7422 H   0  0  0  0  0  0  0  0  0  0  0  0  # atno 10167 bound_to 10162
  157.6602  130.9689  150.1244 H   0  0  0  0  0  0  0  0  0  0  0  0  # atno 10718 bound_to 10713
  154.7826  135.4814  153.9876 H   0  0  0  0  0  0  0  0  0  0  0  0  # atno 10763 bound_to 10752
  153.1515  135.6792  153.8883 H   0  0  0  0  0  0  0  0  0  0  0  0  # atno 10764 bound_to 10752
  153.8526  135.3165  155.3411 H   0  0  0  0  0  0  0  0  0  0  0  0  # atno 10765 bound_to 10752
  141.0754  133.9310  157.2400 H   0  0  0  0  0  0  0  0  0  0  0  0  # atno 11005 bound_to 11000
  145.1194  139.2704  143.5596 LP  0  0  0  0  0  0  0  0  0  0  0  0  # atno 17320 bound_to 7965
  146.3531  140.0813  142.8617 LP  0  0  0  0  0  0  0  0  0  0  0  0  # atno 17321 bound_to 7965
  139.4925  144.4248  151.9938 LP  0  0  0  0  0  0  0  0  0  0  0  0  # atno 17342 bound_to 10162
  140.3345  144.3277  150.5980 LP  0  0  0  0  0  0  0  0  0  0  0  0  # atno 17343 bound_to 10162
  156.2107  130.3666  149.8674 LP  0  0  0  0  0  0  0  0  0  0  0  0  # atno 17370 bound_to 10713
  156.6554  130.8760  151.3538 LP  0  0  0  0  0  0  0  0  0  0  0  0  # atno 17371 bound_to 10713
  139.9566  135.0164  156.9146 LP  0  0  0  0  0  0  0  0  0  0  0  0  # atno 17394 bound_to 11000
  140.5584  134.0558  155.7391 LP  0  0  0  0  0  0  0  0  0  0  0  0  # atno 17395 bound_to 11000

$$$$
