AV-unprocessed.smi:1047|AV-procd|sdf|4603|dock1
  -GOLD-   22720 3 93D 1   1.00000     0.00000
 Structure written by MMmdl.
 57 59  0  0  0  0  0  0  0  0  3 V2000
  145.7896  131.7084  151.1697 C   0  0  0  0  0  0  0  0  0  0  0  0
  146.1521  132.7668  152.2211 C   0  0  0  0  0  0  0  0  0  0  0  0
  147.4872  132.5367  152.8276 N   0  3  2  0  0  0  0  0  0  0  0  0
  147.6050  131.2325  153.5259 C   0  0  0  0  0  0  0  0  0  0  0  0
  149.0172  131.0608  154.1085 C   0  0  0  0  0  0  0  0  0  0  0  0
  149.3081  132.1491  154.9755 O   0  0  0  0  0  0  0  0  0  0  0  0
  149.3070  133.3986  154.2924 C   0  0  2  0  0  0  0  0  0  0  0  0
  149.7108  134.4877  155.2968 C   0  0  0  0  0  0  0  0  0  0  0  0
  149.5778  135.8181  154.7125 N   0  0  0  0  0  0  0  0  0  0  0  0
  150.6854  136.7101  155.0426 C   0  0  0  0  0  0  0  0  0  0  0  0
  150.1821  138.1109  155.4314 C   0  0  1  0  0  0  0  0  0  0  0  0
  149.5773  138.0349  156.7073 O   0  0  0  0  0  0  0  0  0  0  0  0
  151.3316  139.1371  155.4746 C   0  0  0  0  0  0  0  0  0  0  0  0
  150.8941  140.4622  155.9376 N   0  0  0  0  0  0  0  0  0  0  0  0
  150.0080  141.3262  155.3722 C   0  0  0  0  0  0  0  0  0  0  0  0
  149.9345  142.4240  156.1741 N   0  3  0  0  0  0  0  0  0  0  0  0
  150.7867  142.2597  157.2678 C   0  0  0  0  0  0  0  0  0  0  0  0
  151.0539  143.0962  158.3451 C   0  0  0  0  0  0  0  0  0  0  0  0
  151.9809  142.6340  159.3060 C   0  0  0  0  0  0  0  0  0  0  0  0
  152.2945  143.5231  160.4974 C   0  0  0  0  0  0  0  0  0  0  0  0
  152.6066  141.3683  159.1664 C   0  0  0  0  0  0  0  0  0  0  0  0
  153.6015  140.8815  160.2061 C   0  0  0  0  0  0  0  0  0  0  0  0
  152.3212  140.5320  158.0631 C   0  0  0  0  0  0  0  0  0  0  0  0
  151.4059  141.0025  157.1240 C   0  0  0  0  0  0  0  0  0  0  0  0
  147.8935  133.6427  153.7277 C   0  0  0  0  0  0  0  0  0  0  0  0
  144.8460  131.9592  150.6847 H   0  0  0  0  0  0  0  0  0  0  0  0
  145.6711  130.7185  151.6094 H   0  0  0  0  0  0  0  0  0  0  0  0
  146.5529  131.6455  150.3936 H   0  0  0  0  0  0  0  0  0  0  0  0
  146.1491  133.7401  151.7282 H   0  0  0  0  0  0  0  0  0  0  0  0
  145.3895  132.8119  153.0000 H   0  0  0  0  0  0  0  0  0  0  0  0
  146.8647  131.1764  154.3256 H   0  0  0  0  0  0  0  0  0  0  0  0
  147.3992  130.4107  152.8409 H   0  0  0  0  0  0  0  0  0  0  0  0
  149.0793  130.1319  154.6756 H   0  0  0  0  0  0  0  0  0  0  0  0
  149.7640  130.9998  153.3151 H   0  0  0  0  0  0  0  0  0  0  0  0
  150.0272  133.3760  153.4716 H   0  0  0  0  0  0  0  0  0  0  0  0
  149.0775  134.4189  156.1821 H   0  0  0  0  0  0  0  0  0  0  0  0
  150.7349  134.3176  155.6316 H   0  0  0  0  0  0  0  0  0  0  0  0
  149.4897  135.7414  153.7040 H   0  0  0  0  0  0  0  0  0  0  0  0
  151.3035  136.2874  155.8361 H   0  0  0  0  0  0  0  0  0  0  0  0
  151.3306  136.8013  154.1678 H   0  0  0  0  0  0  0  0  0  0  0  0
  149.4367  138.4528  154.7114 H   0  0  0  0  0  0  0  0  0  0  0  0
  150.1440  137.5417  157.2802 H   0  0  0  0  0  0  0  0  0  0  0  0
  152.1570  138.7869  156.0945 H   0  0  0  0  0  0  0  0  0  0  0  0
  151.7414  139.2741  154.4729 H   0  0  0  0  0  0  0  0  0  0  0  0
  149.4609  141.1695  154.4536 H   0  0  0  0  0  0  0  0  0  0  0  0
  150.5725  144.0581  158.4451 H   0  0  0  0  0  0  0  0  0  0  0  0
  153.3520  143.7881  160.5096 H   0  0  0  0  0  0  0  0  0  0  0  0
  152.0535  143.0122  161.4299 H   0  0  0  0  0  0  0  0  0  0  0  0
  151.7191  144.4488  160.4671 H   0  0  0  0  0  0  0  0  0  0  0  0
  154.0021  139.9008  159.9478 H   0  0  0  0  0  0  0  0  0  0  0  0
  153.1242  140.8001  161.1829 H   0  0  0  0  0  0  0  0  0  0  0  0
  154.4409  141.5728  160.2863 H   0  0  0  0  0  0  0  0  0  0  0  0
  152.7949  139.5672  157.9626 H   0  0  0  0  0  0  0  0  0  0  0  0
  147.8765  134.5856  153.1792 H   0  0  0  0  0  0  0  0  0  0  0  0
  147.1719  133.7326  154.5418 H   0  0  0  0  0  0  0  0  0  0  0  0
  148.1541  132.5290  152.0689 H   0  0  0  0  0  0  0  0  0  0  0  0
  149.3443  143.2243  155.9868 H   0  0  0  0  0  0  0  0  0  0  0  0
  1  2  1  0  0  0  0
  1 26  1  0  0  0  0
  1 27  1  0  0  0  0
  1 28  1  0  0  0  0
  2  3  1  0  0  0  0
  2 29  1  0  0  0  0
  2 30  1  0  0  0  0
  3 25  1  0  0  0  0
  3  4  1  0  0  0  0
  3 56  1  0  0  0  0
  4  5  1  0  0  0  0
  4 31  1  0  0  0  0
  4 32  1  0  0  0  0
  5  6  1  0  0  0  0
  5 33  1  0  0  0  0
  5 34  1  0  0  0  0
  6  7  1  0  0  0  0
  7  8  1  0  0  0  0
  7 25  1  0  0  0  0
  7 35  1  0  0  0  0
  8  9  1  0  0  0  0
  8 36  1  0  0  0  0
  8 37  1  0  0  0  0
  9 10  1  0  0  0  0
  9 38  1  0  0  0  0
 10 11  1  0  0  0  0
 10 39  1  0  0  0  0
 10 40  1  0  0  0  0
 11 12  1  0  0  0  0
 11 13  1  0  0  0  0
 11 41  1  0  0  0  0
 12 42  1  0  0  0  0
 13 14  1  0  0  0  0
 13 43  1  0  0  0  0
 13 44  1  0  0  0  0
 14 24  1  0  0  0  0
 14 15  1  0  0  0  0
 15 16  2  0  0  0  0
 15 45  1  0  0  0  0
 16 17  1  0  0  0  0
 16 57  1  0  0  0  0
 17 24  2  0  0  0  0
 17 18  1  0  0  0  0
 18 19  2  0  0  0  0
 18 46  1  0  0  0  0
 19 20  1  0  0  0  0
 19 21  1  0  0  0  0
 20 47  1  0  0  0  0
 20 48  1  0  0  0  0
 20 49  1  0  0  0  0
 21 22  1  0  0  0  0
 21 23  2  0  0  0  0
 22 50  1  0  0  0  0
 22 51  1  0  0  0  0
 22 52  1  0  0  0  0
 23 24  1  0  0  0  0
 23 53  1  0  0  0  0
 25 54  1  0  0  0  0
 25 55  1  0  0  0  0
M  CHG  1   3   1
M  CHG  1  16   1
M  END
> <s_m_source_file>
AV-unprocessed.smi

> <i_m_source_file_index>
1047

> <i_lp_mmshare_version>
43012

> <i_f3d_flags>
0

> <s_epik_input>
W0NIM11bQ0gyXU4xW0NIMl1bQ0gyXU9bQ0BIXShbQ0gyXTEpW0NIMl1bTkhdW0NIMl1bQ0BIXShbT0hdKVtDSDJdbihbY0hdbjIpYyhjMjMpW2NIXWMoW0NIM10pYyhbY0hdMylbQ0gzXQ==

> <s_epik_cmdline>
J2VwaWtfcHl0aG9uJywgJy1waCcsICc3LjAnLCAnLXRuJywgJzgnLCAnLW1hJywgJzIwMCcsICctbWV0YWxfYmluZGluZycsICctaW1hZScsICc8aW5maWxlLm1hZT4nLCAnLW9tYWUnLCAnPG91dGZpbGUubWFlPic=

> <r_epik_Ionization_Penalty>
2.03028

> <r_epik_Ionization_Penalty_Charging>
1.21256

> <r_epik_Ionization_Penalty_Neutral>
0.817715

> <r_epik_State_Penalty>
2.54959

> <r_epik_Charging_Adjusted_Penalty>
3.76215

> <i_epik_Tot_Q>
2

> <i_epik_Tot_abs_Q>
2

> <r_epik_Metal_State_Penalty>
6.52811

> <b_epik_Metal_Only>
0

> <s_lp_Force_Field>
OPLS_2005

> <r_lp_Energy>
34.649

> <b_lp_Chiralities_Consistent>
1

> <s_lp_Variant>
AV-unprocessed.smi:1047-44

> <Gold.Version>
5.8.1

> <Gold.Id.Protein>
6NUR|6NUR_protein|mol2

> <Gold.PLP.Fitness>
57.4698

> <Gold.PLP.PLP>
-49.6173

> <Gold.PLP.part.hbond>
-2.3781

> <Gold.PLP.part.metal>
0.0000

> <Gold.PLP.part.buried>
-5.0083

> <Gold.PLP.part.nonpolar>
-42.2806

> <Gold.PLP.part.repulsive>
0.1230

> <Gold.PLP.ligand.clash>
0.0000

> <Gold.PLP.ligand.torsion>
0.7394

> <Gold.PLP.Chemscore.Hbond>
3.0000

> <Gold.PLP.Chemscore.CHOScore>
0.0000

> <Gold.PLP.Chemscore.Metal>
0.0000

> <Gold.Chemscore.Hbonds>
donor molecule, donor type, donor heavy atom, donor atom, acceptor molecule, acceptor atom, score
      L1  H     9    38       P1  7948  1.00
      L1  H    16    57       P1  8028  2.00

> <Gold.PLP.Chemscore.Internal.Correction>
0.3312

> <Gold.Rescore>
     Score         DG    S(hbond)    S(metal)    S(lipo)     H(rot)  DE(clash)    DE(int)     intcor
     18.77     -19.49       1.76        0.00     128.67       2.71       0.01       0.70       ----

> <Gold.Chemscore.Fitness>
18.7745

> <Gold.Chemscore.DG>
-19.4915

> <Gold.Chemscore.ZeroCoef>
-5.4800

> <Gold.Chemscore.Hbond>
1.7641

> <Gold.Chemscore.Metal>
0.0000

> <Gold.Chemscore.Lipo>
128.6669

> <Gold.Chemscore.Internal_Hbond>
0.0000

> <Gold.Chemscore.DEClash>
0.0133

> <Gold.Chemscore.DEInternal>
0.7037

> <Gold.Chemscore.Rot>
2.7088

> <Gold.Chemscore.Internal.Correction>
   9.000000E+99

> <Gold.Chemscore.Hbonds>
donor molecule, donor type, donor heavy atom, donor atom, acceptor molecule, acceptor atom, score
      L1  H     9    38       P1  7948  0.34
      L1  H    16    57       P1  8028  0.98

> <Gold.Chemscore.Hbond.Weighted>
-5.8921

> <Gold.Chemscore.Metal.Weighted>
-0.0000

> <Gold.Chemscore.Lipo.Weighted>
-15.0540

> <Gold.Chemscore.Internal_Hbond.Weighted>
0.0000

> <Gold.Chemscore.DEClash.Weighted>
0.0133

> <Gold.Chemscore.DEInternal.Weighted>
0.7037

> <Gold.Chemscore.Rot.Weighted>
6.9346

> <Gold.Chemscore.Internal.Correction.Weighted>
   9.000000E+99

> <Gold.Protein.RotatedTorsions>
[ 6907 6896 6895 6894 ] final -142.17 input  -60.11 | X-H torsion
[ 7974 7965 7964 7962 ] final  -63.18 input  175.53 | X-H torsion
[ 8008 7997 7996 7995 ] final -114.65 input   59.86 | X-H torsion
[ 10167 10162 10161 10158 ] final  152.51 input  -65.29 | X-H torsion
[ 10718 10713 10712 10709 ] final   53.87 input   66.30 | X-H torsion
[ 10763 10752 10751 10750 ] final  130.38 input  -60.55 | X-H torsion
[ 11005 11000 10999 10996 ] final   90.96 input  -57.11 | X-H torsion

> <Gold.Protein.ActiveResidues>
 VAL166  LYS551  ARG553  GLY616  TRP617  ASP618  TYR619  PRO620  LYS621  CYS622 
 ASP623  PHE694  ASN695  SER759  ASP760  ASP761  ALA762  ILE779  LEU786  VAL792 
 PHE793  MET794  SER795  GLU796  ALA797  LYS798  CYS799  TRP800  GLU811  SER814 

> <Gold.Protein.RotatedAtoms>
  151.0835  133.5371  159.2618 H   0  0  0  0  0  0  0  0  0  0  0  0  # atno 6907 bound_to 6896
  151.2266  135.0538  159.8981 H   0  0  0  0  0  0  0  0  0  0  0  0  # atno 6908 bound_to 6896
  152.5426  134.0630  159.8214 H   0  0  0  0  0  0  0  0  0  0  0  0  # atno 6909 bound_to 6896
  145.7822  140.8756  143.0324 H   0  0  0  0  0  0  0  0  0  0  0  0  # atno 7974 bound_to 7965
  155.0396  140.0392  157.2504 H   0  0  0  0  0  0  0  0  0  0  0  0  # atno 8008 bound_to 7997
  154.7228  140.2715  155.6502 H   0  0  0  0  0  0  0  0  0  0  0  0  # atno 8009 bound_to 7997
  156.2821  140.2699  156.1904 H   0  0  0  0  0  0  0  0  0  0  0  0  # atno 8010 bound_to 7997
  139.4832  144.5352  151.7657 H   0  0  0  0  0  0  0  0  0  0  0  0  # atno 10167 bound_to 10162
  157.5205  130.8562  149.8553 H   0  0  0  0  0  0  0  0  0  0  0  0  # atno 10718 bound_to 10713
  153.7571  135.3201  155.3331 H   0  0  0  0  0  0  0  0  0  0  0  0  # atno 10763 bound_to 10752
  154.8243  135.4581  154.0875 H   0  0  0  0  0  0  0  0  0  0  0  0  # atno 10764 bound_to 10752
  153.2094  135.6933  153.8215 H   0  0  0  0  0  0  0  0  0  0  0  0  # atno 10765 bound_to 10752
  139.8847  134.8645  156.3360 H   0  0  0  0  0  0  0  0  0  0  0  0  # atno 11005 bound_to 11000
  144.6794  140.0005  143.7484 LP  0  0  0  0  0  0  0  0  0  0  0  0  # atno 17320 bound_to 7965
  146.0062  139.3132  143.0897 LP  0  0  0  0  0  0  0  0  0  0  0  0  # atno 17321 bound_to 7965
  140.4883  144.1347  150.5945 LP  0  0  0  0  0  0  0  0  0  0  0  0  # atno 17342 bound_to 10162
  140.4199  143.2616  151.9728 LP  0  0  0  0  0  0  0  0  0  0  0  0  # atno 17343 bound_to 10162
  156.0350  130.3754  150.1584 LP  0  0  0  0  0  0  0  0  0  0  0  0  # atno 17370 bound_to 10713
  156.9772  130.9853  151.3445 LP  0  0  0  0  0  0  0  0  0  0  0  0  # atno 17371 bound_to 10713
  140.9691  133.7339  156.0509 LP  0  0  0  0  0  0  0  0  0  0  0  0  # atno 17394 bound_to 11000
  140.7894  134.3635  157.5468 LP  0  0  0  0  0  0  0  0  0  0  0  0  # atno 17395 bound_to 11000

$$$$
