AV-unprocessed.smi:2799|AV-procd|sdf|10789|dock7
  -GOLD-   2272015223D 1   1.00000     0.00000
 Structure written by MMmdl.
 52 53  0  0  0  0  0  0  0  0  2 V2000
  149.1053  133.3572  153.7559 C   0  0  0  0  0  0  0  0  0  0  0  0
  149.4702  134.0738  155.0665 C   0  0  0  0  0  0  0  0  0  0  0  0
  149.3845  133.1003  156.2516 C   0  0  0  0  0  0  0  0  0  0  0  0
  148.5841  135.3114  155.3115 C   0  0  0  0  0  0  0  0  0  0  0  0
  149.2285  136.5595  154.8091 N   0  3  2  0  0  0  0  0  0  0  0  0
  150.6352  136.6362  155.2953 C   0  0  0  0  0  0  0  0  0  0  0  0
  151.3899  137.8370  154.7196 C   0  0  0  0  0  0  0  0  0  0  0  0
  150.6631  139.1244  155.0958 C   0  0  0  0  0  0  0  0  0  0  0  0
  149.2318  139.0641  154.5610 C   0  0  0  0  0  0  0  0  0  0  0  0
  148.4419  137.8170  155.0443 C   0  0  1  0  0  0  0  0  0  0  0  0
  147.0608  137.7752  154.3280 C   0  0  0  0  0  0  0  0  0  0  0  0
  147.0643  136.9312  153.1349 N   0  0  0  0  0  0  0  0  0  0  0  0
  146.1405  136.0084  152.8285 C   0  0  0  0  0  0  0  0  0  0  0  0
  145.1803  135.7495  153.5533 O   0  0  0  0  0  0  0  0  0  0  0  0
  146.4110  135.4363  151.6407 N   0  0  0  0  0  0  0  0  0  0  0  0
  145.7190  134.4184  150.9607 C   0  0  0  0  0  0  0  0  0  0  0  0
  144.8642  134.6227  149.9270 C   0  0  0  0  0  0  0  0  0  0  0  0
  144.1903  133.5156  149.2919 C   0  0  0  0  0  0  0  0  0  0  0  0
  144.4174  132.2794  149.7568 C   0  0  0  0  0  0  0  0  0  0  0  0
  145.2872  132.0456  150.8351 N   0  0  0  0  0  0  0  0  0  0  0  0
  145.4701  130.6581  151.2689 C   0  0  0  0  0  0  0  0  0  0  0  0
  145.9593  133.0529  151.4680 C   0  0  0  0  0  0  0  0  0  0  0  0
  146.7216  132.8188  152.4091 O   0  0  0  0  0  0  0  0  0  0  0  0
  148.0679  133.0211  153.7635 H   0  0  0  0  0  0  0  0  0  0  0  0
  149.7364  132.4820  153.5986 H   0  0  0  0  0  0  0  0  0  0  0  0
  149.2378  134.0097  152.8927 H   0  0  0  0  0  0  0  0  0  0  0  0
  150.5085  134.3997  154.9926 H   0  0  0  0  0  0  0  0  0  0  0  0
  148.3687  132.7266  156.3858 H   0  0  0  0  0  0  0  0  0  0  0  0
  149.6876  133.5827  157.1813 H   0  0  0  0  0  0  0  0  0  0  0  0
  150.0378  132.2401  156.1025 H   0  0  0  0  0  0  0  0  0  0  0  0
  147.6018  135.1372  154.8807 H   0  0  0  0  0  0  0  0  0  0  0  0
  148.3829  135.4118  156.3794 H   0  0  0  0  0  0  0  0  0  0  0  0
  150.6414  136.6930  156.3853 H   0  0  0  0  0  0  0  0  0  0  0  0
  151.1637  135.7213  155.0253 H   0  0  0  0  0  0  0  0  0  0  0  0
  152.4096  137.8576  155.1052 H   0  0  0  0  0  0  0  0  0  0  0  0
  151.4663  137.7485  153.6349 H   0  0  0  0  0  0  0  0  0  0  0  0
  150.6541  139.2503  156.1793 H   0  0  0  0  0  0  0  0  0  0  0  0
  151.1847  139.9878  154.6820 H   0  0  0  0  0  0  0  0  0  0  0  0
  148.7194  139.9789  154.8589 H   0  0  0  0  0  0  0  0  0  0  0  0
  149.2630  139.0744  153.4702 H   0  0  0  0  0  0  0  0  0  0  0  0
  148.2815  137.9070  156.1201 H   0  0  0  0  0  0  0  0  0  0  0  0
  146.2884  137.4552  155.0291 H   0  0  0  0  0  0  0  0  0  0  0  0
  146.7455  138.7541  153.9762 H   0  0  0  0  0  0  0  0  0  0  0  0
  147.8182  137.0773  152.4791 H   0  0  0  0  0  0  0  0  0  0  0  0
  147.2045  135.8059  151.1373 H   0  0  0  0  0  0  0  0  0  0  0  0
  144.6456  135.6096  149.5535 H   0  0  0  0  0  0  0  0  0  0  0  0
  143.5210  133.6796  148.4604 H   0  0  0  0  0  0  0  0  0  0  0  0
  143.9535  131.4000  149.3343 H   0  0  0  0  0  0  0  0  0  0  0  0
  145.2779  130.5565  152.3382 H   0  0  0  0  0  0  0  0  0  0  0  0
  146.4927  130.3317  151.0745 H   0  0  0  0  0  0  0  0  0  0  0  0
  144.8015  129.9655  150.7564 H   0  0  0  0  0  0  0  0  0  0  0  0
  149.2803  136.4639  153.8048 H   0  0  0  0  0  0  0  0  0  0  0  0
  1  2  1  0  0  0  0
  1 24  1  0  0  0  0
  1 25  1  0  0  0  0
  1 26  1  0  0  0  0
  2  3  1  0  0  0  0
  2  4  1  0  0  0  0
  2 27  1  0  0  0  0
  3 28  1  0  0  0  0
  3 29  1  0  0  0  0
  3 30  1  0  0  0  0
  4  5  1  0  0  0  0
  4 31  1  0  0  0  0
  4 32  1  0  0  0  0
  5 10  1  0  0  0  0
  5  6  1  0  0  0  0
  5 52  1  0  0  0  0
  6  7  1  0  0  0  0
  6 33  1  0  0  0  0
  6 34  1  0  0  0  0
  7  8  1  0  0  0  0
  7 35  1  0  0  0  0
  7 36  1  0  0  0  0
  8  9  1  0  0  0  0
  8 37  1  0  0  0  0
  8 38  1  0  0  0  0
  9 10  1  0  0  0  0
  9 39  1  0  0  0  0
  9 40  1  0  0  0  0
 10 11  1  0  0  0  0
 10 41  1  0  0  0  0
 11 12  1  0  0  0  0
 11 42  1  0  0  0  0
 11 43  1  0  0  0  0
 12 13  1  0  0  0  0
 12 44  1  0  0  0  0
 13 14  2  0  0  0  0
 13 15  1  0  0  0  0
 15 16  1  0  0  0  0
 15 45  1  0  0  0  0
 16 22  1  0  0  0  0
 16 17  2  0  0  0  0
 17 18  1  0  0  0  0
 17 46  1  0  0  0  0
 18 19  2  0  0  0  0
 18 47  1  0  0  0  0
 19 20  1  0  0  0  0
 19 48  1  0  0  0  0
 20 21  1  0  0  0  0
 20 22  1  0  0  0  0
 21 49  1  0  0  0  0
 21 50  1  0  0  0  0
 21 51  1  0  0  0  0
 22 23  2  0  0  0  0
M  CHG  1   5   1
M  END
> <s_m_source_file>
AV-unprocessed.smi

> <i_m_source_file_index>
2799

> <i_lp_mmshare_version>
43012

> <i_f3d_flags>
0

> <s_epik_input>
W0NIM11bQ0hdKFtDSDNdKVtDSDJdTjFbQ0gyXVtDSDJdW0NIMl1bQ0gyXVtDQEhdMVtDSDJdW05IXUMoPU8pW05IXWMyW2NIXVtjSF1bY0hdbihbQ0gzXSljMj1P

> <s_epik_cmdline>
J2VwaWtfcHl0aG9uJywgJy1waCcsICc3LjAnLCAnLXRuJywgJzgnLCAnLW1hJywgJzIwMCcsICctbWV0YWxfYmluZGluZycsICctaW1hZScsICc8aW5maWxlLm1hZT4nLCAnLW9tYWUnLCAnPG91dGZpbGUubWFlPic=

> <r_lp_tautomer_probability>
1

> <r_epik_Ionization_Penalty>
0.0010885

> <r_epik_Ionization_Penalty_Charging>
0.00106921

> <r_epik_Ionization_Penalty_Neutral>
1.92865e-05

> <r_epik_State_Penalty>
0.000697184

> <r_epik_Charging_Adjusted_Penalty>
0.0017664

> <i_epik_Tot_Q>
1

> <i_epik_Tot_abs_Q>
1

> <r_epik_Metal_State_Penalty>
-0

> <b_epik_Metal_Only>
0

> <s_lp_Force_Field>
OPLS_2005

> <r_lp_Energy>
37.4199

> <b_lp_Chiralities_Consistent>
1

> <s_lp_Variant>
AV-unprocessed.smi:2799-1

> <Gold.Version>
5.8.1

> <Gold.Id.Protein>
6NUR|6NUR_protein|mol2

> <Gold.PLP.Fitness>
47.9758

> <Gold.PLP.PLP>
-41.1487

> <Gold.PLP.part.hbond>
-2.6332

> <Gold.PLP.part.metal>
0.0000

> <Gold.PLP.part.buried>
-5.4067

> <Gold.PLP.part.nonpolar>
-33.1992

> <Gold.PLP.part.repulsive>
0.2419

> <Gold.PLP.ligand.clash>
0.0000

> <Gold.PLP.ligand.torsion>
1.7663

> <Gold.PLP.Chemscore.Hbond>
3.4080

> <Gold.PLP.Chemscore.CHOScore>
0.0000

> <Gold.PLP.Chemscore.Metal>
0.0000

> <Gold.Chemscore.Hbonds>
donor molecule, donor type, donor heavy atom, donor atom, acceptor molecule, acceptor atom, score
      L1  H     5    52       P1  7948  2.00
      L1  H    12    44       P1  7948  0.75
      L1  H    15    45       P1  7948  0.58

> <Gold.PLP.Chemscore.Internal.Correction>
0.1356

> <Gold.Rescore>
     Score         DG    S(hbond)    S(metal)    S(lipo)     H(rot)  DE(clash)    DE(int)     intcor
     18.39     -20.21       2.40        0.00      91.80       1.57       0.01       1.80       ----

> <Gold.Chemscore.Fitness>
18.3903

> <Gold.Chemscore.DG>
-20.2069

> <Gold.Chemscore.ZeroCoef>
-5.4800

> <Gold.Chemscore.Hbond>
2.3959

> <Gold.Chemscore.Metal>
0.0000

> <Gold.Chemscore.Lipo>
91.8011

> <Gold.Chemscore.Internal_Hbond>
0.0000

> <Gold.Chemscore.DEClash>
0.0139

> <Gold.Chemscore.DEInternal>
1.8026

> <Gold.Chemscore.Rot>
1.5688

> <Gold.Chemscore.Internal.Correction>
   9.000000E+99

> <Gold.Chemscore.Hbonds>
donor molecule, donor type, donor heavy atom, donor atom, acceptor molecule, acceptor atom, score
      L1  H     5    52       P1  7948  0.91
      L1  H    12    44       P1  7948  0.71
      L1  H    15    45       P1  7948  0.55

> <Gold.Chemscore.Hbond.Weighted>
-8.0022

> <Gold.Chemscore.Metal.Weighted>
-0.0000

> <Gold.Chemscore.Lipo.Weighted>
-10.7407

> <Gold.Chemscore.Internal_Hbond.Weighted>
0.0000

> <Gold.Chemscore.DEClash.Weighted>
0.0139

> <Gold.Chemscore.DEInternal.Weighted>
1.8026

> <Gold.Chemscore.Rot.Weighted>
4.0161

> <Gold.Chemscore.Internal.Correction.Weighted>
   9.000000E+99

> <Gold.Protein.RotatedTorsions>
[ 6907 6896 6895 6894 ] final -154.63 input  -60.11 | X-H torsion
[ 7974 7965 7964 7962 ] final  -43.67 input  175.53 | X-H torsion
[ 8008 7997 7996 7995 ] final  143.60 input   59.86 | X-H torsion
[ 10167 10162 10161 10158 ] final  148.78 input  -65.29 | X-H torsion
[ 10718 10713 10712 10709 ] final  128.63 input   66.30 | X-H torsion
[ 10763 10752 10751 10750 ] final -170.00 input  -60.55 | X-H torsion
[ 11005 11000 10999 10996 ] final  170.99 input  -57.11 | X-H torsion

> <Gold.Protein.ActiveResidues>
 VAL166  LYS551  ARG553  GLY616  TRP617  ASP618  TYR619  PRO620  LYS621  CYS622 
 ASP623  PHE694  ASN695  SER759  ASP760  ASP761  ALA762  ILE779  LEU786  VAL792 
 PHE793  MET794  SER795  GLU796  ALA797  LYS798  CYS799  TRP800  GLU811  SER814 

> <Gold.Protein.RotatedAtoms>
  151.2604  133.4305  159.2615 H   0  0  0  0  0  0  0  0  0  0  0  0  # atno 6907 bound_to 6896
  151.0536  134.9690  159.8234 H   0  0  0  0  0  0  0  0  0  0  0  0  # atno 6908 bound_to 6896
  152.5387  134.2557  159.8969 H   0  0  0  0  0  0  0  0  0  0  0  0  # atno 6909 bound_to 6896
  145.9996  140.7089  142.9277 H   0  0  0  0  0  0  0  0  0  0  0  0  # atno 7974 bound_to 7965
  156.2926  140.2258  156.4918 H   0  0  0  0  0  0  0  0  0  0  0  0  # atno 8008 bound_to 7997
  154.7765  140.0463  157.1114 H   0  0  0  0  0  0  0  0  0  0  0  0  # atno 8009 bound_to 7997
  154.9811  140.3078  155.4949 H   0  0  0  0  0  0  0  0  0  0  0  0  # atno 8010 bound_to 7997
  139.4870  144.5653  151.7156 H   0  0  0  0  0  0  0  0  0  0  0  0  # atno 10167 bound_to 10162
  157.5227  131.1098  150.9129 H   0  0  0  0  0  0  0  0  0  0  0  0  # atno 10718 bound_to 10713
  154.6463  135.2905  155.0042 H   0  0  0  0  0  0  0  0  0  0  0  0  # atno 10763 bound_to 10752
  154.1151  135.6556  153.4896 H   0  0  0  0  0  0  0  0  0  0  0  0  # atno 10764 bound_to 10752
  153.0352  135.5274  154.7351 H   0  0  0  0  0  0  0  0  0  0  0  0  # atno 10765 bound_to 10752
  140.3142  134.7491  157.4015 H   0  0  0  0  0  0  0  0  0  0  0  0  # atno 11005 bound_to 11000
  144.6915  140.3211  143.7232 LP  0  0  0  0  0  0  0  0  0  0  0  0  # atno 17320 bound_to 7965
  145.7507  139.1793  143.2323 LP  0  0  0  0  0  0  0  0  0  0  0  0  # atno 17321 bound_to 7965
  140.5230  144.0850  150.6028 LP  0  0  0  0  0  0  0  0  0  0  0  0  # atno 17342 bound_to 10162
  140.3814  143.2801  152.0166 LP  0  0  0  0  0  0  0  0  0  0  0  0  # atno 17343 bound_to 10162
  156.9734  130.5499  149.5292 LP  0  0  0  0  0  0  0  0  0  0  0  0  # atno 17370 bound_to 10713
  156.0365  130.5452  150.8666 LP  0  0  0  0  0  0  0  0  0  0  0  0  # atno 17371 bound_to 10713
  140.0998  134.5488  155.8364 LP  0  0  0  0  0  0  0  0  0  0  0  0  # atno 17394 bound_to 11000
  141.2101  133.6691  156.6488 LP  0  0  0  0  0  0  0  0  0  0  0  0  # atno 17395 bound_to 11000

$$$$
