AV-unprocessed.smi:3030|AV-procd|sdf|11535|dock10
  -GOLD-   2272016483D 1   1.00000     0.00000
 Structure written by MMmdl.
 52 53  0  0  0  0  0  0  0  0  1 V2000
  144.8759  132.0612  150.4802 C   0  0  0  0  0  0  0  0  0  0  0  0
  145.7618  133.3111  150.5254 C   0  0  0  0  0  0  0  0  0  0  0  0
  145.0889  134.4251  151.1772 N   0  0  0  0  0  0  0  0  0  0  0  0
  143.8242  134.2779  151.7380 C   0  0  0  0  0  0  0  0  0  0  0  0
  143.1656  135.2598  152.3837 C   0  0  0  0  0  0  0  0  0  0  0  0
  143.8015  136.5856  152.5258 C   0  0  0  0  0  0  0  0  0  0  0  0
  143.2236  137.5097  153.0979 O   0  0  0  0  0  0  0  0  0  0  0  0
  145.1617  136.7359  151.9452 C   0  0  0  0  0  0  0  0  0  0  0  0
  145.7613  137.9985  152.0730 N   0  0  0  0  0  0  0  0  0  0  0  0
  146.5540  138.4606  153.0566 C   0  0  0  0  0  0  0  0  0  0  0  0
  146.8529  137.8518  154.0837 O   0  0  0  0  0  0  0  0  0  0  0  0
  146.9812  139.7009  152.7781 N   0  0  0  0  0  0  0  0  0  0  0  0
  147.8373  140.5322  153.6247 C   0  0  2  0  0  0  0  0  0  0  0  0
  149.0687  139.6931  154.0221 C   0  0  0  0  0  0  0  0  0  0  0  0
  150.0119  140.4487  154.9736 C   0  0  2  0  0  0  0  0  0  0  0  0
  151.2290  139.5945  155.3556 C   0  0  0  0  0  0  0  0  0  0  0  0
  149.2396  140.9130  156.2184 C   0  0  0  0  0  0  0  0  0  0  0  0
  148.0336  141.7810  155.8327 C   0  0  0  0  0  0  0  0  0  0  0  0
  147.0667  141.0419  154.8765 C   0  0  1  0  0  0  0  0  0  0  0  0
  145.7885  141.8698  154.5444 C   0  0  0  0  0  0  0  0  0  0  0  0
  146.0663  143.1730  153.7720 C   0  0  0  0  0  0  0  0  0  0  0  0
  144.9318  142.1511  155.7907 C   0  0  0  0  0  0  0  0  0  0  0  0
  145.7081  135.6659  151.3142 C   0  0  0  0  0  0  0  0  0  0  0  0
  145.3928  131.2377  149.9874 H   0  0  0  0  0  0  0  0  0  0  0  0
  143.9531  132.2520  149.9313 H   0  0  0  0  0  0  0  0  0  0  0  0
  144.6072  131.7322  151.4845 H   0  0  0  0  0  0  0  0  0  0  0  0
  146.6899  133.0877  151.0526 H   0  0  0  0  0  0  0  0  0  0  0  0
  146.0473  133.6002  149.5133 H   0  0  0  0  0  0  0  0  0  0  0  0
  143.3922  133.2958  151.6105 H   0  0  0  0  0  0  0  0  0  0  0  0
  142.1822  135.1000  152.8006 H   0  0  0  0  0  0  0  0  0  0  0  0
  145.5418  138.6447  151.3290 H   0  0  0  0  0  0  0  0  0  0  0  0
  146.6808  140.1131  151.9069 H   0  0  0  0  0  0  0  0  0  0  0  0
  148.2020  141.3925  153.0619 H   0  0  0  0  0  0  0  0  0  0  0  0
  148.7425  138.7668  154.4981 H   0  0  0  0  0  0  0  0  0  0  0  0
  149.6150  139.3996  153.1244 H   0  0  0  0  0  0  0  0  0  0  0  0
  150.3807  141.3340  154.4534 H   0  0  0  0  0  0  0  0  0  0  0  0
  150.9275  138.6845  155.8753 H   0  0  0  0  0  0  0  0  0  0  0  0
  151.9047  140.1440  156.0117 H   0  0  0  0  0  0  0  0  0  0  0  0
  151.7960  139.3010  154.4719 H   0  0  0  0  0  0  0  0  0  0  0  0
  148.9007  140.0482  156.7906 H   0  0  0  0  0  0  0  0  0  0  0  0
  149.8996  141.4788  156.8767 H   0  0  0  0  0  0  0  0  0  0  0  0
  147.5176  142.0824  156.7435 H   0  0  0  0  0  0  0  0  0  0  0  0
  148.3970  142.6970  155.3665 H   0  0  0  0  0  0  0  0  0  0  0  0
  146.7251  140.1514  155.4075 H   0  0  0  0  0  0  0  0  0  0  0  0
  145.1563  141.2572  153.9024 H   0  0  0  0  0  0  0  0  0  0  0  0
  146.6386  143.8839  154.3676 H   0  0  0  0  0  0  0  0  0  0  0  0
  145.1330  143.6632  153.4937 H   0  0  0  0  0  0  0  0  0  0  0  0
  146.6164  142.9896  152.8501 H   0  0  0  0  0  0  0  0  0  0  0  0
  145.4252  142.8372  156.4787 H   0  0  0  0  0  0  0  0  0  0  0  0
  144.7094  141.2320  156.3333 H   0  0  0  0  0  0  0  0  0  0  0  0
  143.9790  142.6022  155.5121 H   0  0  0  0  0  0  0  0  0  0  0  0
  146.6753  135.7002  150.8375 H   0  0  0  0  0  0  0  0  0  0  0  0
  1  2  1  0  0  0  0
  1 24  1  0  0  0  0
  1 25  1  0  0  0  0
  1 26  1  0  0  0  0
  2  3  1  0  0  0  0
  2 27  1  0  0  0  0
  2 28  1  0  0  0  0
  3 23  1  0  0  0  0
  3  4  1  0  0  0  0
  4  5  2  0  0  0  0
  4 29  1  0  0  0  0
  5  6  1  0  0  0  0
  5 30  1  0  0  0  0
  6  7  2  0  0  0  0
  6  8  1  0  0  0  0
  8  9  1  0  0  0  0
  8 23  2  0  0  0  0
  9 10  1  0  0  0  0
  9 31  1  0  0  0  0
 10 11  2  0  0  0  0
 10 12  1  0  0  0  0
 12 13  1  0  0  0  0
 12 32  1  0  0  0  0
 13 19  1  0  0  0  0
 13 14  1  0  0  0  0
 13 33  1  0  0  0  0
 14 15  1  0  0  0  0
 14 34  1  0  0  0  0
 14 35  1  0  0  0  0
 15 16  1  0  0  0  0
 15 17  1  0  0  0  0
 15 36  1  0  0  0  0
 16 37  1  0  0  0  0
 16 38  1  0  0  0  0
 16 39  1  0  0  0  0
 17 18  1  0  0  0  0
 17 40  1  0  0  0  0
 17 41  1  0  0  0  0
 18 19  1  0  0  0  0
 18 42  1  0  0  0  0
 18 43  1  0  0  0  0
 19 20  1  0  0  0  0
 19 44  1  0  0  0  0
 20 21  1  0  0  0  0
 20 22  1  0  0  0  0
 20 45  1  0  0  0  0
 21 46  1  0  0  0  0
 21 47  1  0  0  0  0
 21 48  1  0  0  0  0
 22 49  1  0  0  0  0
 22 50  1  0  0  0  0
 22 51  1  0  0  0  0
 23 52  1  0  0  0  0
M  END
> <s_m_source_file>
AV-unprocessed.smi

> <i_m_source_file_index>
3030

> <i_lp_mmshare_version>
43012

> <i_f3d_flags>
0

> <s_epik_input>
W0NIM11bQ0gyXW4xW2NIXVtjSF1jKD1PKWMoW2NIXTEpW05IXUMoPU8pW05IXVtDQEBIXTJbQ0gyXVtDQEBIXShbQ0gzXSlbQ0gyXVtDSDJdW0NASF0yW0NIXShbQ0gzXSlbQ0gzXQ==

> <s_epik_cmdline>
J2VwaWtfcHl0aG9uJywgJy1waCcsICc3LjAnLCAnLXRuJywgJzgnLCAnLW1hJywgJzIwMCcsICctbWV0YWxfYmluZGluZycsICctaW1hZScsICc8aW5maWxlLm1hZT4nLCAnLW9tYWUnLCAnPG91dGZpbGUubWFlPic=

> <r_lp_tautomer_probability>
1

> <r_epik_Ionization_Penalty>
0.00147933

> <r_epik_Ionization_Penalty_Charging>
0.00145753

> <r_epik_Ionization_Penalty_Neutral>
2.17987e-05

> <r_epik_State_Penalty>
0.00097457

> <r_epik_Charging_Adjusted_Penalty>
0.0024321

> <i_epik_Tot_Q>
0

> <i_epik_Tot_abs_Q>
0

> <r_epik_Metal_State_Penalty>
-0

> <b_epik_Metal_Only>
0

> <s_lp_Force_Field>
OPLS_2005

> <r_lp_Energy>
10.2365

> <b_lp_Chiralities_Consistent>
1

> <s_lp_Variant>
AV-unprocessed.smi:3030-3

> <Gold.Version>
5.8.1

> <Gold.Id.Protein>
6NUR|6NUR_protein|mol2

> <Gold.PLP.Fitness>
42.4688

> <Gold.PLP.PLP>
-40.2269

> <Gold.PLP.part.hbond>
-2.1203

> <Gold.PLP.part.metal>
0.0000

> <Gold.PLP.part.buried>
-0.3238

> <Gold.PLP.part.nonpolar>
-38.0944

> <Gold.PLP.part.repulsive>
1.0074

> <Gold.PLP.ligand.clash>
0.0000

> <Gold.PLP.ligand.torsion>
0.8885

> <Gold.PLP.Chemscore.Hbond>
0.3143

> <Gold.PLP.Chemscore.CHOScore>
1.0000

> <Gold.PLP.Chemscore.Metal>
0.0000

> <Gold.Chemscore.Hbonds>
donor molecule, donor type, donor heavy atom, donor atom, acceptor molecule, acceptor atom, score
      L1  H     9    31       P1 10171  0.28
      L1  C    23    52       P1  7948  1.00

> <Gold.PLP.Chemscore.Internal.Correction>
0.0761

> <Gold.Rescore>
     Score         DG    S(hbond)    S(metal)    S(lipo)     H(rot)  DE(clash)    DE(int)     intcor
     12.27     -14.47       0.59        0.00      87.64       1.27       0.01       2.19       ----

> <Gold.Chemscore.Fitness>
12.2729

> <Gold.Chemscore.DG>
-14.4729

> <Gold.Chemscore.ZeroCoef>
-5.4800

> <Gold.Chemscore.Hbond>
0.5949

> <Gold.Chemscore.Metal>
0.0000

> <Gold.Chemscore.Lipo>
87.6362

> <Gold.Chemscore.Internal_Hbond>
0.0000

> <Gold.Chemscore.DEClash>
0.0089

> <Gold.Chemscore.DEInternal>
2.1911

> <Gold.Chemscore.Rot>
1.2685

> <Gold.Chemscore.Internal.Correction>
   9.000000E+99

> <Gold.Chemscore.Hbonds>
donor molecule, donor type, donor heavy atom, donor atom, acceptor molecule, acceptor atom, score
      L1  H     9    31       P1 10171  0.28

> <Gold.Chemscore.Hbond.Weighted>
-1.9869

> <Gold.Chemscore.Metal.Weighted>
-0.0000

> <Gold.Chemscore.Lipo.Weighted>
-10.2534

> <Gold.Chemscore.Internal_Hbond.Weighted>
0.0000

> <Gold.Chemscore.DEClash.Weighted>
0.0089

> <Gold.Chemscore.DEInternal.Weighted>
2.1911

> <Gold.Chemscore.Rot.Weighted>
3.2474

> <Gold.Chemscore.Internal.Correction.Weighted>
   9.000000E+99

> <Gold.Protein.RotatedTorsions>
[ 6907 6896 6895 6894 ] final -152.72 input  -60.11 | X-H torsion
[ 7974 7965 7964 7962 ] final  135.10 input  175.53 | X-H torsion
[ 8008 7997 7996 7995 ] final -147.75 input   59.86 | X-H torsion
[ 10167 10162 10161 10158 ] final  103.48 input  -65.29 | X-H torsion
[ 10718 10713 10712 10709 ] final -108.11 input   66.30 | X-H torsion
[ 10763 10752 10751 10750 ] final  169.29 input  -60.55 | X-H torsion
[ 11005 11000 10999 10996 ] final   77.35 input  -57.11 | X-H torsion

> <Gold.Protein.ActiveResidues>
 VAL166  LYS551  ARG553  GLY616  TRP617  ASP618  TYR619  PRO620  LYS621  CYS622 
 ASP623  PHE694  ASN695  SER759  ASP760  ASP761  ALA762  ILE779  LEU786  VAL792 
 PHE793  MET794  SER795  GLU796  ALA797  LYS798  CYS799  TRP800  GLU811  SER814 

> <Gold.Protein.RotatedAtoms>
  151.2320  133.4445  159.2603 H   0  0  0  0  0  0  0  0  0  0  0  0  # atno 6907 bound_to 6896
  151.0786  134.9844  159.8355 H   0  0  0  0  0  0  0  0  0  0  0  0  # atno 6908 bound_to 6896
  152.5421  134.2261  159.8859 H   0  0  0  0  0  0  0  0  0  0  0  0  # atno 6909 bound_to 6896
  144.9697  139.4619  143.5439 H   0  0  0  0  0  0  0  0  0  0  0  0  # atno 7974 bound_to 7965
  155.5806  140.0643  157.2784 H   0  0  0  0  0  0  0  0  0  0  0  0  # atno 8008 bound_to 7997
  154.4334  140.1853  156.1018 H   0  0  0  0  0  0  0  0  0  0  0  0  # atno 8009 bound_to 7997
  156.0308  140.3306  155.7141 H   0  0  0  0  0  0  0  0  0  0  0  0  # atno 8010 bound_to 7997
  139.7259  144.7047  151.0798 H   0  0  0  0  0  0  0  0  0  0  0  0  # atno 10167 bound_to 10162
  156.0469  130.5696  150.7915 H   0  0  0  0  0  0  0  0  0  0  0  0  # atno 10718 bound_to 10713
  154.3810  135.2753  155.2211 H   0  0  0  0  0  0  0  0  0  0  0  0  # atno 10763 bound_to 10752
  154.4318  135.5975  153.6077 H   0  0  0  0  0  0  0  0  0  0  0  0  # atno 10764 bound_to 10752
  152.9834  135.5997  154.4053 H   0  0  0  0  0  0  0  0  0  0  0  0  # atno 10765 bound_to 10752
  139.9258  134.7676  156.1511 H   0  0  0  0  0  0  0  0  0  0  0  0  # atno 11005 bound_to 11000
  146.3378  139.8901  142.8810 LP  0  0  0  0  0  0  0  0  0  0  0  0  # atno 17320 bound_to 7965
  145.2577  141.0066  143.3844 LP  0  0  0  0  0  0  0  0  0  0  0  0  # atno 17321 bound_to 7965
  140.7762  143.5105  150.9658 LP  0  0  0  0  0  0  0  0  0  0  0  0  # atno 17342 bound_to 10162
  139.8793  143.7092  152.3158 LP  0  0  0  0  0  0  0  0  0  0  0  0  # atno 17343 bound_to 10162
  157.5354  131.0938  150.9899 LP  0  0  0  0  0  0  0  0  0  0  0  0  # atno 17370 bound_to 10713
  157.0195  130.5668  149.5329 LP  0  0  0  0  0  0  0  0  0  0  0  0  # atno 17371 bound_to 10713
  141.0814  133.6752  156.2345 LP  0  0  0  0  0  0  0  0  0  0  0  0  # atno 17394 bound_to 11000
  140.6340  134.5234  157.5562 LP  0  0  0  0  0  0  0  0  0  0  0  0  # atno 17395 bound_to 11000

$$$$
