AV-unprocessed.smi:1131|AV-procd|sdf|4853|dock1
  -GOLD-   22720 3423D 1   1.00000     0.00000
 Structure written by MMmdl.
 32 33  0  0  0  0  0  0  0  0  2 V2000
  154.9351  139.2649  159.1106 O   0  0  0  0  0  0  0  0  0  0  0  0
  153.7274  139.4421  159.2767 C   0  0  0  0  0  0  0  0  0  0  0  0
  152.7071  138.4123  158.7728 C   0  0  0  0  0  0  0  0  0  0  0  0
  152.1401  138.7579  157.4593 N   0  0  0  0  0  0  0  0  0  0  0  0
  151.5396  140.0214  157.3180 C   0  0  0  0  0  0  0  0  0  0  0  0
  150.9920  140.4217  156.1546 C   0  0  0  0  0  0  0  0  0  0  0  0
  151.0334  139.5060  155.0213 C   0  0  0  0  0  0  0  0  0  0  0  0
  150.5441  139.8571  153.9493 O   0  0  0  0  0  0  0  0  0  0  0  0
  151.6222  138.2888  155.2099 N   0  5  0  0  0  0  0  0  0  0  0  0
  152.1728  137.8942  156.4000 C   0  0  0  0  0  0  0  0  0  0  0  0
  152.6977  136.7900  156.5494 O   0  0  0  0  0  0  0  0  0  0  0  0
  153.2211  140.5034  159.9233 N   0  0  0  0  0  0  0  0  0  0  0  0
  153.9986  141.5964  160.4984 C   0  0  0  0  0  0  0  0  0  0  0  0
  153.3765  142.9704  160.1855 C   0  0  1  0  0  0  0  0  0  0  0  0
  152.8247  143.1280  158.7813 C   0  0  0  0  0  0  0  0  0  0  0  0
  151.8891  144.3230  158.9388 C   0  0  0  0  0  0  0  0  0  0  0  0
  151.4234  144.2813  160.2850 O   0  0  0  0  0  0  0  0  0  0  0  0
  152.1352  143.2888  161.0178 C   0  0  0  0  0  0  0  0  0  0  0  0
  153.2010  137.4410  158.7298 H   0  0  0  0  0  0  0  0  0  0  0  0
  151.9076  138.2944  159.5067 H   0  0  0  0  0  0  0  0  0  0  0  0
  151.5454  140.6358  158.2062 H   0  0  0  0  0  0  0  0  0  0  0  0
  150.5317  141.3943  156.0630 H   0  0  0  0  0  0  0  0  0  0  0  0
  152.2172  140.5625  160.0147 H   0  0  0  0  0  0  0  0  0  0  0  0
  154.1205  141.4630  161.5749 H   0  0  0  0  0  0  0  0  0  0  0  0
  155.0007  141.5474  160.0719 H   0  0  0  0  0  0  0  0  0  0  0  0
  154.1183  143.7520  160.3586 H   0  0  0  0  0  0  0  0  0  0  0  0
  153.5976  143.2929  158.0300 H   0  0  0  0  0  0  0  0  0  0  0  0
  152.2546  142.2429  158.4952 H   0  0  0  0  0  0  0  0  0  0  0  0
  152.4348  145.2558  158.7913 H   0  0  0  0  0  0  0  0  0  0  0  0
  151.0616  144.2986  158.2294 H   0  0  0  0  0  0  0  0  0  0  0  0
  151.4970  142.4091  161.1128 H   0  0  0  0  0  0  0  0  0  0  0  0
  152.3821  143.6358  162.0213 H   0  0  0  0  0  0  0  0  0  0  0  0
  1  2  2  0  0  0  0
  2  3  1  0  0  0  0
  2 12  1  0  0  0  0
  3  4  1  0  0  0  0
  3 19  1  0  0  0  0
  3 20  1  0  0  0  0
  4 10  1  0  0  0  0
  4  5  1  0  0  0  0
  5  6  2  0  0  0  0
  5 21  1  0  0  0  0
  6  7  1  0  0  0  0
  6 22  1  0  0  0  0
  7  8  2  0  0  0  0
  7  9  1  0  0  0  0
  9 10  1  0  0  0  0
 10 11  2  0  0  0  0
 12 13  1  0  0  0  0
 12 23  1  0  0  0  0
 13 14  1  0  0  0  0
 13 24  1  0  0  0  0
 13 25  1  0  0  0  0
 14 18  1  0  0  0  0
 14 15  1  0  0  0  0
 14 26  1  0  0  0  0
 15 16  1  0  0  0  0
 15 27  1  0  0  0  0
 15 28  1  0  0  0  0
 16 17  1  0  0  0  0
 16 29  1  0  0  0  0
 16 30  1  0  0  0  0
 17 18  1  0  0  0  0
 18 31  1  0  0  0  0
 18 32  1  0  0  0  0
M  CHG  1   9  -1
M  END
> <s_m_source_file>
AV-unprocessed.smi

> <i_m_source_file_index>
1131

> <i_lp_mmshare_version>
43012

> <i_f3d_flags>
0

> <s_epik_input>
W0NIMl0xT1tDSDJdW0NIMl1bQ0BIXTFbQ0gyXVtOSF1DKD1PKVtDSDJdbjJbY0hdW2NIXWMoPU8pW25IXWMyPU8=

> <s_epik_cmdline>
J2VwaWtfcHl0aG9uJywgJy1waCcsICc3LjAnLCAnLXRuJywgJzgnLCAnLW1hJywgJzIwMCcsICctbWV0YWxfYmluZGluZycsICctaW1hZScsICc8aW5maWxlLm1hZT4nLCAnLW9tYWUnLCAnPG91dGZpbGUubWFlPic=

> <r_lp_tautomer_probability>
0.999537

> <r_epik_Ionization_Penalty>
3.07866

> <r_epik_Ionization_Penalty_Charging>
2.6898e-08

> <r_epik_Ionization_Penalty_Neutral>
3.07866

> <r_epik_State_Penalty>
3.07769

> <r_epik_Charging_Adjusted_Penalty>
3.07769

> <i_epik_Tot_Q>
-1

> <i_epik_Tot_abs_Q>
1

> <r_epik_Metal_State_Penalty>
0.459839

> <b_epik_Metal_Only>
1

> <s_lp_Force_Field>
OPLS_2005

> <r_lp_Energy>
26.9978

> <b_lp_Chiralities_Consistent>
1

> <s_lp_Variant>
AV-unprocessed.smi:1131-4

> <Gold.Version>
5.8.1

> <Gold.Id.Protein>
6NUR|6NUR_protein|mol2

> <Gold.PLP.Fitness>
41.5453

> <Gold.PLP.PLP>
-33.9202

> <Gold.PLP.part.hbond>
-3.0000

> <Gold.PLP.part.metal>
0.0000

> <Gold.PLP.part.buried>
-4.8356

> <Gold.PLP.part.nonpolar>
-26.3947

> <Gold.PLP.part.repulsive>
0.9331

> <Gold.PLP.ligand.clash>
0.0000

> <Gold.PLP.ligand.torsion>
0.6213

> <Gold.PLP.Chemscore.Hbond>
2.9440

> <Gold.PLP.Chemscore.CHOScore>
0.0000

> <Gold.PLP.Chemscore.Metal>
0.0000

> <Gold.Chemscore.Hbonds>
donor molecule, donor type, donor heavy atom, donor atom, acceptor molecule, acceptor atom, score
      P1  H  7989  7998       L1     8  1.00
      P1  H  7997  8010       L1     1  1.00
      P1  H 10752 10764       L1    11  1.00

> <Gold.PLP.Chemscore.Internal.Correction>
0.0356

> <Gold.Rescore>
     Score         DG    S(hbond)    S(metal)    S(lipo)     H(rot)  DE(clash)    DE(int)     intcor
     15.01     -15.51       1.92        0.00      75.55       2.05       0.01       0.48       ----

> <Gold.Chemscore.Fitness>
15.0090

> <Gold.Chemscore.DG>
-15.5061

> <Gold.Chemscore.ZeroCoef>
-5.4800

> <Gold.Chemscore.Hbond>
1.9237

> <Gold.Chemscore.Metal>
0.0000

> <Gold.Chemscore.Lipo>
75.5527

> <Gold.Chemscore.Internal_Hbond>
0.0000

> <Gold.Chemscore.DEClash>
0.0133

> <Gold.Chemscore.DEInternal>
0.4837

> <Gold.Chemscore.Rot>
2.0463

> <Gold.Chemscore.Internal.Correction>
   9.000000E+99

> <Gold.Chemscore.Hbonds>
donor molecule, donor type, donor heavy atom, donor atom, acceptor molecule, acceptor atom, score
      P1  H  7989  7998       L1     8  0.24
      P1  H  7997  8010       L1     1  0.39
      P1  H 10752 10764       L1    11  0.91

> <Gold.Chemscore.Hbond.Weighted>
-6.4250

> <Gold.Chemscore.Metal.Weighted>
-0.0000

> <Gold.Chemscore.Lipo.Weighted>
-8.8397

> <Gold.Chemscore.Internal_Hbond.Weighted>
0.0000

> <Gold.Chemscore.DEClash.Weighted>
0.0133

> <Gold.Chemscore.DEInternal.Weighted>
0.4837

> <Gold.Chemscore.Rot.Weighted>
5.2386

> <Gold.Chemscore.Internal.Correction.Weighted>
   9.000000E+99

> <Gold.Protein.RotatedTorsions>
[ 6907 6896 6895 6894 ] final   80.05 input  -60.11 | X-H torsion
[ 7974 7965 7964 7962 ] final -171.03 input  175.53 | X-H torsion
[ 8008 7997 7996 7995 ] final   -7.88 input   59.86 | X-H torsion
[ 10167 10162 10161 10158 ] final  173.72 input  -65.29 | X-H torsion
[ 10718 10713 10712 10709 ] final  -46.24 input   66.30 | X-H torsion
[ 10763 10752 10751 10750 ] final  -12.95 input  -60.55 | X-H torsion
[ 11005 11000 10999 10996 ] final   13.28 input  -57.11 | X-H torsion

> <Gold.Protein.ActiveResidues>
 VAL166  LYS551  ARG553  GLY616  TRP617  ASP618  TYR619  PRO620  LYS621  CYS622 
 ASP623  PHE694  ASN695  SER759  ASP760  ASP761  ALA762  ILE779  LEU786  VAL792 
 PHE793  MET794  SER795  GLU796  ALA797  LYS798  CYS799  TRP800  GLU811  SER814 

> <Gold.Protein.RotatedAtoms>
  152.5221  134.3417  159.9219 H   0  0  0  0  0  0  0  0  0  0  0  0  # atno 6907 bound_to 6896
  151.3367  133.3972  159.2675 H   0  0  0  0  0  0  0  0  0  0  0  0  # atno 6908 bound_to 6896
  150.9836  134.9204  159.7916 H   0  0  0  0  0  0  0  0  0  0  0  0  # atno 6909 bound_to 6896
  144.7162  140.1983  143.6341 H   0  0  0  0  0  0  0  0  0  0  0  0  # atno 7974 bound_to 7965
  154.5795  140.2395  155.8074 H   0  0  0  0  0  0  0  0  0  0  0  0  # atno 8008 bound_to 7997
  156.2169  140.3009  155.9816 H   0  0  0  0  0  0  0  0  0  0  0  0  # atno 8009 bound_to 7997
  155.2566  140.0413  157.2983 H   0  0  0  0  0  0  0  0  0  0  0  0  # atno 8010 bound_to 7997
  139.5118  144.3228  152.0186 H   0  0  0  0  0  0  0  0  0  0  0  0  # atno 10167 bound_to 10162
  156.2203  130.4166  149.9001 H   0  0  0  0  0  0  0  0  0  0  0  0  # atno 10718 bound_to 10713
  153.5060  135.7017  153.5806 H   0  0  0  0  0  0  0  0  0  0  0  0  # atno 10763 bound_to 10752
  153.3917  135.3894  155.1927 H   0  0  0  0  0  0  0  0  0  0  0  0  # atno 10764 bound_to 10752
  154.8707  135.3860  154.4536 H   0  0  0  0  0  0  0  0  0  0  0  0  # atno 10765 bound_to 10752
  140.4825  134.0921  155.7754 H   0  0  0  0  0  0  0  0  0  0  0  0  # atno 11005 bound_to 11000
  145.8704  139.2269  143.1664 LP  0  0  0  0  0  0  0  0  0  0  0  0  # atno 17320 bound_to 7965
  146.0090  140.8452  142.9980 LP  0  0  0  0  0  0  0  0  0  0  0  0  # atno 17321 bound_to 7965
  140.2669  144.4006  150.6165 LP  0  0  0  0  0  0  0  0  0  0  0  0  # atno 17342 bound_to 10162
  140.6116  143.2170  151.6874 LP  0  0  0  0  0  0  0  0  0  0  0  0  # atno 17343 bound_to 10162
  156.6650  130.8797  151.3553 LP  0  0  0  0  0  0  0  0  0  0  0  0  # atno 17370 bound_to 10713
  157.7084  130.9411  150.1007 LP  0  0  0  0  0  0  0  0  0  0  0  0  # atno 17371 bound_to 10713
  141.1524  133.8944  157.2064 LP  0  0  0  0  0  0  0  0  0  0  0  0  # atno 17394 bound_to 11000
  139.9818  135.0096  156.9767 LP  0  0  0  0  0  0  0  0  0  0  0  0  # atno 17395 bound_to 11000

$$$$
