#       Name:                AV-unprocessed.smi:1244
#       Creating user name   scv26
#       Creation time:       Fri Mar 27 04:33:35 2020


#       File generated by GOLD software.
#

@<TRIPOS>MOLECULE
AV-unprocessed.smi:1244
    61    63     1
SMALL
NO_CHARGES


@<TRIPOS>ATOM
      1 ****        -1.6541   6.1353   1.5350 C.3            1 S1                 0.0000
      2 ****        -2.0860   5.2218   0.3824 C.3            1 S1                 0.0000
      3 ****        -1.6256   3.7671   0.5915 C.3            1 S1                 0.0000
      4 ****        -2.1266   2.8985  -0.5023 N.4            1 S1                 1.0000
      5 ****        -1.6812   1.4877  -0.3839 C.3            1 S1                 0.0000
      6 ****        -0.2101   1.3029  -0.8032 C.3            1 S1                 0.0000
      7 ****         0.2165  -0.0869  -0.6848 N.am           1 S1                 0.0000
      8 ****         0.5521  -0.6848   0.4674 C.2            1 S1                 0.0000
      9 ****         0.4927  -0.1278   1.5636 O.2            1 S1                 0.0000
     10 ****         0.9752  -1.9437   0.2643 N.am           1 S1                 0.0000
     11 ****         1.4880  -2.8514   1.2337 C.ar           1 S1                 0.0000
     12 ****         0.9490  -2.9012   2.5449 C.ar           1 S1                 0.0000
     13 ****         1.4875  -3.7911   3.4933 C.ar           1 S1                 0.0000
     14 ****         2.5557  -4.6224   3.1153 C.ar           1 S1                 0.0000
     15 ****         3.0330  -4.5659   1.8547 N.pl3          1 S1                 1.0000
     16 ****         2.5479  -3.7415   0.8927 C.ar           1 S1                 0.0000
     17 ****         3.1441  -3.7993  -0.3874 N.3            1 S1                 0.0000
     18 ****         4.3687  -4.5623  -0.5990 C.3            1 S1                 0.0000
     19 ****         4.5053  -4.6772  -2.1149 C.3            1 S1                 0.0000
     20 ****         3.0523  -4.7853  -2.5685 C.3            1 S1                 0.0000
     21 ****         2.2913  -3.9107  -1.5662 C.3            1 S1                 0.0000
     22 ****        -3.5988   3.0206  -0.6210 C.3            1 S1                 0.0000
     23 ****        -4.0076   4.4959  -0.7970 C.3            1 S1                 0.0000
     24 ****        -5.5292   4.6732  -0.8432 C.3            1 S1                 0.0000
     25 ****        -3.5066   5.2517   0.3000 O.3            1 S1                 0.0000
     26 ****        -0.5690   6.1480   1.6412 H              1 S1                 0.0000
     27 ****        -2.0792   5.8037   2.4828 H              1 S1                 0.0000
     28 ****        -1.9824   7.1608   1.3638 H              1 S1                 0.0000
     29 ****        -1.6633   5.6115  -0.5456 H              1 S1                 0.0000
     30 ****        -0.5373   3.7376   0.6324 H              1 S1                 0.0000
     31 ****        -1.9907   3.3928   1.5496 H              1 S1                 0.0000
     32 ****        -1.8500   1.1369   0.6353 H              1 S1                 0.0000
     33 ****        -2.2977   0.8610  -1.0302 H              1 S1                 0.0000
     34 ****        -0.0803   1.6100  -1.8413 H              1 S1                 0.0000
     35 ****         0.4573   1.9296  -0.2109 H              1 S1                 0.0000
     36 ****         0.2925  -0.6165  -1.5412 H              1 S1                 0.0000
     37 ****         1.0638  -2.2351  -0.6981 H              1 S1                 0.0000
     38 ****         0.1242  -2.2685   2.8368 H              1 S1                 0.0000
     39 ****         1.0881  -3.8322   4.4961 H              1 S1                 0.0000
     40 ****         3.0353  -5.3312   3.7748 H              1 S1                 0.0000
     41 ****         5.2301  -4.0655  -0.1511 H              1 S1                 0.0000
     42 ****         4.2786  -5.5582  -0.1630 H              1 S1                 0.0000
     43 ****         4.9553  -3.7697  -2.5198 H              1 S1                 0.0000
     44 ****         5.1151  -5.5266  -2.4239 H              1 S1                 0.0000
     45 ****         2.9042  -4.4714  -3.6021 H              1 S1                 0.0000
     46 ****         2.7184  -5.8202  -2.4807 H              1 S1                 0.0000
     47 ****         1.3152  -4.3362  -1.3295 H              1 S1                 0.0000
     48 ****         2.1379  -2.9153  -1.9834 H              1 S1                 0.0000
     49 ****        -3.9484   2.4394  -1.4755 H              1 S1                 0.0000
     50 ****        -4.0719   2.6001   0.2684 H              1 S1                 0.0000
     51 ****        -3.5849   4.8870  -1.7243 H              1 S1                 0.0000
     52 ****        -5.9633   4.1266  -1.6807 H              1 S1                 0.0000
     53 ****        -5.7955   5.7241  -0.9595 H              1 S1                 0.0000
     54 ****        -5.9980   4.3107   0.0720 H              1 S1                 0.0000
     55 ****        -1.7429   3.2544  -1.3663 H              1 S1                 0.0000
     56 ****         3.8031  -5.1882   1.6088 H              1 S1                 0.0000
     57 ****         0.1812   0.8203   1.6264 LP             1 S1                 0.0000
     58 ****         0.7561  -0.6235   2.3912 LP             1 S1                 0.0000
     59 ****         3.4289  -2.8441  -0.3067 LP             1 S1                 0.0000
     60 ****        -3.8013   6.2015   0.1956 LP             1 S1                 0.0000
     61 ****        -3.8844   4.8765   1.1464 LP             1 S1                 0.0000
@<TRIPOS>BOND
    1    1    2 1     
    2    1   26 1     
    3    1   27 1     
    4    1   28 1     
    5    2   25 1     
    6    2    3 1     
    7    2   29 1     
    8    3    4 1     
    9    3   30 1     
   10    3   31 1     
   11    4    5 1     
   12    4   22 1     
   13    4   55 1     
   14    5    6 1     
   15    5   32 1     
   16    5   33 1     
   17    6    7 1     
   18    6   34 1     
   19    6   35 1     
   20    7    8 am    
   21    7   36 1     
   22    8    9 2     
   23    8   10 am    
   24   10   11 1     
   25   10   37 1     
   26   11   16 ar    
   27   11   12 ar    
   28   12   13 ar    
   29   12   38 1     
   30   13   14 ar    
   31   13   39 1     
   32   14   15 ar    
   33   14   40 1     
   34   15   16 ar    
   35   15   56 1     
   36   16   17 1     
   37   17   21 1     
   38   17   18 1     
   39   18   19 1     
   40   18   41 1     
   41   18   42 1     
   42   19   20 1     
   43   19   43 1     
   44   19   44 1     
   45   20   21 1     
   46   20   45 1     
   47   20   46 1     
   48   21   47 1     
   49   21   48 1     
   50   22   23 1     
   51   22   49 1     
   52   22   50 1     
   53   23   24 1     
   54   23   25 1     
   55   23   51 1     
   56   24   52 1     
   57   24   53 1     
   58   24   54 1     
   59    9   57 1     
   60    9   58 1     
   61   17   59 1     
   62   25   60 1     
   63   25   61 1     
@<TRIPOS>SUBSTRUCTURE
      1 S1             1
@<TRIPOS>SET
LONE_PAIRS      STATIC     ATOMS    <user>   **** ""
5 57 58 59 60 61
DONOR_HYDROGENS      STATIC     ATOMS    <user>   **** ""
4 55 36 37 56
ATOM$BLUE        STATIC     ATOMS    COLORGROUP SYSTEM
5 57 58 59 60 61
ATOM$RED        STATIC     ATOMS    COLORGROUP SYSTEM
4 55 36 37 56
