#       Name:                AV-unprocessed.smi:2546
#       Creating user name   scv26
#       Creation time:       Fri Mar 27 14:04:53 2020


#       File generated by GOLD software.
#

@<TRIPOS>MOLECULE
AV-unprocessed.smi:2546
    19    19     1
SMALL
NO_CHARGES


@<TRIPOS>ATOM
      1 ****        -1.6378   2.1113   0.2757 N.4            1 S1                 1.0000
      2 ****        -1.1681   0.7157   0.2625 C.3            1 S1                 0.0000
      3 ****         0.3615   0.6396   0.1600 C.3            1 S1                 0.0000
      4 ****         0.8631  -0.7674   0.1575 C.2            1 S1                 0.0000
      5 ****         0.9834  -1.5326   1.2489 N.2            1 S1                 0.0000
      6 ****         1.4655  -2.7511   0.7981 N.2            1 S1                 0.0000
      7 ****         1.5876  -2.6031  -0.5220 C.2            1 S1                 0.0000
      8 ****         1.2259  -1.3955  -0.9714 N.pl3          1 S1                 0.0000
      9 ****         1.2311  -1.0481  -1.9196 H              1 S1                 0.0000
     10 ****        -2.6455   2.1262   0.3441 H              1 S1                 0.0000
     11 ****        -1.3524   2.5735  -0.5758 H              1 S1                 0.0000
     12 ****        -1.5131   0.2235   1.1726 H              1 S1                 0.0000
     13 ****        -1.6303   0.1982  -0.5788 H              1 S1                 0.0000
     14 ****         0.7033   1.1389  -0.7478 H              1 S1                 0.0000
     15 ****         0.8211   1.1670   0.9970 H              1 S1                 0.0000
     16 ****         1.9458  -3.3893  -1.1703 H              1 S1                 0.0000
     17 ****        -1.2410   2.5936   1.0697 H              1 S1                 0.0000
     18 ****         0.7701  -1.2783   2.1922 LP             1 S1                 0.0000
     19 ****         1.6757  -3.5630   1.3427 LP             1 S1                 0.0000
@<TRIPOS>BOND
    1    1    2 1     
    2    1   10 1     
    3    1   11 1     
    4    1   17 1     
    5    2    3 1     
    6    2   12 1     
    7    2   13 1     
    8    3    4 1     
    9    3   14 1     
   10    3   15 1     
   11    4    8 1     
   12    4    5 2     
   13    5    6 1     
   14    6    7 2     
   15    7    8 1     
   16    7   16 1     
   17    8    9 1     
   18    5   18 1     
   19    6   19 1     
@<TRIPOS>SUBSTRUCTURE
      1 S1             1
@<TRIPOS>SET
LONE_PAIRS      STATIC     ATOMS    <user>   **** ""
2 18 19
DONOR_HYDROGENS      STATIC     ATOMS    <user>   **** ""
4 10 11 17 9
ATOM$BLUE        STATIC     ATOMS    COLORGROUP SYSTEM
2 18 19
ATOM$RED        STATIC     ATOMS    COLORGROUP SYSTEM
4 10 11 17 9
