AV-unprocessed.smi:1564|AV-procd|sdf|6294|dock10
  -GOLD-   22720 6493D 1   1.00000     0.00000
 Structure written by MMmdl.
 43 44  0  0  0  0  0  0  0  0  2 V2000
  154.0930  141.4011  161.0522 C   0  0  0  0  0  0  0  0  0  0  0  0
  154.0702  140.8729  159.7308 O   0  0  0  0  0  0  0  0  0  0  0  0
  153.0351  141.2408  158.8957 C   0  0  0  0  0  0  0  0  0  0  0  0
  152.3808  142.4656  159.1333 C   0  0  0  0  0  0  0  0  0  0  0  0
  151.3234  142.8492  158.2866 C   0  0  0  0  0  0  0  0  0  0  0  0
  150.9575  141.9953  157.2185 C   0  0  0  0  0  0  0  0  0  0  0  0
  149.8995  142.2585  156.3063 N   0  0  0  0  0  0  0  0  0  0  0  0
  149.1141  141.3813  155.6579 C   0  0  0  0  0  0  0  0  0  0  0  0
  149.1648  140.1570  155.7718 O   0  0  0  0  0  0  0  0  0  0  0  0
  148.2320  142.0091  154.8678 N   0  0  0  0  0  0  0  0  0  0  0  0
  147.2331  141.3343  154.0460 C   0  0  1  0  0  0  0  0  0  0  0  0
  147.8152  140.4897  152.9115 C   0  0  0  0  0  0  0  0  0  0  0  0
  146.8048  139.3461  152.7237 C   0  0  0  0  0  0  0  0  0  0  0  0
  145.8060  139.4581  153.8176 N   0  3  1  0  0  0  0  0  0  0  0  0
  145.2524  138.1631  154.3040 C   0  0  0  0  0  0  0  0  0  0  0  0
  144.6847  137.3303  153.1391 C   0  0  0  0  0  0  0  0  0  0  0  0
  144.1583  138.3757  155.3672 C   0  0  0  0  0  0  0  0  0  0  0  0
  146.4301  140.3148  154.8468 C   0  0  0  0  0  0  0  0  0  0  0  0
  151.6672  140.7848  157.0751 C   0  0  0  0  0  0  0  0  0  0  0  0
  152.6818  140.4113  157.8829 N   0  0  0  0  0  0  0  0  0  0  0  0
  154.9693  141.0209  161.5771 H   0  0  0  0  0  0  0  0  0  0  0  0
  153.2111  141.0976  161.6183 H   0  0  0  0  0  0  0  0  0  0  0  0
  154.1580  142.4901  161.0458 H   0  0  0  0  0  0  0  0  0  0  0  0
  152.6814  143.0987  159.9550 H   0  0  0  0  0  0  0  0  0  0  0  0
  150.8114  143.7778  158.4838 H   0  0  0  0  0  0  0  0  0  0  0  0
  149.6827  143.2349  156.1691 H   0  0  0  0  0  0  0  0  0  0  0  0
  148.2523  143.0180  154.8352 H   0  0  0  0  0  0  0  0  0  0  0  0
  146.5419  142.0703  153.6295 H   0  0  0  0  0  0  0  0  0  0  0  0
  147.9606  141.0714  152.0005 H   0  0  0  0  0  0  0  0  0  0  0  0
  148.7841  140.0779  153.1987 H   0  0  0  0  0  0  0  0  0  0  0  0
  146.2996  139.4136  151.7598 H   0  0  0  0  0  0  0  0  0  0  0  0
  147.3263  138.3883  152.7603 H   0  0  0  0  0  0  0  0  0  0  0  0
  146.0636  137.5970  154.7643 H   0  0  0  0  0  0  0  0  0  0  0  0
  144.2519  136.3967  153.4999 H   0  0  0  0  0  0  0  0  0  0  0  0
  145.4532  137.0624  152.4140 H   0  0  0  0  0  0  0  0  0  0  0  0
  143.9008  137.8729  152.6096 H   0  0  0  0  0  0  0  0  0  0  0  0
  143.7183  137.4249  155.6699 H   0  0  0  0  0  0  0  0  0  0  0  0
  143.3524  139.0046  154.9875 H   0  0  0  0  0  0  0  0  0  0  0  0
  144.5519  138.8411  156.2708 H   0  0  0  0  0  0  0  0  0  0  0  0
  147.0881  139.7149  155.4785 H   0  0  0  0  0  0  0  0  0  0  0  0
  145.6864  140.7964  155.4825 H   0  0  0  0  0  0  0  0  0  0  0  0
  151.4170  140.0934  156.2838 H   0  0  0  0  0  0  0  0  0  0  0  0
  145.0349  139.9922  153.4426 H   0  0  0  0  0  0  0  0  0  0  0  0
  1  2  1  0  0  0  0
  1 21  1  0  0  0  0
  1 22  1  0  0  0  0
  1 23  1  0  0  0  0
  2  3  1  0  0  0  0
  3 20  1  0  0  0  0
  3  4  2  0  0  0  0
  4  5  1  0  0  0  0
  4 24  1  0  0  0  0
  5  6  2  0  0  0  0
  5 25  1  0  0  0  0
  6  7  1  0  0  0  0
  6 19  1  0  0  0  0
  7  8  1  0  0  0  0
  7 26  1  0  0  0  0
  8  9  2  0  0  0  0
  8 10  1  0  0  0  0
 10 11  1  0  0  0  0
 10 27  1  0  0  0  0
 11 18  1  0  0  0  0
 11 12  1  0  0  0  0
 11 28  1  0  0  0  0
 12 13  1  0  0  0  0
 12 29  1  0  0  0  0
 12 30  1  0  0  0  0
 13 14  1  0  0  0  0
 13 31  1  0  0  0  0
 13 32  1  0  0  0  0
 14 15  1  0  0  0  0
 14 18  1  0  0  0  0
 14 43  1  0  0  0  0
 15 16  1  0  0  0  0
 15 17  1  0  0  0  0
 15 33  1  0  0  0  0
 16 34  1  0  0  0  0
 16 35  1  0  0  0  0
 16 36  1  0  0  0  0
 17 37  1  0  0  0  0
 17 38  1  0  0  0  0
 17 39  1  0  0  0  0
 18 40  1  0  0  0  0
 18 41  1  0  0  0  0
 19 20  2  0  0  0  0
 19 42  1  0  0  0  0
M  CHG  1  14   1
M  END
> <s_m_source_file>
AV-unprocessed.smi

> <i_m_source_file_index>
1564

> <i_lp_mmshare_version>
43012

> <i_f3d_flags>
0

> <s_epik_input>
W0NIM11PYzFbY0hdW2NIXWMoW2NIXW4xKVtOSF1DKD1PKVtOSF1bQ0BASF0yW0NIMl1bQ0gyXU4oW0NIMl0yKVtDSF0oW0NIM10pW0NIM10=

> <s_epik_cmdline>
J2VwaWtfcHl0aG9uJywgJy1waCcsICc3LjAnLCAnLXRuJywgJzgnLCAnLW1hJywgJzIwMCcsICctbWV0YWxfYmluZGluZycsICctaW1hZScsICc8aW5maWxlLm1hZT4nLCAnLW9tYWUnLCAnPG91dGZpbGUubWFlPic=

> <r_lp_tautomer_probability>
1

> <r_epik_Ionization_Penalty>
0.000679474

> <r_epik_Ionization_Penalty_Charging>
0.000606352

> <r_epik_Ionization_Penalty_Neutral>
7.31222e-05

> <r_epik_State_Penalty>
0.000382168

> <r_epik_Charging_Adjusted_Penalty>
0.00098852

> <i_epik_Tot_Q>
1

> <i_epik_Tot_abs_Q>
1

> <r_epik_Metal_State_Penalty>
-0

> <b_epik_Metal_Only>
0

> <s_lp_Force_Field>
OPLS_2005

> <r_lp_Energy>
32.3031

> <b_lp_Chiralities_Consistent>
1

> <s_lp_Variant>
AV-unprocessed.smi:1564-2

> <Gold.Version>
5.8.1

> <Gold.Id.Protein>
6NUR|6NUR_protein|mol2

> <Gold.PLP.Fitness>
42.3814

> <Gold.PLP.PLP>
-29.2515

> <Gold.PLP.part.hbond>
-4.0000

> <Gold.PLP.part.metal>
0.0000

> <Gold.PLP.part.buried>
-0.1938

> <Gold.PLP.part.nonpolar>
-25.0901

> <Gold.PLP.part.repulsive>
0.2811

> <Gold.PLP.ligand.clash>
0.0000

> <Gold.PLP.ligand.torsion>
0.6141

> <Gold.PLP.Chemscore.Hbond>
4.7782

> <Gold.PLP.Chemscore.CHOScore>
0.0000

> <Gold.PLP.Chemscore.Metal>
0.0000

> <Gold.Chemscore.Hbonds>
donor molecule, donor type, donor heavy atom, donor atom, acceptor molecule, acceptor atom, score
      L1  H     7    26       P1  8028  1.00
      L1  H    10    27       P1  8028  0.99
      L1  H    14    43       P1 10175  2.00
      P1  H  7997  8009       L1    20  0.79

> <Gold.PLP.Chemscore.Internal.Correction>
0.0233

> <Gold.Rescore>
     Score         DG    S(hbond)    S(metal)    S(lipo)     H(rot)  DE(clash)    DE(int)     intcor
     17.42     -21.93       3.34        0.00      76.99       1.44       1.54       2.97       ----

> <Gold.Chemscore.Fitness>
17.4223

> <Gold.Chemscore.DG>
-21.9327

> <Gold.Chemscore.ZeroCoef>
-5.4800

> <Gold.Chemscore.Hbond>
3.3362

> <Gold.Chemscore.Metal>
0.0000

> <Gold.Chemscore.Lipo>
76.9873

> <Gold.Chemscore.Internal_Hbond>
0.0000

> <Gold.Chemscore.DEClash>
1.5420

> <Gold.Chemscore.DEInternal>
2.9683

> <Gold.Chemscore.Rot>
1.4445

> <Gold.Chemscore.Internal.Correction>
   9.000000E+99

> <Gold.Chemscore.Hbonds>
donor molecule, donor type, donor heavy atom, donor atom, acceptor molecule, acceptor atom, score
      L1  H     7    26       P1  8028  1.00
      L1  H    10    27       P1  8028  0.91
      L1  H    14    43       P1 10175  1.00
      P1  H  7997  8009       L1    20  0.29

> <Gold.Chemscore.Hbond.Weighted>
-11.1430

> <Gold.Chemscore.Metal.Weighted>
-0.0000

> <Gold.Chemscore.Lipo.Weighted>
-9.0075

> <Gold.Chemscore.Internal_Hbond.Weighted>
0.0000

> <Gold.Chemscore.DEClash.Weighted>
1.5420

> <Gold.Chemscore.DEInternal.Weighted>
2.9683

> <Gold.Chemscore.Rot.Weighted>
3.6979

> <Gold.Chemscore.Internal.Correction.Weighted>
   9.000000E+99

> <Gold.Protein.RotatedTorsions>
[ 6907 6896 6895 6894 ] final -116.29 input  -60.11 | X-H torsion
[ 7974 7965 7964 7962 ] final -149.08 input  175.53 | X-H torsion
[ 8008 7997 7996 7995 ] final  167.22 input   59.86 | X-H torsion
[ 10167 10162 10161 10158 ] final -108.65 input  -65.29 | X-H torsion
[ 10718 10713 10712 10709 ] final   60.91 input   66.30 | X-H torsion
[ 10763 10752 10751 10750 ] final   -2.66 input  -60.55 | X-H torsion
[ 11005 11000 10999 10996 ] final -156.71 input  -57.11 | X-H torsion

> <Gold.Protein.ActiveResidues>
 VAL166  LYS551  ARG553  GLY616  TRP617  ASP618  TYR619  PRO620  LYS621  CYS622 
 ASP623  PHE694  ASN695  SER759  ASP760  ASP761  ALA762  ILE779  LEU786  VAL792 
 PHE793  MET794  SER795  GLU796  ALA797  LYS798  CYS799  TRP800  GLU811  SER814 

> <Gold.Protein.RotatedAtoms>
  150.8044  133.8538  159.3212 H   0  0  0  0  0  0  0  0  0  0  0  0  # atno 6907 bound_to 6896
  151.6341  135.1018  160.0137 H   0  0  0  0  0  0  0  0  0  0  0  0  # atno 6908 bound_to 6896
  152.4134  133.6959  159.6452 H   0  0  0  0  0  0  0  0  0  0  0  0  # atno 6909 bound_to 6896
  144.7989  140.5112  143.5720 H   0  0  0  0  0  0  0  0  0  0  0  0  # atno 7974 bound_to 7965
  156.1652  140.1622  156.8543 H   0  0  0  0  0  0  0  0  0  0  0  0  # atno 8008 bound_to 7997
  154.5201  140.0780  156.8190 H   0  0  0  0  0  0  0  0  0  0  0  0  # atno 8009 bound_to 7997
  155.3625  140.3396  155.4243 H   0  0  0  0  0  0  0  0  0  0  0  0  # atno 8010 bound_to 7997
  140.1639  143.4098  152.1405 H   0  0  0  0  0  0  0  0  0  0  0  0  # atno 10167 bound_to 10162
  157.5788  130.8965  149.9395 H   0  0  0  0  0  0  0  0  0  0  0  0  # atno 10718 bound_to 10713
  153.3610  135.6990  153.6712 H   0  0  0  0  0  0  0  0  0  0  0  0  # atno 10763 bound_to 10752
  153.5401  135.3574  155.2715 H   0  0  0  0  0  0  0  0  0  0  0  0  # atno 10764 bound_to 10752
  154.8668  135.4201  154.2867 H   0  0  0  0  0  0  0  0  0  0  0  0  # atno 10765 bound_to 10752
  140.6725  134.4231  157.5231 H   0  0  0  0  0  0  0  0  0  0  0  0  # atno 11005 bound_to 11000
  145.5602  139.1479  143.3345 LP  0  0  0  0  0  0  0  0  0  0  0  0  # atno 17320 bound_to 7965
  146.2266  140.5738  142.8994 LP  0  0  0  0  0  0  0  0  0  0  0  0  # atno 17321 bound_to 7965
  139.5368  144.7218  151.4865 LP  0  0  0  0  0  0  0  0  0  0  0  0  # atno 17342 bound_to 10162
  140.6625  143.8467  150.6904 LP  0  0  0  0  0  0  0  0  0  0  0  0  # atno 17343 bound_to 10162
  156.0833  130.3670  150.0536 LP  0  0  0  0  0  0  0  0  0  0  0  0  # atno 17370 bound_to 10713
  156.8678  130.9514  151.3612 LP  0  0  0  0  0  0  0  0  0  0  0  0  # atno 17371 bound_to 10713
  139.8977  134.8631  156.2033 LP  0  0  0  0  0  0  0  0  0  0  0  0  # atno 17394 bound_to 11000
  141.0381  133.6952  156.1548 LP  0  0  0  0  0  0  0  0  0  0  0  0  # atno 17395 bound_to 11000

$$$$
