AV-unprocessed.smi:50|AV-procd|sdf|497|dock7
  -GOLD-   2262016373D 1   1.00000     0.00000
 Structure written by MMmdl.
 42 43  0  0  0  0  0  0  0  0  2 V2000
  143.4005  133.2978  151.6724 C   0  0  0  0  0  0  0  0  0  0  0  0
  144.3393  133.9758  150.6592 C   0  0  0  0  0  0  0  0  0  0  0  0
  145.7151  133.2805  150.6566 C   0  0  0  0  0  0  0  0  0  0  0  0
  144.3907  135.5166  150.8572 C   0  0  2  0  0  0  0  0  0  0  0  0
  145.1990  136.1488  149.8134 N   0  0  0  0  0  0  0  0  0  0  0  0
  144.7972  135.9593  152.2763 C   0  0  0  0  0  0  0  0  0  0  0  0
  144.9002  135.1812  153.2251 O   0  0  0  0  0  0  0  0  0  0  0  0
  145.0347  137.2838  152.3331 O   0  0  0  0  0  0  0  0  0  0  0  0
  145.6486  137.8399  153.4836 C   0  0  0  0  0  0  0  0  0  0  0  0
  146.4568  139.0752  153.0798 C   0  0  0  0  0  0  0  0  0  0  0  0
  147.6658  139.0886  153.8196 O   0  0  0  0  0  0  0  0  0  0  0  0
  148.2080  140.3605  153.9433 C   0  0  0  0  0  0  0  0  0  0  0  0
  149.4571  140.2399  154.6682 N   0  0  0  0  0  0  0  0  0  0  0  0
  150.1514  141.2289  155.2635 C   0  0  0  0  0  0  0  0  0  0  0  0
  151.2773  140.8520  155.8684 N   0  0  0  0  0  0  0  0  0  0  0  0
  151.2927  139.4827  155.6264 C   0  0  0  0  0  0  0  0  0  0  0  0
  152.2578  138.4234  156.0080 C   0  0  0  0  0  0  0  0  0  0  0  0
  153.2560  138.7290  156.6578 O   0  0  0  0  0  0  0  0  0  0  0  0
  151.9405  137.1603  155.5896 N   0  5  0  0  0  0  0  0  0  0  0  0
  150.7736  136.9303  154.8469 C   0  0  0  0  0  0  0  0  0  0  0  0
  150.6113  135.6056  154.5049 N   0  0  0  0  0  0  0  0  0  0  0  0
  149.8804  137.8142  154.4742 N   0  0  0  0  0  0  0  0  0  0  0  0
  150.2004  139.0894  154.9014 C   0  0  0  0  0  0  0  0  0  0  0  0
  143.3736  135.8772  150.6999 H   0  0  0  0  0  0  0  0  0  0  0  0
  143.7814  133.3761  152.6910 H   0  0  0  0  0  0  0  0  0  0  0  0
  143.2822  132.2378  151.4465 H   0  0  0  0  0  0  0  0  0  0  0  0
  142.4081  133.7487  151.6525 H   0  0  0  0  0  0  0  0  0  0  0  0
  143.8992  133.8015  149.6760 H   0  0  0  0  0  0  0  0  0  0  0  0
  146.1852  133.3045  151.6397 H   0  0  0  0  0  0  0  0  0  0  0  0
  146.3977  133.7472  149.9461 H   0  0  0  0  0  0  0  0  0  0  0  0
  145.6176  132.2328  150.3712 H   0  0  0  0  0  0  0  0  0  0  0  0
  145.3611  135.5220  149.0383 H   0  0  0  0  0  0  0  0  0  0  0  0
  144.7384  136.9623  149.4308 H   0  0  0  0  0  0  0  0  0  0  0  0
  144.8881  138.1143  154.2160 H   0  0  0  0  0  0  0  0  0  0  0  0
  146.3016  137.0988  153.9466 H   0  0  0  0  0  0  0  0  0  0  0  0
  146.6724  139.0487  152.0104 H   0  0  0  0  0  0  0  0  0  0  0  0
  145.8803  139.9796  153.2808 H   0  0  0  0  0  0  0  0  0  0  0  0
  148.4103  140.7935  152.9622 H   0  0  0  0  0  0  0  0  0  0  0  0
  147.5374  141.0166  154.5006 H   0  0  0  0  0  0  0  0  0  0  0  0
  149.8209  142.2570  155.2526 H   0  0  0  0  0  0  0  0  0  0  0  0
  151.2632  134.8795  154.7620 H   0  0  0  0  0  0  0  0  0  0  0  0
  149.8239  135.2672  153.9715 H   0  0  0  0  0  0  0  0  0  0  0  0
  1  2  1  0  0  0  0
  1 25  1  0  0  0  0
  1 26  1  0  0  0  0
  1 27  1  0  0  0  0
  2  3  1  0  0  0  0
  2  4  1  0  0  0  0
  2 28  1  0  0  0  0
  3 29  1  0  0  0  0
  3 30  1  0  0  0  0
  3 31  1  0  0  0  0
  4 24  1  0  0  0  0
  4  5  1  0  0  0  0
  4  6  1  0  0  0  0
  5 32  1  0  0  0  0
  5 33  1  0  0  0  0
  6  7  2  0  0  0  0
  6  8  1  0  0  0  0
  8  9  1  0  0  0  0
  9 10  1  0  0  0  0
  9 34  1  0  0  0  0
  9 35  1  0  0  0  0
 10 11  1  0  0  0  0
 10 36  1  0  0  0  0
 10 37  1  0  0  0  0
 11 12  1  0  0  0  0
 12 13  1  0  0  0  0
 12 38  1  0  0  0  0
 12 39  1  0  0  0  0
 13 23  1  0  0  0  0
 13 14  1  0  0  0  0
 14 15  2  0  0  0  0
 14 40  1  0  0  0  0
 15 16  1  0  0  0  0
 16 23  2  0  0  0  0
 16 17  1  0  0  0  0
 17 18  2  0  0  0  0
 17 19  1  0  0  0  0
 19 20  1  0  0  0  0
 20 21  1  0  0  0  0
 20 22  2  0  0  0  0
 21 41  1  0  0  0  0
 21 42  1  0  0  0  0
 22 23  1  0  0  0  0
M  CHG  1  19  -1
M  END
> <s_m_source_file>
AV-unprocessed.smi

> <i_m_source_file_index>
50

> <i_lp_mmshare_version>
43012

> <i_f3d_flags>
0

> <s_epik_input>
W0NIM11bQ0hdKFtDSDNdKVtDQEhdKFtOSDJdKUMoPU8pT1tDSDJdW0NIMl1PW0NIMl1uKFtjSF1uMSljKGMxMiluYyhbTkgyXSlbbkhdYzI9Tw==

> <s_epik_cmdline>
J2VwaWtfcHl0aG9uJywgJy1waCcsICc3LjAnLCAnLXRuJywgJzgnLCAnLW1hJywgJzIwMCcsICctbWV0YWxfYmluZGluZycsICctaW1hZScsICc8aW5maWxlLm1hZT4nLCAnLW9tYWUnLCAnPG91dGZpbGUubWFlPic=

> <r_lp_tautomer_probability>
0.99994

> <r_epik_Ionization_Penalty>
4.26118

> <r_epik_Ionization_Penalty_Charging>
1.23364e-10

> <r_epik_Ionization_Penalty_Neutral>
4.26118

> <r_epik_State_Penalty>
4.27372

> <r_epik_Charging_Adjusted_Penalty>
4.27372

> <i_epik_Tot_Q>
-1

> <i_epik_Tot_abs_Q>
1

> <r_epik_Metal_State_Penalty>
1.24306

> <b_epik_Metal_Only>
1

> <s_epik_Chemistry_Notes>
This compound has an ester and may undergo hydrolysis at high or low pH. This compound contains an acetal/aminal-like group ( X-CH(R)-Y where X, Y are N, S, or O) that may be acid/base labile, releasing an aldehyde.

> <s_lp_Force_Field>
OPLS_2005

> <r_lp_Energy>
24.4723

> <b_lp_Chiralities_Consistent>
1

> <s_lp_Variant>
AV-unprocessed.smi:50-7

> <Gold.Version>
5.8.1

> <Gold.Id.Protein>
6NUR|6NUR_protein|mol2

> <Gold.PLP.Fitness>
50.4579

> <Gold.PLP.PLP>
-36.5623

> <Gold.PLP.part.hbond>
-6.5339

> <Gold.PLP.part.metal>
0.0000

> <Gold.PLP.part.buried>
-4.2458

> <Gold.PLP.part.nonpolar>
-28.5062

> <Gold.PLP.part.repulsive>
1.2254

> <Gold.PLP.ligand.clash>
0.0000

> <Gold.PLP.ligand.torsion>
1.2670

> <Gold.PLP.Chemscore.Hbond>
4.6908

> <Gold.PLP.Chemscore.CHOScore>
0.6870

> <Gold.PLP.Chemscore.Metal>
0.0000

> <Gold.Chemscore.Hbonds>
donor molecule, donor type, donor heavy atom, donor atom, acceptor molecule, acceptor atom, score
      L1  H     5    32       P1  7921  1.00
      L1  H     5    33       P1 10171  0.96
      P1  H  7997  8010       L1    18  1.00
      P1  H 10752 10763       L1    19  1.44
      L1  C    14    40       P1  8028  0.67

> <Gold.PLP.Chemscore.Internal.Correction>
0.2959

> <Gold.Rescore>
     Score         DG    S(hbond)    S(metal)    S(lipo)     H(rot)  DE(clash)    DE(int)     intcor
      4.16      -8.38       2.96        0.00      43.53       4.72       0.11       4.11       ----

> <Gold.Chemscore.Fitness>
4.1560

> <Gold.Chemscore.DG>
-8.3786

> <Gold.Chemscore.ZeroCoef>
-5.4800

> <Gold.Chemscore.Hbond>
2.9636

> <Gold.Chemscore.Metal>
0.0000

> <Gold.Chemscore.Lipo>
43.5340

> <Gold.Chemscore.Internal_Hbond>
0.0000

> <Gold.Chemscore.DEClash>
0.1107

> <Gold.Chemscore.DEInternal>
4.1120

> <Gold.Chemscore.Rot>
4.7239

> <Gold.Chemscore.Internal.Correction>
   9.000000E+99

> <Gold.Chemscore.Hbonds>
donor molecule, donor type, donor heavy atom, donor atom, acceptor molecule, acceptor atom, score
      L1  H     5    32       P1  7921  0.99
      L1  H     5    33       P1 10171  0.92
      P1  H  7997  8010       L1    18  0.95
      P1  H 10752 10763       L1    19  0.14

> <Gold.Chemscore.Hbond.Weighted>
-9.8984

> <Gold.Chemscore.Metal.Weighted>
-0.0000

> <Gold.Chemscore.Lipo.Weighted>
-5.0935

> <Gold.Chemscore.Internal_Hbond.Weighted>
0.0000

> <Gold.Chemscore.DEClash.Weighted>
0.1107

> <Gold.Chemscore.DEInternal.Weighted>
4.1120

> <Gold.Chemscore.Rot.Weighted>
12.0933

> <Gold.Chemscore.Internal.Correction.Weighted>
   9.000000E+99

> <Gold.Protein.RotatedTorsions>
[ 6907 6896 6895 6894 ] final   73.78 input  -60.11 | X-H torsion
[ 7974 7965 7964 7962 ] final -164.64 input  175.53 | X-H torsion
[ 8008 7997 7996 7995 ] final   73.09 input   59.86 | X-H torsion
[ 10167 10162 10161 10158 ] final  -42.63 input  -65.29 | X-H torsion
[ 10718 10713 10712 10709 ] final  146.60 input   66.30 | X-H torsion
[ 10763 10752 10751 10750 ] final   80.21 input  -60.55 | X-H torsion
[ 11005 11000 10999 10996 ] final   62.51 input  -57.11 | X-H torsion

> <Gold.Protein.ActiveResidues>
 VAL166  LYS551  ARG553  GLY616  TRP617  ASP618  TYR619  PRO620  LYS621  CYS622 
 ASP623  PHE694  ASN695  SER759  ASP760  ASP761  ALA762  ILE779  LEU786  VAL792 
 PHE793  MET794  SER795  GLU796  ALA797  LYS798  CYS799  TRP800  GLU811  SER814 

> <Gold.Protein.RotatedAtoms>
  152.4941  134.4370  159.9530 H   0  0  0  0  0  0  0  0  0  0  0  0  # atno 6907 bound_to 6896
  151.4352  133.3653  159.2782 H   0  0  0  0  0  0  0  0  0  0  0  0  # atno 6908 bound_to 6896
  150.9126  134.8567  159.7495 H   0  0  0  0  0  0  0  0  0  0  0  0  # atno 6909 bound_to 6896
  144.7291  140.2931  143.6217 H   0  0  0  0  0  0  0  0  0  0  0  0  # atno 7974 bound_to 7965
  155.7785  140.3482  155.5284 H   0  0  0  0  0  0  0  0  0  0  0  0  # atno 8008 bound_to 7997
  155.8752  140.0993  157.1544 H   0  0  0  0  0  0  0  0  0  0  0  0  # atno 8009 bound_to 7997
  154.4020  140.1333  156.4115 H   0  0  0  0  0  0  0  0  0  0  0  0  # atno 8010 bound_to 7997
  140.6962  143.3027  151.3236 H   0  0  0  0  0  0  0  0  0  0  0  0  # atno 10167 bound_to 10162
  157.3313  131.0920  151.1160 H   0  0  0  0  0  0  0  0  0  0  0  0  # atno 10718 bound_to 10713
  153.1015  135.4811  154.8875 H   0  0  0  0  0  0  0  0  0  0  0  0  # atno 10763 bound_to 10752
  154.7384  135.3076  154.8774 H   0  0  0  0  0  0  0  0  0  0  0  0  # atno 10764 bound_to 10752
  153.9390  135.6836  153.4798 H   0  0  0  0  0  0  0  0  0  0  0  0  # atno 10765 bound_to 10752
  140.0087  134.6330  155.9814 H   0  0  0  0  0  0  0  0  0  0  0  0  # atno 11005 bound_to 11000
  145.7835  139.1900  143.2144 LP  0  0  0  0  0  0  0  0  0  0  0  0  # atno 17320 bound_to 7965
  146.0814  140.7759  142.9639 LP  0  0  0  0  0  0  0  0  0  0  0  0  # atno 17321 bound_to 7965
  139.6421  144.0519  152.2563 LP  0  0  0  0  0  0  0  0  0  0  0  0  # atno 17342 bound_to 10162
  140.0028  144.6281  150.7715 LP  0  0  0  0  0  0  0  0  0  0  0  0  # atno 17343 bound_to 10162
  157.2408  130.6568  149.5889 LP  0  0  0  0  0  0  0  0  0  0  0  0  # atno 17370 bound_to 10713
  155.9696  130.4569  150.5942 LP  0  0  0  0  0  0  0  0  0  0  0  0  # atno 17371 bound_to 10713
  141.1695  133.6537  156.4601 LP  0  0  0  0  0  0  0  0  0  0  0  0  # atno 17394 bound_to 11000
  140.4594  134.6855  157.5078 LP  0  0  0  0  0  0  0  0  0  0  0  0  # atno 17395 bound_to 11000

$$$$
