AV-unprocessed.smi:35|AV-procd|sdf|255|dock9
  -GOLD-   2262016 13D 1   1.00000     0.00000
 Structure written by MMmdl.
 29 30  0  0  0  0  0  0  0  0  1 V2000
  150.8217  131.7166  156.4228 O   0  0  0  0  0  0  0  0  0  0  0  0
  150.7844  132.9372  156.2828 C   0  0  0  0  0  0  0  0  0  0  0  0
  151.5651  133.7647  157.0946 N   0  0  0  0  0  0  0  0  0  0  0  0
  151.6073  135.1586  157.0281 C   0  0  0  0  0  0  0  0  0  0  0  0
  152.3419  135.7903  157.7863 O   0  0  0  0  0  0  0  0  0  0  0  0
  150.7911  135.7867  156.0609 N   0  0  0  0  0  0  0  0  0  0  0  0
  150.8191  137.3020  155.9712 C   0  0  2  0  0  0  0  0  0  0  0  0
  149.5153  137.7932  155.8555 O   0  0  0  0  0  0  0  0  0  0  0  0
  149.2857  138.2708  154.5333 C   0  0  1  0  0  0  0  0  0  0  0  0
  148.1222  139.2765  154.4974 C   0  0  0  0  0  0  0  0  0  0  0  0
  147.8340  139.6332  153.1624 O   0  0  0  0  0  0  0  0  0  0  0  0
  150.6563  138.8266  154.1292 C   0  0  1  0  0  0  0  0  0  0  0  0
  150.8646  140.1196  154.6685 O   0  0  0  0  0  0  0  0  0  0  0  0
  151.6205  137.8271  154.7539 C   0  0  2  0  0  0  0  0  0  0  0  0
  151.9447  136.8260  153.8040 O   0  0  0  0  0  0  0  0  0  0  0  0
  149.9976  135.0039  155.2305 C   0  0  0  0  0  0  0  0  0  0  0  0
  149.9694  133.6524  155.3068 C   0  0  0  0  0  0  0  0  0  0  0  0
  148.7727  132.7191  154.0336 Br  0  0  0  0  0  0  0  0  0  0  0  0
  152.1486  133.3163  157.7859 H   0  0  0  0  0  0  0  0  0  0  0  0
  151.2116  137.6491  156.9290 H   0  0  0  0  0  0  0  0  0  0  0  0
  149.0643  137.4244  153.8806 H   0  0  0  0  0  0  0  0  0  0  0  0
  147.2317  138.8739  154.9813 H   0  0  0  0  0  0  0  0  0  0  0  0
  148.3978  140.1894  155.0260 H   0  0  0  0  0  0  0  0  0  0  0  0
  148.5680  139.3875  152.6201 H   0  0  0  0  0  0  0  0  0  0  0  0
  150.7645  138.8942  153.0457 H   0  0  0  0  0  0  0  0  0  0  0  0
  150.2818  140.2368  155.4032 H   0  0  0  0  0  0  0  0  0  0  0  0
  152.5468  138.2929  155.0930 H   0  0  0  0  0  0  0  0  0  0  0  0
  151.1750  136.6498  153.2846 H   0  0  0  0  0  0  0  0  0  0  0  0
  149.3692  135.4688  154.4868 H   0  0  0  0  0  0  0  0  0  0  0  0
  1  2  2  0  0  0  0
  2 17  1  0  0  0  0
  2  3  1  0  0  0  0
  3 19  1  0  0  0  0
  3  4  1  0  0  0  0
  4  5  2  0  0  0  0
  4  6  1  0  0  0  0
  6  7  1  0  0  0  0
  6 16  1  0  0  0  0
  7 14  1  0  0  0  0
  7  8  1  0  0  0  0
  7 20  1  0  0  0  0
  8  9  1  0  0  0  0
  9 10  1  0  0  0  0
  9 12  1  0  0  0  0
  9 21  1  0  0  0  0
 10 11  1  0  0  0  0
 10 22  1  0  0  0  0
 10 23  1  0  0  0  0
 11 24  1  0  0  0  0
 12 13  1  0  0  0  0
 12 14  1  0  0  0  0
 12 25  1  0  0  0  0
 13 26  1  0  0  0  0
 14 15  1  0  0  0  0
 14 27  1  0  0  0  0
 15 28  1  0  0  0  0
 16 17  2  0  0  0  0
 16 29  1  0  0  0  0
 17 18  1  0  0  0  0
M  END
> <s_m_source_file>
AV-unprocessed.smi

> <i_m_source_file_index>
35

> <i_lp_mmshare_version>
43012

> <i_f3d_flags>
0

> <s_epik_input>
Tz1jMVtuSF1jKD1PKW4oW2NIXWMxQnIpW0NAQEhdMk9bQ0BASF0oW0NIMl1bT0hdKVtDQEBIXShbT0hdKVtDQEhdMltPSF0=

> <s_epik_cmdline>
J2VwaWtfcHl0aG9uJywgJy1waCcsICc3LjAnLCAnLXRuJywgJzgnLCAnLW1hJywgJzIwMCcsICctbWV0YWxfYmluZGluZycsICctaW1hZScsICc8aW5maWxlLm1hZT4nLCAnLW9tYWUnLCAnPG91dGZpbGUubWFlPic=

> <r_lp_tautomer_probability>
0.999537

> <r_epik_Ionization_Penalty>
0.10812

> <r_epik_Ionization_Penalty_Charging>
0.108119

> <r_epik_Ionization_Penalty_Neutral>
4.93006e-07

> <r_epik_State_Penalty>
0.0979238

> <r_epik_Charging_Adjusted_Penalty>
0.206043

> <i_epik_Tot_Q>
0

> <i_epik_Tot_abs_Q>
0

> <r_epik_Metal_State_Penalty>
3.07911

> <b_epik_Metal_Only>
0

> <s_epik_Chemistry_Notes>
This compound contains an acetal/aminal-like group ( X-CH(R)-Y where X, Y are N, S, or O) that may be acid/base labile, releasing an aldehyde.

> <s_lp_Force_Field>
OPLS_2005

> <r_lp_Energy>
34.1394

> <b_lp_Chiralities_Consistent>
1

> <s_lp_Variant>
AV-unprocessed.smi:35-9

> <Gold.Version>
5.8.1

> <Gold.Id.Protein>
6NUR|6NUR_protein|mol2

> <Gold.PLP.Fitness>
40.3167

> <Gold.PLP.PLP>
-28.9316

> <Gold.PLP.part.hbond>
-4.9054

> <Gold.PLP.part.metal>
0.0000

> <Gold.PLP.part.buried>
-5.1686

> <Gold.PLP.part.nonpolar>
-19.5493

> <Gold.PLP.part.repulsive>
0.2012

> <Gold.PLP.ligand.clash>
0.0000

> <Gold.PLP.ligand.torsion>
0.4176

> <Gold.PLP.Chemscore.Hbond>
3.0540

> <Gold.PLP.Chemscore.CHOScore>
1.0000

> <Gold.PLP.Chemscore.Metal>
0.0000

> <Gold.Chemscore.Hbonds>
donor molecule, donor type, donor heavy atom, donor atom, acceptor molecule, acceptor atom, score
      L1  H    11    24       P1  7957  0.82
      L1  H    15    28       P1  7949  0.51
      P1  H  6896  6909       L1     5  0.02
      P1  H  7989  7998       L1    13  1.00
      P1  H 10752 10763       L1    15  1.00
      L1  C    16    29       P1  7948  0.49

> <Gold.PLP.Chemscore.Internal.Correction>
0.0583

> <Gold.Rescore>
     Score         DG    S(hbond)    S(metal)    S(lipo)     H(rot)  DE(clash)    DE(int)     intcor
      7.48      -9.02       2.26        0.00      45.95       3.67       0.12       1.42       ----

> <Gold.Chemscore.Fitness>
7.4804

> <Gold.Chemscore.DG>
-9.0184

> <Gold.Chemscore.ZeroCoef>
-5.4800

> <Gold.Chemscore.Hbond>
2.2629

> <Gold.Chemscore.Metal>
0.0000

> <Gold.Chemscore.Lipo>
45.9472

> <Gold.Chemscore.Internal_Hbond>
0.0000

> <Gold.Chemscore.DEClash>
0.1172

> <Gold.Chemscore.DEInternal>
1.4207

> <Gold.Chemscore.Rot>
3.6701

> <Gold.Chemscore.Internal.Correction>
   9.000000E+99

> <Gold.Chemscore.Hbonds>
donor molecule, donor type, donor heavy atom, donor atom, acceptor molecule, acceptor atom, score
      L1  H    11    24       P1  7957  0.81
      L1  H    15    28       P1  7949  0.26
      P1  H  6896  6909       L1     5  0.02
      P1  H  7989  7998       L1    13  0.39
      P1  H 10752 10763       L1    15  0.94

> <Gold.Chemscore.Hbond.Weighted>
-7.5580

> <Gold.Chemscore.Metal.Weighted>
-0.0000

> <Gold.Chemscore.Lipo.Weighted>
-5.3758

> <Gold.Chemscore.Internal_Hbond.Weighted>
0.0000

> <Gold.Chemscore.DEClash.Weighted>
0.1172

> <Gold.Chemscore.DEInternal.Weighted>
1.4207

> <Gold.Chemscore.Rot.Weighted>
9.3955

> <Gold.Chemscore.Internal.Correction.Weighted>
   9.000000E+99

> <Gold.Protein.RotatedTorsions>
[ 6907 6896 6895 6894 ] final  140.11 input  -60.11 | X-H torsion
[ 7974 7965 7964 7962 ] final  -31.26 input  175.53 | X-H torsion
[ 8008 7997 7996 7995 ] final   82.48 input   59.86 | X-H torsion
[ 10167 10162 10161 10158 ] final -170.01 input  -65.29 | X-H torsion
[ 10718 10713 10712 10709 ] final  115.52 input   66.30 | X-H torsion
[ 10763 10752 10751 10750 ] final   29.25 input  -60.55 | X-H torsion
[ 11005 11000 10999 10996 ] final  -72.79 input  -57.11 | X-H torsion

> <Gold.Protein.ActiveResidues>
 VAL166  LYS551  ARG553  GLY616  TRP617  ASP618  TYR619  PRO620  LYS621  CYS622 
 ASP623  PHE694  ASN695  SER759  ASP760  ASP761  ALA762  ILE779  LEU786  VAL792 
 PHE793  MET794  SER795  GLU796  ALA797  LYS798  CYS799  TRP800  GLU811  SER814 

> <Gold.Protein.RotatedAtoms>
  152.2469  133.5182  159.5302 H   0  0  0  0  0  0  0  0  0  0  0  0  # atno 6907 bound_to 6896
  150.7081  134.1012  159.3975 H   0  0  0  0  0  0  0  0  0  0  0  0  # atno 6908 bound_to 6896
  151.8933  135.0408  160.0550 H   0  0  0  0  0  0  0  0  0  0  0  0  # atno 6909 bound_to 6896
  146.1081  140.5644  142.8790 H   0  0  0  0  0  0  0  0  0  0  0  0  # atno 7974 bound_to 7965
  155.9112  140.3427  155.6100 H   0  0  0  0  0  0  0  0  0  0  0  0  # atno 8008 bound_to 7997
  155.7385  140.0804  157.2275 H   0  0  0  0  0  0  0  0  0  0  0  0  # atno 8009 bound_to 7997
  154.4056  140.1575  156.2577 H   0  0  0  0  0  0  0  0  0  0  0  0  # atno 8010 bound_to 7997
  139.5887  144.1260  152.1608 H   0  0  0  0  0  0  0  0  0  0  0  0  # atno 10167 bound_to 10162
  157.6217  131.1013  150.7341 H   0  0  0  0  0  0  0  0  0  0  0  0  # atno 10718 bound_to 10713
  153.0441  135.6493  154.0862 H   0  0  0  0  0  0  0  0  0  0  0  0  # atno 10763 bound_to 10752
  154.0563  135.2891  155.3334 H   0  0  0  0  0  0  0  0  0  0  0  0  # atno 10764 bound_to 10752
  154.6687  135.5364  153.8175 H   0  0  0  0  0  0  0  0  0  0  0  0  # atno 10765 bound_to 10752
  141.1613  133.6858  156.7113 H   0  0  0  0  0  0  0  0  0  0  0  0  # atno 11005 bound_to 11000
  144.7488  140.5137  143.6816 LP  0  0  0  0  0  0  0  0  0  0  0  0  # atno 17320 bound_to 7965
  145.5719  139.1484  143.3283 LP  0  0  0  0  0  0  0  0  0  0  0  0  # atno 17321 bound_to 7965
  140.0830  144.5685  150.7109 LP  0  0  0  0  0  0  0  0  0  0  0  0  # atno 17342 bound_to 10162
  140.7154  143.2540  151.4449 LP  0  0  0  0  0  0  0  0  0  0  0  0  # atno 17343 bound_to 10162
  156.7697  130.4825  149.5420 LP  0  0  0  0  0  0  0  0  0  0  0  0  # atno 17370 bound_to 10713
  156.1366  130.6215  151.0408 LP  0  0  0  0  0  0  0  0  0  0  0  0  # atno 17371 bound_to 10713
  140.2885  134.8260  157.3996 LP  0  0  0  0  0  0  0  0  0  0  0  0  # atno 17394 bound_to 11000
  140.1368  134.5023  155.8062 LP  0  0  0  0  0  0  0  0  0  0  0  0  # atno 17395 bound_to 11000

$$$$
