AV-unprocessed.smi:103|AV-procd|sdf|988|dock8
  -GOLD-   2262017563D 1   1.00000     0.00000
 Structure written by MMmdl.
 53 55  0  0  0  0  0  0  0  0  1 V2000
  150.9841  138.6418  154.5640 C   0  0  0  0  0  0  0  0  0  0  0  0
  151.5374  137.4594  155.3479 C   0  0  0  0  0  0  0  0  0  0  0  0
  152.7366  137.3632  155.6089 O   0  0  0  0  0  0  0  0  0  0  0  0
  150.5811  136.5878  155.6972 O   0  0  0  0  0  0  0  0  0  0  0  0
  150.9341  135.3767  156.3448 C   0  0  0  0  0  0  0  0  0  0  0  0
  149.7181  134.8251  157.0979 C   0  0  1  0  0  0  0  0  0  0  0  0
  149.4634  135.6274  158.2400 O   0  0  0  0  0  0  0  0  0  0  0  0
  148.1268  135.5105  158.6089 C   0  0  2  0  0  0  0  0  0  0  0  0
  148.0267  134.5262  159.7450 N   0  0  0  0  0  0  0  0  0  0  0  0
  147.6249  134.7661  161.0462 C   0  0  0  0  0  0  0  0  0  0  0  0
  147.0425  136.3217  161.7150 S   0  0  0  0  0  0  0  0  0  0  0  0
  145.4808  135.8198  162.5468 C   0  0  0  0  0  0  0  0  0  0  0  0
  148.0185  136.7445  162.7317 O   0  0  0  0  0  0  0  0  0  0  0  0
  146.7287  137.1962  160.5747 O   0  0  0  0  0  0  0  0  0  0  0  0
  147.5758  133.7390  161.8487 N   0  0  0  0  0  0  0  0  0  0  0  0
  148.0705  132.7073  161.0677 C   0  0  0  0  0  0  0  0  0  0  0  0
  148.3235  131.3331  161.3076 C   0  0  0  0  0  0  0  0  0  0  0  0
  148.0852  130.7412  162.4861 N   0  0  0  0  0  0  0  0  0  0  0  0
  148.8325  130.5828  160.3038 N   0  0  0  0  0  0  0  0  0  0  0  0
  149.0811  131.1511  159.1209 C   0  0  0  0  0  0  0  0  0  0  0  0
  148.8911  132.4191  158.7495 N   0  0  0  0  0  0  0  0  0  0  0  0
  148.3749  133.1828  159.7585 C   0  0  0  0  0  0  0  0  0  0  0  0
  147.3298  135.0745  157.3660 C   0  0  1  0  0  0  0  0  0  0  0  0
  146.4240  136.0937  156.9633 O   0  0  0  0  0  0  0  0  0  0  0  0
  145.5952  135.8855  155.9249 C   0  0  0  0  0  0  0  0  0  0  0  0
  144.6457  137.0534  155.6958 C   0  0  0  0  0  0  0  0  0  0  0  0
  145.5604  134.8788  155.2169 O   0  0  0  0  0  0  0  0  0  0  0  0
  148.4066  134.8854  156.3039 C   0  0  2  0  0  0  0  0  0  0  0  0
  148.1602  133.6673  155.6120 O   0  0  0  0  0  0  0  0  0  0  0  0
  148.8790  133.3366  154.5261 C   0  0  0  0  0  0  0  0  0  0  0  0
  148.3779  132.0578  153.8690 C   0  0  0  0  0  0  0  0  0  0  0  0
  149.8436  133.9545  154.0758 O   0  0  0  0  0  0  0  0  0  0  0  0
  150.4681  138.2947  153.6686 H   0  0  0  0  0  0  0  0  0  0  0  0
  151.7892  139.3118  154.2613 H   0  0  0  0  0  0  0  0  0  0  0  0
  150.2779  139.2032  155.1761 H   0  0  0  0  0  0  0  0  0  0  0  0
  151.2622  134.6599  155.5912 H   0  0  0  0  0  0  0  0  0  0  0  0
  151.7658  135.5302  157.0344 H   0  0  0  0  0  0  0  0  0  0  0  0
  149.9250  133.8117  157.4408 H   0  0  0  0  0  0  0  0  0  0  0  0
  147.7661  136.4499  159.0212 H   0  0  0  0  0  0  0  0  0  0  0  0
  145.0267  136.6899  163.0201 H   0  0  0  0  0  0  0  0  0  0  0  0
  145.6991  135.0675  163.3045 H   0  0  0  0  0  0  0  0  0  0  0  0
  144.7899  135.4049  161.8145 H   0  0  0  0  0  0  0  0  0  0  0  0
  147.7081  131.2802  163.2524 H   0  0  0  0  0  0  0  0  0  0  0  0
  148.2846  129.7587  162.6065 H   0  0  0  0  0  0  0  0  0  0  0  0
  149.4882  130.4976  158.3634 H   0  0  0  0  0  0  0  0  0  0  0  0
  146.7884  134.1492  157.5591 H   0  0  0  0  0  0  0  0  0  0  0  0
  145.2056  137.9483  155.4237 H   0  0  0  0  0  0  0  0  0  0  0  0
  144.0758  137.2622  156.6012 H   0  0  0  0  0  0  0  0  0  0  0  0
  143.9453  136.8257  154.8921 H   0  0  0  0  0  0  0  0  0  0  0  0
  148.4140  135.7541  155.6431 H   0  0  0  0  0  0  0  0  0  0  0  0
  147.3743  132.2057  153.4700 H   0  0  0  0  0  0  0  0  0  0  0  0
  148.3463  131.2459  154.5959 H   0  0  0  0  0  0  0  0  0  0  0  0
  149.0362  131.7637  153.0512 H   0  0  0  0  0  0  0  0  0  0  0  0
  1  2  1  0  0  0  0
  1 33  1  0  0  0  0
  1 34  1  0  0  0  0
  1 35  1  0  0  0  0
  2  3  2  0  0  0  0
  2  4  1  0  0  0  0
  4  5  1  0  0  0  0
  5  6  1  0  0  0  0
  5 36  1  0  0  0  0
  5 37  1  0  0  0  0
  6 28  1  0  0  0  0
  6  7  1  0  0  0  0
  6 38  1  0  0  0  0
  7  8  1  0  0  0  0
  8  9  1  0  0  0  0
  8 23  1  0  0  0  0
  8 39  1  0  0  0  0
  9 22  1  0  0  0  0
  9 10  1  0  0  0  0
 10 11  1  0  0  0  0
 10 15  2  0  0  0  0
 11 12  1  0  0  0  0
 11 13  2  0  0  0  0
 11 14  2  0  0  0  0
 12 40  1  0  0  0  0
 12 41  1  0  0  0  0
 12 42  1  0  0  0  0
 15 16  1  0  0  0  0
 16 22  2  0  0  0  0
 16 17  1  0  0  0  0
 17 18  1  0  0  0  0
 17 19  2  0  0  0  0
 18 43  1  0  0  0  0
 18 44  1  0  0  0  0
 19 20  1  0  0  0  0
 20 21  2  0  0  0  0
 20 45  1  0  0  0  0
 21 22  1  0  0  0  0
 23 24  1  0  0  0  0
 23 28  1  0  0  0  0
 23 46  1  0  0  0  0
 24 25  1  0  0  0  0
 25 26  1  0  0  0  0
 25 27  2  0  0  0  0
 26 47  1  0  0  0  0
 26 48  1  0  0  0  0
 26 49  1  0  0  0  0
 28 29  1  0  0  0  0
 28 50  1  0  0  0  0
 29 30  1  0  0  0  0
 30 31  1  0  0  0  0
 30 32  2  0  0  0  0
 31 51  1  0  0  0  0
 31 52  1  0  0  0  0
 31 53  1  0  0  0  0
M  END
> <s_m_source_file>
AV-unprocessed.smi

> <i_m_source_file_index>
103

> <i_lp_mmshare_version>
43012

> <i_f3d_flags>
0

> <s_epik_input>
W0NIM11DKD1PKU9bQ0gyXVtDQEBIXTFPW0NASF0oW0NAQEhdKE9DKD1PKVtDSDNdKVtDQEhdMU9DKD1PKVtDSDNdKW4oYyhuMilTKD1PKSg9TylbQ0gzXSljKGMyMyluW2NIXW5jM1tOSDJd

> <s_epik_cmdline>
J2VwaWtfcHl0aG9uJywgJy1waCcsICc3LjAnLCAnLXRuJywgJzgnLCAnLW1hJywgJzIwMCcsICctbWV0YWxfYmluZGluZycsICctaW1hZScsICc8aW5maWxlLm1hZT4nLCAnLW9tYWUnLCAnPG91dGZpbGUubWFlPic=

> <r_lp_tautomer_probability>
1

> <r_epik_Ionization_Penalty>
1.51338e-05

> <r_epik_Ionization_Penalty_Charging>
0

> <r_epik_Ionization_Penalty_Neutral>
1.51338e-05

> <r_epik_State_Penalty>
-0

> <r_epik_Charging_Adjusted_Penalty>
0

> <i_epik_Tot_Q>
0

> <i_epik_Tot_abs_Q>
0

> <r_epik_Metal_State_Penalty>
-0

> <b_epik_Metal_Only>
0

> <s_epik_Chemistry_Notes>
This compound has an ester and may undergo hydrolysis at high or low pH. This compound contains an acetal/aminal-like group ( X-CH(R)-Y where X, Y are N, S, or O) that may be acid/base labile, releasing an aldehyde.

> <s_lp_Force_Field>
OPLS_2005

> <r_lp_Energy>
13.207

> <b_lp_Chiralities_Consistent>
1

> <s_lp_Variant>
AV-unprocessed.smi:103-12

> <Gold.Version>
5.8.1

> <Gold.Id.Protein>
6NUR|6NUR_protein|mol2

> <Gold.PLP.Fitness>
36.8867

> <Gold.PLP.PLP>
-27.0429

> <Gold.PLP.part.hbond>
-4.0000

> <Gold.PLP.part.metal>
0.0000

> <Gold.PLP.part.buried>
-2.5614

> <Gold.PLP.part.nonpolar>
-21.5771

> <Gold.PLP.part.repulsive>
0.3358

> <Gold.PLP.ligand.clash>
0.0000

> <Gold.PLP.ligand.torsion>
1.4795

> <Gold.PLP.Chemscore.Hbond>
3.4948

> <Gold.PLP.Chemscore.CHOScore>
0.0000

> <Gold.PLP.Chemscore.Metal>
0.0000

> <Gold.Chemscore.Hbonds>
donor molecule, donor type, donor heavy atom, donor atom, acceptor molecule, acceptor atom, score
      P1  H  6896  6907       L1     7  0.88
      P1  H  6931  6943       L1    13  0.98
      P1  H  6934  6947       L1    14  1.00
      P1  H 10752 10765       L1     3  0.54

> <Gold.PLP.Chemscore.Internal.Correction>
2.3186

> <Gold.Rescore>
     Score         DG    S(hbond)    S(metal)    S(lipo)     H(rot)  DE(clash)    DE(int)     intcor
      2.00      -7.22       2.47        0.00      37.30       4.25       0.49       4.73       ----

> <Gold.Chemscore.Fitness>
2.0043

> <Gold.Chemscore.DG>
-7.2189

> <Gold.Chemscore.ZeroCoef>
-5.4800

> <Gold.Chemscore.Hbond>
2.4681

> <Gold.Chemscore.Metal>
0.0000

> <Gold.Chemscore.Lipo>
37.2990

> <Gold.Chemscore.Internal_Hbond>
0.0000

> <Gold.Chemscore.DEClash>
0.4876

> <Gold.Chemscore.DEInternal>
4.7271

> <Gold.Chemscore.Rot>
4.2456

> <Gold.Chemscore.Internal.Correction>
   9.000000E+99

> <Gold.Chemscore.Hbonds>
donor molecule, donor type, donor heavy atom, donor atom, acceptor molecule, acceptor atom, score
      P1  H  6896  6907       L1     7  0.18
      P1  H  6931  6943       L1    13  0.55
      P1  H  6934  6947       L1    14  0.82
      P1  H 10752 10765       L1     3  0.24

> <Gold.Chemscore.Hbond.Weighted>
-8.2436

> <Gold.Chemscore.Metal.Weighted>
-0.0000

> <Gold.Chemscore.Lipo.Weighted>
-4.3640

> <Gold.Chemscore.Internal_Hbond.Weighted>
0.0000

> <Gold.Chemscore.DEClash.Weighted>
0.4876

> <Gold.Chemscore.DEInternal.Weighted>
4.7271

> <Gold.Chemscore.Rot.Weighted>
10.8687

> <Gold.Chemscore.Internal.Correction.Weighted>
   9.000000E+99

> <Gold.Protein.RotatedTorsions>
[ 6907 6896 6895 6894 ] final  -60.82 input  -60.11 | X-H torsion
[ 7974 7965 7964 7962 ] final  -30.54 input  175.53 | X-H torsion
[ 8008 7997 7996 7995 ] final -112.77 input   59.86 | X-H torsion
[ 10167 10162 10161 10158 ] final  -93.27 input  -65.29 | X-H torsion
[ 10718 10713 10712 10709 ] final  -80.48 input   66.30 | X-H torsion
[ 10763 10752 10751 10750 ] final -148.06 input  -60.55 | X-H torsion
[ 11005 11000 10999 10996 ] final -136.87 input  -57.11 | X-H torsion

> <Gold.Protein.ActiveResidues>
 VAL166  LYS551  ARG553  GLY616  TRP617  ASP618  TYR619  PRO620  LYS621  CYS622 
 ASP623  PHE694  ASN695  SER759  ASP760  ASP761  ALA762  ILE779  LEU786  VAL792 
 PHE793  MET794  SER795  GLU796  ALA797  LYS798  CYS799  TRP800  GLU811  SER814 

> <Gold.Protein.RotatedAtoms>
  150.7829  134.6787  159.6431 H   0  0  0  0  0  0  0  0  0  0  0  0  # atno 6907 bound_to 6896
  152.3918  134.6426  160.0113 H   0  0  0  0  0  0  0  0  0  0  0  0  # atno 6908 bound_to 6896
  151.6725  133.3277  159.3236 H   0  0  0  0  0  0  0  0  0  0  0  0  # atno 6909 bound_to 6896
  146.1135  140.5554  142.8767 H   0  0  0  0  0  0  0  0  0  0  0  0  # atno 7974 bound_to 7965
  155.0103  140.0393  157.2396 H   0  0  0  0  0  0  0  0  0  0  0  0  # atno 8008 bound_to 7997
  154.7466  140.2759  155.6305 H   0  0  0  0  0  0  0  0  0  0  0  0  # atno 8009 bound_to 7997
  156.2876  140.2655  156.2208 H   0  0  0  0  0  0  0  0  0  0  0  0  # atno 8010 bound_to 7997
  140.3264  143.3020  151.9990 H   0  0  0  0  0  0  0  0  0  0  0  0  # atno 10167 bound_to 10162
  156.0069  130.4575  150.3807 H   0  0  0  0  0  0  0  0  0  0  0  0  # atno 10718 bound_to 10713
  154.8253  135.3344  154.6916 H   0  0  0  0  0  0  0  0  0  0  0  0  # atno 10763 bound_to 10752
  153.7542  135.6937  153.4943 H   0  0  0  0  0  0  0  0  0  0  0  0  # atno 10764 bound_to 10752
  153.2155  135.4467  155.0379 H   0  0  0  0  0  0  0  0  0  0  0  0  # atno 10765 bound_to 10752
  140.8764  134.1986  157.4619 H   0  0  0  0  0  0  0  0  0  0  0  0  # atno 11005 bound_to 11000
  144.7532  140.5243  143.6787 LP  0  0  0  0  0  0  0  0  0  0  0  0  # atno 17320 bound_to 7965
  145.5615  139.1479  143.3339 LP  0  0  0  0  0  0  0  0  0  0  0  0  # atno 17321 bound_to 7965
  139.4864  144.6270  151.7144 LP  0  0  0  0  0  0  0  0  0  0  0  0  # atno 17342 bound_to 10162
  140.5437  144.0538  150.6098 LP  0  0  0  0  0  0  0  0  0  0  0  0  # atno 17343 bound_to 10162
  157.1887  131.0410  151.2711 LP  0  0  0  0  0  0  0  0  0  0  0  0  # atno 17370 bound_to 10713
  157.4081  130.7370  149.6818 LP  0  0  0  0  0  0  0  0  0  0  0  0  # atno 17371 bound_to 10713
  139.8716  134.9797  156.5049 LP  0  0  0  0  0  0  0  0  0  0  0  0  # atno 17394 bound_to 11000
  140.8513  133.8130  155.9171 LP  0  0  0  0  0  0  0  0  0  0  0  0  # atno 17395 bound_to 11000

$$$$
