AV-unprocessed.smi:1159|AV-procd|sdf|4915|dock8
  -GOLD-   22720 3493D 1   1.00000     0.00000
 Structure written by MMmdl.
 41 42  0  0  0  0  0  0  0  0  1 V2000
  146.0904  138.0729  154.6784 O   0  0  0  0  0  0  0  0  0  0  0  0
  146.9442  137.5780  153.9426 C   0  0  0  0  0  0  0  0  0  0  0  0
  148.2291  137.9662  153.8749 N   0  0  0  0  0  0  0  0  0  0  0  0
  148.8825  138.9776  154.6294 C   0  0  0  0  0  0  0  0  0  0  0  0
  148.2446  139.7701  155.6128 C   0  0  0  0  0  0  0  0  0  0  0  0
  149.0029  140.7301  156.3097 C   0  0  0  0  0  0  0  0  0  0  0  0
  150.3730  140.8653  156.0106 C   0  0  0  0  0  0  0  0  0  0  0  0
  151.1071  141.8107  156.6964 O   0  0  0  0  0  0  0  0  0  0  0  0
  150.4757  142.5266  157.7548 C   0  0  0  0  0  0  0  0  0  0  0  0
  151.4844  143.4977  158.3788 C   0  0  0  0  0  0  0  0  0  0  0  0
  150.9220  144.1577  159.3908 F   0  0  0  0  0  0  0  0  0  0  0  0
  152.5278  142.8111  158.8429 F   0  0  0  0  0  0  0  0  0  0  0  0
  151.9167  144.3650  157.4638 F   0  0  0  0  0  0  0  0  0  0  0  0
  150.9944  140.0993  155.0799 N   0  0  0  0  0  0  0  0  0  0  0  0
  150.2619  139.1794  154.4168 C   0  0  0  0  0  0  0  0  0  0  0  0
  146.6916  136.5856  153.0771 N   0  0  0  0  0  0  0  0  0  0  0  0
  145.3944  135.9380  152.8730 C   0  0  1  0  0  0  0  0  0  0  0  0
  145.4920  134.9137  151.7201 C   0  0  0  0  0  0  0  0  0  0  0  0
  144.1437  134.5782  151.0626 C   0  0  0  0  0  0  0  0  0  0  0  0
  143.1229  133.9063  151.9926 C   0  0  0  0  0  0  0  0  0  0  0  0
  142.6488  134.8106  153.1431 C   0  0  0  0  0  0  0  0  0  0  0  0
  143.6084  134.8733  154.2385 N   0  0  0  0  0  0  0  0  0  0  0  0
  144.8601  135.3551  154.1952 C   0  0  0  0  0  0  0  0  0  0  0  0
  145.5748  135.3263  155.1969 O   0  0  0  0  0  0  0  0  0  0  0  0
  148.7888  137.5310  153.1560 H   0  0  0  0  0  0  0  0  0  0  0  0
  147.1998  139.6519  155.8552 H   0  0  0  0  0  0  0  0  0  0  0  0
  148.5414  141.3498  157.0643 H   0  0  0  0  0  0  0  0  0  0  0  0
  149.6179  143.0840  157.3751 H   0  0  0  0  0  0  0  0  0  0  0  0
  150.1142  141.8339  158.5166 H   0  0  0  0  0  0  0  0  0  0  0  0
  150.7959  138.5891  153.6865 H   0  0  0  0  0  0  0  0  0  0  0  0
  147.4560  136.2389  152.5159 H   0  0  0  0  0  0  0  0  0  0  0  0
  144.6908  136.7202  152.5809 H   0  0  0  0  0  0  0  0  0  0  0  0
  146.1422  135.3068  150.9372 H   0  0  0  0  0  0  0  0  0  0  0  0
  145.9747  134.0002  152.0706 H   0  0  0  0  0  0  0  0  0  0  0  0
  143.7099  135.4850  150.6392 H   0  0  0  0  0  0  0  0  0  0  0  0
  144.3286  133.9161  150.2162 H   0  0  0  0  0  0  0  0  0  0  0  0
  142.2543  133.6314  151.3934 H   0  0  0  0  0  0  0  0  0  0  0  0
  143.5231  132.9702  152.3846 H   0  0  0  0  0  0  0  0  0  0  0  0
  142.4123  135.8136  152.7853 H   0  0  0  0  0  0  0  0  0  0  0  0
  141.7232  134.4075  153.5546 H   0  0  0  0  0  0  0  0  0  0  0  0
  143.2934  134.5019  155.1233 H   0  0  0  0  0  0  0  0  0  0  0  0
  1  2  2  0  0  0  0
  2  3  1  0  0  0  0
  2 16  1  0  0  0  0
  3  4  1  0  0  0  0
  3 25  1  0  0  0  0
  4 15  1  0  0  0  0
  4  5  2  0  0  0  0
  5  6  1  0  0  0  0
  5 26  1  0  0  0  0
  6  7  2  0  0  0  0
  6 27  1  0  0  0  0
  7  8  1  0  0  0  0
  7 14  1  0  0  0  0
  8  9  1  0  0  0  0
  9 10  1  0  0  0  0
  9 28  1  0  0  0  0
  9 29  1  0  0  0  0
 10 11  1  0  0  0  0
 10 12  1  0  0  0  0
 10 13  1  0  0  0  0
 14 15  2  0  0  0  0
 15 30  1  0  0  0  0
 16 17  1  0  0  0  0
 16 31  1  0  0  0  0
 17 23  1  0  0  0  0
 17 18  1  0  0  0  0
 17 32  1  0  0  0  0
 18 19  1  0  0  0  0
 18 33  1  0  0  0  0
 18 34  1  0  0  0  0
 19 20  1  0  0  0  0
 19 35  1  0  0  0  0
 19 36  1  0  0  0  0
 20 21  1  0  0  0  0
 20 37  1  0  0  0  0
 20 38  1  0  0  0  0
 21 22  1  0  0  0  0
 21 39  1  0  0  0  0
 21 40  1  0  0  0  0
 22 23  1  0  0  0  0
 22 41  1  0  0  0  0
 23 24  2  0  0  0  0
M  END
> <s_m_source_file>
AV-unprocessed.smi

> <i_m_source_file_index>
1159

> <i_lp_mmshare_version>
43012

> <i_f3d_flags>
0

> <s_epik_input>
Tz1DMVtOSF1bQ0gyXVtDSDJdW0NIMl1bQ0gyXVtDQEhdMVtOSF1DKD1PKVtOSF1jMltjSF1bY0hdYyhuW2NIXTIpT1tDSDJdQyhGKShGKUY=

> <s_epik_cmdline>
J2VwaWtfcHl0aG9uJywgJy1waCcsICc3LjAnLCAnLXRuJywgJzgnLCAnLW1hJywgJzIwMCcsICctbWV0YWxfYmluZGluZycsICctaW1hZScsICc8aW5maWxlLm1hZT4nLCAnLW9tYWUnLCAnPG91dGZpbGUubWFlPic=

> <r_lp_tautomer_probability>
1

> <r_epik_Ionization_Penalty>
3.53205e-05

> <r_epik_Ionization_Penalty_Charging>
0

> <r_epik_Ionization_Penalty_Neutral>
3.53205e-05

> <r_epik_State_Penalty>
-0

> <r_epik_Charging_Adjusted_Penalty>
0

> <i_epik_Tot_Q>
0

> <i_epik_Tot_abs_Q>
0

> <r_epik_Metal_State_Penalty>
-0

> <b_epik_Metal_Only>
0

> <s_lp_Force_Field>
OPLS_2005

> <r_lp_Energy>
11.134

> <b_lp_Chiralities_Consistent>
1

> <s_lp_Variant>
AV-unprocessed.smi:1159-2

> <Gold.Version>
5.8.1

> <Gold.Id.Protein>
6NUR|6NUR_protein|mol2

> <Gold.PLP.Fitness>
44.5360

> <Gold.PLP.PLP>
-36.9973

> <Gold.PLP.part.hbond>
-3.0978

> <Gold.PLP.part.metal>
0.0000

> <Gold.PLP.part.buried>
-6.3955

> <Gold.PLP.part.nonpolar>
-28.4830

> <Gold.PLP.part.repulsive>
0.2327

> <Gold.PLP.ligand.clash>
0.5112

> <Gold.PLP.ligand.torsion>
0.0441

> <Gold.PLP.Chemscore.Hbond>
2.7000

> <Gold.PLP.Chemscore.CHOScore>
0.0000

> <Gold.PLP.Chemscore.Metal>
0.0000

> <Gold.Chemscore.Hbonds>
donor molecule, donor type, donor heavy atom, donor atom, acceptor molecule, acceptor atom, score
      L1  H     3    25       P1  7948  1.00
      L1  H    16    31       P1  7948  1.00
      P1  H  7989  7998       L1    14  0.65

> <Gold.PLP.Chemscore.Internal.Correction>
0.0382

> <Gold.Rescore>
     Score         DG    S(hbond)    S(metal)    S(lipo)     H(rot)  DE(clash)    DE(int)     intcor
     14.43     -16.06       2.42        0.00      60.93       1.81       0.11       1.52       ----

> <Gold.Chemscore.Fitness>
14.4340

> <Gold.Chemscore.DG>
-16.0633

> <Gold.Chemscore.ZeroCoef>
-5.4800

> <Gold.Chemscore.Hbond>
2.4187

> <Gold.Chemscore.Metal>
0.0000

> <Gold.Chemscore.Lipo>
60.9298

> <Gold.Chemscore.Internal_Hbond>
0.0000

> <Gold.Chemscore.DEClash>
0.1063

> <Gold.Chemscore.DEInternal>
1.5230

> <Gold.Chemscore.Rot>
1.8062

> <Gold.Chemscore.Internal.Correction>
   9.000000E+99

> <Gold.Chemscore.Hbonds>
donor molecule, donor type, donor heavy atom, donor atom, acceptor molecule, acceptor atom, score
      L1  H     3    25       P1  7948  0.94
      L1  H    16    31       P1  7948  0.99
      P1  H  7989  7998       L1    14  0.05

> <Gold.Chemscore.Hbond.Weighted>
-8.0784

> <Gold.Chemscore.Metal.Weighted>
-0.0000

> <Gold.Chemscore.Lipo.Weighted>
-7.1288

> <Gold.Chemscore.Internal_Hbond.Weighted>
0.0000

> <Gold.Chemscore.DEClash.Weighted>
0.1063

> <Gold.Chemscore.DEInternal.Weighted>
1.5230

> <Gold.Chemscore.Rot.Weighted>
4.6238

> <Gold.Chemscore.Internal.Correction.Weighted>
   9.000000E+99

> <Gold.Protein.RotatedTorsions>
[ 6907 6896 6895 6894 ] final  -89.45 input  -60.11 | X-H torsion
[ 7974 7965 7964 7962 ] final   52.01 input  175.53 | X-H torsion
[ 8008 7997 7996 7995 ] final    3.03 input   59.86 | X-H torsion
[ 10167 10162 10161 10158 ] final   10.44 input  -65.29 | X-H torsion
[ 10718 10713 10712 10709 ] final   91.75 input   66.30 | X-H torsion
[ 10763 10752 10751 10750 ] final -176.46 input  -60.55 | X-H torsion
[ 11005 11000 10999 10996 ] final   28.32 input  -57.11 | X-H torsion

> <Gold.Protein.ActiveResidues>
 VAL166  LYS551  ARG553  GLY616  TRP617  ASP618  TYR619  PRO620  LYS621  CYS622 
 ASP623  PHE694  ASN695  SER759  ASP760  ASP761  ALA762  ILE779  LEU786  VAL792 
 PHE793  MET794  SER795  GLU796  ALA797  LYS798  CYS799  TRP800  GLU811  SER814 

> <Gold.Protein.RotatedAtoms>
  150.6874  134.2585  159.4539 H   0  0  0  0  0  0  0  0  0  0  0  0  # atno 6907 bound_to 6896
  152.0517  134.9647  160.0584 H   0  0  0  0  0  0  0  0  0  0  0  0  # atno 6908 bound_to 6896
  152.1108  133.4265  159.4667 H   0  0  0  0  0  0  0  0  0  0  0  0  # atno 6909 bound_to 6896
  145.9856  139.4286  143.0105 H   0  0  0  0  0  0  0  0  0  0  0  0  # atno 7974 bound_to 7965
  154.6987  140.2668  155.6741 H   0  0  0  0  0  0  0  0  0  0  0  0  # atno 8008 bound_to 7997
  156.2757  140.2776  156.1514 H   0  0  0  0  0  0  0  0  0  0  0  0  # atno 8009 bound_to 7997
  155.0795  140.0372  157.2624 H   0  0  0  0  0  0  0  0  0  0  0  0  # atno 8010 bound_to 7997
  140.6194  143.8237  150.7157 H   0  0  0  0  0  0  0  0  0  0  0  0  # atno 10167 bound_to 10162
  157.6960  131.0419  150.3777 H   0  0  0  0  0  0  0  0  0  0  0  0  # atno 10718 bound_to 10713
  154.5720  135.2829  155.0818 H   0  0  0  0  0  0  0  0  0  0  0  0  # atno 10763 bound_to 10752
  154.2186  135.6395  153.5141 H   0  0  0  0  0  0  0  0  0  0  0  0  # atno 10764 bound_to 10752
  153.0060  135.5509  154.6347 H   0  0  0  0  0  0  0  0  0  0  0  0  # atno 10765 bound_to 10752
  140.3168  134.2588  155.7724 H   0  0  0  0  0  0  0  0  0  0  0  0  # atno 11005 bound_to 11000
  145.7706  140.9898  143.1151 LP  0  0  0  0  0  0  0  0  0  0  0  0  # atno 17320 bound_to 7965
  144.6874  139.9442  143.7476 LP  0  0  0  0  0  0  0  0  0  0  0  0  # atno 17321 bound_to 7965
  140.1824  143.4104  152.1923 LP  0  0  0  0  0  0  0  0  0  0  0  0  # atno 17342 bound_to 10162
  139.5426  144.7270  151.4686 LP  0  0  0  0  0  0  0  0  0  0  0  0  # atno 17343 bound_to 10162
  156.4195  130.3950  149.6835 LP  0  0  0  0  0  0  0  0  0  0  0  0  # atno 17370 bound_to 10713
  156.4091  130.7713  151.2725 LP  0  0  0  0  0  0  0  0  0  0  0  0  # atno 17371 bound_to 10713
  141.2096  133.7745  156.9988 LP  0  0  0  0  0  0  0  0  0  0  0  0  # atno 17394 bound_to 11000
  140.0976  134.9555  157.1874 LP  0  0  0  0  0  0  0  0  0  0  0  0  # atno 17395 bound_to 11000

$$$$
