AV-unprocessed.smi:33|AV-procd|sdf|207|dock7
  -GOLD-   2262015493D 1   1.00000     0.00000
 Structure written by MMmdl.
 67 72  0  0  0  0  0  0  0  0  1 V2000
  152.1946  139.7560  158.3449 O   0  0  0  0  0  0  0  0  0  0  0  0
  151.9753  140.9688  158.3118 C   0  0  0  0  0  0  0  0  0  0  0  0
  151.4635  141.6050  157.2396 O   0  0  0  0  0  0  0  0  0  0  0  0
  151.3596  140.9307  155.9962 C   0  0  0  0  0  0  0  0  0  0  0  0
  149.9343  140.3780  155.8291 C   0  0  2  0  0  0  0  0  0  0  0  0
  149.5853  139.6274  156.9882 O   0  0  0  0  0  0  0  0  0  0  0  0
  149.9897  138.3005  156.8296 C   0  0  1  0  0  0  0  0  0  0  0  0
  148.9268  137.4063  157.3908 N   0  0  0  0  0  0  0  0  0  0  0  0
  149.1069  136.2486  158.1156 C   0  0  0  0  0  0  0  0  0  0  0  0
  148.0120  135.6473  158.4949 N   0  0  0  0  0  0  0  0  0  0  0  0
  146.9973  136.4499  157.9903 C   0  0  0  0  0  0  0  0  0  0  0  0
  145.5775  136.3886  158.0279 C   0  0  0  0  0  0  0  0  0  0  0  0
  144.8964  135.3941  158.6463 N   0  0  0  0  0  0  0  0  0  0  0  0
  145.0196  134.0421  158.0811 C   0  0  0  0  0  0  0  0  0  0  0  0
  144.8239  133.0611  158.8013 O   0  0  0  0  0  0  0  0  0  0  0  0
  145.4272  133.8499  156.6473 C   0  0  0  0  0  0  0  0  0  0  0  0
  146.2863  132.7866  156.2931 C   0  0  0  0  0  0  0  0  0  0  0  0
  146.6601  132.5931  154.9491 C   0  0  0  0  0  0  0  0  0  0  0  0
  146.1637  133.4504  153.9488 C   0  0  0  0  0  0  0  0  0  0  0  0
  145.2849  134.4956  154.2911 C   0  0  0  0  0  0  0  0  0  0  0  0
  144.9097  134.6891  155.6347 C   0  0  0  0  0  0  0  0  0  0  0  0
  144.0831  135.7583  159.8164 C   0  0  0  0  0  0  0  0  0  0  0  0
  143.1006  135.0743  160.1096 O   0  0  0  0  0  0  0  0  0  0  0  0
  144.4065  136.9886  160.6168 C   0  0  0  0  0  0  0  0  0  0  0  0
  143.3659  137.7591  161.1804 C   0  0  0  0  0  0  0  0  0  0  0  0
  143.6635  138.9042  161.9444 C   0  0  0  0  0  0  0  0  0  0  0  0
  145.0034  139.2754  162.1660 C   0  0  0  0  0  0  0  0  0  0  0  0
  146.0463  138.4960  161.6303 C   0  0  0  0  0  0  0  0  0  0  0  0
  145.7495  137.3517  160.8652 C   0  0  0  0  0  0  0  0  0  0  0  0
  144.8811  137.3780  157.4102 N   0  0  0  0  0  0  0  0  0  0  0  0
  145.5356  138.3670  156.7956 C   0  0  0  0  0  0  0  0  0  0  0  0
  146.8526  138.5515  156.6817 N   0  0  0  0  0  0  0  0  0  0  0  0
  147.5576  137.5594  157.2985 C   0  0  0  0  0  0  0  0  0  0  0  0
  150.2528  138.0652  155.3273 C   0  0  1  0  0  0  0  0  0  0  0  0
  149.6267  136.9288  154.7594 O   0  0  0  0  0  0  0  0  0  0  0  0
  149.7896  139.3674  154.6888 C   0  0  1  0  0  0  0  0  0  0  0  0
  148.5011  139.3092  154.3472 F   0  0  0  0  0  0  0  0  0  0  0  0
  152.2462  141.8862  159.4558 C   0  0  0  0  0  0  0  0  0  0  0  0
  152.1422  143.2838  159.2636 C   0  0  0  0  0  0  0  0  0  0  0  0
  152.3944  144.1746  160.3251 C   0  0  0  0  0  0  0  0  0  0  0  0
  152.7512  143.6785  161.5923 C   0  0  0  0  0  0  0  0  0  0  0  0
  152.8552  142.2903  161.7972 C   0  0  0  0  0  0  0  0  0  0  0  0
  152.6055  141.3979  160.7364 C   0  0  0  0  0  0  0  0  0  0  0  0
  151.6156  141.6058  155.1788 H   0  0  0  0  0  0  0  0  0  0  0  0
  152.0755  140.1078  155.9759 H   0  0  0  0  0  0  0  0  0  0  0  0
  149.2378  141.2096  155.7153 H   0  0  0  0  0  0  0  0  0  0  0  0
  150.8678  138.0975  157.4441 H   0  0  0  0  0  0  0  0  0  0  0  0
  150.0857  135.8588  158.3546 H   0  0  0  0  0  0  0  0  0  0  0  0
  146.6734  132.1225  157.0526 H   0  0  0  0  0  0  0  0  0  0  0  0
  147.3276  131.7858  154.6856 H   0  0  0  0  0  0  0  0  0  0  0  0
  146.4511  133.3023  152.9184 H   0  0  0  0  0  0  0  0  0  0  0  0
  144.8966  135.1483  153.5233 H   0  0  0  0  0  0  0  0  0  0  0  0
  144.2299  135.4911  155.8849 H   0  0  0  0  0  0  0  0  0  0  0  0
  142.3340  137.4832  161.0177 H   0  0  0  0  0  0  0  0  0  0  0  0
  142.8634  139.4975  162.3618 H   0  0  0  0  0  0  0  0  0  0  0  0
  145.2310  140.1535  162.7521 H   0  0  0  0  0  0  0  0  0  0  0  0
  147.0745  138.7750  161.8077 H   0  0  0  0  0  0  0  0  0  0  0  0
  146.5586  136.7582  160.4639 H   0  0  0  0  0  0  0  0  0  0  0  0
  144.9162  139.1183  156.3285 H   0  0  0  0  0  0  0  0  0  0  0  0
  151.3313  137.9654  155.1991 H   0  0  0  0  0  0  0  0  0  0  0  0
  150.1817  136.6004  154.0678 H   0  0  0  0  0  0  0  0  0  0  0  0
  150.3489  139.6332  153.7911 H   0  0  0  0  0  0  0  0  0  0  0  0
  151.8702  143.6882  158.2992 H   0  0  0  0  0  0  0  0  0  0  0  0
  152.3141  145.2399  160.1662 H   0  0  0  0  0  0  0  0  0  0  0  0
  152.9446  144.3615  162.4063 H   0  0  0  0  0  0  0  0  0  0  0  0
  153.1271  141.9080  162.7703 H   0  0  0  0  0  0  0  0  0  0  0  0
  152.6938  140.3386  160.9285 H   0  0  0  0  0  0  0  0  0  0  0  0
  1  2  2  0  0  0  0
  2  3  1  0  0  0  0
  2 38  1  0  0  0  0
  3  4  1  0  0  0  0
  4  5  1  0  0  0  0
  4 44  1  0  0  0  0
  4 45  1  0  0  0  0
  5 36  1  0  0  0  0
  5  6  1  0  0  0  0
  5 46  1  0  0  0  0
  6  7  1  0  0  0  0
  7  8  1  0  0  0  0
  7 34  1  0  0  0  0
  7 47  1  0  0  0  0
  8 33  1  0  0  0  0
  8  9  1  0  0  0  0
  9 10  2  0  0  0  0
  9 48  1  0  0  0  0
 10 11  1  0  0  0  0
 11 33  2  0  0  0  0
 11 12  1  0  0  0  0
 12 13  1  0  0  0  0
 12 30  2  0  0  0  0
 13 14  1  0  0  0  0
 13 22  1  0  0  0  0
 14 15  2  0  0  0  0
 14 16  1  0  0  0  0
 16 21  1  0  0  0  0
 16 17  2  0  0  0  0
 17 18  1  0  0  0  0
 17 49  1  0  0  0  0
 18 19  2  0  0  0  0
 18 50  1  0  0  0  0
 19 20  1  0  0  0  0
 19 51  1  0  0  0  0
 20 21  2  0  0  0  0
 20 52  1  0  0  0  0
 21 53  1  0  0  0  0
 22 23  2  0  0  0  0
 22 24  1  0  0  0  0
 24 29  1  0  0  0  0
 24 25  2  0  0  0  0
 25 26  1  0  0  0  0
 25 54  1  0  0  0  0
 26 27  2  0  0  0  0
 26 55  1  0  0  0  0
 27 28  1  0  0  0  0
 27 56  1  0  0  0  0
 28 29  2  0  0  0  0
 28 57  1  0  0  0  0
 29 58  1  0  0  0  0
 30 31  1  0  0  0  0
 31 32  2  0  0  0  0
 31 59  1  0  0  0  0
 32 33  1  0  0  0  0
 34 35  1  0  0  0  0
 34 36  1  0  0  0  0
 34 60  1  0  0  0  0
 35 61  1  0  0  0  0
 36 37  1  0  0  0  0
 36 62  1  0  0  0  0
 38 43  1  0  0  0  0
 38 39  2  0  0  0  0
 39 40  1  0  0  0  0
 39 63  1  0  0  0  0
 40 41  2  0  0  0  0
 40 64  1  0  0  0  0
 41 42  1  0  0  0  0
 41 65  1  0  0  0  0
 42 43  2  0  0  0  0
 42 66  1  0  0  0  0
 43 67  1  0  0  0  0
M  END
> <s_m_source_file>
AV-unprocessed.smi

> <i_m_source_file_index>
33

> <i_lp_mmshare_version>
43012

> <i_f3d_flags>
0

> <s_epik_input>
W2NIXTFbY0hdW2NIXVtjSF1bY0hdYzFDKD1PKU9bQ0gyXVtDQEBIXTJPW0NASF0oW0NAQEhdKFtPSF0pW0NAQEhdMkYpbihbY0hdbjMpYyhjMzQpbltjSF1uYzROKEMoPU8pYzVbY0hdW2NIXVtjSF1bY0hdW2NIXTUpQyg9TyljNltjSF1bY0hdW2NIXVtjSF1bY0hdNg==

> <s_epik_cmdline>
J2VwaWtfcHl0aG9uJywgJy1waCcsICc3LjAnLCAnLXRuJywgJzgnLCAnLW1hJywgJzIwMCcsICctbWV0YWxfYmluZGluZycsICctaW1hZScsICc8aW5maWxlLm1hZT4nLCAnLW9tYWUnLCAnPG91dGZpbGUubWFlPic=

> <r_lp_tautomer_probability>
1

> <r_epik_Ionization_Penalty>
0.00067664

> <r_epik_Ionization_Penalty_Charging>
0

> <r_epik_Ionization_Penalty_Neutral>
0.00067664

> <r_epik_State_Penalty>
0.000428095

> <r_epik_Charging_Adjusted_Penalty>
0.000428095

> <i_epik_Tot_Q>
0

> <i_epik_Tot_abs_Q>
0

> <r_epik_Metal_State_Penalty>
-0

> <b_epik_Metal_Only>
0

> <s_epik_Chemistry_Notes>
This compound has an ester and may undergo hydrolysis at high or low pH. This compound contains an acetal/aminal-like group ( X-CH(R)-Y where X, Y are N, S, or O) that may be acid/base labile, releasing an aldehyde.

> <s_lp_Force_Field>
OPLS_2005

> <r_lp_Energy>
79.5237

> <b_lp_Chiralities_Consistent>
1

> <s_lp_Variant>
AV-unprocessed.smi:33-9

> <Gold.Version>
5.8.1

> <Gold.Id.Protein>
6NUR|6NUR_protein|mol2

> <Gold.PLP.Fitness>
61.9739

> <Gold.PLP.PLP>
-58.8134

> <Gold.PLP.part.hbond>
-4.0000

> <Gold.PLP.part.metal>
0.0000

> <Gold.PLP.part.buried>
-6.2818

> <Gold.PLP.part.nonpolar>
-48.0542

> <Gold.PLP.part.repulsive>
0.0474

> <Gold.PLP.ligand.clash>
0.0000

> <Gold.PLP.ligand.torsion>
3.8965

> <Gold.PLP.Chemscore.Hbond>
2.1575

> <Gold.PLP.Chemscore.CHOScore>
0.0000

> <Gold.PLP.Chemscore.Metal>
0.0000

> <Gold.PLP.Chemscore.Internal.Correction>
4.4811

> <Gold.Rescore>
     Score         DG    S(hbond)    S(metal)    S(lipo)     H(rot)  DE(clash)    DE(int)     intcor
     10.10     -22.88       1.29        0.00     167.02       2.52       1.26      11.52       ----

> <Gold.Chemscore.Fitness>
10.0973

> <Gold.Chemscore.DG>
-22.8787

> <Gold.Chemscore.ZeroCoef>
-5.4800

> <Gold.Chemscore.Hbond>
1.2935

> <Gold.Chemscore.Metal>
0.0000

> <Gold.Chemscore.Lipo>
167.0232

> <Gold.Chemscore.Internal_Hbond>
0.0000

> <Gold.Chemscore.DEClash>
1.2571

> <Gold.Chemscore.DEInternal>
11.5243

> <Gold.Chemscore.Rot>
2.5247

> <Gold.Chemscore.Internal.Correction>
   9.000000E+99

> <Gold.Chemscore.Hbond.Weighted>
-4.3203

> <Gold.Chemscore.Metal.Weighted>
-0.0000

> <Gold.Chemscore.Lipo.Weighted>
-19.5417

> <Gold.Chemscore.Internal_Hbond.Weighted>
0.0000

> <Gold.Chemscore.DEClash.Weighted>
1.2571

> <Gold.Chemscore.DEInternal.Weighted>
11.5243

> <Gold.Chemscore.Rot.Weighted>
6.4633

> <Gold.Chemscore.Internal.Correction.Weighted>
   9.000000E+99

> <Gold.Protein.RotatedTorsions>
[ 6907 6896 6895 6894 ] final  -75.62 input  -60.11 | X-H torsion
[ 7974 7965 7964 7962 ] final  -36.66 input  175.53 | X-H torsion
[ 8008 7997 7996 7995 ] final  158.70 input   59.86 | X-H torsion
[ 10167 10162 10161 10158 ] final  -66.44 input  -65.29 | X-H torsion
[ 10718 10713 10712 10709 ] final -167.99 input   66.30 | X-H torsion
[ 10763 10752 10751 10750 ] final -147.75 input  -60.55 | X-H torsion
[ 11005 11000 10999 10996 ] final   14.48 input  -57.11 | X-H torsion

> <Gold.Protein.ActiveResidues>
 VAL166  LYS551  ARG553  GLY616  TRP617  ASP618  TYR619  PRO620  LYS621  CYS622 
 ASP623  PHE694  ASN695  SER759  ASP760  ASP761  ALA762  ILE779  LEU786  VAL792 
 PHE793  MET794  SER795  GLU796  ALA797  LYS798  CYS799  TRP800  GLU811  SER814 

> <Gold.Protein.RotatedAtoms>
  150.7053  134.4693  159.5417 H   0  0  0  0  0  0  0  0  0  0  0  0  # atno 6907 bound_to 6896
  152.2352  134.8280  160.0477 H   0  0  0  0  0  0  0  0  0  0  0  0  # atno 6908 bound_to 6896
  151.9081  133.3519  159.3891 H   0  0  0  0  0  0  0  0  0  0  0  0  # atno 6909 bound_to 6896
  146.0642  140.6304  142.8982 H   0  0  0  0  0  0  0  0  0  0  0  0  # atno 7974 bound_to 7965
  156.2286  140.1851  156.7299 H   0  0  0  0  0  0  0  0  0  0  0  0  # atno 8008 bound_to 7997
  154.5984  140.0640  156.9362 H   0  0  0  0  0  0  0  0  0  0  0  0  # atno 8009 bound_to 7997
  155.2217  140.3308  155.4317 H   0  0  0  0  0  0  0  0  0  0  0  0  # atno 8010 bound_to 7997
  140.5657  143.2314  151.6640 H   0  0  0  0  0  0  0  0  0  0  0  0  # atno 10167 bound_to 10162
  156.6904  130.9157  151.3068 H   0  0  0  0  0  0  0  0  0  0  0  0  # atno 10718 bound_to 10713
  154.8269  135.3352  154.6867 H   0  0  0  0  0  0  0  0  0  0  0  0  # atno 10763 bound_to 10752
  153.7492  135.6940  153.4954 H   0  0  0  0  0  0  0  0  0  0  0  0  # atno 10764 bound_to 10752
  153.2188  135.4456  155.0416 H   0  0  0  0  0  0  0  0  0  0  0  0  # atno 10765 bound_to 10752
  140.4691  134.1049  155.7729 H   0  0  0  0  0  0  0  0  0  0  0  0  # atno 11005 bound_to 11000
  144.7193  140.4318  143.7020 LP  0  0  0  0  0  0  0  0  0  0  0  0  # atno 17320 bound_to 7965
  145.6506  139.1564  143.2864 LP  0  0  0  0  0  0  0  0  0  0  0  0  # atno 17321 bound_to 7965
  139.5092  144.3586  152.0584 LP  0  0  0  0  0  0  0  0  0  0  0  0  # atno 17342 bound_to 10162
  140.2717  144.3956  150.6149 LP  0  0  0  0  0  0  0  0  0  0  0  0  # atno 17343 bound_to 10162
  157.7011  130.9334  150.0788 LP  0  0  0  0  0  0  0  0  0  0  0  0  # atno 17370 bound_to 10713
  156.1801  130.3650  149.9046 LP  0  0  0  0  0  0  0  0  0  0  0  0  # atno 17371 bound_to 10713
  141.1585  133.8837  157.1911 LP  0  0  0  0  0  0  0  0  0  0  0  0  # atno 17394 bound_to 11000
  139.9897  135.0069  156.9945 LP  0  0  0  0  0  0  0  0  0  0  0  0  # atno 17395 bound_to 11000

$$$$
