AV-unprocessed.smi:3350|AV-procd|sdf|12946|dock3
  -GOLD-   2272019383D 1   1.00000     0.00000
 Structure written by MMmdl.
 41 42  0  0  0  0  0  0  0  0  1 V2000
  148.3567  131.5015  153.9361 C   0  0  0  0  0  0  0  0  0  0  0  0
  147.6763  132.5431  153.0379 C   0  0  1  0  0  0  0  0  0  0  0  0
  146.1445  132.5402  153.2342 C   0  0  0  0  0  0  0  0  0  0  0  0
  145.4172  132.4305  151.9816 N   0  0  0  0  0  0  0  0  0  0  0  0
  145.7324  131.6754  150.8710 C   0  0  0  0  0  0  0  0  0  0  0  0
  144.7426  131.8728  149.9518 C   0  0  0  0  0  0  0  0  0  0  0  0
  143.8578  132.7808  150.5981 C   0  0  0  0  0  0  0  0  0  0  0  0
  144.2664  133.1161  151.8111 N   0  0  0  0  0  0  0  0  0  0  0  0
  148.2334  133.8629  153.3333 N   0  0  0  0  0  0  0  0  0  0  0  0
  148.5182  134.3322  154.5569 C   0  0  0  0  0  0  0  0  0  0  0  0
  148.2960  133.7216  155.6024 O   0  0  0  0  0  0  0  0  0  0  0  0
  149.1033  135.5361  154.5014 N   0  0  0  0  0  0  0  0  0  0  0  0
  149.5876  136.2904  155.6551 C   0  0  1  0  0  0  0  0  0  0  0  0
  150.5563  135.4242  156.4787 C   0  0  0  0  0  0  0  0  0  0  0  0
  150.2514  137.5972  155.1817 C   0  0  1  0  0  0  0  0  0  0  0  0
  150.6563  138.5542  156.3038 C   0  0  0  0  0  0  0  0  0  0  0  0
  151.7652  139.3838  155.6773 C   0  0  0  0  0  0  0  0  0  0  0  0
  152.2011  138.5651  154.4582 C   0  0  0  0  0  0  0  0  0  0  0  0
  151.4993  137.3335  154.5597 O   0  0  0  0  0  0  0  0  0  0  0  0
  147.9855  130.4986  153.7223 H   0  0  0  0  0  0  0  0  0  0  0  0
  148.1746  131.7054  154.9918 H   0  0  0  0  0  0  0  0  0  0  0  0
  149.4359  131.4919  153.7790 H   0  0  0  0  0  0  0  0  0  0  0  0
  147.8980  132.2695  152.0046 H   0  0  0  0  0  0  0  0  0  0  0  0
  145.8486  131.7046  153.8705 H   0  0  0  0  0  0  0  0  0  0  0  0
  145.8224  133.4481  153.7461 H   0  0  0  0  0  0  0  0  0  0  0  0
  146.6192  131.0599  150.8325 H   0  0  0  0  0  0  0  0  0  0  0  0
  144.6613  131.4335  148.9687 H   0  0  0  0  0  0  0  0  0  0  0  0
  142.9371  133.2034  150.2240 H   0  0  0  0  0  0  0  0  0  0  0  0
  148.4545  134.4473  152.5405 H   0  0  0  0  0  0  0  0  0  0  0  0
  149.2441  135.9553  153.5940 H   0  0  0  0  0  0  0  0  0  0  0  0
  148.7358  136.5539  156.2851 H   0  0  0  0  0  0  0  0  0  0  0  0
  150.9171  135.9628  157.3553 H   0  0  0  0  0  0  0  0  0  0  0  0
  151.4251  135.1297  155.8892 H   0  0  0  0  0  0  0  0  0  0  0  0
  150.0717  134.5141  156.8341 H   0  0  0  0  0  0  0  0  0  0  0  0
  149.6059  138.1165  154.4702 H   0  0  0  0  0  0  0  0  0  0  0  0
  149.8253  139.1614  156.6640 H   0  0  0  0  0  0  0  0  0  0  0  0
  151.0544  137.9927  157.1503 H   0  0  0  0  0  0  0  0  0  0  0  0
  151.3995  140.3633  155.3670 H   0  0  0  0  0  0  0  0  0  0  0  0
  152.5853  139.5382  156.3795 H   0  0  0  0  0  0  0  0  0  0  0  0
  151.9111  139.0685  153.5351 H   0  0  0  0  0  0  0  0  0  0  0  0
  153.2778  138.3975  154.4302 H   0  0  0  0  0  0  0  0  0  0  0  0
  1  2  1  0  0  0  0
  1 20  1  0  0  0  0
  1 21  1  0  0  0  0
  1 22  1  0  0  0  0
  2  3  1  0  0  0  0
  2  9  1  0  0  0  0
  2 23  1  0  0  0  0
  3  4  1  0  0  0  0
  3 24  1  0  0  0  0
  3 25  1  0  0  0  0
  4  8  1  0  0  0  0
  4  5  1  0  0  0  0
  5  6  2  0  0  0  0
  5 26  1  0  0  0  0
  6  7  1  0  0  0  0
  6 27  1  0  0  0  0
  7  8  2  0  0  0  0
  7 28  1  0  0  0  0
  9 10  1  0  0  0  0
  9 29  1  0  0  0  0
 10 11  2  0  0  0  0
 10 12  1  0  0  0  0
 12 13  1  0  0  0  0
 12 30  1  0  0  0  0
 13 14  1  0  0  0  0
 13 15  1  0  0  0  0
 13 31  1  0  0  0  0
 14 32  1  0  0  0  0
 14 33  1  0  0  0  0
 14 34  1  0  0  0  0
 15 19  1  0  0  0  0
 15 16  1  0  0  0  0
 15 35  1  0  0  0  0
 16 17  1  0  0  0  0
 16 36  1  0  0  0  0
 16 37  1  0  0  0  0
 17 18  1  0  0  0  0
 17 38  1  0  0  0  0
 17 39  1  0  0  0  0
 18 19  1  0  0  0  0
 18 40  1  0  0  0  0
 18 41  1  0  0  0  0
M  END
> <s_m_source_file>
AV-unprocessed.smi

> <i_m_source_file_index>
3350

> <i_lp_mmshare_version>
43012

> <i_f3d_flags>
0

> <s_epik_input>
bjFbY0hdW2NIXVtjSF1uMVtDSDJdW0NAQEhdKFtDSDNdKVtOSF1DKD1PKVtOSF1bQ0BIXShbQ0gzXSlbQ0BASF0yW0NIMl1bQ0gyXVtDSDJdTzI=

> <s_epik_cmdline>
J2VwaWtfcHl0aG9uJywgJy1waCcsICc3LjAnLCAnLXRuJywgJzgnLCAnLW1hJywgJzIwMCcsICctbWV0YWxfYmluZGluZycsICctaW1hZScsICc8aW5maWxlLm1hZT4nLCAnLW9tYWUnLCAnPG91dGZpbGUubWFlPic=

> <r_lp_tautomer_probability>
1

> <r_epik_Ionization_Penalty>
6.42349e-05

> <r_epik_Ionization_Penalty_Charging>
0

> <r_epik_Ionization_Penalty_Neutral>
6.42349e-05

> <r_epik_State_Penalty>
-0

> <r_epik_Charging_Adjusted_Penalty>
0

> <i_epik_Tot_Q>
0

> <i_epik_Tot_abs_Q>
0

> <r_epik_Metal_State_Penalty>
-0

> <b_epik_Metal_Only>
0

> <s_lp_Force_Field>
OPLS_2005

> <r_lp_Energy>
15.5841

> <b_lp_Chiralities_Consistent>
1

> <s_lp_Variant>
AV-unprocessed.smi:3350-8

> <Gold.Version>
5.8.1

> <Gold.Id.Protein>
6NUR|6NUR_protein|mol2

> <Gold.PLP.Fitness>
44.6858

> <Gold.PLP.PLP>
-33.6570

> <Gold.PLP.part.hbond>
-3.0000

> <Gold.PLP.part.metal>
0.0000

> <Gold.PLP.part.buried>
-5.2313

> <Gold.PLP.part.nonpolar>
-25.2588

> <Gold.PLP.part.repulsive>
0.3371

> <Gold.PLP.ligand.clash>
0.0000

> <Gold.PLP.ligand.torsion>
1.4070

> <Gold.PLP.Chemscore.Hbond>
2.6000

> <Gold.PLP.Chemscore.CHOScore>
2.0000

> <Gold.PLP.Chemscore.Metal>
0.0000

> <Gold.Chemscore.Hbonds>
donor molecule, donor type, donor heavy atom, donor atom, acceptor molecule, acceptor atom, score
      L1  H     9    29       P1  7948  0.69
      L1  H    12    30       P1  7948  1.00
      P1  H 10752 10765       L1    19  0.50
      L1  C     5    26       P1 10747  1.00
      L1  C     7    28       P1 10186  1.00

> <Gold.PLP.Chemscore.Internal.Correction>
0.0429

> <Gold.Rescore>
     Score         DG    S(hbond)    S(metal)    S(lipo)     H(rot)  DE(clash)    DE(int)     intcor
     12.54     -16.41       2.07        0.00      74.01       1.82       0.00       3.86       ----

> <Gold.Chemscore.Fitness>
12.5393

> <Gold.Chemscore.DG>
-16.4063

> <Gold.Chemscore.ZeroCoef>
-5.4800

> <Gold.Chemscore.Hbond>
2.0736

> <Gold.Chemscore.Metal>
0.0000

> <Gold.Chemscore.Lipo>
74.0065

> <Gold.Chemscore.Internal_Hbond>
0.0000

> <Gold.Chemscore.DEClash>
0.0029

> <Gold.Chemscore.DEInternal>
3.8641

> <Gold.Chemscore.Rot>
1.8197

> <Gold.Chemscore.Internal.Correction>
   9.000000E+99

> <Gold.Chemscore.Hbonds>
donor molecule, donor type, donor heavy atom, donor atom, acceptor molecule, acceptor atom, score
      L1  H     9    29       P1  7948  0.07
      L1  H    12    30       P1  7948  0.78
      P1  H 10752 10765       L1    19  0.36

> <Gold.Chemscore.Hbond.Weighted>
-6.9259

> <Gold.Chemscore.Metal.Weighted>
-0.0000

> <Gold.Chemscore.Lipo.Weighted>
-8.6588

> <Gold.Chemscore.Internal_Hbond.Weighted>
0.0000

> <Gold.Chemscore.DEClash.Weighted>
0.0029

> <Gold.Chemscore.DEInternal.Weighted>
3.8641

> <Gold.Chemscore.Rot.Weighted>
4.6583

> <Gold.Chemscore.Internal.Correction.Weighted>
   9.000000E+99

> <Gold.Protein.RotatedTorsions>
[ 6907 6896 6895 6894 ] final -120.26 input  -60.11 | X-H torsion
[ 7974 7965 7964 7962 ] final  149.03 input  175.53 | X-H torsion
[ 8008 7997 7996 7995 ] final   51.37 input   59.86 | X-H torsion
[ 10167 10162 10161 10158 ] final  -17.09 input  -65.29 | X-H torsion
[ 10718 10713 10712 10709 ] final -103.07 input   66.30 | X-H torsion
[ 10763 10752 10751 10750 ] final  174.55 input  -60.55 | X-H torsion
[ 11005 11000 10999 10996 ] final   66.80 input  -57.11 | X-H torsion

> <Gold.Protein.ActiveResidues>
 VAL166  LYS551  ARG553  GLY616  TRP617  ASP618  TYR619  PRO620  LYS621  CYS622 
 ASP623  PHE694  ASN695  SER759  ASP760  ASP761  ALA762  ILE779  LEU786  VAL792 
 PHE793  MET794  SER795  GLU796  ALA797  LYS798  CYS799  TRP800  GLU811  SER814 

> <Gold.Protein.RotatedAtoms>
  150.8377  133.7986  159.3072 H   0  0  0  0  0  0  0  0  0  0  0  0  # atno 6907 bound_to 6896
  151.5697  135.1061  160.0001 H   0  0  0  0  0  0  0  0  0  0  0  0  # atno 6908 bound_to 6896
  152.4447  133.7471  159.6730 H   0  0  0  0  0  0  0  0  0  0  0  0  # atno 6909 bound_to 6896
  144.8469  139.6228  143.5991 H   0  0  0  0  0  0  0  0  0  0  0  0  # atno 7974 bound_to 7965
  155.4342  140.3452  155.4283 H   0  0  0  0  0  0  0  0  0  0  0  0  # atno 8008 bound_to 7997
  156.1318  140.1516  156.9085 H   0  0  0  0  0  0  0  0  0  0  0  0  # atno 8009 bound_to 7997
  154.4900  140.0844  156.7554 H   0  0  0  0  0  0  0  0  0  0  0  0  # atno 8010 bound_to 7997
  140.7242  143.5050  150.9821 H   0  0  0  0  0  0  0  0  0  0  0  0  # atno 10167 bound_to 10162
  156.0252  130.5450  150.7200 H   0  0  0  0  0  0  0  0  0  0  0  0  # atno 10718 bound_to 10713
  154.4555  135.2766  155.1751 H   0  0  0  0  0  0  0  0  0  0  0  0  # atno 10763 bound_to 10752
  154.3560  135.6139  153.5670 H   0  0  0  0  0  0  0  0  0  0  0  0  # atno 10764 bound_to 10752
  152.9850  135.5823  154.4907 H   0  0  0  0  0  0  0  0  0  0  0  0  # atno 10765 bound_to 10752
  139.9809  134.6745  156.0264 H   0  0  0  0  0  0  0  0  0  0  0  0  # atno 11005 bound_to 11000
  146.2752  139.6734  142.9268 LP  0  0  0  0  0  0  0  0  0  0  0  0  # atno 17320 bound_to 7965
  145.4579  141.0431  143.2768 LP  0  0  0  0  0  0  0  0  0  0  0  0  # atno 17321 bound_to 7965
  139.8761  143.7130  152.3162 LP  0  0  0  0  0  0  0  0  0  0  0  0  # atno 17342 bound_to 10162
  139.7396  144.7563  151.0673 LP  0  0  0  0  0  0  0  0  0  0  0  0  # atno 17343 bound_to 10162
  157.4818  131.0903  151.0527 LP  0  0  0  0  0  0  0  0  0  0  0  0  # atno 17370 bound_to 10713
  157.0959  130.5961  149.5449 LP  0  0  0  0  0  0  0  0  0  0  0  0  # atno 17371 bound_to 10713
  141.1481  133.6552  156.3930 LP  0  0  0  0  0  0  0  0  0  0  0  0  # atno 17394 bound_to 11000
  140.5098  134.6406  157.5280 LP  0  0  0  0  0  0  0  0  0  0  0  0  # atno 17395 bound_to 11000

$$$$
