AV-unprocessed.smi:1286|AV-procd|sdf|5378|dock5
  -GOLD-   22720 4523D 1   1.00000     0.00000
 Structure written by MMmdl.
 36 37  0  0  0  0  0  0  0  0  1 V2000
  146.8370  141.5914  154.4461 C   0  0  0  0  0  0  0  0  0  0  0  0
  148.0316  140.8228  155.0403 C   0  0  1  0  0  0  0  0  0  0  0  0
  148.6901  139.8498  154.0421 C   0  0  0  0  0  0  0  0  0  0  0  0
  147.8063  138.7688  153.6438 N   0  0  0  0  0  0  0  0  0  0  0  0
  147.3331  138.4724  152.3832 C   0  0  0  0  0  0  0  0  0  0  0  0
  146.5370  137.3690  152.4973 C   0  0  0  0  0  0  0  0  0  0  0  0
  146.5821  137.0618  153.8860 C   0  0  0  0  0  0  0  0  0  0  0  0
  147.3408  137.9027  154.5701 N   0  0  0  0  0  0  0  0  0  0  0  0
  149.0399  141.7613  155.5246 N   0  0  0  0  0  0  0  0  0  0  0  0
  150.1916  141.4278  156.1273 C   0  0  0  0  0  0  0  0  0  0  0  0
  150.5274  140.2645  156.3497 O   0  0  0  0  0  0  0  0  0  0  0  0
  151.1002  142.5880  156.5489 C   0  0  0  0  0  0  0  0  0  0  0  0
  151.1655  142.8057  158.0766 C   0  0  1  0  0  0  0  0  0  0  0  0
  152.1525  141.9034  158.7779 C   0  0  0  0  0  0  0  0  0  0  0  0
  153.0247  142.5765  159.5245 C   0  0  0  0  0  0  0  0  0  0  0  0
  152.8018  144.0622  159.4721 C   0  0  0  0  0  0  0  0  0  0  0  0
  151.6398  144.2291  158.4673 C   0  0  0  0  0  0  0  0  0  0  0  0
  146.0373  140.9152  154.1431 H   0  0  0  0  0  0  0  0  0  0  0  0
  147.1348  142.1687  153.5701 H   0  0  0  0  0  0  0  0  0  0  0  0
  146.4121  142.2845  155.1728 H   0  0  0  0  0  0  0  0  0  0  0  0
  147.6681  140.2326  155.8837 H   0  0  0  0  0  0  0  0  0  0  0  0
  149.0175  140.3862  153.1498 H   0  0  0  0  0  0  0  0  0  0  0  0
  149.5840  139.4073  154.4837 H   0  0  0  0  0  0  0  0  0  0  0  0
  147.6027  139.0632  151.5200 H   0  0  0  0  0  0  0  0  0  0  0  0
  146.0037  136.8591  151.7091 H   0  0  0  0  0  0  0  0  0  0  0  0
  146.0891  136.2589  154.4137 H   0  0  0  0  0  0  0  0  0  0  0  0
  148.8476  142.7432  155.3882 H   0  0  0  0  0  0  0  0  0  0  0  0
  152.1062  142.4220  156.1593 H   0  0  0  0  0  0  0  0  0  0  0  0
  150.7305  143.4940  156.0674 H   0  0  0  0  0  0  0  0  0  0  0  0
  150.1842  142.6213  158.5167 H   0  0  0  0  0  0  0  0  0  0  0  0
  152.1218  140.8279  158.6823 H   0  0  0  0  0  0  0  0  0  0  0  0
  153.8074  142.1321  160.1212 H   0  0  0  0  0  0  0  0  0  0  0  0
  152.5365  144.4335  160.4623 H   0  0  0  0  0  0  0  0  0  0  0  0
  153.7048  144.5738  159.1374 H   0  0  0  0  0  0  0  0  0  0  0  0
  151.9879  144.7790  157.5918 H   0  0  0  0  0  0  0  0  0  0  0  0
  150.8244  144.8087  158.9014 H   0  0  0  0  0  0  0  0  0  0  0  0
  1  2  1  0  0  0  0
  1 18  1  0  0  0  0
  1 19  1  0  0  0  0
  1 20  1  0  0  0  0
  2  3  1  0  0  0  0
  2  9  1  0  0  0  0
  2 21  1  0  0  0  0
  3  4  1  0  0  0  0
  3 22  1  0  0  0  0
  3 23  1  0  0  0  0
  4  8  1  0  0  0  0
  4  5  1  0  0  0  0
  5  6  2  0  0  0  0
  5 24  1  0  0  0  0
  6  7  1  0  0  0  0
  6 25  1  0  0  0  0
  7  8  2  0  0  0  0
  7 26  1  0  0  0  0
  9 10  1  0  0  0  0
  9 27  1  0  0  0  0
 10 11  2  0  0  0  0
 10 12  1  0  0  0  0
 12 13  1  0  0  0  0
 12 28  1  0  0  0  0
 12 29  1  0  0  0  0
 13 17  1  0  0  0  0
 13 14  1  0  0  0  0
 13 30  1  0  0  0  0
 14 15  2  0  0  0  0
 14 31  1  0  0  0  0
 15 16  1  0  0  0  0
 15 32  1  0  0  0  0
 16 17  1  0  0  0  0
 16 33  1  0  0  0  0
 16 34  1  0  0  0  0
 17 35  1  0  0  0  0
 17 36  1  0  0  0  0
M  END
> <s_m_source_file>
AV-unprocessed.smi

> <i_m_source_file_index>
1286

> <i_lp_mmshare_version>
43012

> <i_f3d_flags>
0

> <s_epik_input>
bjFbY0hdW2NIXVtjSF1uMVtDSDJdW0NAQEhdKFtDSDNdKVtOSF1DKD1PKVtDSDJdW0NAQEhdMltDSF09W0NIXVtDSDJdW0NIMl0y

> <s_epik_cmdline>
J2VwaWtfcHl0aG9uJywgJy1waCcsICc3LjAnLCAnLXRuJywgJzgnLCAnLW1hJywgJzIwMCcsICctbWV0YWxfYmluZGluZycsICctaW1hZScsICc8aW5maWxlLm1hZT4nLCAnLW9tYWUnLCAnPG91dGZpbGUubWFlPic=

> <r_lp_tautomer_probability>
1

> <r_epik_Ionization_Penalty>
0.000301761

> <r_epik_Ionization_Penalty_Charging>
0

> <r_epik_Ionization_Penalty_Neutral>
0.000301761

> <r_epik_State_Penalty>
-0

> <r_epik_Charging_Adjusted_Penalty>
0

> <i_epik_Tot_Q>
0

> <i_epik_Tot_abs_Q>
0

> <r_epik_Metal_State_Penalty>
-0

> <b_epik_Metal_Only>
0

> <s_lp_Force_Field>
OPLS_2005

> <r_lp_Energy>
16.9784

> <b_lp_Chiralities_Consistent>
1

> <s_lp_Variant>
AV-unprocessed.smi:1286-4

> <Gold.Version>
5.8.1

> <Gold.Id.Protein>
6NUR|6NUR_protein|mol2

> <Gold.PLP.Fitness>
41.3589

> <Gold.PLP.PLP>
-36.0868

> <Gold.PLP.part.hbond>
-1.0000

> <Gold.PLP.part.metal>
0.0000

> <Gold.PLP.part.buried>
-1.8333

> <Gold.PLP.part.nonpolar>
-34.0275

> <Gold.PLP.part.repulsive>
0.2905

> <Gold.PLP.ligand.clash>
0.0000

> <Gold.PLP.ligand.torsion>
0.3616

> <Gold.PLP.Chemscore.Hbond>
1.0000

> <Gold.PLP.Chemscore.CHOScore>
0.9858

> <Gold.PLP.Chemscore.Metal>
0.0000

> <Gold.Chemscore.Hbonds>
donor molecule, donor type, donor heavy atom, donor atom, acceptor molecule, acceptor atom, score
      L1  H     9    27       P1  8028  1.00
      L1  C     5    24       P1  7957  0.94

> <Gold.PLP.Chemscore.Internal.Correction>
0.0376

> <Gold.Rescore>
     Score         DG    S(hbond)    S(metal)    S(lipo)     H(rot)  DE(clash)    DE(int)     intcor
     14.71     -16.34       0.97        0.00     101.06       1.64       0.12       1.51       ----

> <Gold.Chemscore.Fitness>
14.7060

> <Gold.Chemscore.DG>
-16.3393

> <Gold.Chemscore.ZeroCoef>
-5.4800

> <Gold.Chemscore.Hbond>
0.9676

> <Gold.Chemscore.Metal>
0.0000

> <Gold.Chemscore.Lipo>
101.0641

> <Gold.Chemscore.Internal_Hbond>
0.0000

> <Gold.Chemscore.DEClash>
0.1248

> <Gold.Chemscore.DEInternal>
1.5086

> <Gold.Chemscore.Rot>
1.6394

> <Gold.Chemscore.Internal.Correction>
   9.000000E+99

> <Gold.Chemscore.Hbonds>
donor molecule, donor type, donor heavy atom, donor atom, acceptor molecule, acceptor atom, score
      L1  H     9    27       P1  8028  0.97

> <Gold.Chemscore.Hbond.Weighted>
-3.2318

> <Gold.Chemscore.Metal.Weighted>
-0.0000

> <Gold.Chemscore.Lipo.Weighted>
-11.8245

> <Gold.Chemscore.Internal_Hbond.Weighted>
0.0000

> <Gold.Chemscore.DEClash.Weighted>
0.1248

> <Gold.Chemscore.DEInternal.Weighted>
1.5086

> <Gold.Chemscore.Rot.Weighted>
4.1969

> <Gold.Chemscore.Internal.Correction.Weighted>
   9.000000E+99

> <Gold.Protein.RotatedTorsions>
[ 6907 6896 6895 6894 ] final -141.35 input  -60.11 | X-H torsion
[ 7974 7965 7964 7962 ] final -127.18 input  175.53 | X-H torsion
[ 8008 7997 7996 7995 ] final  112.01 input   59.86 | X-H torsion
[ 10167 10162 10161 10158 ] final  125.98 input  -65.29 | X-H torsion
[ 10718 10713 10712 10709 ] final  137.94 input   66.30 | X-H torsion
[ 10763 10752 10751 10750 ] final   70.89 input  -60.55 | X-H torsion
[ 11005 11000 10999 10996 ] final   66.24 input  -57.11 | X-H torsion

> <Gold.Protein.ActiveResidues>
 VAL166  LYS551  ARG553  GLY616  TRP617  ASP618  TYR619  PRO620  LYS621  CYS622 
 ASP623  PHE694  ASN695  SER759  ASP760  ASP761  ALA762  ILE779  LEU786  VAL792 
 PHE793  MET794  SER795  GLU796  ALA797  LYS798  CYS799  TRP800  GLU811  SER814 

> <Gold.Protein.RotatedAtoms>
  151.0726  133.5454  159.2625 H   0  0  0  0  0  0  0  0  0  0  0  0  # atno 6907 bound_to 6896
  151.2387  135.0580  159.9026 H   0  0  0  0  0  0  0  0  0  0  0  0  # atno 6908 bound_to 6896
  152.5413  134.0504  159.8161 H   0  0  0  0  0  0  0  0  0  0  0  0  # atno 6909 bound_to 6896
  144.9797  140.7628  143.4620 H   0  0  0  0  0  0  0  0  0  0  0  0  # atno 7974 bound_to 7965
  156.2163  140.3008  155.9847 H   0  0  0  0  0  0  0  0  0  0  0  0  # atno 8008 bound_to 7997
  155.2597  140.0429  157.3013 H   0  0  0  0  0  0  0  0  0  0  0  0  # atno 8009 bound_to 7997
  154.5773  140.2365  155.8113 H   0  0  0  0  0  0  0  0  0  0  0  0  # atno 8010 bound_to 7997
  139.5656  144.6909  151.3920 H   0  0  0  0  0  0  0  0  0  0  0  0  # atno 10167 bound_to 10162
  157.4307  131.1048  151.0253 H   0  0  0  0  0  0  0  0  0  0  0  0  # atno 10718 bound_to 10713
  153.0367  135.5157  154.7510 H   0  0  0  0  0  0  0  0  0  0  0  0  # atno 10763 bound_to 10752
  154.6480  135.2921  155.0024 H   0  0  0  0  0  0  0  0  0  0  0  0  # atno 10764 bound_to 10752
  154.0918  135.6649  153.4906 H   0  0  0  0  0  0  0  0  0  0  0  0  # atno 10765 bound_to 10752
  139.9844  134.6691  156.0203 H   0  0  0  0  0  0  0  0  0  0  0  0  # atno 11005 bound_to 11000
  145.2439  139.2060  143.4978 LP  0  0  0  0  0  0  0  0  0  0  0  0  # atno 17320 bound_to 7965
  146.3405  140.2340  142.8594 LP  0  0  0  0  0  0  0  0  0  0  0  0  # atno 17321 bound_to 7965
  140.6939  143.7795  150.7297 LP  0  0  0  0  0  0  0  0  0  0  0  0  # atno 17342 bound_to 10162
  140.1286  143.4546  152.2268 LP  0  0  0  0  0  0  0  0  0  0  0  0  # atno 17343 bound_to 10162
  157.1151  130.6038  149.5491 LP  0  0  0  0  0  0  0  0  0  0  0  0  # atno 17370 bound_to 10713
  155.9912  130.4966  150.7289 LP  0  0  0  0  0  0  0  0  0  0  0  0  # atno 17371 bound_to 10713
  141.1511  133.6548  156.4017 LP  0  0  0  0  0  0  0  0  0  0  0  0  # atno 17394 bound_to 11000
  140.5031  134.6466  157.5256 LP  0  0  0  0  0  0  0  0  0  0  0  0  # atno 17395 bound_to 11000

$$$$
