AV-unprocessed.smi:2473|AV-procd|sdf|9750|dock5
  -GOLD-   2272013393D 1   1.00000     0.00000
 Structure written by MMmdl.
 47 48  0  0  0  0  0  0  0  0  1 V2000
  146.2118  139.3603  157.6253 C   0  0  0  0  0  0  0  0  0  0  0  0
  147.2287  139.6076  156.5018 C   0  0  1  0  0  0  0  0  0  0  0  0
  148.4307  138.6502  156.6250 C   0  0  0  0  0  0  0  0  0  0  0  0
  149.4726  138.8174  155.4965 C   0  0  2  0  0  0  0  0  0  0  0  0
  150.4451  139.9919  155.7111 C   0  0  0  0  0  0  0  0  0  0  0  0
  151.3498  140.2253  154.9097 O   0  0  0  0  0  0  0  0  0  0  0  0
  150.2012  140.7682  156.7792 N   0  0  0  0  0  0  0  0  0  0  0  0
  150.9305  141.9834  157.1329 C   0  0  0  0  0  0  0  0  0  0  0  0
  151.7570  141.8225  158.4242 C   0  0  0  0  0  0  0  0  0  0  0  0
  151.7932  143.0526  159.2830 C   0  0  0  0  0  0  0  0  0  0  0  0
  151.2157  144.1999  158.9391 N   0  0  0  0  0  0  0  0  0  0  0  0
  151.4534  145.0535  160.0103 C   0  0  0  0  0  0  0  0  0  0  0  0
  152.1766  144.3890  160.9706 C   0  0  0  0  0  0  0  0  0  0  0  0
  152.3907  143.1038  160.4908 N   0  0  0  0  0  0  0  0  0  0  0  0
  153.1149  142.0526  161.1794 C   0  0  0  0  0  0  0  0  0  0  0  0
  148.8020  138.8102  154.1000 C   0  0  0  0  0  0  0  0  0  0  0  0
  147.5420  139.7034  153.9325 C   0  0  0  0  0  0  0  0  0  0  0  0
  147.9013  141.1996  153.7985 C   0  0  0  0  0  0  0  0  0  0  0  0
  146.8309  139.2931  152.6267 C   0  0  0  0  0  0  0  0  0  0  0  0
  146.5705  139.4680  155.1149 C   0  0  0  0  0  0  0  0  0  0  0  0
  145.8026  138.3506  157.5764 H   0  0  0  0  0  0  0  0  0  0  0  0
  145.3785  140.0604  157.5623 H   0  0  0  0  0  0  0  0  0  0  0  0
  146.6730  139.4853  158.6053 H   0  0  0  0  0  0  0  0  0  0  0  0
  147.5776  140.6326  156.6191 H   0  0  0  0  0  0  0  0  0  0  0  0
  148.9090  138.7787  157.5976 H   0  0  0  0  0  0  0  0  0  0  0  0
  148.0677  137.6216  156.6114 H   0  0  0  0  0  0  0  0  0  0  0  0
  150.1053  137.9293  155.5423 H   0  0  0  0  0  0  0  0  0  0  0  0
  149.4322  140.5110  157.3807 H   0  0  0  0  0  0  0  0  0  0  0  0
  151.5986  142.2216  156.3054 H   0  0  0  0  0  0  0  0  0  0  0  0
  150.2484  142.8303  157.2246 H   0  0  0  0  0  0  0  0  0  0  0  0
  151.3830  140.9782  159.0031 H   0  0  0  0  0  0  0  0  0  0  0  0
  152.7838  141.5672  158.1602 H   0  0  0  0  0  0  0  0  0  0  0  0
  151.0888  146.0700  160.0070 H   0  0  0  0  0  0  0  0  0  0  0  0
  152.5457  144.7164  161.9314 H   0  0  0  0  0  0  0  0  0  0  0  0
  153.3969  142.3839  162.1793 H   0  0  0  0  0  0  0  0  0  0  0  0
  154.0182  141.8027  160.6228 H   0  0  0  0  0  0  0  0  0  0  0  0
  152.4905  141.1645  161.2699 H   0  0  0  0  0  0  0  0  0  0  0  0
  149.5339  139.0566  153.3293 H   0  0  0  0  0  0  0  0  0  0  0  0
  148.5179  137.7769  153.8952 H   0  0  0  0  0  0  0  0  0  0  0  0
  147.0170  141.7966  153.5734 H   0  0  0  0  0  0  0  0  0  0  0  0
  148.6170  141.3640  152.9925 H   0  0  0  0  0  0  0  0  0  0  0  0
  148.3319  141.6168  154.7047 H   0  0  0  0  0  0  0  0  0  0  0  0
  145.9288  139.8833  152.4614 H   0  0  0  0  0  0  0  0  0  0  0  0
  146.5325  138.2443  152.6429 H   0  0  0  0  0  0  0  0  0  0  0  0
  147.4784  139.4344  151.7606 H   0  0  0  0  0  0  0  0  0  0  0  0
  146.1466  138.4656  155.0359 H   0  0  0  0  0  0  0  0  0  0  0  0
  145.7258  140.1540  155.0386 H   0  0  0  0  0  0  0  0  0  0  0  0
  1  2  1  0  0  0  0
  1 21  1  0  0  0  0
  1 22  1  0  0  0  0
  1 23  1  0  0  0  0
  2 20  1  0  0  0  0
  2  3  1  0  0  0  0
  2 24  1  0  0  0  0
  3  4  1  0  0  0  0
  3 25  1  0  0  0  0
  3 26  1  0  0  0  0
  4  5  1  0  0  0  0
  4 16  1  0  0  0  0
  4 27  1  0  0  0  0
  5  6  2  0  0  0  0
  5  7  1  0  0  0  0
  7  8  1  0  0  0  0
  7 28  1  0  0  0  0
  8  9  1  0  0  0  0
  8 29  1  0  0  0  0
  8 30  1  0  0  0  0
  9 10  1  0  0  0  0
  9 31  1  0  0  0  0
  9 32  1  0  0  0  0
 10 14  1  0  0  0  0
 10 11  2  0  0  0  0
 11 12  1  0  0  0  0
 12 13  2  0  0  0  0
 12 33  1  0  0  0  0
 13 14  1  0  0  0  0
 13 34  1  0  0  0  0
 14 15  1  0  0  0  0
 15 35  1  0  0  0  0
 15 36  1  0  0  0  0
 15 37  1  0  0  0  0
 16 17  1  0  0  0  0
 16 38  1  0  0  0  0
 16 39  1  0  0  0  0
 17 18  1  0  0  0  0
 17 19  1  0  0  0  0
 17 20  1  0  0  0  0
 18 40  1  0  0  0  0
 18 41  1  0  0  0  0
 18 42  1  0  0  0  0
 19 43  1  0  0  0  0
 19 44  1  0  0  0  0
 19 45  1  0  0  0  0
 20 46  1  0  0  0  0
 20 47  1  0  0  0  0
M  END
> <s_m_source_file>
AV-unprocessed.smi

> <i_m_source_file_index>
2473

> <i_lp_mmshare_version>
43012

> <i_f3d_flags>
0

> <s_epik_input>
W0NIM11bQ0BASF0oW0NIMl0xKVtDSDJdW0NASF0oW0NIMl1DMShbQ0gzXSlbQ0gzXSlDKD1PKVtOSF1bQ0gyXVtDSDJdYzJuW2NIXVtjSF1uMltDSDNd

> <s_epik_cmdline>
J2VwaWtfcHl0aG9uJywgJy1waCcsICc3LjAnLCAnLXRuJywgJzgnLCAnLW1hJywgJzIwMCcsICctbWV0YWxfYmluZGluZycsICctaW1hZScsICc8aW5maWxlLm1hZT4nLCAnLW9tYWUnLCAnPG91dGZpbGUubWFlPic=

> <r_lp_tautomer_probability>
1

> <r_epik_Ionization_Penalty>
1.22858

> <r_epik_Ionization_Penalty_Charging>
1.22858

> <r_epik_Ionization_Penalty_Neutral>
2.12671e-08

> <r_epik_State_Penalty>
1.2965

> <r_epik_Charging_Adjusted_Penalty>
2.52508

> <i_epik_Tot_Q>
0

> <i_epik_Tot_abs_Q>
0

> <r_epik_Metal_State_Penalty>
0.411461

> <b_epik_Metal_Only>
0

> <s_lp_Force_Field>
OPLS_2005

> <r_lp_Energy>
14.2462

> <b_lp_Chiralities_Consistent>
1

> <s_lp_Variant>
AV-unprocessed.smi:2473-8

> <Gold.Version>
5.8.1

> <Gold.Id.Protein>
6NUR|6NUR_protein|mol2

> <Gold.PLP.Fitness>
39.9888

> <Gold.PLP.PLP>
-37.5613

> <Gold.PLP.part.hbond>
-1.0000

> <Gold.PLP.part.metal>
0.0000

> <Gold.PLP.part.buried>
-5.8011

> <Gold.PLP.part.nonpolar>
-31.4985

> <Gold.PLP.part.repulsive>
0.1877

> <Gold.PLP.ligand.clash>
0.0000

> <Gold.PLP.ligand.torsion>
0.3432

> <Gold.PLP.Chemscore.Hbond>
1.0000

> <Gold.PLP.Chemscore.CHOScore>
0.0000

> <Gold.PLP.Chemscore.Metal>
0.0000

> <Gold.Chemscore.Hbonds>
donor molecule, donor type, donor heavy atom, donor atom, acceptor molecule, acceptor atom, score
      P1  H  7989  7998       L1     6  1.00

> <Gold.PLP.Chemscore.Internal.Correction>
0.1138

> <Gold.Rescore>
     Score         DG    S(hbond)    S(metal)    S(lipo)     H(rot)  DE(clash)    DE(int)     intcor
     14.58     -14.92       0.99        0.00      85.43       1.51       0.01       0.33       ----

> <Gold.Chemscore.Fitness>
14.5766

> <Gold.Chemscore.DG>
-14.9151

> <Gold.Chemscore.ZeroCoef>
-5.4800

> <Gold.Chemscore.Hbond>
0.9903

> <Gold.Chemscore.Metal>
0.0000

> <Gold.Chemscore.Lipo>
85.4313

> <Gold.Chemscore.Internal_Hbond>
0.0000

> <Gold.Chemscore.DEClash>
0.0133

> <Gold.Chemscore.DEInternal>
0.3252

> <Gold.Chemscore.Rot>
1.5109

> <Gold.Chemscore.Internal.Correction>
   9.000000E+99

> <Gold.Chemscore.Hbonds>
donor molecule, donor type, donor heavy atom, donor atom, acceptor molecule, acceptor atom, score
      P1  H  7989  7998       L1     6  0.96

> <Gold.Chemscore.Hbond.Weighted>
-3.3076

> <Gold.Chemscore.Metal.Weighted>
-0.0000

> <Gold.Chemscore.Lipo.Weighted>
-9.9955

> <Gold.Chemscore.Internal_Hbond.Weighted>
0.0000

> <Gold.Chemscore.DEClash.Weighted>
0.0133

> <Gold.Chemscore.DEInternal.Weighted>
0.3252

> <Gold.Chemscore.Rot.Weighted>
3.8680

> <Gold.Chemscore.Internal.Correction.Weighted>
   9.000000E+99

> <Gold.Protein.RotatedTorsions>
[ 6907 6896 6895 6894 ] final  -20.87 input  -60.11 | X-H torsion
[ 7974 7965 7964 7962 ] final   -6.93 input  175.53 | X-H torsion
[ 8008 7997 7996 7995 ] final   25.73 input   59.86 | X-H torsion
[ 10167 10162 10161 10158 ] final  136.77 input  -65.29 | X-H torsion
[ 10718 10713 10712 10709 ] final  -89.84 input   66.30 | X-H torsion
[ 10763 10752 10751 10750 ] final   -7.59 input  -60.55 | X-H torsion
[ 11005 11000 10999 10996 ] final    4.02 input  -57.11 | X-H torsion

> <Gold.Protein.ActiveResidues>
 VAL166  LYS551  ARG553  GLY616  TRP617  ASP618  TYR619  PRO620  LYS621  CYS622 
 ASP623  PHE694  ASN695  SER759  ASP760  ASP761  ALA762  ILE779  LEU786  VAL792 
 PHE793  MET794  SER795  GLU796  ALA797  LYS798  CYS799  TRP800  GLU811  SER814 

> <Gold.Protein.RotatedAtoms>
  151.2417  135.0591  159.9027 H   0  0  0  0  0  0  0  0  0  0  0  0  # atno 6907 bound_to 6896
  152.5392  134.0427  159.8085 H   0  0  0  0  0  0  0  0  0  0  0  0  # atno 6908 bound_to 6896
  151.0622  133.5486  159.2665 H   0  0  0  0  0  0  0  0  0  0  0  0  # atno 6909 bound_to 6896
  146.2319  140.2244  142.8338 H   0  0  0  0  0  0  0  0  0  0  0  0  # atno 7974 bound_to 7965
  155.0162  140.3142  155.4810 H   0  0  0  0  0  0  0  0  0  0  0  0  # atno 8008 bound_to 7997
  156.2900  140.2205  156.5220 H   0  0  0  0  0  0  0  0  0  0  0  0  # atno 8009 bound_to 7997
  154.7491  140.0467  157.0866 H   0  0  0  0  0  0  0  0  0  0  0  0  # atno 8010 bound_to 7997
  139.5168  144.6446  151.5474 H   0  0  0  0  0  0  0  0  0  0  0  0  # atno 10167 bound_to 10162
  155.9985  130.4887  150.5232 H   0  0  0  0  0  0  0  0  0  0  0  0  # atno 10718 bound_to 10713
  153.4285  135.7011  153.6246 H   0  0  0  0  0  0  0  0  0  0  0  0  # atno 10763 bound_to 10752
  153.4671  135.3723  155.2370 H   0  0  0  0  0  0  0  0  0  0  0  0  # atno 10764 bound_to 10752
  154.8725  135.4034  154.3665 H   0  0  0  0  0  0  0  0  0  0  0  0  # atno 10765 bound_to 10752
  140.5866  133.9963  155.8070 H   0  0  0  0  0  0  0  0  0  0  0  0  # atno 11005 bound_to 11000
  144.9607  140.8272  143.5515 LP  0  0  0  0  0  0  0  0  0  0  0  0  # atno 17320 bound_to 7965
  145.2214  139.2157  143.5091 LP  0  0  0  0  0  0  0  0  0  0  0  0  # atno 17321 bound_to 7965
  140.6226  143.9229  150.6539 LP  0  0  0  0  0  0  0  0  0  0  0  0  # atno 17342 bound_to 10162
  140.2507  143.3595  152.1408 LP  0  0  0  0  0  0  0  0  0  0  0  0  # atno 17343 bound_to 10162
  157.3191  131.0678  151.1945 LP  0  0  0  0  0  0  0  0  0  0  0  0  # atno 17370 bound_to 10713
  157.2865  130.6775  149.6092 LP  0  0  0  0  0  0  0  0  0  0  0  0  # atno 17371 bound_to 10713
  141.0962  133.9840  157.3156 LP  0  0  0  0  0  0  0  0  0  0  0  0  # atno 17394 bound_to 11000
  139.9293  135.0200  156.8345 LP  0  0  0  0  0  0  0  0  0  0  0  0  # atno 17395 bound_to 11000

$$$$
