AV-unprocessed.smi:120|AV-procd|sdf|1137|dock8
  -GOLD-   2262018263D 1   1.00000     0.00000
 Structure written by MMmdl.
 45 48  0  0  0  0  0  0  0  0  1 V2000
  147.6345  131.7669  159.2465 C   0  0  0  0  0  0  0  0  0  0  0  0
  147.1837  132.1379  160.5413 O   0  0  0  0  0  0  0  0  0  0  0  0
  147.3746  133.4414  160.9479 C   0  0  0  0  0  0  0  0  0  0  0  0
  146.9186  133.7830  162.2356 C   0  0  0  0  0  0  0  0  0  0  0  0
  147.0808  135.0901  162.7271 C   0  0  0  0  0  0  0  0  0  0  0  0
  147.7019  136.0696  161.9315 C   0  0  0  0  0  0  0  0  0  0  0  0
  148.1680  135.7619  160.6326 C   0  0  0  0  0  0  0  0  0  0  0  0
  148.8198  136.7903  159.7925 C   0  0  0  0  0  0  0  0  0  0  0  0
  148.1466  137.8220  159.2992 N   0  0  0  0  0  0  0  0  0  0  0  0
  149.1336  138.5305  158.5972 O   0  0  0  0  0  0  0  0  0  0  0  0
  150.2842  137.8289  158.7563 C   0  0  0  0  0  0  0  0  0  0  0  0
  151.5349  138.3470  158.1114 C   0  0  0  0  0  0  0  0  0  0  0  0
  151.9286  139.6257  158.6824 N   0  0  0  0  0  0  0  0  0  0  0  0
  153.0817  139.6464  159.5045 C   0  0  0  0  0  0  0  0  0  0  0  0
  153.7184  138.6236  159.7628 O   0  0  0  0  0  0  0  0  0  0  0  0
  153.4525  140.9693  159.9951 C   0  0  0  0  0  0  0  0  0  0  0  0
  154.5331  141.1074  160.7817 F   0  0  0  0  0  0  0  0  0  0  0  0
  152.7322  142.0629  159.6648 C   0  0  0  0  0  0  0  0  0  0  0  0
  151.6095  142.0123  158.8551 N   0  0  0  0  0  0  0  0  0  0  0  0
  150.8464  143.2655  158.4864 C   0  0  2  0  0  0  0  0  0  0  0  0
  151.7744  144.2614  157.7808 C   0  0  0  0  0  0  0  0  0  0  0  0
  152.2283  145.1321  158.9318 C   0  0  0  0  0  0  0  0  0  0  0  0
  150.9774  145.1650  159.8019 C   0  0  0  0  0  0  0  0  0  0  0  0
  150.3806  143.8790  159.6543 O   0  0  0  0  0  0  0  0  0  0  0  0
  151.1832  140.7749  158.3255 C   0  0  0  0  0  0  0  0  0  0  0  0
  150.2114  140.7141  157.5687 O   0  0  0  0  0  0  0  0  0  0  0  0
  150.1449  136.7262  159.4920 N   0  0  0  0  0  0  0  0  0  0  0  0
  147.9948  134.4403  160.1558 C   0  0  0  0  0  0  0  0  0  0  0  0
  147.4271  130.7095  159.0828 H   0  0  0  0  0  0  0  0  0  0  0  0
  148.7109  131.9111  159.1426 H   0  0  0  0  0  0  0  0  0  0  0  0
  147.1175  132.3286  158.4673 H   0  0  0  0  0  0  0  0  0  0  0  0
  146.4419  133.0356  162.8527 H   0  0  0  0  0  0  0  0  0  0  0  0
  146.7279  135.3422  163.7163 H   0  0  0  0  0  0  0  0  0  0  0  0
  147.8127  137.0678  162.3291 H   0  0  0  0  0  0  0  0  0  0  0  0
  152.3521  137.6341  158.2244 H   0  0  0  0  0  0  0  0  0  0  0  0
  151.3970  138.4846  157.0374 H   0  0  0  0  0  0  0  0  0  0  0  0
  153.0636  143.0151  160.0515 H   0  0  0  0  0  0  0  0  0  0  0  0
  150.0000  142.9395  157.8797 H   0  0  0  0  0  0  0  0  0  0  0  0
  152.5879  143.7691  157.2464 H   0  0  0  0  0  0  0  0  0  0  0  0
  151.1855  144.8432  157.0706 H   0  0  0  0  0  0  0  0  0  0  0  0
  153.0499  144.6535  159.4662 H   0  0  0  0  0  0  0  0  0  0  0  0
  152.5553  146.1234  158.6171 H   0  0  0  0  0  0  0  0  0  0  0  0
  151.1970  145.3877  160.8463 H   0  0  0  0  0  0  0  0  0  0  0  0
  150.2795  145.9179  159.4329 H   0  0  0  0  0  0  0  0  0  0  0  0
  148.3543  134.2028  159.1664 H   0  0  0  0  0  0  0  0  0  0  0  0
  1  2  1  0  0  0  0
  1 29  1  0  0  0  0
  1 30  1  0  0  0  0
  1 31  1  0  0  0  0
  2  3  1  0  0  0  0
  3 28  1  0  0  0  0
  3  4  2  0  0  0  0
  4  5  1  0  0  0  0
  4 32  1  0  0  0  0
  5  6  2  0  0  0  0
  5 33  1  0  0  0  0
  6  7  1  0  0  0  0
  6 34  1  0  0  0  0
  7  8  1  0  0  0  0
  7 28  2  0  0  0  0
  8 27  1  0  0  0  0
  8  9  2  0  0  0  0
  9 10  1  0  0  0  0
 10 11  1  0  0  0  0
 11 12  1  0  0  0  0
 11 27  2  0  0  0  0
 12 13  1  0  0  0  0
 12 35  1  0  0  0  0
 12 36  1  0  0  0  0
 13 25  1  0  0  0  0
 13 14  1  0  0  0  0
 14 15  2  0  0  0  0
 14 16  1  0  0  0  0
 16 17  1  0  0  0  0
 16 18  2  0  0  0  0
 18 19  1  0  0  0  0
 18 37  1  0  0  0  0
 19 20  1  0  0  0  0
 19 25  1  0  0  0  0
 20 24  1  0  0  0  0
 20 21  1  0  0  0  0
 20 38  1  0  0  0  0
 21 22  1  0  0  0  0
 21 39  1  0  0  0  0
 21 40  1  0  0  0  0
 22 23  1  0  0  0  0
 22 41  1  0  0  0  0
 22 42  1  0  0  0  0
 23 24  1  0  0  0  0
 23 43  1  0  0  0  0
 23 44  1  0  0  0  0
 25 26  2  0  0  0  0
 28 45  1  0  0  0  0
M  END
> <s_m_source_file>
AV-unprocessed.smi

> <i_m_source_file_index>
120

> <i_lp_mmshare_version>
43012

> <i_f3d_flags>
0

> <s_epik_input>
W0NIM11PYzFbY0hdW2NIXVtjSF1jKFtjSF0xKS1jMm5vYyhuMilbQ0gyXW4zYyg9TyljKEYpW2NIXW4oYzM9TylbQ0BASF00W0NIMl1bQ0gyXVtDSDJdTzQ=

> <s_epik_cmdline>
J2VwaWtfcHl0aG9uJywgJy1waCcsICc3LjAnLCAnLXRuJywgJzgnLCAnLW1hJywgJzIwMCcsICctbWV0YWxfYmluZGluZycsICctaW1hZScsICc8aW5maWxlLm1hZT4nLCAnLW9tYWUnLCAnPG91dGZpbGUubWFlPic=

> <r_lp_tautomer_probability>
1

> <r_epik_Ionization_Penalty>
4.93314e-09

> <r_epik_Ionization_Penalty_Charging>
4.92654e-09

> <r_epik_Ionization_Penalty_Neutral>
6.60436e-12

> <r_epik_State_Penalty>
-0

> <r_epik_Charging_Adjusted_Penalty>
4.92654e-09

> <i_epik_Tot_Q>
0

> <i_epik_Tot_abs_Q>
0

> <r_epik_Metal_State_Penalty>
-0

> <b_epik_Metal_Only>
0

> <s_epik_Chemistry_Notes>
This compound contains an acetal/aminal-like group ( X-CH(R)-Y where X, Y are N, S, or O) that may be acid/base labile, releasing an aldehyde.

> <s_lp_Force_Field>
OPLS_2005

> <r_lp_Energy>
37.1389

> <b_lp_Chiralities_Consistent>
1

> <s_lp_Variant>
AV-unprocessed.smi:120-1

> <Gold.Version>
5.8.1

> <Gold.Id.Protein>
6NUR|6NUR_protein|mol2

> <Gold.PLP.Fitness>
60.3684

> <Gold.PLP.PLP>
-59.3036

> <Gold.PLP.part.hbond>
-3.1335

> <Gold.PLP.part.metal>
0.0000

> <Gold.PLP.part.buried>
-7.6392

> <Gold.PLP.part.nonpolar>
-49.3608

> <Gold.PLP.part.repulsive>
0.1404

> <Gold.PLP.ligand.clash>
0.0000

> <Gold.PLP.ligand.torsion>
1.4693

> <Gold.PLP.Chemscore.Hbond>
1.3185

> <Gold.PLP.Chemscore.CHOScore>
0.0000

> <Gold.PLP.Chemscore.Metal>
0.0000

> <Gold.Chemscore.Hbonds>
donor molecule, donor type, donor heavy atom, donor atom, acceptor molecule, acceptor atom, score
      P1  H  6896  6909       L1    27  1.00
      P1  H  6934  6947       L1     9  0.20

> <Gold.PLP.Chemscore.Internal.Correction>
0.0478

> <Gold.Rescore>
     Score         DG    S(hbond)    S(metal)    S(lipo)     H(rot)  DE(clash)    DE(int)     intcor
     14.50     -17.58       1.14        0.00     114.36       1.99       0.09       2.99       ----

> <Gold.Chemscore.Fitness>
14.5016

> <Gold.Chemscore.DG>
-17.5815

> <Gold.Chemscore.ZeroCoef>
-5.4800

> <Gold.Chemscore.Hbond>
1.1409

> <Gold.Chemscore.Metal>
0.0000

> <Gold.Chemscore.Lipo>
114.3580

> <Gold.Chemscore.Internal_Hbond>
0.0000

> <Gold.Chemscore.DEClash>
0.0877

> <Gold.Chemscore.DEInternal>
2.9922

> <Gold.Chemscore.Rot>
1.9879

> <Gold.Chemscore.Internal.Correction>
   9.000000E+99

> <Gold.Chemscore.Hbonds>
donor molecule, donor type, donor heavy atom, donor atom, acceptor molecule, acceptor atom, score
      P1  H  6896  6909       L1    27  0.92
      P1  H  6934  6947       L1     9  0.14

> <Gold.Chemscore.Hbond.Weighted>
-3.8106

> <Gold.Chemscore.Metal.Weighted>
-0.0000

> <Gold.Chemscore.Lipo.Weighted>
-13.3799

> <Gold.Chemscore.Internal_Hbond.Weighted>
0.0000

> <Gold.Chemscore.DEClash.Weighted>
0.0877

> <Gold.Chemscore.DEInternal.Weighted>
2.9922

> <Gold.Chemscore.Rot.Weighted>
5.0890

> <Gold.Chemscore.Internal.Correction.Weighted>
   9.000000E+99

> <Gold.Protein.RotatedTorsions>
[ 6907 6896 6895 6894 ] final   85.07 input  -60.11 | X-H torsion
[ 7974 7965 7964 7962 ] final  -11.99 input  175.53 | X-H torsion
[ 8008 7997 7996 7995 ] final -128.82 input   59.86 | X-H torsion
[ 10167 10162 10161 10158 ] final -119.47 input  -65.29 | X-H torsion
[ 10718 10713 10712 10709 ] final   10.55 input   66.30 | X-H torsion
[ 10763 10752 10751 10750 ] final -169.84 input  -60.55 | X-H torsion
[ 11005 11000 10999 10996 ] final   90.74 input  -57.11 | X-H torsion

> <Gold.Protein.ActiveResidues>
 VAL166  LYS551  ARG553  GLY616  TRP617  ASP618  TYR619  PRO620  LYS621  CYS622 
 ASP623  PHE694  ASN695  SER759  ASP760  ASP761  ALA762  ILE779  LEU786  VAL792 
 PHE793  MET794  SER795  GLU796  ALA797  LYS798  CYS799  TRP800  GLU811  SER814 

> <Gold.Protein.RotatedAtoms>
  152.5366  134.2643  159.8947 H   0  0  0  0  0  0  0  0  0  0  0  0  # atno 6907 bound_to 6896
  151.2602  133.4299  159.2623 H   0  0  0  0  0  0  0  0  0  0  0  0  # atno 6908 bound_to 6896
  151.0460  134.9654  159.8243 H   0  0  0  0  0  0  0  0  0  0  0  0  # atno 6909 bound_to 6896
  146.2168  140.2992  142.8374 H   0  0  0  0  0  0  0  0  0  0  0  0  # atno 7974 bound_to 7965
  155.2691  140.0439  157.3005 H   0  0  0  0  0  0  0  0  0  0  0  0  # atno 8008 bound_to 7997
  154.5664  140.2361  155.8226 H   0  0  0  0  0  0  0  0  0  0  0  0  # atno 8009 bound_to 7997
  156.2088  140.3004  155.9695 H   0  0  0  0  0  0  0  0  0  0  0  0  # atno 8010 bound_to 7997
  140.0463  143.5103  152.2104 H   0  0  0  0  0  0  0  0  0  0  0  0  # atno 10167 bound_to 10162
  156.9827  130.6012  149.5678 H   0  0  0  0  0  0  0  0  0  0  0  0  # atno 10718 bound_to 10713
  154.6480  135.2907  155.0022 H   0  0  0  0  0  0  0  0  0  0  0  0  # atno 10763 bound_to 10752
  154.1125  135.6560  153.4891 H   0  0  0  0  0  0  0  0  0  0  0  0  # atno 10764 bound_to 10752
  153.0361  135.5268  154.7376 H   0  0  0  0  0  0  0  0  0  0  0  0  # atno 10765 bound_to 10752
  139.8851  134.8632  156.3327 H   0  0  0  0  0  0  0  0  0  0  0  0  # atno 11005 bound_to 11000
  144.9069  140.7711  143.5832 LP  0  0  0  0  0  0  0  0  0  0  0  0  # atno 17320 bound_to 7965
  145.2921  139.1880  143.4735 LP  0  0  0  0  0  0  0  0  0  0  0  0  # atno 17321 bound_to 7965
  139.5981  144.7574  151.3237 LP  0  0  0  0  0  0  0  0  0  0  0  0  # atno 17342 bound_to 10162
  140.7237  143.7064  150.7804 LP  0  0  0  0  0  0  0  0  0  0  0  0  # atno 17343 bound_to 10162
  156.0238  130.5332  150.8350 LP  0  0  0  0  0  0  0  0  0  0  0  0  # atno 17370 bound_to 10713
  157.5515  131.0944  150.9689 LP  0  0  0  0  0  0  0  0  0  0  0  0  # atno 17371 bound_to 10713
  140.9712  133.7326  156.0537 LP  0  0  0  0  0  0  0  0  0  0  0  0  # atno 17394 bound_to 11000
  140.7869  134.3662  157.5474 LP  0  0  0  0  0  0  0  0  0  0  0  0  # atno 17395 bound_to 11000

$$$$
