AV-unprocessed.smi:371|AV-procd|sdf|2442|dock6
  -GOLD-   2262022383D 1   1.00000     0.00000
 Structure written by MMmdl.
 39 40  0  0  0  0  0  0  0  0  1 V2000
  153.6637  142.8151  163.4213 C   0  0  0  0  0  0  0  0  0  0  0  0
  153.3702  142.4187  161.9796 C   0  0  0  0  0  0  0  0  0  0  0  0
  152.4149  143.2102  161.2396 C   0  0  0  0  0  0  0  0  0  0  0  0
  152.0339  142.8588  160.0009 C   0  0  0  0  0  0  0  0  0  0  0  0
  151.0295  143.7036  159.2255 C   0  0  0  0  0  0  0  0  0  0  0  0
  152.5921  141.7123  159.3715 N   0  0  0  0  0  0  0  0  0  0  0  0
  152.0751  141.2867  158.0463 C   0  0  0  0  0  0  0  0  0  0  0  0
  151.5865  139.8155  158.0322 C   0  0  1  0  0  0  0  0  0  0  0  0
  150.5144  139.6988  158.9465 O   0  0  0  0  0  0  0  0  0  0  0  0
  151.2206  139.3099  156.6399 C   0  0  0  0  0  0  0  0  0  0  0  0
  150.1671  139.9140  155.9174 C   0  0  0  0  0  0  0  0  0  0  0  0
  149.8508  139.4750  154.6173 C   0  0  0  0  0  0  0  0  0  0  0  0
  150.5859  138.4289  154.0291 C   0  0  0  0  0  0  0  0  0  0  0  0
  151.6365  137.8214  154.7421 C   0  0  0  0  0  0  0  0  0  0  0  0
  151.9543  138.2583  156.0429 C   0  0  0  0  0  0  0  0  0  0  0  0
  152.9808  137.6737  156.7063 F   0  0  0  0  0  0  0  0  0  0  0  0
  153.5959  140.9822  159.9580 C   0  0  0  0  0  0  0  0  0  0  0  0
  154.1644  140.0826  159.3307 O   0  0  0  0  0  0  0  0  0  0  0  0
  153.9254  141.3407  161.3639 C   0  0  0  0  0  0  0  0  0  0  0  0
  154.8977  140.4714  162.0545 C   0  0  0  0  0  0  0  0  0  0  0  0
  155.0316  139.2431  161.5338 N   0  0  0  0  0  0  0  0  0  0  0  0
  155.5038  140.7716  163.0817 O   0  0  0  0  0  0  0  0  0  0  0  0
  152.9789  143.5915  163.7636 H   0  0  0  0  0  0  0  0  0  0  0  0
  154.6777  143.2048  163.5120 H   0  0  0  0  0  0  0  0  0  0  0  0
  153.5530  141.9636  164.0935 H   0  0  0  0  0  0  0  0  0  0  0  0
  151.9956  144.0958  161.6950 H   0  0  0  0  0  0  0  0  0  0  0  0
  150.6188  144.4922  159.8567 H   0  0  0  0  0  0  0  0  0  0  0  0
  150.1859  143.1156  158.8682 H   0  0  0  0  0  0  0  0  0  0  0  0
  151.5108  144.1894  158.3762 H   0  0  0  0  0  0  0  0  0  0  0  0
  151.2757  141.9445  157.7093 H   0  0  0  0  0  0  0  0  0  0  0  0
  152.8263  141.4158  157.2654 H   0  0  0  0  0  0  0  0  0  0  0  0
  152.3740  139.1739  158.4248 H   0  0  0  0  0  0  0  0  0  0  0  0
  150.6399  138.9130  159.4562 H   0  0  0  0  0  0  0  0  0  0  0  0
  149.6053  140.7273  156.3531 H   0  0  0  0  0  0  0  0  0  0  0  0
  149.0471  139.9452  154.0698 H   0  0  0  0  0  0  0  0  0  0  0  0
  150.3457  138.0940  153.0308 H   0  0  0  0  0  0  0  0  0  0  0  0
  152.2034  137.0216  154.2890 H   0  0  0  0  0  0  0  0  0  0  0  0
  155.6670  138.5815  161.9563 H   0  0  0  0  0  0  0  0  0  0  0  0
  154.4846  138.9793  160.7271 H   0  0  0  0  0  0  0  0  0  0  0  0
  1  2  1  0  0  0  0
  1 23  1  0  0  0  0
  1 24  1  0  0  0  0
  1 25  1  0  0  0  0
  2 19  2  0  0  0  0
  2  3  1  0  0  0  0
  3  4  2  0  0  0  0
  3 26  1  0  0  0  0
  4  5  1  0  0  0  0
  4  6  1  0  0  0  0
  5 27  1  0  0  0  0
  5 28  1  0  0  0  0
  5 29  1  0  0  0  0
  6  7  1  0  0  0  0
  6 17  1  0  0  0  0
  7  8  1  0  0  0  0
  7 30  1  0  0  0  0
  7 31  1  0  0  0  0
  8  9  1  0  0  0  0
  8 10  1  0  0  0  0
  8 32  1  0  0  0  0
  9 33  1  0  0  0  0
 10 15  1  0  0  0  0
 10 11  2  0  0  0  0
 11 12  1  0  0  0  0
 11 34  1  0  0  0  0
 12 13  2  0  0  0  0
 12 35  1  0  0  0  0
 13 14  1  0  0  0  0
 13 36  1  0  0  0  0
 14 15  2  0  0  0  0
 14 37  1  0  0  0  0
 15 16  1  0  0  0  0
 17 18  2  0  0  0  0
 17 19  1  0  0  0  0
 19 20  1  0  0  0  0
 20 21  1  0  0  0  0
 20 22  2  0  0  0  0
 21 38  1  0  0  0  0
 21 39  1  0  0  0  0
M  END
> <s_m_source_file>
AV-unprocessed.smi

> <i_m_source_file_index>
371

> <i_lp_mmshare_version>
43012

> <i_f3d_flags>
0

> <s_epik_input>
W0NIM11jMVtjSF1jKFtDSDNdKW4oYyg9TyljMUMoPU8pW05IMl0pW0NIMl1bQ0BIXShbT0hdKWMyW2NIXVtjSF1bY0hdW2NIXWMyRg==

> <s_epik_cmdline>
J2VwaWtfcHl0aG9uJywgJy1waCcsICc3LjAnLCAnLXRuJywgJzgnLCAnLW1hJywgJzIwMCcsICctbWV0YWxfYmluZGluZycsICctaW1hZScsICc8aW5maWxlLm1hZT4nLCAnLW9tYWUnLCAnPG91dGZpbGUubWFlPic=

> <r_lp_tautomer_probability>
1

> <r_epik_Ionization_Penalty>
3.46512e-07

> <r_epik_Ionization_Penalty_Charging>
1.35363e-07

> <r_epik_Ionization_Penalty_Neutral>
2.11149e-07

> <r_epik_State_Penalty>
-0

> <r_epik_Charging_Adjusted_Penalty>
1.35363e-07

> <i_epik_Tot_Q>
0

> <i_epik_Tot_abs_Q>
0

> <r_epik_Metal_State_Penalty>
-0

> <b_epik_Metal_Only>
0

> <s_lp_Force_Field>
OPLS_2005

> <r_lp_Energy>
37.7279

> <b_lp_Chiralities_Consistent>
1

> <s_lp_Variant>
AV-unprocessed.smi:371-2

> <Gold.Version>
5.8.1

> <Gold.Id.Protein>
6NUR|6NUR_protein|mol2

> <Gold.PLP.Fitness>
50.5760

> <Gold.PLP.PLP>
-47.7510

> <Gold.PLP.part.hbond>
-2.0000

> <Gold.PLP.part.metal>
0.0000

> <Gold.PLP.part.buried>
-3.8725

> <Gold.PLP.part.nonpolar>
-40.4189

> <Gold.PLP.part.repulsive>
0.0000

> <Gold.PLP.ligand.clash>
0.0000

> <Gold.PLP.ligand.torsion>
0.2099

> <Gold.PLP.Chemscore.Hbond>
0.9516

> <Gold.PLP.Chemscore.CHOScore>
0.0000

> <Gold.PLP.Chemscore.Metal>
0.0000

> <Gold.Chemscore.Hbonds>
donor molecule, donor type, donor heavy atom, donor atom, acceptor molecule, acceptor atom, score
      P1  H  7997  8008       L1    18  0.60

> <Gold.PLP.Chemscore.Internal.Correction>
0.3901

> <Gold.Rescore>
     Score         DG    S(hbond)    S(metal)    S(lipo)     H(rot)  DE(clash)    DE(int)     intcor
     15.42     -17.29       0.95        0.00     118.36       2.04       0.23       1.64       ----

> <Gold.Chemscore.Fitness>
15.4250

> <Gold.Chemscore.DG>
-17.2947

> <Gold.Chemscore.ZeroCoef>
-5.4800

> <Gold.Chemscore.Hbond>
0.9547

> <Gold.Chemscore.Metal>
0.0000

> <Gold.Chemscore.Lipo>
118.3551

> <Gold.Chemscore.Internal_Hbond>
0.0000

> <Gold.Chemscore.DEClash>
0.2323

> <Gold.Chemscore.DEInternal>
1.6374

> <Gold.Chemscore.Rot>
2.0396

> <Gold.Chemscore.Internal.Correction>
   9.000000E+99

> <Gold.Chemscore.Hbonds>
donor molecule, donor type, donor heavy atom, donor atom, acceptor molecule, acceptor atom, score
      P1  H  7997  8008       L1    18  0.57

> <Gold.Chemscore.Hbond.Weighted>
-3.1886

> <Gold.Chemscore.Metal.Weighted>
-0.0000

> <Gold.Chemscore.Lipo.Weighted>
-13.8475

> <Gold.Chemscore.Internal_Hbond.Weighted>
0.0000

> <Gold.Chemscore.DEClash.Weighted>
0.2323

> <Gold.Chemscore.DEInternal.Weighted>
1.6374

> <Gold.Chemscore.Rot.Weighted>
5.2214

> <Gold.Chemscore.Internal.Correction.Weighted>
   9.000000E+99

> <Gold.Protein.RotatedTorsions>
[ 6907 6896 6895 6894 ] final -171.54 input  -60.11 | X-H torsion
[ 7974 7965 7964 7962 ] final -108.76 input  175.53 | X-H torsion
[ 8008 7997 7996 7995 ] final -110.07 input   59.86 | X-H torsion
[ 10167 10162 10161 10158 ] final   36.29 input  -65.29 | X-H torsion
[ 10718 10713 10712 10709 ] final   88.13 input   66.30 | X-H torsion
[ 10763 10752 10751 10750 ] final  107.92 input  -60.55 | X-H torsion
[ 11005 11000 10999 10996 ] final  -95.37 input  -57.11 | X-H torsion

> <Gold.Protein.ActiveResidues>
 VAL166  LYS551  ARG553  GLY616  TRP617  ASP618  TYR619  PRO620  LYS621  CYS622 
 ASP623  PHE694  ASN695  SER759  ASP760  ASP761  ALA762  ILE779  LEU786  VAL792 
 PHE793  MET794  SER795  GLU796  ALA797  LYS798  CYS799  TRP800  GLU811  SER814 

> <Gold.Protein.RotatedAtoms>
  151.5254  133.3458  159.2908 H   0  0  0  0  0  0  0  0  0  0  0  0  # atno 6907 bound_to 6896
  150.8626  134.7984  159.7105 H   0  0  0  0  0  0  0  0  0  0  0  0  # atno 6908 bound_to 6896
  152.4641  134.5126  159.9810 H   0  0  0  0  0  0  0  0  0  0  0  0  # atno 6909 bound_to 6896
  145.1889  140.9005  143.3436 H   0  0  0  0  0  0  0  0  0  0  0  0  # atno 7974 bound_to 7965
  154.9689  140.0398  157.2225 H   0  0  0  0  0  0  0  0  0  0  0  0  # atno 8008 bound_to 7997
  154.7819  140.2820  155.6035 H   0  0  0  0  0  0  0  0  0  0  0  0  # atno 8009 bound_to 7997
  156.2937  140.2590  156.2647 H   0  0  0  0  0  0  0  0  0  0  0  0  # atno 8010 bound_to 7997
  140.4141  144.1551  150.6142 H   0  0  0  0  0  0  0  0  0  0  0  0  # atno 10167 bound_to 10162
  157.6946  131.0283  150.3229 H   0  0  0  0  0  0  0  0  0  0  0  0  # atno 10718 bound_to 10713
  153.4134  135.3829  155.2065 H   0  0  0  0  0  0  0  0  0  0  0  0  # atno 10763 bound_to 10752
  154.8739  135.3800  154.4472 H   0  0  0  0  0  0  0  0  0  0  0  0  # atno 10764 bound_to 10752
  153.4984  135.7088  153.5908 H   0  0  0  0  0  0  0  0  0  0  0  0  # atno 10765 bound_to 10752
  141.1443  133.8022  157.0426 H   0  0  0  0  0  0  0  0  0  0  0  0  # atno 11005 bound_to 11000
  145.0061  139.3553  143.6143 LP  0  0  0  0  0  0  0  0  0  0  0  0  # atno 17320 bound_to 7965
  146.3440  139.9304  142.8754 LP  0  0  0  0  0  0  0  0  0  0  0  0  # atno 17321 bound_to 7965
  140.4605  143.2450  151.9226 LP  0  0  0  0  0  0  0  0  0  0  0  0  # atno 17342 bound_to 10162
  139.4782  144.5472  151.8441 LP  0  0  0  0  0  0  0  0  0  0  0  0  # atno 17343 bound_to 10162
  156.3713  130.3864  149.7173 LP  0  0  0  0  0  0  0  0  0  0  0  0  # atno 17370 bound_to 10713
  156.4586  130.7941  151.2961 LP  0  0  0  0  0  0  0  0  0  0  0  0  # atno 17371 bound_to 10713
  140.0683  134.9717  157.1423 LP  0  0  0  0  0  0  0  0  0  0  0  0  # atno 17394 bound_to 11000
  140.3748  134.2351  155.7175 LP  0  0  0  0  0  0  0  0  0  0  0  0  # atno 17395 bound_to 11000

$$$$
