AV-unprocessed.smi:557|AV-procd|sdf|2914|dock5
  -GOLD-   2262023403D 1   1.00000     0.00000
 Structure written by MMmdl.
 47 49  0  0  0  0  0  0  0  0  2 V2000
  151.0122  142.0931  156.9215 C   0  0  0  0  0  0  0  0  0  0  0  0
  150.8532  140.9981  155.9886 N   0  0  0  0  0  0  0  0  0  0  0  0
  151.5883  139.8364  155.8920 C   0  0  0  0  0  0  0  0  0  0  0  0
  151.0684  139.1070  154.8600 C   0  0  0  0  0  0  0  0  0  0  0  0
  151.5107  137.7686  154.3387 C   0  0  0  0  0  0  0  0  0  0  0  0
  150.9196  136.6213  155.1678 C   0  0  0  0  0  0  0  0  0  0  0  0
  149.9100  135.8982  154.3996 N   0  0  0  0  0  0  0  0  0  0  0  0
  149.2831  134.7625  154.7494 C   0  0  0  0  0  0  0  0  0  0  0  0
  149.5091  134.1955  155.8165 O   0  0  0  0  0  0  0  0  0  0  0  0
  148.3941  134.3140  153.8464 N   0  0  0  0  0  0  0  0  0  0  0  0
  147.5892  133.1016  153.9825 C   0  0  2  0  0  0  0  0  0  0  0  0
  148.4423  131.8219  154.0754 C   0  0  0  0  0  0  0  0  0  0  0  0
  147.6878  130.7909  153.2298 C   0  0  0  0  0  0  0  0  0  0  0  0
  147.0897  131.6109  152.1701 N   0  3  1  0  0  0  0  0  0  0  0  0
  146.0761  130.9972  151.2883 C   0  0  0  0  0  0  0  0  0  0  0  0
  145.7480  131.9937  150.1556 C   0  0  0  0  0  0  0  0  0  0  0  0
  145.3649  133.3901  150.6967 C   0  0  0  0  0  0  0  0  0  0  0  0
  146.4008  133.9175  151.7133 C   0  0  0  0  0  0  0  0  0  0  0  0
  146.6168  132.8536  152.8045 C   0  0  2  0  0  0  0  0  0  0  0  0
  150.0002  139.9207  154.3855 C   0  0  0  0  0  0  0  0  0  0  0  0
  149.8749  141.0510  155.0616 N   0  0  0  0  0  0  0  0  0  0  0  0
  151.9068  141.9421  157.5265 H   0  0  0  0  0  0  0  0  0  0  0  0
  150.1438  142.1464  157.5785 H   0  0  0  0  0  0  0  0  0  0  0  0
  151.1086  143.0330  156.3770 H   0  0  0  0  0  0  0  0  0  0  0  0
  152.4131  139.6265  156.5572 H   0  0  0  0  0  0  0  0  0  0  0  0
  151.2159  137.6501  153.2952 H   0  0  0  0  0  0  0  0  0  0  0  0
  152.5990  137.6976  154.3492 H   0  0  0  0  0  0  0  0  0  0  0  0
  151.7132  135.9340  155.4666 H   0  0  0  0  0  0  0  0  0  0  0  0
  150.4678  137.0156  156.0797 H   0  0  0  0  0  0  0  0  0  0  0  0
  149.6587  136.3009  153.5080 H   0  0  0  0  0  0  0  0  0  0  0  0
  148.2765  134.8481  152.9974 H   0  0  0  0  0  0  0  0  0  0  0  0
  147.0007  133.1744  154.8994 H   0  0  0  0  0  0  0  0  0  0  0  0
  149.4281  131.9914  153.6394 H   0  0  0  0  0  0  0  0  0  0  0  0
  148.5909  131.4890  155.1032 H   0  0  0  0  0  0  0  0  0  0  0  0
  148.3405  130.0159  152.8274 H   0  0  0  0  0  0  0  0  0  0  0  0
  146.9009  130.3138  153.8162 H   0  0  0  0  0  0  0  0  0  0  0  0
  146.4646  130.0677  150.8709 H   0  0  0  0  0  0  0  0  0  0  0  0
  145.1810  130.7476  151.8599 H   0  0  0  0  0  0  0  0  0  0  0  0
  146.6174  132.0920  149.5040 H   0  0  0  0  0  0  0  0  0  0  0  0
  144.9434  131.6005  149.5338 H   0  0  0  0  0  0  0  0  0  0  0  0
  145.2572  134.0955  149.8721 H   0  0  0  0  0  0  0  0  0  0  0  0
  144.3879  133.3302  151.1778 H   0  0  0  0  0  0  0  0  0  0  0  0
  147.3412  134.1424  151.2084 H   0  0  0  0  0  0  0  0  0  0  0  0
  146.0429  134.8495  152.1511 H   0  0  0  0  0  0  0  0  0  0  0  0
  145.6451  132.6398  153.2556 H   0  0  0  0  0  0  0  0  0  0  0  0
  149.3173  139.7243  153.5720 H   0  0  0  0  0  0  0  0  0  0  0  0
  147.8601  131.8799  151.5747 H   0  0  0  0  0  0  0  0  0  0  0  0
  1  2  1  0  0  0  0
  1 22  1  0  0  0  0
  1 23  1  0  0  0  0
  1 24  1  0  0  0  0
  2 21  1  0  0  0  0
  2  3  1  0  0  0  0
  3  4  2  0  0  0  0
  3 25  1  0  0  0  0
  4  5  1  0  0  0  0
  4 20  1  0  0  0  0
  5  6  1  0  0  0  0
  5 26  1  0  0  0  0
  5 27  1  0  0  0  0
  6  7  1  0  0  0  0
  6 28  1  0  0  0  0
  6 29  1  0  0  0  0
  7  8  1  0  0  0  0
  7 30  1  0  0  0  0
  8  9  2  0  0  0  0
  8 10  1  0  0  0  0
 10 11  1  0  0  0  0
 10 31  1  0  0  0  0
 11 19  1  0  0  0  0
 11 12  1  0  0  0  0
 11 32  1  0  0  0  0
 12 13  1  0  0  0  0
 12 33  1  0  0  0  0
 12 34  1  0  0  0  0
 13 14  1  0  0  0  0
 13 35  1  0  0  0  0
 13 36  1  0  0  0  0
 14 19  1  0  0  0  0
 14 15  1  0  0  0  0
 14 47  1  0  0  0  0
 15 16  1  0  0  0  0
 15 37  1  0  0  0  0
 15 38  1  0  0  0  0
 16 17  1  0  0  0  0
 16 39  1  0  0  0  0
 16 40  1  0  0  0  0
 17 18  1  0  0  0  0
 17 41  1  0  0  0  0
 17 42  1  0  0  0  0
 18 19  1  0  0  0  0
 18 43  1  0  0  0  0
 18 44  1  0  0  0  0
 19 45  1  0  0  0  0
 20 21  2  0  0  0  0
 20 46  1  0  0  0  0
M  CHG  1  14   1
M  END
> <s_m_source_file>
AV-unprocessed.smi

> <i_m_source_file_index>
557

> <i_lp_mmshare_version>
43012

> <i_f3d_flags>
0

> <s_epik_input>
W0NIM11uMVtjSF1jKFtjSF1uMSlbQ0gyXVtDSDJdW05IXUMoPU8pW05IXVtDQEhdKFtDSDJdW0NIMl0yKVtDQEhdKE4yMylbQ0gyXVtDSDJdW0NIMl1bQ0gyXTM=

> <s_epik_cmdline>
J2VwaWtfcHl0aG9uJywgJy1waCcsICc3LjAnLCAnLXRuJywgJzgnLCAnLW1hJywgJzIwMCcsICctbWV0YWxfYmluZGluZycsICctaW1hZScsICc8aW5maWxlLm1hZT4nLCAnLW9tYWUnLCAnPG91dGZpbGUubWFlPic=

> <r_lp_tautomer_probability>
1

> <r_epik_Ionization_Penalty>
0.000956547

> <r_epik_Ionization_Penalty_Charging>
0.000435796

> <r_epik_Ionization_Penalty_Neutral>
0.000520752

> <r_epik_State_Penalty>
-0

> <r_epik_Charging_Adjusted_Penalty>
0.000435796

> <i_epik_Tot_Q>
1

> <i_epik_Tot_abs_Q>
1

> <r_epik_Metal_State_Penalty>
-0

> <b_epik_Metal_Only>
0

> <s_lp_Force_Field>
OPLS_2005

> <r_lp_Energy>
46.5188

> <b_lp_Chiralities_Consistent>
1

> <s_lp_Variant>
AV-unprocessed.smi:557-1

> <Gold.Version>
5.8.1

> <Gold.Id.Protein>
6NUR|6NUR_protein|mol2

> <Gold.PLP.Fitness>
49.1654

> <Gold.PLP.PLP>
-39.7630

> <Gold.PLP.part.hbond>
-4.2700

> <Gold.PLP.part.metal>
0.0000

> <Gold.PLP.part.buried>
-1.0106

> <Gold.PLP.part.nonpolar>
-34.7418

> <Gold.PLP.part.repulsive>
0.1898

> <Gold.PLP.ligand.clash>
0.0000

> <Gold.PLP.ligand.torsion>
0.7002

> <Gold.PLP.Chemscore.Hbond>
2.6000

> <Gold.PLP.Chemscore.CHOScore>
0.9985

> <Gold.PLP.Chemscore.Metal>
0.0000

> <Gold.Chemscore.Hbonds>
donor molecule, donor type, donor heavy atom, donor atom, acceptor molecule, acceptor atom, score
      L1  H     7    30       P1  7948  1.00
      L1  H    10    31       P1  7948  0.94
      L1  H    14    47       P1 10747  0.66
      L1  C    20    46       P1  7957  1.00

> <Gold.PLP.Chemscore.Internal.Correction>
0.0071

> <Gold.Rescore>
     Score         DG    S(hbond)    S(metal)    S(lipo)     H(rot)  DE(clash)    DE(int)     intcor
     18.79     -19.49       2.07        0.00      95.56       1.60       0.03       0.67       ----

> <Gold.Chemscore.Fitness>
18.7876

> <Gold.Chemscore.DG>
-19.4854

> <Gold.Chemscore.ZeroCoef>
-5.4800

> <Gold.Chemscore.Hbond>
2.0734

> <Gold.Chemscore.Metal>
0.0000

> <Gold.Chemscore.Lipo>
95.5628

> <Gold.Chemscore.Internal_Hbond>
0.0000

> <Gold.Chemscore.DEClash>
0.0289

> <Gold.Chemscore.DEInternal>
0.6688

> <Gold.Chemscore.Rot>
1.6018

> <Gold.Chemscore.Internal.Correction>
   9.000000E+99

> <Gold.Chemscore.Hbonds>
donor molecule, donor type, donor heavy atom, donor atom, acceptor molecule, acceptor atom, score
      L1  H     7    30       P1  7948  0.38
      L1  H    10    31       P1  7948  0.68
      L1  H    14    47       P1 10747  0.64

> <Gold.Chemscore.Hbond.Weighted>
-6.9251

> <Gold.Chemscore.Metal.Weighted>
-0.0000

> <Gold.Chemscore.Lipo.Weighted>
-11.1808

> <Gold.Chemscore.Internal_Hbond.Weighted>
0.0000

> <Gold.Chemscore.DEClash.Weighted>
0.0289

> <Gold.Chemscore.DEInternal.Weighted>
0.6688

> <Gold.Chemscore.Rot.Weighted>
4.1006

> <Gold.Chemscore.Internal.Correction.Weighted>
   9.000000E+99

> <Gold.Protein.RotatedTorsions>
[ 6907 6896 6895 6894 ] final  -95.02 input  -60.11 | X-H torsion
[ 7974 7965 7964 7962 ] final -104.20 input  175.53 | X-H torsion
[ 8008 7997 7996 7995 ] final  -64.27 input   59.86 | X-H torsion
[ 10167 10162 10161 10158 ] final   10.90 input  -65.29 | X-H torsion
[ 10718 10713 10712 10709 ] final  -54.77 input   66.30 | X-H torsion
[ 10763 10752 10751 10750 ] final    4.36 input  -60.55 | X-H torsion
[ 11005 11000 10999 10996 ] final  -61.30 input  -57.11 | X-H torsion

> <Gold.Protein.ActiveResidues>
 VAL166  LYS551  ARG553  GLY616  TRP617  ASP618  TYR619  PRO620  LYS621  CYS622 
 ASP623  PHE694  ASN695  SER759  ASP760  ASP761  ALA762  ILE779  LEU786  VAL792 
 PHE793  MET794  SER795  GLU796  ALA797  LYS798  CYS799  TRP800  GLU811  SER814 

> <Gold.Protein.RotatedAtoms>
  150.6954  134.1722  159.4216 H   0  0  0  0  0  0  0  0  0  0  0  0  # atno 6907 bound_to 6896
  151.9699  135.0079  160.0561 H   0  0  0  0  0  0  0  0  0  0  0  0  # atno 6908 bound_to 6896
  152.1851  133.4699  159.5015 H   0  0  0  0  0  0  0  0  0  0  0  0  # atno 6909 bound_to 6896
  145.2462  140.9222  143.3121 H   0  0  0  0  0  0  0  0  0  0  0  0  # atno 7974 bound_to 7965
  154.4602  140.0957  156.6871 H   0  0  0  0  0  0  0  0  0  0  0  0  # atno 8008 bound_to 7997
  155.5017  140.3474  155.4354 H   0  0  0  0  0  0  0  0  0  0  0  0  # atno 8009 bound_to 7997
  156.0855  140.1384  156.9647 H   0  0  0  0  0  0  0  0  0  0  0  0  # atno 8010 bound_to 7997
  140.6165  143.8296  150.7125 H   0  0  0  0  0  0  0  0  0  0  0  0  # atno 10167 bound_to 10162
  156.1423  130.4154  150.0082 H   0  0  0  0  0  0  0  0  0  0  0  0  # atno 10718 bound_to 10713
  153.2722  135.6933  153.7469 H   0  0  0  0  0  0  0  0  0  0  0  0  # atno 10763 bound_to 10752
  153.6488  135.3380  155.3094 H   0  0  0  0  0  0  0  0  0  0  0  0  # atno 10764 bound_to 10752
  154.8468  135.4449  154.1748 H   0  0  0  0  0  0  0  0  0  0  0  0  # atno 10765 bound_to 10752
  141.1319  133.6629  156.5355 H   0  0  0  0  0  0  0  0  0  0  0  0  # atno 11005 bound_to 11000
  144.9544  139.4047  143.6386 LP  0  0  0  0  0  0  0  0  0  0  0  0  # atno 17320 bound_to 7965
  146.3315  139.8567  142.8863 LP  0  0  0  0  0  0  0  0  0  0  0  0  # atno 17321 bound_to 7965
  140.1877  143.4062  152.1886 LP  0  0  0  0  0  0  0  0  0  0  0  0  # atno 17342 bound_to 10162
  139.5403  144.7250  151.4756 LP  0  0  0  0  0  0  0  0  0  0  0  0  # atno 17343 bound_to 10162
  156.7963  130.9274  151.3646 LP  0  0  0  0  0  0  0  0  0  0  0  0  # atno 17370 bound_to 10713
  157.6587  130.8947  149.9783 LP  0  0  0  0  0  0  0  0  0  0  0  0  # atno 17371 bound_to 10713
  140.4182  134.7211  157.4875 LP  0  0  0  0  0  0  0  0  0  0  0  0  # atno 17394 bound_to 11000
  140.0379  134.6310  155.9019 LP  0  0  0  0  0  0  0  0  0  0  0  0  # atno 17395 bound_to 11000

$$$$
