AV-unprocessed.smi:648|AV-procd|sdf|3171|dock10
  -GOLD-   22720 0 93D 1   1.00000     0.00000
 Structure written by MMmdl.
 46 47  0  0  0  0  0  0  0  0  2 V2000
  153.4893  138.3704  154.6372 C   0  0  0  0  0  0  0  0  0  0  0  0
  152.0473  138.6425  155.0903 C   0  0  1  0  0  0  0  0  0  0  0  0
  151.8973  140.0825  155.6175 C   0  0  0  0  0  0  0  0  0  0  0  0
  150.4703  140.4247  156.1083 C   0  0  0  0  0  0  0  0  0  0  0  0
  150.1995  139.7954  157.4941 C   0  0  0  0  0  0  0  0  0  0  0  0
  150.3783  141.9542  156.3008 C   0  0  0  0  0  0  0  0  0  0  0  0
  149.4150  140.0148  155.0371 C   0  0  0  0  0  0  0  0  0  0  0  0
  149.5666  138.6192  154.3567 C   0  0  1  0  0  0  0  0  0  0  0  0
  149.0784  137.4858  155.3004 C   0  0  0  0  0  0  0  0  0  0  0  0
  149.1717  136.2140  154.6867 O   0  0  0  0  0  0  0  0  0  0  0  0
  148.6481  138.5633  153.1812 N   0  3  0  0  0  0  0  0  0  0  0  0
  147.2037  138.8289  153.3773 C   0  0  0  0  0  0  0  0  0  0  0  0
  146.3878  138.2682  152.2035 C   0  0  0  0  0  0  0  0  0  0  0  0
  145.4711  137.2291  152.6304 N   0  0  0  0  0  0  0  0  0  0  0  0
  144.1400  137.1646  152.5722 C   0  0  0  0  0  0  0  0  0  0  0  0
  143.6372  136.0386  153.0590 N   0  0  0  0  0  0  0  0  0  0  0  0
  144.7945  135.4091  153.4209 C   0  0  0  0  0  0  0  0  0  0  0  0
  145.9225  136.0791  153.1836 N   0  0  0  0  0  0  0  0  0  0  0  0
  151.0496  138.4008  153.9419 C   0  0  0  0  0  0  0  0  0  0  0  0
  153.7830  139.0314  153.8210 H   0  0  0  0  0  0  0  0  0  0  0  0
  153.6058  137.3426  154.2923 H   0  0  0  0  0  0  0  0  0  0  0  0
  154.1925  138.5218  155.4568 H   0  0  0  0  0  0  0  0  0  0  0  0
  151.8413  137.9437  155.8995 H   0  0  0  0  0  0  0  0  0  0  0  0
  152.6143  140.2588  156.4208 H   0  0  0  0  0  0  0  0  0  0  0  0
  152.1769  140.7694  154.8169 H   0  0  0  0  0  0  0  0  0  0  0  0
  149.1524  139.8969  157.7809 H   0  0  0  0  0  0  0  0  0  0  0  0
  150.7923  140.2869  158.2665 H   0  0  0  0  0  0  0  0  0  0  0  0
  150.4630  138.7440  157.5535 H   0  0  0  0  0  0  0  0  0  0  0  0
  149.3912  142.2511  156.6578 H   0  0  0  0  0  0  0  0  0  0  0  0
  150.5642  142.4925  155.3705 H   0  0  0  0  0  0  0  0  0  0  0  0
  151.1096  142.3105  157.0274 H   0  0  0  0  0  0  0  0  0  0  0  0
  148.4111  140.1167  155.4519 H   0  0  0  0  0  0  0  0  0  0  0  0
  149.4643  140.7725  154.2566 H   0  0  0  0  0  0  0  0  0  0  0  0
  149.6537  137.4232  156.2168 H   0  0  0  0  0  0  0  0  0  0  0  0
  148.0403  137.6481  155.5939 H   0  0  0  0  0  0  0  0  0  0  0  0
  148.9353  136.3016  153.7752 H   0  0  0  0  0  0  0  0  0  0  0  0
  148.9836  139.2446  152.5145 H   0  0  0  0  0  0  0  0  0  0  0  0
  146.8519  138.3856  154.3075 H   0  0  0  0  0  0  0  0  0  0  0  0
  147.0363  139.9042  153.4461 H   0  0  0  0  0  0  0  0  0  0  0  0
  145.8138  139.0627  151.7246 H   0  0  0  0  0  0  0  0  0  0  0  0
  147.0494  137.8509  151.4428 H   0  0  0  0  0  0  0  0  0  0  0  0
  143.5256  137.9554  152.1667 H   0  0  0  0  0  0  0  0  0  0  0  0
  144.8065  134.4280  153.8723 H   0  0  0  0  0  0  0  0  0  0  0  0
  151.3258  139.0887  153.1434 H   0  0  0  0  0  0  0  0  0  0  0  0
  151.1859  137.3993  153.5321 H   0  0  0  0  0  0  0  0  0  0  0  0
  148.7472  137.6488  152.7644 H   0  0  0  0  0  0  0  0  0  0  0  0
  1  2  1  0  0  0  0
  1 20  1  0  0  0  0
  1 21  1  0  0  0  0
  1 22  1  0  0  0  0
  2 19  1  0  0  0  0
  2  3  1  0  0  0  0
  2 23  1  0  0  0  0
  3  4  1  0  0  0  0
  3 24  1  0  0  0  0
  3 25  1  0  0  0  0
  4  5  1  0  0  0  0
  4  6  1  0  0  0  0
  4  7  1  0  0  0  0
  5 26  1  0  0  0  0
  5 27  1  0  0  0  0
  5 28  1  0  0  0  0
  6 29  1  0  0  0  0
  6 30  1  0  0  0  0
  6 31  1  0  0  0  0
  7  8  1  0  0  0  0
  7 32  1  0  0  0  0
  7 33  1  0  0  0  0
  8  9  1  0  0  0  0
  8 11  1  0  0  0  0
  8 19  1  0  0  0  0
  9 10  1  0  0  0  0
  9 34  1  0  0  0  0
  9 35  1  0  0  0  0
 10 36  1  0  0  0  0
 11 12  1  0  0  0  0
 11 37  1  0  0  0  0
 11 46  1  0  0  0  0
 12 13  1  0  0  0  0
 12 38  1  0  0  0  0
 12 39  1  0  0  0  0
 13 14  1  0  0  0  0
 13 40  1  0  0  0  0
 13 41  1  0  0  0  0
 14 18  1  0  0  0  0
 14 15  1  0  0  0  0
 15 16  2  0  0  0  0
 15 42  1  0  0  0  0
 16 17  1  0  0  0  0
 17 18  2  0  0  0  0
 17 43  1  0  0  0  0
 19 44  1  0  0  0  0
 19 45  1  0  0  0  0
M  CHG  1  11   1
M  END
> <s_m_source_file>
AV-unprocessed.smi

> <i_m_source_file_index>
648

> <i_lp_mmshare_version>
43012

> <i_f3d_flags>
0

> <s_epik_input>
W0NIM11DMShbQ0gzXSlbQ0gyXVtDQEBIXShbQ0gzXSlbQ0gyXVtDQF0oW0NIMl0xKShbQ0gyXVtPSF0pW05IXVtDSDJdW0NIMl1uMltjSF1uW2NIXW4y

> <s_epik_cmdline>
J2VwaWtfcHl0aG9uJywgJy1waCcsICc3LjAnLCAnLXRuJywgJzgnLCAnLW1hJywgJzIwMCcsICctbWV0YWxfYmluZGluZycsICctaW1hZScsICc8aW5maWxlLm1hZT4nLCAnLW9tYWUnLCAnPG91dGZpbGUubWFlPic=

> <r_lp_tautomer_probability>
1

> <r_epik_Ionization_Penalty>
0.00942316

> <r_epik_Ionization_Penalty_Charging>
0.00942185

> <r_epik_Ionization_Penalty_Neutral>
1.31257e-06

> <r_epik_State_Penalty>
0.00715409

> <r_epik_Charging_Adjusted_Penalty>
0.0165759

> <i_epik_Tot_Q>
1

> <i_epik_Tot_abs_Q>
1

> <r_epik_Metal_State_Penalty>
0.00715563

> <b_epik_Metal_Only>
0

> <s_lp_Force_Field>
OPLS_2005

> <r_lp_Energy>
31.5534

> <b_lp_Chiralities_Consistent>
1

> <s_lp_Variant>
AV-unprocessed.smi:648-2

> <Gold.Version>
5.8.1

> <Gold.Id.Protein>
6NUR|6NUR_protein|mol2

> <Gold.PLP.Fitness>
47.6063

> <Gold.PLP.PLP>
-31.1831

> <Gold.PLP.part.hbond>
-3.0000

> <Gold.PLP.part.metal>
0.0000

> <Gold.PLP.part.buried>
-1.7078

> <Gold.PLP.part.nonpolar>
-27.6820

> <Gold.PLP.part.repulsive>
0.2686

> <Gold.PLP.ligand.clash>
0.0000

> <Gold.PLP.ligand.torsion>
0.4751

> <Gold.PLP.Chemscore.Hbond>
4.0000

> <Gold.PLP.Chemscore.CHOScore>
1.7820

> <Gold.PLP.Chemscore.Metal>
0.0000

> <Gold.Chemscore.Hbonds>
donor molecule, donor type, donor heavy atom, donor atom, acceptor molecule, acceptor atom, score
      L1  H    10    36       P1  7948  1.00
      L1  H    11    37       P1  7957  1.00
      L1  H    11    46       P1  7948  2.00
      L1  C    15    42       P1 10171  0.78
      L1  C    15    42       P1 10175  1.00

> <Gold.PLP.Chemscore.Internal.Correction>
0.0273

> <Gold.Rescore>
     Score         DG    S(hbond)    S(metal)    S(lipo)     H(rot)  DE(clash)    DE(int)     intcor
     15.87     -16.66       2.99        0.00      79.80       3.17       0.33       0.47       ----

> <Gold.Chemscore.Fitness>
15.8673

> <Gold.Chemscore.DG>
-16.6648

> <Gold.Chemscore.ZeroCoef>
-5.4800

> <Gold.Chemscore.Hbond>
2.9868

> <Gold.Chemscore.Metal>
0.0000

> <Gold.Chemscore.Lipo>
79.8023

> <Gold.Chemscore.Internal_Hbond>
0.0000

> <Gold.Chemscore.DEClash>
0.3295

> <Gold.Chemscore.DEInternal>
0.4681

> <Gold.Chemscore.Rot>
3.1750

> <Gold.Chemscore.Internal.Correction>
   9.000000E+99

> <Gold.Chemscore.Hbonds>
donor molecule, donor type, donor heavy atom, donor atom, acceptor molecule, acceptor atom, score
      L1  H    10    36       P1  7948  0.99
      L1  H    11    37       P1  7957  1.00
      L1  H    11    46       P1  7948  1.00

> <Gold.Chemscore.Hbond.Weighted>
-9.9758

> <Gold.Chemscore.Metal.Weighted>
-0.0000

> <Gold.Chemscore.Lipo.Weighted>
-9.3369

> <Gold.Chemscore.Internal_Hbond.Weighted>
0.0000

> <Gold.Chemscore.DEClash.Weighted>
0.3295

> <Gold.Chemscore.DEInternal.Weighted>
0.4681

> <Gold.Chemscore.Rot.Weighted>
8.1279

> <Gold.Chemscore.Internal.Correction.Weighted>
   9.000000E+99

> <Gold.Protein.RotatedTorsions>
[ 6907 6896 6895 6894 ] final -119.70 input  -60.11 | X-H torsion
[ 7974 7965 7964 7962 ] final -102.46 input  175.53 | X-H torsion
[ 8008 7997 7996 7995 ] final -133.91 input   59.86 | X-H torsion
[ 10167 10162 10161 10158 ] final  -75.03 input  -65.29 | X-H torsion
[ 10718 10713 10712 10709 ] final  171.69 input   66.30 | X-H torsion
[ 10763 10752 10751 10750 ] final -118.44 input  -60.55 | X-H torsion
[ 11005 11000 10999 10996 ] final  175.95 input  -57.11 | X-H torsion

> <Gold.Protein.ActiveResidues>
 VAL166  LYS551  ARG553  GLY616  TRP617  ASP618  TYR619  PRO620  LYS621  CYS622 
 ASP623  PHE694  ASN695  SER759  ASP760  ASP761  ALA762  ILE779  LEU786  VAL792 
 PHE793  MET794  SER795  GLU796  ALA797  LYS798  CYS799  TRP800  GLU811  SER814 

> <Gold.Protein.RotatedAtoms>
  150.8328  133.8062  159.3091 H   0  0  0  0  0  0  0  0  0  0  0  0  # atno 6907 bound_to 6896
  151.5787  135.1058  160.0022 H   0  0  0  0  0  0  0  0  0  0  0  0  # atno 6908 bound_to 6896
  152.4405  133.7398  159.6691 H   0  0  0  0  0  0  0  0  0  0  0  0  # atno 6909 bound_to 6896
  145.2684  140.9291  143.3000 H   0  0  0  0  0  0  0  0  0  0  0  0  # atno 7974 bound_to 7965
  155.3533  140.0478  157.3046 H   0  0  0  0  0  0  0  0  0  0  0  0  # atno 8008 bound_to 7997
  154.5216  140.2227  155.8930 H   0  0  0  0  0  0  0  0  0  0  0  0  # atno 8009 bound_to 7997
  156.1695  140.3099  155.8954 H   0  0  0  0  0  0  0  0  0  0  0  0  # atno 8010 bound_to 7997
  140.4977  143.2367  151.7804 H   0  0  0  0  0  0  0  0  0  0  0  0  # atno 10167 bound_to 10162
  156.9899  131.0144  151.2859 H   0  0  0  0  0  0  0  0  0  0  0  0  # atno 10718 bound_to 10713
  154.8587  135.4273  154.2140 H   0  0  0  0  0  0  0  0  0  0  0  0  # atno 10763 bound_to 10752
  153.3159  135.6979  153.7079 H   0  0  0  0  0  0  0  0  0  0  0  0  # atno 10764 bound_to 10752
  153.6153  135.3512  155.2966 H   0  0  0  0  0  0  0  0  0  0  0  0  # atno 10765 bound_to 10752
  140.3678  134.7056  157.4373 H   0  0  0  0  0  0  0  0  0  0  0  0  # atno 11005 bound_to 11000
  144.9357  139.4247  143.6473 LP  0  0  0  0  0  0  0  0  0  0  0  0  # atno 17320 bound_to 7965
  146.3254  139.8291  142.8912 LP  0  0  0  0  0  0  0  0  0  0  0  0  # atno 17321 bound_to 7965
  139.4865  144.4565  151.9592 LP  0  0  0  0  0  0  0  0  0  0  0  0  # atno 17342 bound_to 10162
  140.3653  144.2923  150.5927 LP  0  0  0  0  0  0  0  0  0  0  0  0  # atno 17343 bound_to 10162
  157.5466  130.8155  149.8094 LP  0  0  0  0  0  0  0  0  0  0  0  0  # atno 17370 bound_to 10713
  156.0211  130.3795  150.1959 LP  0  0  0  0  0  0  0  0  0  0  0  0  # atno 17371 bound_to 10713
  140.0575  134.6042  155.8787 LP  0  0  0  0  0  0  0  0  0  0  0  0  # atno 17394 bound_to 11000
  141.1964  133.6591  156.5690 LP  0  0  0  0  0  0  0  0  0  0  0  0  # atno 17395 bound_to 11000

$$$$
