AV-unprocessed.smi:766|AV-procd|sdf|3655|dock2
  -GOLD-   22720 1 63D 1   1.00000     0.00000
 Structure written by MMmdl.
 46 48  0  0  0  0  0  0  0  0  1 V2000
  152.9150  143.0698  161.5554 C   0  0  0  0  0  0  0  0  0  0  0  0
  152.3267  142.5566  160.2530 C   0  0  0  0  0  0  0  0  0  0  0  0
  152.8779  141.3986  159.6593 C   0  0  0  0  0  0  0  0  0  0  0  0
  152.3595  140.8884  158.4490 C   0  0  0  0  0  0  0  0  0  0  0  0
  152.7391  139.7861  157.7024 N   0  0  0  0  0  0  0  0  0  0  0  0
  151.8784  139.8396  156.6899 C   0  0  0  0  0  0  0  0  0  0  0  0
  150.9842  140.8470  156.6923 N   0  0  0  0  0  0  0  0  0  0  0  0
  149.9590  141.1140  155.6988 C   0  0  0  0  0  0  0  0  0  0  0  0
  150.0616  140.1845  154.4737 C   0  0  2  0  0  0  0  0  0  0  0  0
  149.5294  140.8491  153.3440 O   0  0  0  0  0  0  0  0  0  0  0  0
  149.2799  138.8769  154.6849 C   0  0  0  0  0  0  0  0  0  0  0  0
  149.8893  137.7731  153.9512 N   0  0  0  0  0  0  0  0  0  0  0  0
  150.7842  136.9576  154.7681 C   0  0  0  0  0  0  0  0  0  0  0  0
  150.0040  135.9733  155.6545 C   0  0  0  0  0  0  0  0  0  0  0  0
  150.0386  134.6170  155.1371 N   0  0  0  0  0  0  0  0  0  0  0  0
  149.4121  134.1101  154.0182 C   0  0  0  0  0  0  0  0  0  0  0  0
  149.7393  132.7871  153.9335 C   0  0  0  0  0  0  0  0  0  0  0  0
  150.5790  132.5740  155.0622 C   0  0  0  0  0  0  0  0  0  0  0  0
  150.7539  133.6702  155.7825 N   0  0  0  0  0  0  0  0  0  0  0  0
  151.2665  141.5746  157.8433 C   0  0  0  0  0  0  0  0  0  0  0  0
  150.7106  142.7285  158.4232 C   0  0  0  0  0  0  0  0  0  0  0  0
  151.2386  143.2231  159.6341 C   0  0  0  0  0  0  0  0  0  0  0  0
  150.6272  144.4666  160.2555 C   0  0  0  0  0  0  0  0  0  0  0  0
  153.7715  142.4719  161.8683 H   0  0  0  0  0  0  0  0  0  0  0  0
  152.1708  143.0317  162.3512 H   0  0  0  0  0  0  0  0  0  0  0  0
  153.2513  144.1009  161.4443 H   0  0  0  0  0  0  0  0  0  0  0  0
  153.7057  140.8897  160.1308 H   0  0  0  0  0  0  0  0  0  0  0  0
  151.8986  139.1022  155.9007 H   0  0  0  0  0  0  0  0  0  0  0  0
  148.9871  140.9956  156.1792 H   0  0  0  0  0  0  0  0  0  0  0  0
  150.0303  142.1589  155.3926 H   0  0  0  0  0  0  0  0  0  0  0  0
  151.1134  139.9629  154.2861 H   0  0  0  0  0  0  0  0  0  0  0  0
  149.4911  140.2367  152.6255 H   0  0  0  0  0  0  0  0  0  0  0  0
  149.2770  138.6281  155.7468 H   0  0  0  0  0  0  0  0  0  0  0  0
  148.2352  139.0065  154.3983 H   0  0  0  0  0  0  0  0  0  0  0  0
  149.1625  137.1897  153.5481 H   0  0  0  0  0  0  0  0  0  0  0  0
  151.4825  136.4108  154.1333 H   0  0  0  0  0  0  0  0  0  0  0  0
  151.3877  137.6051  155.4051 H   0  0  0  0  0  0  0  0  0  0  0  0
  150.4271  135.9649  156.6599 H   0  0  0  0  0  0  0  0  0  0  0  0
  148.9645  136.2877  155.7571 H   0  0  0  0  0  0  0  0  0  0  0  0
  148.7951  134.7266  153.3817 H   0  0  0  0  0  0  0  0  0  0  0  0
  149.4269  132.0795  153.1801 H   0  0  0  0  0  0  0  0  0  0  0  0
  151.0629  131.6613  155.3771 H   0  0  0  0  0  0  0  0  0  0  0  0
  149.8823  143.2260  157.9405 H   0  0  0  0  0  0  0  0  0  0  0  0
  149.7825  144.8298  159.6694 H   0  0  0  0  0  0  0  0  0  0  0  0
  151.3651  145.2670  160.3114 H   0  0  0  0  0  0  0  0  0  0  0  0
  150.2681  144.2543  161.2627 H   0  0  0  0  0  0  0  0  0  0  0  0
  1  2  1  0  0  0  0
  1 24  1  0  0  0  0
  1 25  1  0  0  0  0
  1 26  1  0  0  0  0
  2 22  1  0  0  0  0
  2  3  2  0  0  0  0
  3  4  1  0  0  0  0
  3 27  1  0  0  0  0
  4 20  2  0  0  0  0
  4  5  1  0  0  0  0
  5  6  2  0  0  0  0
  6  7  1  0  0  0  0
  6 28  1  0  0  0  0
  7  8  1  0  0  0  0
  7 20  1  0  0  0  0
  8  9  1  0  0  0  0
  8 29  1  0  0  0  0
  8 30  1  0  0  0  0
  9 10  1  0  0  0  0
  9 11  1  0  0  0  0
  9 31  1  0  0  0  0
 10 32  1  0  0  0  0
 11 12  1  0  0  0  0
 11 33  1  0  0  0  0
 11 34  1  0  0  0  0
 12 13  1  0  0  0  0
 12 35  1  0  0  0  0
 13 14  1  0  0  0  0
 13 36  1  0  0  0  0
 13 37  1  0  0  0  0
 14 15  1  0  0  0  0
 14 38  1  0  0  0  0
 14 39  1  0  0  0  0
 15 19  1  0  0  0  0
 15 16  1  0  0  0  0
 16 17  2  0  0  0  0
 16 40  1  0  0  0  0
 17 18  1  0  0  0  0
 17 41  1  0  0  0  0
 18 19  2  0  0  0  0
 18 42  1  0  0  0  0
 20 21  1  0  0  0  0
 21 22  2  0  0  0  0
 21 43  1  0  0  0  0
 22 23  1  0  0  0  0
 23 44  1  0  0  0  0
 23 45  1  0  0  0  0
 23 46  1  0  0  0  0
M  END
> <s_m_source_file>
AV-unprocessed.smi

> <i_m_source_file_index>
766

> <i_lp_mmshare_version>
43012

> <i_f3d_flags>
0

> <s_epik_input>
W0NIM11jKFtjSF0xKWMoW0NIM10pW2NIXWMoYzEyKW4oW2NIXW4yKVtDSDJdW0NASF0oW09IXSlbQ0gyXVtOSF1bQ0gyXVtDSDJdbjNbY0hdW2NIXVtjSF1uMw==

> <s_epik_cmdline>
J2VwaWtfcHl0aG9uJywgJy1waCcsICc3LjAnLCAnLXRuJywgJzgnLCAnLW1hJywgJzIwMCcsICctbWV0YWxfYmluZGluZycsICctaW1hZScsICc8aW5maWxlLm1hZT4nLCAnLW9tYWUnLCAnPG91dGZpbGUubWFlPic=

> <r_lp_tautomer_probability>
1

> <r_epik_Ionization_Penalty>
1.68727

> <r_epik_Ionization_Penalty_Charging>
0

> <r_epik_Ionization_Penalty_Neutral>
1.68727

> <r_epik_State_Penalty>
1.78741

> <r_epik_Charging_Adjusted_Penalty>
1.78741

> <i_epik_Tot_Q>
0

> <i_epik_Tot_abs_Q>
0

> <r_epik_Metal_State_Penalty>
1.73664

> <b_epik_Metal_Only>
0

> <s_lp_Force_Field>
OPLS_2005

> <r_lp_Energy>
17.6974

> <b_lp_Chiralities_Consistent>
1

> <s_lp_Variant>
AV-unprocessed.smi:766-5

> <Gold.Version>
5.8.1

> <Gold.Id.Protein>
6NUR|6NUR_protein|mol2

> <Gold.PLP.Fitness>
58.0854

> <Gold.PLP.PLP>
-47.8998

> <Gold.PLP.part.hbond>
-4.2805

> <Gold.PLP.part.metal>
0.0000

> <Gold.PLP.part.buried>
-4.9674

> <Gold.PLP.part.nonpolar>
-38.7622

> <Gold.PLP.part.repulsive>
0.0000

> <Gold.PLP.ligand.clash>
0.0000

> <Gold.PLP.ligand.torsion>
1.4927

> <Gold.PLP.Chemscore.Hbond>
3.3455

> <Gold.PLP.Chemscore.CHOScore>
1.0000

> <Gold.PLP.Chemscore.Metal>
0.0000

> <Gold.Chemscore.Hbonds>
donor molecule, donor type, donor heavy atom, donor atom, acceptor molecule, acceptor atom, score
      L1  H    10    32       P1  7957  0.81
      L1  H    12    35       P1  7948  0.66
      P1  H  7997  8009       L1     5  1.00
      P1  H  8011  8017       L1    10  0.85
      L1  C    16    40       P1  7948  1.00

> <Gold.PLP.Chemscore.Internal.Correction>
0.1346

> <Gold.Rescore>
     Score         DG    S(hbond)    S(metal)    S(lipo)     H(rot)  DE(clash)    DE(int)     intcor
     18.67     -20.43       2.52        0.00     117.97       2.83       0.23       1.52       ----

> <Gold.Chemscore.Fitness>
18.6704

> <Gold.Chemscore.DG>
-20.4288

> <Gold.Chemscore.ZeroCoef>
-5.4800

> <Gold.Chemscore.Hbond>
2.5160

> <Gold.Chemscore.Metal>
0.0000

> <Gold.Chemscore.Lipo>
117.9687

> <Gold.Chemscore.Internal_Hbond>
0.0000

> <Gold.Chemscore.DEClash>
0.2349

> <Gold.Chemscore.DEInternal>
1.5235

> <Gold.Chemscore.Rot>
2.8348

> <Gold.Chemscore.Internal.Correction>
   9.000000E+99

> <Gold.Chemscore.Hbonds>
donor molecule, donor type, donor heavy atom, donor atom, acceptor molecule, acceptor atom, score
      L1  H    10    32       P1  7957  0.77
      L1  H    12    35       P1  7948  0.65
      P1  H  7997  8009       L1     5  0.21
      P1  H  8011  8017       L1    10  0.15

> <Gold.Chemscore.Hbond.Weighted>
-8.4036

> <Gold.Chemscore.Metal.Weighted>
-0.0000

> <Gold.Chemscore.Lipo.Weighted>
-13.8023

> <Gold.Chemscore.Internal_Hbond.Weighted>
0.0000

> <Gold.Chemscore.DEClash.Weighted>
0.2349

> <Gold.Chemscore.DEInternal.Weighted>
1.5235

> <Gold.Chemscore.Rot.Weighted>
7.2572

> <Gold.Chemscore.Internal.Correction.Weighted>
   9.000000E+99

> <Gold.Protein.RotatedTorsions>
[ 6907 6896 6895 6894 ] final   97.79 input  -60.11 | X-H torsion
[ 7974 7965 7964 7962 ] final -126.12 input  175.53 | X-H torsion
[ 8008 7997 7996 7995 ] final  174.86 input   59.86 | X-H torsion
[ 10167 10162 10161 10158 ] final  -75.50 input  -65.29 | X-H torsion
[ 10718 10713 10712 10709 ] final -112.40 input   66.30 | X-H torsion
[ 10763 10752 10751 10750 ] final -130.78 input  -60.55 | X-H torsion
[ 11005 11000 10999 10996 ] final  -18.39 input  -57.11 | X-H torsion

> <Gold.Protein.ActiveResidues>
 VAL166  LYS551  ARG553  GLY616  TRP617  ASP618  TYR619  PRO620  LYS621  CYS622 
 ASP623  PHE694  ASN695  SER759  ASP760  ASP761  ALA762  ILE779  LEU786  VAL792 
 PHE793  MET794  SER795  GLU796  ALA797  LYS798  CYS799  TRP800  GLU811  SER814 

> <Gold.Protein.RotatedAtoms>
  152.5418  134.0680  159.8181 H   0  0  0  0  0  0  0  0  0  0  0  0  # atno 6907 bound_to 6896
  151.0798  133.5391  159.2628 H   0  0  0  0  0  0  0  0  0  0  0  0  # atno 6908 bound_to 6896
  151.2223  135.0531  159.9008 H   0  0  0  0  0  0  0  0  0  0  0  0  # atno 6909 bound_to 6896
  144.9906  140.7728  143.4557 H   0  0  0  0  0  0  0  0  0  0  0  0  # atno 7974 bound_to 7965
  156.0930  140.1423  156.9567 H   0  0  0  0  0  0  0  0  0  0  0  0  # atno 8008 bound_to 7997
  154.4654  140.0928  156.7052 H   0  0  0  0  0  0  0  0  0  0  0  0  # atno 8009 bound_to 7997
  155.4888  140.3447  155.4353 H   0  0  0  0  0  0  0  0  0  0  0  0  # atno 8010 bound_to 7997
  140.4937  143.2375  151.7865 H   0  0  0  0  0  0  0  0  0  0  0  0  # atno 10167 bound_to 10162
  156.0704  130.5918  150.8504 H   0  0  0  0  0  0  0  0  0  0  0  0  # atno 10718 bound_to 10713
  154.8754  135.3851  154.4139 H   0  0  0  0  0  0  0  0  0  0  0  0  # atno 10763 bound_to 10752
  153.4850  135.7030  153.5922 H   0  0  0  0  0  0  0  0  0  0  0  0  # atno 10764 bound_to 10752
  153.4321  135.3876  155.2144 H   0  0  0  0  0  0  0  0  0  0  0  0  # atno 10765 bound_to 10752
  140.8263  133.8030  155.9712 H   0  0  0  0  0  0  0  0  0  0  0  0  # atno 11005 bound_to 11000
  145.2292  139.2123  143.5052 LP  0  0  0  0  0  0  0  0  0  0  0  0  # atno 17320 bound_to 7965
  146.3430  140.2165  142.8591 LP  0  0  0  0  0  0  0  0  0  0  0  0  # atno 17321 bound_to 7965
  139.4857  144.4615  151.9536 LP  0  0  0  0  0  0  0  0  0  0  0  0  # atno 17342 bound_to 10162
  140.3702  144.2865  150.5921 LP  0  0  0  0  0  0  0  0  0  0  0  0  # atno 17343 bound_to 10162
  157.5771  131.0946  150.9329 LP  0  0  0  0  0  0  0  0  0  0  0  0  # atno 17370 bound_to 10713
  156.9533  130.5428  149.5283 LP  0  0  0  0  0  0  0  0  0  0  0  0  # atno 17371 bound_to 10713
  140.9045  134.2337  157.5022 LP  0  0  0  0  0  0  0  0  0  0  0  0  # atno 17394 bound_to 11000
  139.8706  134.9722  156.4764 LP  0  0  0  0  0  0  0  0  0  0  0  0  # atno 17395 bound_to 11000

$$$$
