AV-unprocessed.smi:2666|AV-procd|sdf|10333|dock7
  -GOLD-   2272014353D 1   1.00000     0.00000
 Structure written by MMmdl.
 43 44  0  0  0  0  0  0  0  0  1 V2000
  146.3644  137.6372  155.3698 O   0  0  0  0  0  0  0  0  0  0  0  0
  147.0469  137.2291  154.4308 C   0  0  0  0  0  0  0  0  0  0  0  0
  148.2211  137.7542  154.0411 N   0  0  0  0  0  0  0  0  0  0  0  0
  148.9375  138.8358  154.6210 C   0  0  0  0  0  0  0  0  0  0  0  0
  148.2250  139.7491  155.4252 C   0  0  0  0  0  0  0  0  0  0  0  0
  148.9088  140.8385  155.9977 C   0  0  0  0  0  0  0  0  0  0  0  0
  150.2849  140.9786  155.7332 C   0  0  0  0  0  0  0  0  0  0  0  0
  150.9789  140.1242  154.9522 N   0  0  0  0  0  0  0  0  0  0  0  0
  150.3171  139.0799  154.4083 C   0  0  0  0  0  0  0  0  0  0  0  0
  146.6922  136.2034  153.6419 N   0  0  0  0  0  0  0  0  0  0  0  0
  145.4661  135.4081  153.7581 C   0  0  1  0  0  0  0  0  0  0  0  0
  144.2694  136.3617  154.0061 C   0  0  0  0  0  0  0  0  0  0  0  0
  143.1437  135.7840  154.8849 C   0  0  0  0  0  0  0  0  0  0  0  0
  142.3275  136.8200  155.3892 O   0  0  0  0  0  0  0  0  0  0  0  0
  145.2956  134.5082  152.4991 C   0  0  0  0  0  0  0  0  0  0  0  0
  144.1106  133.5195  152.6319 C   0  0  0  0  0  0  0  0  0  0  0  0
  143.9559  132.6168  151.3970 C   0  0  0  0  0  0  0  0  0  0  0  0
  145.2483  131.8471  151.1004 C   0  0  0  0  0  0  0  0  0  0  0  0
  146.4252  132.8153  150.9329 C   0  0  0  0  0  0  0  0  0  0  0  0
  146.5869  133.7153  152.1680 C   0  0  0  0  0  0  0  0  0  0  0  0
  148.6215  137.3714  153.1973 H   0  0  0  0  0  0  0  0  0  0  0  0
  147.1685  139.6160  155.6081 H   0  0  0  0  0  0  0  0  0  0  0  0
  148.3912  141.5501  156.6237 H   0  0  0  0  0  0  0  0  0  0  0  0
  150.8413  141.8027  156.1548 H   0  0  0  0  0  0  0  0  0  0  0  0
  150.9180  138.4475  153.7736 H   0  0  0  0  0  0  0  0  0  0  0  0
  147.3215  135.9472  152.8956 H   0  0  0  0  0  0  0  0  0  0  0  0
  145.5412  134.7429  154.6201 H   0  0  0  0  0  0  0  0  0  0  0  0
  144.6367  137.2789  154.4680 H   0  0  0  0  0  0  0  0  0  0  0  0
  143.8203  136.6619  153.0605 H   0  0  0  0  0  0  0  0  0  0  0  0
  142.5298  135.0681  154.3383 H   0  0  0  0  0  0  0  0  0  0  0  0
  143.5742  135.2467  155.7302 H   0  0  0  0  0  0  0  0  0  0  0  0
  142.6349  137.6430  155.0409 H   0  0  0  0  0  0  0  0  0  0  0  0
  145.0866  135.1613  151.6503 H   0  0  0  0  0  0  0  0  0  0  0  0
  144.2458  132.9006  153.5198 H   0  0  0  0  0  0  0  0  0  0  0  0
  143.1723  134.0544  152.7683 H   0  0  0  0  0  0  0  0  0  0  0  0
  143.1344  131.9166  151.5499 H   0  0  0  0  0  0  0  0  0  0  0  0
  143.6866  133.2249  150.5325 H   0  0  0  0  0  0  0  0  0  0  0  0
  145.4571  131.1496  151.9128 H   0  0  0  0  0  0  0  0  0  0  0  0
  145.1269  131.2469  150.1982 H   0  0  0  0  0  0  0  0  0  0  0  0
  147.3443  132.2552  150.7588 H   0  0  0  0  0  0  0  0  0  0  0  0
  146.2677  133.4336  150.0482 H   0  0  0  0  0  0  0  0  0  0  0  0
  147.4214  134.3917  151.9843 H   0  0  0  0  0  0  0  0  0  0  0  0
  146.8713  133.1056  153.0267 H   0  0  0  0  0  0  0  0  0  0  0  0
  1  2  2  0  0  0  0
  2  3  1  0  0  0  0
  2 10  1  0  0  0  0
  3  4  1  0  0  0  0
  3 21  1  0  0  0  0
  4  9  1  0  0  0  0
  4  5  2  0  0  0  0
  5  6  1  0  0  0  0
  5 22  1  0  0  0  0
  6  7  2  0  0  0  0
  6 23  1  0  0  0  0
  7  8  1  0  0  0  0
  7 24  1  0  0  0  0
  8  9  2  0  0  0  0
  9 25  1  0  0  0  0
 10 11  1  0  0  0  0
 10 26  1  0  0  0  0
 11 12  1  0  0  0  0
 11 15  1  0  0  0  0
 11 27  1  0  0  0  0
 12 13  1  0  0  0  0
 12 28  1  0  0  0  0
 12 29  1  0  0  0  0
 13 14  1  0  0  0  0
 13 30  1  0  0  0  0
 13 31  1  0  0  0  0
 14 32  1  0  0  0  0
 15 20  1  0  0  0  0
 15 16  1  0  0  0  0
 15 33  1  0  0  0  0
 16 17  1  0  0  0  0
 16 34  1  0  0  0  0
 16 35  1  0  0  0  0
 17 18  1  0  0  0  0
 17 36  1  0  0  0  0
 17 37  1  0  0  0  0
 18 19  1  0  0  0  0
 18 38  1  0  0  0  0
 18 39  1  0  0  0  0
 19 20  1  0  0  0  0
 19 40  1  0  0  0  0
 19 41  1  0  0  0  0
 20 42  1  0  0  0  0
 20 43  1  0  0  0  0
M  END
> <s_m_source_file>
AV-unprocessed.smi

> <i_m_source_file_index>
2666

> <i_lp_mmshare_version>
43012

> <i_f3d_flags>
0

> <s_epik_input>
W2NIXTFuW2NIXVtjSF1bY0hdYzFbTkhdQyg9TylbTkhdW0NASF0oW0NIMl1bQ0gyXVtPSF0pW0NIXTJbQ0gyXVtDSDJdW0NIMl1bQ0gyXVtDSDJdMg==

> <s_epik_cmdline>
J2VwaWtfcHl0aG9uJywgJy1waCcsICc3LjAnLCAnLXRuJywgJzgnLCAnLW1hJywgJzIwMCcsICctbWV0YWxfYmluZGluZycsICctaW1hZScsICc8aW5maWxlLm1hZT4nLCAnLW9tYWUnLCAnPG91dGZpbGUubWFlPic=

> <r_epik_Ionization_Penalty>
0.00500145

> <r_epik_Ionization_Penalty_Charging>
0

> <r_epik_Ionization_Penalty_Neutral>
0.00500145

> <r_epik_State_Penalty>
0.00360517

> <r_epik_Charging_Adjusted_Penalty>
0.00360517

> <i_epik_Tot_Q>
0

> <i_epik_Tot_abs_Q>
0

> <r_epik_Metal_State_Penalty>
-0

> <b_epik_Metal_Only>
0

> <s_lp_Force_Field>
OPLS_2005

> <r_lp_Energy>
18.9025

> <b_lp_Chiralities_Consistent>
1

> <s_lp_Variant>
AV-unprocessed.smi:2666-2

> <Gold.Version>
5.8.1

> <Gold.Id.Protein>
6NUR|6NUR_protein|mol2

> <Gold.PLP.Fitness>
45.5436

> <Gold.PLP.PLP>
-35.0917

> <Gold.PLP.part.hbond>
-4.0000

> <Gold.PLP.part.metal>
0.0000

> <Gold.PLP.part.buried>
-4.7292

> <Gold.PLP.part.nonpolar>
-26.3699

> <Gold.PLP.part.repulsive>
0.1884

> <Gold.PLP.ligand.clash>
0.0000

> <Gold.PLP.ligand.torsion>
0.7844

> <Gold.PLP.Chemscore.Hbond>
3.9920

> <Gold.PLP.Chemscore.CHOScore>
0.0000

> <Gold.PLP.Chemscore.Metal>
0.0000

> <Gold.Chemscore.Hbonds>
donor molecule, donor type, donor heavy atom, donor atom, acceptor molecule, acceptor atom, score
      L1  H     3    21       P1  7948  1.00
      L1  H    10    26       P1  7948  1.00
      P1  H  7989  7998       L1     8  1.00

> <Gold.PLP.Chemscore.Internal.Correction>
0.0447

> <Gold.Rescore>
     Score         DG    S(hbond)    S(metal)    S(lipo)     H(rot)  DE(clash)    DE(int)     intcor
     16.31     -19.46       3.14        0.00      78.39       2.23       0.12       3.02       ----

> <Gold.Chemscore.Fitness>
16.3145

> <Gold.Chemscore.DG>
-19.4563

> <Gold.Chemscore.ZeroCoef>
-5.4800

> <Gold.Chemscore.Hbond>
3.1440

> <Gold.Chemscore.Metal>
0.0000

> <Gold.Chemscore.Lipo>
78.3891

> <Gold.Chemscore.Internal_Hbond>
0.0000

> <Gold.Chemscore.DEClash>
0.1213

> <Gold.Chemscore.DEInternal>
3.0205

> <Gold.Chemscore.Rot>
2.2251

> <Gold.Chemscore.Internal.Correction>
   9.000000E+99

> <Gold.Chemscore.Hbonds>
donor molecule, donor type, donor heavy atom, donor atom, acceptor molecule, acceptor atom, score
      L1  H     3    21       P1  7948  1.00
      L1  H    10    26       P1  7948  0.95
      P1  H  7989  7998       L1     8  0.23

> <Gold.Chemscore.Hbond.Weighted>
-10.5009

> <Gold.Chemscore.Metal.Weighted>
-0.0000

> <Gold.Chemscore.Lipo.Weighted>
-9.1715

> <Gold.Chemscore.Internal_Hbond.Weighted>
0.0000

> <Gold.Chemscore.DEClash.Weighted>
0.1213

> <Gold.Chemscore.DEInternal.Weighted>
3.0205

> <Gold.Chemscore.Rot.Weighted>
5.6962

> <Gold.Chemscore.Internal.Correction.Weighted>
   9.000000E+99

> <Gold.Protein.RotatedTorsions>
[ 6907 6896 6895 6894 ] final  -78.29 input  -60.11 | X-H torsion
[ 7974 7965 7964 7962 ] final   -3.45 input  175.53 | X-H torsion
[ 8008 7997 7996 7995 ] final   10.99 input   59.86 | X-H torsion
[ 10167 10162 10161 10158 ] final  106.63 input  -65.29 | X-H torsion
[ 10718 10713 10712 10709 ] final  172.37 input   66.30 | X-H torsion
[ 10763 10752 10751 10750 ] final  -37.64 input  -60.55 | X-H torsion
[ 11005 11000 10999 10996 ] final   83.92 input  -57.11 | X-H torsion

> <Gold.Protein.ActiveResidues>
 VAL166  LYS551  ARG553  GLY616  TRP617  ASP618  TYR619  PRO620  LYS621  CYS622 
 ASP623  PHE694  ASN695  SER759  ASP760  ASP761  ALA762  ILE779  LEU786  VAL792 
 PHE793  MET794  SER795  GLU796  ALA797  LYS798  CYS799  TRP800  GLU811  SER814 

> <Gold.Protein.RotatedAtoms>
  150.6976  134.4294  159.5241 H   0  0  0  0  0  0  0  0  0  0  0  0  # atno 6907 bound_to 6896
  152.2023  134.8574  160.0515 H   0  0  0  0  0  0  0  0  0  0  0  0  # atno 6908 bound_to 6896
  151.9489  133.3625  159.4029 H   0  0  0  0  0  0  0  0  0  0  0  0  # atno 6909 bound_to 6896
  146.2389  140.1722  142.8332 H   0  0  0  0  0  0  0  0  0  0  0  0  # atno 7974 bound_to 7965
  154.8009  140.2852  155.5922 H   0  0  0  0  0  0  0  0  0  0  0  0  # atno 8008 bound_to 7997
  156.2977  140.2586  156.2806 H   0  0  0  0  0  0  0  0  0  0  0  0  # atno 8009 bound_to 7997
  154.9559  140.0378  157.2156 H   0  0  0  0  0  0  0  0  0  0  0  0  # atno 8010 bound_to 7997
  139.6993  144.7096  151.1213 H   0  0  0  0  0  0  0  0  0  0  0  0  # atno 10167 bound_to 10162
  156.9799  131.0116  151.2884 H   0  0  0  0  0  0  0  0  0  0  0  0  # atno 10718 bound_to 10713
  153.8996  135.6804  153.4756 H   0  0  0  0  0  0  0  0  0  0  0  0  # atno 10763 bound_to 10752
  153.1137  135.4771  154.9076 H   0  0  0  0  0  0  0  0  0  0  0  0  # atno 10764 bound_to 10752
  154.7582  135.3203  154.8383 H   0  0  0  0  0  0  0  0  0  0  0  0  # atno 10765 bound_to 10752
  139.9016  134.8179  156.2375 H   0  0  0  0  0  0  0  0  0  0  0  0  # atno 11005 bound_to 11000
  145.0002  140.8625  143.5286 LP  0  0  0  0  0  0  0  0  0  0  0  0  # atno 17320 bound_to 7965
  145.1741  139.2388  143.5327 LP  0  0  0  0  0  0  0  0  0  0  0  0  # atno 17321 bound_to 7965
  140.7705  143.5447  150.9273 LP  0  0  0  0  0  0  0  0  0  0  0  0  # atno 17342 bound_to 10162
  139.9128  143.6700  152.3112 LP  0  0  0  0  0  0  0  0  0  0  0  0  # atno 17343 bound_to 10162
  157.5533  130.8197  149.8173 LP  0  0  0  0  0  0  0  0  0  0  0  0  # atno 17370 bound_to 10713
  156.0248  130.3783  150.1854 LP  0  0  0  0  0  0  0  0  0  0  0  0  # atno 17371 bound_to 10713
  141.0306  133.6991  156.1423 LP  0  0  0  0  0  0  0  0  0  0  0  0  # atno 17394 bound_to 11000
  140.7102  134.4470  157.5582 LP  0  0  0  0  0  0  0  0  0  0  0  0  # atno 17395 bound_to 11000

$$$$
