#       Name:                AV-unprocessed.smi:365
#       Creating user name   scv26
#       Creation time:       Thu Mar 26 22:36:40 2020


#       File generated by GOLD software.
#

@<TRIPOS>MOLECULE
AV-unprocessed.smi:365
    61    62     1
SMALL
NO_CHARGES


@<TRIPOS>ATOM
      1 ****        -2.7544  -1.2761   4.4016 C.3            1 S1                 0.0000
      2 ****        -2.3491  -0.5572   3.1043 C.3            1 S1                 0.0000
      3 ****        -2.8567  -1.3346   1.9757 N.am           1 S1                 0.0000
      4 ****        -3.0019  -0.8807   0.7180 C.2            1 S1                 0.0000
      5 ****        -2.7348   0.2814   0.4071 O.2            1 S1                 0.0000
      6 ****        -3.5111  -1.8646  -0.3627 C.3            1 S1                 0.0000
      7 ****        -2.3989  -2.0521  -1.4144 C.3            1 S1                 0.0000
      8 ****        -4.7535  -1.2556  -1.0455 C.3            1 S1                 0.0000
      9 ****        -3.8905  -3.2454   0.2236 C.3            1 S1                 0.0000
     10 ****        -0.8154  -0.4807   3.0468 C.2            1 S1                 0.0000
     11 ****        -0.1440  -1.4941   2.8455 O.2            1 S1                 0.0000
     12 ****        -0.2767   0.7352   3.2227 N.am           1 S1                 0.0000
     13 ****         1.1501   1.0349   3.1591 C.3            1 S1                 0.0000
     14 ****         1.7219   1.1263   1.7495 C.ar           1 S1                 0.0000
     15 ****         3.1053   0.9671   1.5428 C.ar           1 S1                 0.0000
     16 ****         3.6236   1.0671   0.2375 C.ar           1 S1                 0.0000
     17 ****         2.7408   1.3311  -0.8413 C.ar           1 S1                 0.0000
     18 ****         3.1936   1.4398  -2.1775 N.3            1 S1                 0.0000
     19 ****         2.5954   2.5005  -2.9896 C.3            1 S1                 0.0000
     20 ****         2.9156   2.2925  -4.4794 C.3            1 S1                 0.0000
     21 ****         4.3225   2.1788  -4.6589 O.3            1 S1                 0.0000
     22 ****         4.8466   1.0499  -3.9702 C.3            1 S1                 0.0000
     23 ****         4.6079   1.2030  -2.4585 C.3            1 S1                 0.0000
     24 ****         1.4100   1.4848  -0.6345 N.ar           1 S1                 0.0000
     25 ****         0.9186   1.3883   0.6183 C.ar           1 S1                 0.0000
     26 ****        -2.3927  -0.7407   5.2803 H              1 S1                 0.0000
     27 ****        -2.3603  -2.2926   4.4450 H              1 S1                 0.0000
     28 ****        -3.8397  -1.3409   4.4863 H              1 S1                 0.0000
     29 ****        -2.7825   0.4450   3.0918 H              1 S1                 0.0000
     30 ****        -3.0867  -2.3007   2.1571 H              1 S1                 0.0000
     31 ****        -2.7168  -2.7291  -2.2081 H              1 S1                 0.0000
     32 ****        -1.4962  -2.4731  -0.9689 H              1 S1                 0.0000
     33 ****        -2.1221  -1.1083  -1.8867 H              1 S1                 0.0000
     34 ****        -4.5273  -0.3042  -1.5293 H              1 S1                 0.0000
     35 ****        -5.5566  -1.0777  -0.3288 H              1 S1                 0.0000
     36 ****        -5.1458  -1.9212  -1.8151 H              1 S1                 0.0000
     37 ****        -4.2576  -3.9137  -0.5561 H              1 S1                 0.0000
     38 ****        -4.6793  -3.1641   0.9730 H              1 S1                 0.0000
     39 ****        -3.0350  -3.7380   0.6882 H              1 S1                 0.0000
     40 ****        -0.9007   1.5124   3.3838 H              1 S1                 0.0000
     41 ****         1.3153   1.9913   3.6553 H              1 S1                 0.0000
     42 ****         1.7073   0.2912   3.7315 H              1 S1                 0.0000
     43 ****         3.7662   0.7713   2.3746 H              1 S1                 0.0000
     44 ****         4.6871   0.9489   0.0984 H              1 S1                 0.0000
     45 ****         1.5124   2.5374  -2.8725 H              1 S1                 0.0000
     46 ****         2.9863   3.4617  -2.6538 H              1 S1                 0.0000
     47 ****         2.4148   1.4024  -4.8640 H              1 S1                 0.0000
     48 ****         2.5508   3.1383  -5.0623 H              1 S1                 0.0000
     49 ****         4.3860   0.1348  -4.3459 H              1 S1                 0.0000
     50 ****         5.9146   0.9740  -4.1742 H              1 S1                 0.0000
     51 ****         5.1963   2.0337  -2.0672 H              1 S1                 0.0000
     52 ****         4.9469   0.2932  -1.9626 H              1 S1                 0.0000
     53 ****        -0.1480   1.5309   0.7094 H              1 S1                 0.0000
     54 ****        -2.3986   0.9196   1.0997 LP             1 S1                 0.0000
     55 ****        -2.8543   0.5862  -0.5377 LP             1 S1                 0.0000
     56 ****        -0.5967  -2.3766   2.7178 LP             1 S1                 0.0000
     57 ****         0.8535  -1.4341   2.8098 LP             1 S1                 0.0000
     58 ****         2.7785   0.5968  -2.5196 LP             1 S1                 0.0000
     59 ****         4.7625   3.0058  -4.3091 LP             1 S1                 0.0000
     60 ****         4.5189   2.0840  -5.6348 LP             1 S1                 0.0000
     61 ****         0.7978   1.6681  -1.4037 LP             1 S1                 0.0000
@<TRIPOS>BOND
    1    1    2 1     
    2    1   26 1     
    3    1   27 1     
    4    1   28 1     
    5    2    3 1     
    6    2   10 1     
    7    2   29 1     
    8    3    4 am    
    9    3   30 1     
   10    4    5 2     
   11    4    6 1     
   12    6    7 1     
   13    6    8 1     
   14    6    9 1     
   15    7   31 1     
   16    7   32 1     
   17    7   33 1     
   18    8   34 1     
   19    8   35 1     
   20    8   36 1     
   21    9   37 1     
   22    9   38 1     
   23    9   39 1     
   24   10   11 2     
   25   10   12 am    
   26   12   13 1     
   27   12   40 1     
   28   13   14 1     
   29   13   41 1     
   30   13   42 1     
   31   14   25 ar    
   32   14   15 ar    
   33   15   16 ar    
   34   15   43 1     
   35   16   17 ar    
   36   16   44 1     
   37   17   18 1     
   38   17   24 ar    
   39   18   23 1     
   40   18   19 1     
   41   19   20 1     
   42   19   45 1     
   43   19   46 1     
   44   20   21 1     
   45   20   47 1     
   46   20   48 1     
   47   21   22 1     
   48   22   23 1     
   49   22   49 1     
   50   22   50 1     
   51   23   51 1     
   52   23   52 1     
   53   24   25 ar    
   54   25   53 1     
   55    5   54 1     
   56    5   55 1     
   57   11   56 1     
   58   11   57 1     
   59   18   58 1     
   60   21   59 1     
   61   21   60 1     
   62   24   61 1     
@<TRIPOS>SUBSTRUCTURE
      1 S1             1
@<TRIPOS>SET
LONE_PAIRS      STATIC     ATOMS    <user>   **** ""
8 54 55 56 57 58 59 60 61
DONOR_HYDROGENS      STATIC     ATOMS    <user>   **** ""
2 30 40
ATOM$BLUE        STATIC     ATOMS    COLORGROUP SYSTEM
8 54 55 56 57 58 59 60 61
ATOM$RED        STATIC     ATOMS    COLORGROUP SYSTEM
2 30 40
