AV-unprocessed.smi:261|AV-procd|sdf|1993|dock8
  -GOLD-   2262021183D 1   1.00000     0.00000
 Structure written by MMmdl.
 51 54  0  0  0  0  0  0  0  0  1 V2000
  149.2110  131.8367  153.8690 C   0  0  0  0  0  0  0  0  0  0  0  0
  149.6073  132.1109  155.2028 O   0  0  0  0  0  0  0  0  0  0  0  0
  149.1200  133.3503  155.6962 C   0  0  1  0  0  0  0  0  0  0  0  0
  149.4824  133.6075  157.1612 C   0  0  0  0  0  0  0  0  0  0  0  0
  149.4405  135.1401  157.2968 C   0  0  2  0  0  0  0  0  0  0  0  0
  148.0478  135.6285  157.7492 C   0  0  0  0  0  0  0  0  0  0  0  0
  147.8334  136.9426  157.8746 N   0  0  0  0  0  0  0  0  0  0  0  0
  147.1660  134.8088  157.9957 O   0  0  0  0  0  0  0  0  0  0  0  0
  149.8265  135.6045  155.9613 N   0  0  0  0  0  0  0  0  0  0  0  0
  150.4208  136.8014  155.6933 C   0  0  0  0  0  0  0  0  0  0  0  0
  150.8359  137.0298  154.4185 N   0  0  0  0  0  0  0  0  0  0  0  0
  151.4243  138.1808  154.0842 C   0  0  0  0  0  0  0  0  0  0  0  0
  151.6925  139.2333  154.8562 N   0  0  0  0  0  0  0  0  0  0  0  0
  151.2774  139.0213  156.1369 C   0  0  0  0  0  0  0  0  0  0  0  0
  150.6384  137.8498  156.6402 C   0  0  0  0  0  0  0  0  0  0  0  0
  150.3672  138.0236  157.9941 N   0  0  0  0  0  0  0  0  0  0  0  0
  150.8199  139.2147  158.2724 C   0  0  0  0  0  0  0  0  0  0  0  0
  151.3847  139.8834  157.2127 N   0  0  0  0  0  0  0  0  0  0  0  0
  151.9676  141.2134  157.2287 C   0  0  0  0  0  0  0  0  0  0  0  0
  150.9464  142.2962  157.6303 C   0  0  2  0  0  0  0  0  0  0  0  0
  150.1058  142.5712  156.5254 O   0  0  0  0  0  0  0  0  0  0  0  0
  151.6238  143.6038  158.0817 C   0  0  1  0  0  0  0  0  0  0  0  0
  150.6519  144.6758  158.5837 C   0  0  0  0  0  0  0  0  0  0  0  0
  151.5201  145.4668  159.5340 C   0  0  0  0  0  0  0  0  0  0  0  0
  152.3393  144.3588  160.1849 C   0  0  0  0  0  0  0  0  0  0  0  0
  152.4965  143.3571  159.1843 O   0  0  0  0  0  0  0  0  0  0  0  0
  149.7999  134.5199  154.9845 C   0  0  0  0  0  0  0  0  0  0  0  0
  148.0398  133.4275  155.5576 H   0  0  0  0  0  0  0  0  0  0  0  0
  150.1764  135.4379  158.0436 H   0  0  0  0  0  0  0  0  0  0  0  0
  149.6419  130.8877  153.5499 H   0  0  0  0  0  0  0  0  0  0  0  0
  149.5627  132.6110  153.1861 H   0  0  0  0  0  0  0  0  0  0  0  0
  148.1273  131.7566  153.7801 H   0  0  0  0  0  0  0  0  0  0  0  0
  148.8220  133.0869  157.8560 H   0  0  0  0  0  0  0  0  0  0  0  0
  150.4969  133.2557  157.3550 H   0  0  0  0  0  0  0  0  0  0  0  0
  146.9274  137.2778  158.1688 H   0  0  0  0  0  0  0  0  0  0  0  0
  148.5783  137.5939  157.6737 H   0  0  0  0  0  0  0  0  0  0  0  0
  151.7226  138.2706  153.0500 H   0  0  0  0  0  0  0  0  0  0  0  0
  150.7563  139.6380  159.2643 H   0  0  0  0  0  0  0  0  0  0  0  0
  152.8056  141.2039  157.9267 H   0  0  0  0  0  0  0  0  0  0  0  0
  152.3857  141.4259  156.2436 H   0  0  0  0  0  0  0  0  0  0  0  0
  150.3223  141.9189  158.4417 H   0  0  0  0  0  0  0  0  0  0  0  0
  149.8591  143.4827  156.5559 H   0  0  0  0  0  0  0  0  0  0  0  0
  152.2277  144.0181  157.2723 H   0  0  0  0  0  0  0  0  0  0  0  0
  150.2361  145.2831  157.7791 H   0  0  0  0  0  0  0  0  0  0  0  0
  149.8243  144.2215  159.1305 H   0  0  0  0  0  0  0  0  0  0  0  0
  152.1712  146.1418  158.9765 H   0  0  0  0  0  0  0  0  0  0  0  0
  150.9486  146.0543  160.2531 H   0  0  0  0  0  0  0  0  0  0  0  0
  153.3030  144.7121  160.5525 H   0  0  0  0  0  0  0  0  0  0  0  0
  151.7936  143.9257  161.0242 H   0  0  0  0  0  0  0  0  0  0  0  0
  150.8247  134.2603  154.7134 H   0  0  0  0  0  0  0  0  0  0  0  0
  149.2636  134.7984  154.0762 H   0  0  0  0  0  0  0  0  0  0  0  0
  1  2  1  0  0  0  0
  1 30  1  0  0  0  0
  1 31  1  0  0  0  0
  1 32  1  0  0  0  0
  2  3  1  0  0  0  0
  3 28  1  0  0  0  0
  3 27  1  0  0  0  0
  3  4  1  0  0  0  0
  4  5  1  0  0  0  0
  4 33  1  0  0  0  0
  4 34  1  0  0  0  0
  5 29  1  0  0  0  0
  5  6  1  0  0  0  0
  5  9  1  0  0  0  0
  6  7  1  0  0  0  0
  6  8  2  0  0  0  0
  7 35  1  0  0  0  0
  7 36  1  0  0  0  0
  9 10  1  0  0  0  0
  9 27  1  0  0  0  0
 10 15  1  0  0  0  0
 10 11  2  0  0  0  0
 11 12  1  0  0  0  0
 12 13  2  0  0  0  0
 12 37  1  0  0  0  0
 13 14  1  0  0  0  0
 14 18  1  0  0  0  0
 14 15  2  0  0  0  0
 15 16  1  0  0  0  0
 16 17  2  0  0  0  0
 17 18  1  0  0  0  0
 17 38  1  0  0  0  0
 18 19  1  0  0  0  0
 19 20  1  0  0  0  0
 19 39  1  0  0  0  0
 19 40  1  0  0  0  0
 20 21  1  0  0  0  0
 20 22  1  0  0  0  0
 20 41  1  0  0  0  0
 21 42  1  0  0  0  0
 22 26  1  0  0  0  0
 22 23  1  0  0  0  0
 22 43  1  0  0  0  0
 23 24  1  0  0  0  0
 23 44  1  0  0  0  0
 23 45  1  0  0  0  0
 24 25  1  0  0  0  0
 24 46  1  0  0  0  0
 24 47  1  0  0  0  0
 25 26  1  0  0  0  0
 25 48  1  0  0  0  0
 25 49  1  0  0  0  0
 27 50  1  0  0  0  0
 27 51  1  0  0  0  0
M  END
> <s_m_source_file>
AV-unprocessed.smi

> <i_m_source_file_index>
261

> <i_lp_mmshare_version>
43012

> <i_f3d_flags>
0

> <s_epik_input>
W0NIM11PW0NASF0xW0NIMl1bQ0BASF0oQyg9TylbTkgyXSlOKFtDSDJdMSljKG5bY0hdbjIpYyhjMjMpbltjSF1uM1tDSDJdW0NASF0oW09IXSlbQ0BASF00W0NIMl1bQ0gyXVtDSDJdTzQ=

> <s_epik_cmdline>
J2VwaWtfcHl0aG9uJywgJy1waCcsICc3LjAnLCAnLXRuJywgJzgnLCAnLW1hJywgJzIwMCcsICctbWV0YWxfYmluZGluZycsICctaW1hZScsICc8aW5maWxlLm1hZT4nLCAnLW9tYWUnLCAnPG91dGZpbGUubWFlPic=

> <r_lp_tautomer_probability>
1

> <r_epik_Ionization_Penalty>
0.000713824

> <r_epik_Ionization_Penalty_Charging>
0

> <r_epik_Ionization_Penalty_Neutral>
0.000713824

> <r_epik_State_Penalty>
0.000402132

> <r_epik_Charging_Adjusted_Penalty>
0.000402132

> <i_epik_Tot_Q>
0

> <i_epik_Tot_abs_Q>
0

> <r_epik_Metal_State_Penalty>
-0

> <b_epik_Metal_Only>
0

> <s_lp_Force_Field>
OPLS_2005

> <r_lp_Energy>
43.0256

> <b_lp_Chiralities_Consistent>
1

> <s_lp_Variant>
AV-unprocessed.smi:261-11

> <Gold.Version>
5.8.1

> <Gold.Id.Protein>
6NUR|6NUR_protein|mol2

> <Gold.PLP.Fitness>
41.9753

> <Gold.PLP.PLP>
-36.7833

> <Gold.PLP.part.hbond>
-1.9230

> <Gold.PLP.part.metal>
0.0000

> <Gold.PLP.part.buried>
-9.2067

> <Gold.PLP.part.nonpolar>
-26.7952

> <Gold.PLP.part.repulsive>
0.4154

> <Gold.PLP.ligand.clash>
0.0000

> <Gold.PLP.ligand.torsion>
0.2162

> <Gold.PLP.Chemscore.Hbond>
1.6445

> <Gold.PLP.Chemscore.CHOScore>
0.1921

> <Gold.PLP.Chemscore.Metal>
0.0000

> <Gold.Chemscore.Hbonds>
donor molecule, donor type, donor heavy atom, donor atom, acceptor molecule, acceptor atom, score
      L1  H    21    42       P1  8028  0.85
      P1  H  7989  7998       L1    13  0.78
      L1  C    12    37       P1  7949  0.21

> <Gold.PLP.Chemscore.Internal.Correction>
0.1146

> <Gold.Rescore>
     Score         DG    S(hbond)    S(metal)    S(lipo)     H(rot)  DE(clash)    DE(int)     intcor
      9.56     -11.97       1.42        0.00      84.58       3.18       0.94       1.47       ----

> <Gold.Chemscore.Fitness>
9.5565

> <Gold.Chemscore.DG>
-11.9692

> <Gold.Chemscore.ZeroCoef>
-5.4800

> <Gold.Chemscore.Hbond>
1.4197

> <Gold.Chemscore.Metal>
0.0000

> <Gold.Chemscore.Lipo>
84.5814

> <Gold.Chemscore.Internal_Hbond>
0.0000

> <Gold.Chemscore.DEClash>
0.9420

> <Gold.Chemscore.DEInternal>
1.4707

> <Gold.Chemscore.Rot>
3.1831

> <Gold.Chemscore.Internal.Correction>
   9.000000E+99

> <Gold.Chemscore.Hbonds>
donor molecule, donor type, donor heavy atom, donor atom, acceptor molecule, acceptor atom, score
      L1  H    21    42       P1  8028  0.83
      P1  H  7989  7998       L1    13  0.30

> <Gold.Chemscore.Hbond.Weighted>
-4.7418

> <Gold.Chemscore.Metal.Weighted>
-0.0000

> <Gold.Chemscore.Lipo.Weighted>
-9.8960

> <Gold.Chemscore.Internal_Hbond.Weighted>
0.0000

> <Gold.Chemscore.DEClash.Weighted>
0.9420

> <Gold.Chemscore.DEInternal.Weighted>
1.4707

> <Gold.Chemscore.Rot.Weighted>
8.1486

> <Gold.Chemscore.Internal.Correction.Weighted>
   9.000000E+99

> <Gold.Protein.RotatedTorsions>
[ 6907 6896 6895 6894 ] final  -34.03 input  -60.11 | X-H torsion
[ 7974 7965 7964 7962 ] final -146.05 input  175.53 | X-H torsion
[ 8008 7997 7996 7995 ] final -151.22 input   59.86 | X-H torsion
[ 10167 10162 10161 10158 ] final  159.36 input  -65.29 | X-H torsion
[ 10718 10713 10712 10709 ] final  142.21 input   66.30 | X-H torsion
[ 10763 10752 10751 10750 ] final   69.09 input  -60.55 | X-H torsion
[ 11005 11000 10999 10996 ] final -141.99 input  -57.11 | X-H torsion

> <Gold.Protein.ActiveResidues>
 VAL166  LYS551  ARG553  GLY616  TRP617  ASP618  TYR619  PRO620  LYS621  CYS622 
 ASP623  PHE694  ASN695  SER759  ASP760  ASP761  ALA762  ILE779  LEU786  VAL792 
 PHE793  MET794  SER795  GLU796  ALA797  LYS798  CYS799  TRP800  GLU811  SER814 

> <Gold.Protein.RotatedAtoms>
  151.0579  134.9717  159.8244 H   0  0  0  0  0  0  0  0  0  0  0  0  # atno 6907 bound_to 6896
  152.5391  134.2455  159.8888 H   0  0  0  0  0  0  0  0  0  0  0  0  # atno 6908 bound_to 6896
  151.2473  133.4325  159.2643 H   0  0  0  0  0  0  0  0  0  0  0  0  # atno 6909 bound_to 6896
  144.8186  140.5506  143.5594 H   0  0  0  0  0  0  0  0  0  0  0  0  # atno 7974 bound_to 7965
  155.6360  140.0696  157.2634 H   0  0  0  0  0  0  0  0  0  0  0  0  # atno 8008 bound_to 7997
  154.4195  140.1759  156.1571 H   0  0  0  0  0  0  0  0  0  0  0  0  # atno 8009 bound_to 7997
  155.9895  140.3346  155.6742 H   0  0  0  0  0  0  0  0  0  0  0  0  # atno 8010 bound_to 7997
  139.4832  144.4737  151.8540 H   0  0  0  0  0  0  0  0  0  0  0  0  # atno 10167 bound_to 10162
  157.3832  131.0995  151.0719 H   0  0  0  0  0  0  0  0  0  0  0  0  # atno 10718 bound_to 10713
  153.0269  135.5223  154.7235 H   0  0  0  0  0  0  0  0  0  0  0  0  # atno 10763 bound_to 10752
  154.6284  135.2897  155.0248 H   0  0  0  0  0  0  0  0  0  0  0  0  # atno 10764 bound_to 10752
  154.1209  135.6608  153.4955 H   0  0  0  0  0  0  0  0  0  0  0  0  # atno 10765 bound_to 10752
  140.8270  134.2563  157.4874 H   0  0  0  0  0  0  0  0  0  0  0  0  # atno 11005 bound_to 11000
  145.5157  139.1478  143.3580 LP  0  0  0  0  0  0  0  0  0  0  0  0  # atno 17320 bound_to 7965
  146.2490  140.5298  142.8901 LP  0  0  0  0  0  0  0  0  0  0  0  0  # atno 17321 bound_to 7965
  140.4208  144.2246  150.5887 LP  0  0  0  0  0  0  0  0  0  0  0  0  # atno 17342 bound_to 10162
  140.4875  143.2358  151.8866 LP  0  0  0  0  0  0  0  0  0  0  0  0  # atno 17343 bound_to 10162
  157.1780  130.6296  149.5662 LP  0  0  0  0  0  0  0  0  0  0  0  0  # atno 17370 bound_to 10713
  155.9780  130.4763  150.6631 LP  0  0  0  0  0  0  0  0  0  0  0  0  # atno 17371 bound_to 10713
  139.8706  134.9565  156.4241 LP  0  0  0  0  0  0  0  0  0  0  0  0  # atno 17394 bound_to 11000
  140.9039  133.7760  155.9712 LP  0  0  0  0  0  0  0  0  0  0  0  0  # atno 17395 bound_to 11000

$$$$
