AV-unprocessed.smi:2781|AV-procd|sdf|10717|dock6
  -GOLD-   2272015153D 1   1.00000     0.00000
 Structure written by MMmdl.
 35 38  0  0  0  0  0  0  0  0  1 V2000
  150.6632  140.5921  156.0653 O   0  0  0  0  0  0  0  0  0  0  0  0
  150.0423  141.6480  155.9375 C   0  0  0  0  0  0  0  0  0  0  0  0
  148.9736  141.8290  155.1411 N   0  0  0  0  0  0  0  0  0  0  0  0
  148.3453  140.8855  154.2853 C   0  0  0  0  0  0  0  0  0  0  0  0
  147.3908  141.4283  153.3949 C   0  0  0  0  0  0  0  0  0  0  0  0
  146.7122  140.5761  152.5019 C   0  0  0  0  0  0  0  0  0  0  0  0
  147.0076  139.2016  152.5234 C   0  0  0  0  0  0  0  0  0  0  0  0
  146.3812  138.3436  151.6837 F   0  0  0  0  0  0  0  0  0  0  0  0
  147.9713  138.7415  153.4396 C   0  0  0  0  0  0  0  0  0  0  0  0
  148.6221  139.5573  154.2962 N   0  0  0  0  0  0  0  0  0  0  0  0
  150.3551  142.7761  156.5898 N   0  0  0  0  0  0  0  0  0  0  0  0
  151.4318  142.9282  157.5142 C   0  0  2  0  0  0  0  0  0  0  0  0
  151.0720  142.9938  158.9906 C   0  0  1  0  0  0  0  0  0  0  0  0
  152.0533  142.8824  160.1538 C   0  0  2  0  0  0  0  0  0  0  0  0
  151.7035  143.9846  161.1747 C   0  0  0  0  0  0  0  0  0  0  0  0
  152.1495  145.2737  160.4415 C   0  0  0  0  0  0  0  0  0  0  0  0
  152.6947  144.7259  159.1060 C   0  0  1  0  0  0  0  0  0  0  0  0
  153.3640  143.4414  159.5978 C   0  0  0  0  0  0  0  0  0  0  0  0
  151.5066  144.2401  158.2808 C   0  0  1  0  0  0  0  0  0  0  0  0
  148.5624  142.7505  155.1465 H   0  0  0  0  0  0  0  0  0  0  0  0
  147.1770  142.4871  153.3924 H   0  0  0  0  0  0  0  0  0  0  0  0
  145.9793  140.9709  151.8140 H   0  0  0  0  0  0  0  0  0  0  0  0
  148.2268  137.6932  153.4871 H   0  0  0  0  0  0  0  0  0  0  0  0
  149.7877  143.5936  156.4208 H   0  0  0  0  0  0  0  0  0  0  0  0
  152.3707  142.4488  157.2468 H   0  0  0  0  0  0  0  0  0  0  0  0
  150.0191  142.9016  159.2520 H   0  0  0  0  0  0  0  0  0  0  0  0
  152.1083  141.8749  160.5664 H   0  0  0  0  0  0  0  0  0  0  0  0
  150.6423  143.9940  161.4261 H   0  0  0  0  0  0  0  0  0  0  0  0
  152.2660  143.8533  162.1001 H   0  0  0  0  0  0  0  0  0  0  0  0
  151.3268  145.9748  160.2952 H   0  0  0  0  0  0  0  0  0  0  0  0
  152.9312  145.7863  161.0037 H   0  0  0  0  0  0  0  0  0  0  0  0
  153.3399  145.4119  158.5568 H   0  0  0  0  0  0  0  0  0  0  0  0
  154.1236  143.6119  160.3637 H   0  0  0  0  0  0  0  0  0  0  0  0
  153.8118  142.8380  158.8089 H   0  0  0  0  0  0  0  0  0  0  0  0
  150.7475  144.9890  158.0614 H   0  0  0  0  0  0  0  0  0  0  0  0
  1  2  2  0  0  0  0
  2  3  1  0  0  0  0
  2 11  1  0  0  0  0
  3  4  1  0  0  0  0
  3 20  1  0  0  0  0
  4 10  1  0  0  0  0
  4  5  2  0  0  0  0
  5  6  1  0  0  0  0
  5 21  1  0  0  0  0
  6  7  2  0  0  0  0
  6 22  1  0  0  0  0
  7  8  1  0  0  0  0
  7  9  1  0  0  0  0
  9 10  2  0  0  0  0
  9 23  1  0  0  0  0
 11 12  1  0  0  0  0
 11 24  1  0  0  0  0
 12 19  1  0  0  0  0
 12 13  1  0  0  0  0
 12 25  1  0  0  0  0
 13 19  1  0  0  0  0
 13 14  1  0  0  0  0
 13 26  1  0  0  0  0
 14 18  1  0  0  0  0
 14 15  1  0  0  0  0
 14 27  1  0  0  0  0
 15 16  1  0  0  0  0
 15 28  1  0  0  0  0
 15 29  1  0  0  0  0
 16 17  1  0  0  0  0
 16 30  1  0  0  0  0
 16 31  1  0  0  0  0
 17 18  1  0  0  0  0
 17 19  1  0  0  0  0
 17 32  1  0  0  0  0
 18 33  1  0  0  0  0
 18 34  1  0  0  0  0
 19 35  1  0  0  0  0
M  END
> <s_m_source_file>
AV-unprocessed.smi

> <i_m_source_file_index>
2781

> <i_lp_mmshare_version>
43012

> <i_f3d_flags>
0

> <s_epik_input>
bjFbY0hdYyhGKVtjSF1bY0hdYzFbTkhdQyg9TylbTkhdW0NASF0yW0NAQEhdM1tDQEhdKFtDSDJdNClbQ0gyXVtDSDJdW0NASF00W0NASF0yMw==

> <s_epik_cmdline>
J2VwaWtfcHl0aG9uJywgJy1waCcsICc3LjAnLCAnLXRuJywgJzgnLCAnLW1hJywgJzIwMCcsICctbWV0YWxfYmluZGluZycsICctaW1hZScsICc8aW5maWxlLm1hZT4nLCAnLW9tYWUnLCAnPG91dGZpbGUubWFlPic=

> <r_lp_tautomer_probability>
1

> <r_epik_Ionization_Penalty>
4.05776e-05

> <r_epik_Ionization_Penalty_Charging>
0

> <r_epik_Ionization_Penalty_Neutral>
4.05776e-05

> <r_epik_State_Penalty>
-0

> <r_epik_Charging_Adjusted_Penalty>
0

> <i_epik_Tot_Q>
0

> <i_epik_Tot_abs_Q>
0

> <r_epik_Metal_State_Penalty>
-0

> <b_epik_Metal_Only>
0

> <s_lp_Force_Field>
OPLS_2005

> <r_lp_Energy>
77.2999

> <b_lp_Chiralities_Consistent>
1

> <s_lp_Variant>
AV-unprocessed.smi:2781-1

> <Gold.Version>
5.8.1

> <Gold.Id.Protein>
6NUR|6NUR_protein|mol2

> <Gold.PLP.Fitness>
49.2436

> <Gold.PLP.PLP>
-40.8131

> <Gold.PLP.part.hbond>
-2.0000

> <Gold.PLP.part.metal>
0.0000

> <Gold.PLP.part.buried>
0.4969

> <Gold.PLP.part.nonpolar>
-37.4040

> <Gold.PLP.part.repulsive>
0.3994

> <Gold.PLP.ligand.clash>
0.0000

> <Gold.PLP.ligand.torsion>
0.1454

> <Gold.PLP.Chemscore.Hbond>
1.9040

> <Gold.PLP.Chemscore.CHOScore>
0.9943

> <Gold.PLP.Chemscore.Metal>
0.0000

> <Gold.Chemscore.Hbonds>
donor molecule, donor type, donor heavy atom, donor atom, acceptor molecule, acceptor atom, score
      L1  H     3    20       P1  8028  0.87
      L1  H    11    24       P1  8028  1.00
      L1  C     9    23       P1  7948  1.00

> <Gold.PLP.Chemscore.Internal.Correction>
0.0262

> <Gold.Rescore>
     Score         DG    S(hbond)    S(metal)    S(lipo)     H(rot)  DE(clash)    DE(int)     intcor
     21.41     -23.30       1.79        0.00     123.18       1.00       0.44       1.46       ----

> <Gold.Chemscore.Fitness>
21.4072

> <Gold.Chemscore.DG>
-23.3023

> <Gold.Chemscore.ZeroCoef>
-5.4800

> <Gold.Chemscore.Hbond>
1.7876

> <Gold.Chemscore.Metal>
0.0000

> <Gold.Chemscore.Lipo>
123.1782

> <Gold.Chemscore.Internal_Hbond>
0.0000

> <Gold.Chemscore.DEClash>
0.4359

> <Gold.Chemscore.DEInternal>
1.4593

> <Gold.Chemscore.Rot>
1.0000

> <Gold.Chemscore.Internal.Correction>
   9.000000E+99

> <Gold.Chemscore.Hbonds>
donor molecule, donor type, donor heavy atom, donor atom, acceptor molecule, acceptor atom, score
      L1  H     3    20       P1  8028  0.80
      L1  H    11    24       P1  8028  0.99

> <Gold.Chemscore.Hbond.Weighted>
-5.9705

> <Gold.Chemscore.Metal.Weighted>
-0.0000

> <Gold.Chemscore.Lipo.Weighted>
-14.4118

> <Gold.Chemscore.Internal_Hbond.Weighted>
0.0000

> <Gold.Chemscore.DEClash.Weighted>
0.4359

> <Gold.Chemscore.DEInternal.Weighted>
1.4593

> <Gold.Chemscore.Rot.Weighted>
2.5600

> <Gold.Chemscore.Internal.Correction.Weighted>
   9.000000E+99

> <Gold.Protein.RotatedTorsions>
[ 6907 6896 6895 6894 ] final  148.91 input  -60.11 | X-H torsion
[ 7974 7965 7964 7962 ] final   14.34 input  175.53 | X-H torsion
[ 8008 7997 7996 7995 ] final -173.43 input   59.86 | X-H torsion
[ 10167 10162 10161 10158 ] final -161.70 input  -65.29 | X-H torsion
[ 10718 10713 10712 10709 ] final  109.86 input   66.30 | X-H torsion
[ 10763 10752 10751 10750 ] final   75.41 input  -60.55 | X-H torsion
[ 11005 11000 10999 10996 ] final  -91.65 input  -57.11 | X-H torsion

> <Gold.Protein.ActiveResidues>
 VAL166  LYS551  ARG553  GLY616  TRP617  ASP618  TYR619  PRO620  LYS621  CYS622 
 ASP623  PHE694  ASN695  SER759  ASP760  ASP761  ALA762  ILE779  LEU786  VAL792 
 PHE793  MET794  SER795  GLU796  ALA797  LYS798  CYS799  TRP800  GLU811  SER814 

> <Gold.Protein.RotatedAtoms>
  152.1351  133.4431  159.4739 H   0  0  0  0  0  0  0  0  0  0  0  0  # atno 6907 bound_to 6896
  150.6881  134.2373  159.4467 H   0  0  0  0  0  0  0  0  0  0  0  0  # atno 6908 bound_to 6896
  152.0260  134.9795  160.0622 H   0  0  0  0  0  0  0  0  0  0  0  0  # atno 6909 bound_to 6896
  146.2307  139.9055  142.8532 H   0  0  0  0  0  0  0  0  0  0  0  0  # atno 7974 bound_to 7965
  155.9573  140.1138  157.0926 H   0  0  0  0  0  0  0  0  0  0  0  0  # atno 8008 bound_to 7997
  154.4123  140.1189  156.5199 H   0  0  0  0  0  0  0  0  0  0  0  0  # atno 8009 bound_to 7997
  155.6766  140.3473  155.4841 H   0  0  0  0  0  0  0  0  0  0  0  0  # atno 8010 bound_to 7997
  139.6446  144.0196  152.2117 H   0  0  0  0  0  0  0  0  0  0  0  0  # atno 10167 bound_to 10162
  157.6522  131.0922  150.6516 H   0  0  0  0  0  0  0  0  0  0  0  0  # atno 10718 bound_to 10713
  153.0653  135.4989  154.8185 H   0  0  0  0  0  0  0  0  0  0  0  0  # atno 10763 bound_to 10752
  154.6944  135.2990  154.9435 H   0  0  0  0  0  0  0  0  0  0  0  0  # atno 10764 bound_to 10752
  154.0180  135.6746  153.4823 H   0  0  0  0  0  0  0  0  0  0  0  0  # atno 10765 bound_to 10752
  141.1540  133.7769  156.9909 H   0  0  0  0  0  0  0  0  0  0  0  0  # atno 11005 bound_to 11000
  145.2281  140.9962  143.4006 LP  0  0  0  0  0  0  0  0  0  0  0  0  # atno 17320 bound_to 7965
  144.9553  139.4038  143.6382 LP  0  0  0  0  0  0  0  0  0  0  0  0  # atno 17321 bound_to 7965
  139.9894  144.6372  150.7828 LP  0  0  0  0  0  0  0  0  0  0  0  0  # atno 17342 bound_to 10162
  140.7508  143.2962  151.3199 LP  0  0  0  0  0  0  0  0  0  0  0  0  # atno 17343 bound_to 10162
  156.6826  130.4572  149.5623 LP  0  0  0  0  0  0  0  0  0  0  0  0  # atno 17370 bound_to 10713
  156.1918  130.6564  151.1070 LP  0  0  0  0  0  0  0  0  0  0  0  0  # atno 17371 bound_to 10713
  140.1003  134.9539  157.1913 LP  0  0  0  0  0  0  0  0  0  0  0  0  # atno 17394 bound_to 11000
  140.3327  134.2791  155.7225 LP  0  0  0  0  0  0  0  0  0  0  0  0  # atno 17395 bound_to 11000

$$$$
