#       Name:                AV-unprocessed.smi:842
#       Creating user name   scv26
#       Creation time:       Fri Mar 27 01:38:17 2020


#       File generated by GOLD software.
#

@<TRIPOS>MOLECULE
AV-unprocessed.smi:842
    47    48     1
SMALL
NO_CHARGES


@<TRIPOS>ATOM
      1 ****        -4.9706  -2.0372  -2.5059 C.3            1 S1                 0.0000
      2 ****        -5.0781  -2.6814  -1.1157 C.3            1 S1                 0.0000
      3 ****        -4.3429  -1.8976  -0.0092 C.3            1 S1                 0.0000
      4 ****        -4.5434  -2.5279   1.3835 C.3            1 S1                 0.0000
      5 ****        -5.8675  -2.3293   1.8318 O.3            1 S1                 0.0000
      6 ****        -2.9163  -1.8196  -0.3195 N.am           1 S1                 0.0000
      7 ****        -2.0910  -0.8319   0.0556 C.2            1 S1                 0.0000
      8 ****        -2.4479   0.1298   0.7354 O.2            1 S1                 0.0000
      9 ****        -0.8495  -1.0321  -0.4195 N.am           1 S1                 0.0000
     10 ****         0.3042  -0.2157  -0.2657 C.ar           1 S1                 0.0000
     11 ****         1.3907  -0.4457  -1.1358 C.ar           1 S1                 0.0000
     12 ****         2.5607   0.3324  -1.0196 C.ar           1 S1                 0.0000
     13 ****         2.6403   1.3324  -0.0223 C.ar           1 S1                 0.0000
     14 ****         3.7715   2.1528   0.1470 N.pl3          1 S1                 0.0000
     15 ****         3.9129   3.0327   1.2958 C.3            1 S1                 0.0000
     16 ****         5.3163   3.6207   1.1577 C.3            1 S1                 0.0000
     17 ****         6.1037   2.4888   0.4962 C.3            1 S1                 0.0000
     18 ****         5.0723   1.7806  -0.3908 C.3            1 S1                 0.0000
     19 ****         1.5775   1.5132   0.7972 N.pl3          1 S1                 1.0000
     20 ****         0.4383   0.7918   0.7199 C.ar           1 S1                 0.0000
     21 ****        -5.5446  -2.6040  -3.2392 H              1 S1                 0.0000
     22 ****        -3.9386  -2.0010  -2.8550 H              1 S1                 0.0000
     23 ****        -5.3585  -1.0184  -2.4972 H              1 S1                 0.0000
     24 ****        -6.1341  -2.7656  -0.8572 H              1 S1                 0.0000
     25 ****        -4.6968  -3.7022  -1.1615 H              1 S1                 0.0000
     26 ****        -4.7462  -0.8828   0.0084 H              1 S1                 0.0000
     27 ****        -4.3158  -3.5944   1.3697 H              1 S1                 0.0000
     28 ****        -3.8785  -2.0671   2.1150 H              1 S1                 0.0000
     29 ****        -5.9505  -2.7008   2.6968 H              1 S1                 0.0000
     30 ****        -2.5368  -2.5693  -0.8788 H              1 S1                 0.0000
     31 ****        -0.7305  -1.8422  -1.0099 H              1 S1                 0.0000
     32 ****         1.3292  -1.2099  -1.8971 H              1 S1                 0.0000
     33 ****         3.3796   0.1565  -1.7016 H              1 S1                 0.0000
     34 ****         3.1495   3.8113   1.3062 H              1 S1                 0.0000
     35 ****         3.8279   2.4498   2.2140 H              1 S1                 0.0000
     36 ****         5.2903   4.4868   0.4949 H              1 S1                 0.0000
     37 ****         5.7400   3.9375   2.1110 H              1 S1                 0.0000
     38 ****         6.9692   2.8440  -0.0638 H              1 S1                 0.0000
     39 ****         6.4618   1.7994   1.2622 H              1 S1                 0.0000
     40 ****         5.2283   0.7012  -0.3844 H              1 S1                 0.0000
     41 ****         5.1417   2.1323  -1.4206 H              1 S1                 0.0000
     42 ****        -0.3077   1.0499   1.4560 H              1 S1                 0.0000
     43 ****         1.6394   2.2343   1.5162 H              1 S1                 0.0000
     44 ****        -6.5059  -2.7806   1.2083 LP             1 S1                 0.0000
     45 ****        -6.0692  -1.3505   1.8644 LP             1 S1                 0.0000
     46 ****        -3.3983   0.2032   1.0376 LP             1 S1                 0.0000
     47 ****        -1.7875   0.8378   0.9856 LP             1 S1                 0.0000
@<TRIPOS>BOND
    1    1    2 1     
    2    1   21 1     
    3    1   22 1     
    4    1   23 1     
    5    2    3 1     
    6    2   24 1     
    7    2   25 1     
    8    3    4 1     
    9    3    6 1     
   10    3   26 1     
   11    4    5 1     
   12    4   27 1     
   13    4   28 1     
   14    5   29 1     
   15    6    7 am    
   16    6   30 1     
   17    7    8 2     
   18    7    9 am    
   19    9   10 1     
   20    9   31 1     
   21   10   20 ar    
   22   10   11 ar    
   23   11   12 ar    
   24   11   32 1     
   25   12   13 ar    
   26   12   33 1     
   27   13   14 1     
   28   13   19 ar    
   29   14   18 1     
   30   14   15 1     
   31   15   16 1     
   32   15   34 1     
   33   15   35 1     
   34   16   17 1     
   35   16   36 1     
   36   16   37 1     
   37   17   18 1     
   38   17   38 1     
   39   17   39 1     
   40   18   40 1     
   41   18   41 1     
   42   19   20 ar    
   43   19   43 1     
   44   20   42 1     
   45    5   44 1     
   46    5   45 1     
   47    8   46 1     
   48    8   47 1     
@<TRIPOS>SUBSTRUCTURE
      1 S1             1
@<TRIPOS>SET
LONE_PAIRS      STATIC     ATOMS    <user>   **** ""
4 44 45 46 47
DONOR_HYDROGENS      STATIC     ATOMS    <user>   **** ""
4 29 30 31 43
ATOM$BLUE        STATIC     ATOMS    COLORGROUP SYSTEM
4 44 45 46 47
ATOM$RED        STATIC     ATOMS    COLORGROUP SYSTEM
4 29 30 31 43
