AV-unprocessed.smi:1184|AV-procd|sdf|4971|dock2
  -GOLD-   22720 3563D 1   1.00000     0.00000
 Structure written by MMmdl.
 43 44  0  0  0  0  0  0  0  0  2 V2000
  144.0449  132.4112  149.6204 C   0  0  0  0  0  0  0  0  0  0  0  0
  143.7286  132.8241  151.0646 C   0  0  0  0  0  0  0  0  0  0  0  0
  143.5230  134.2861  151.1974 N   0  3  1  0  0  0  0  0  0  0  0  0
  143.2824  134.7593  152.5795 C   0  0  0  0  0  0  0  0  0  0  0  0
  143.8621  136.1699  152.6355 C   0  0  0  0  0  0  0  0  0  0  0  0
  145.0902  136.0592  151.7373 C   0  0  2  0  0  0  0  0  0  0  0  0
  145.6345  137.4177  151.2550 C   0  0  0  0  0  0  0  0  0  0  0  0
  145.6299  138.4195  152.3164 N   0  0  0  0  0  0  0  0  0  0  0  0
  146.1083  138.2460  153.5585 C   0  0  0  0  0  0  0  0  0  0  0  0
  146.5989  137.1899  153.9564 O   0  0  0  0  0  0  0  0  0  0  0  0
  146.0205  139.4487  154.4981 C   0  0  0  0  0  0  0  0  0  0  0  0
  147.3386  140.1799  154.5128 C   0  0  0  0  0  0  0  0  0  0  0  0
  147.5834  141.5660  154.2862 C   0  0  0  0  0  0  0  0  0  0  0  0
  146.6029  142.6599  153.9741 C   0  0  0  0  0  0  0  0  0  0  0  0
  148.8684  141.8621  154.3795 N   0  0  0  0  0  0  0  0  0  0  0  0
  149.5190  140.6606  154.6745 O   0  0  0  0  0  0  0  0  0  0  0  0
  148.5888  139.6755  154.7484 C   0  0  0  0  0  0  0  0  0  0  0  0
  149.0930  138.3064  155.0569 C   0  0  0  0  0  0  0  0  0  0  0  0
  144.6157  135.1095  150.6256 C   0  0  0  0  0  0  0  0  0  0  0  0
  144.2462  131.3414  149.5616 H   0  0  0  0  0  0  0  0  0  0  0  0
  144.9246  132.9347  149.2445 H   0  0  0  0  0  0  0  0  0  0  0  0
  143.2134  132.6243  148.9481 H   0  0  0  0  0  0  0  0  0  0  0  0
  142.8513  132.2892  151.4312 H   0  0  0  0  0  0  0  0  0  0  0  0
  144.5645  132.5301  151.7007 H   0  0  0  0  0  0  0  0  0  0  0  0
  142.2223  134.7335  152.8332 H   0  0  0  0  0  0  0  0  0  0  0  0
  143.8140  134.1236  153.2896 H   0  0  0  0  0  0  0  0  0  0  0  0
  143.1490  136.8835  152.2202 H   0  0  0  0  0  0  0  0  0  0  0  0
  144.1054  136.4856  153.6506 H   0  0  0  0  0  0  0  0  0  0  0  0
  145.8700  135.5510  152.3076 H   0  0  0  0  0  0  0  0  0  0  0  0
  146.6338  137.3065  150.8303 H   0  0  0  0  0  0  0  0  0  0  0  0
  145.0037  137.7945  150.4495 H   0  0  0  0  0  0  0  0  0  0  0  0
  145.2521  139.3262  152.0815 H   0  0  0  0  0  0  0  0  0  0  0  0
  145.2029  140.0979  154.1828 H   0  0  0  0  0  0  0  0  0  0  0  0
  145.7534  139.0967  155.4953 H   0  0  0  0  0  0  0  0  0  0  0  0
  145.6322  142.2579  153.6852 H   0  0  0  0  0  0  0  0  0  0  0  0
  146.9566  143.2834  153.1526 H   0  0  0  0  0  0  0  0  0  0  0  0
  146.4502  143.3048  154.8398 H   0  0  0  0  0  0  0  0  0  0  0  0
  148.3594  137.5477  154.7846 H   0  0  0  0  0  0  0  0  0  0  0  0
  149.3051  138.2049  156.1211 H   0  0  0  0  0  0  0  0  0  0  0  0
  150.0106  138.0980  154.5065 H   0  0  0  0  0  0  0  0  0  0  0  0
  145.4410  134.5105  150.2374 H   0  0  0  0  0  0  0  0  0  0  0  0
  144.1967  135.6700  149.7895 H   0  0  0  0  0  0  0  0  0  0  0  0
  142.6979  134.5176  150.6625 H   0  0  0  0  0  0  0  0  0  0  0  0
  1  2  1  0  0  0  0
  1 20  1  0  0  0  0
  1 21  1  0  0  0  0
  1 22  1  0  0  0  0
  2  3  1  0  0  0  0
  2 23  1  0  0  0  0
  2 24  1  0  0  0  0
  3 19  1  0  0  0  0
  3  4  1  0  0  0  0
  3 43  1  0  0  0  0
  4  5  1  0  0  0  0
  4 25  1  0  0  0  0
  4 26  1  0  0  0  0
  5  6  1  0  0  0  0
  5 27  1  0  0  0  0
  5 28  1  0  0  0  0
  6  7  1  0  0  0  0
  6 19  1  0  0  0  0
  6 29  1  0  0  0  0
  7  8  1  0  0  0  0
  7 30  1  0  0  0  0
  7 31  1  0  0  0  0
  8  9  1  0  0  0  0
  8 32  1  0  0  0  0
  9 10  2  0  0  0  0
  9 11  1  0  0  0  0
 11 12  1  0  0  0  0
 11 33  1  0  0  0  0
 11 34  1  0  0  0  0
 12 17  2  0  0  0  0
 12 13  1  0  0  0  0
 13 14  1  0  0  0  0
 13 15  2  0  0  0  0
 14 35  1  0  0  0  0
 14 36  1  0  0  0  0
 14 37  1  0  0  0  0
 15 16  1  0  0  0  0
 16 17  1  0  0  0  0
 17 18  1  0  0  0  0
 18 38  1  0  0  0  0
 18 39  1  0  0  0  0
 18 40  1  0  0  0  0
 19 41  1  0  0  0  0
 19 42  1  0  0  0  0
M  CHG  1   3   1
M  END
> <s_m_source_file>
AV-unprocessed.smi

> <i_m_source_file_index>
1184

> <i_lp_mmshare_version>
43012

> <i_f3d_flags>
0

> <s_epik_input>
W0NIM11bQ0gyXU4xW0NIMl1bQ0gyXVtDQEhdKFtDSDJdMSlbQ0gyXVtOSF1DKD1PKVtDSDJdYzJjKFtDSDNdKW5vYzJbQ0gzXQ==

> <s_epik_cmdline>
J2VwaWtfcHl0aG9uJywgJy1waCcsICc3LjAnLCAnLXRuJywgJzgnLCAnLW1hJywgJzIwMCcsICctbWV0YWxfYmluZGluZycsICctaW1hZScsICc8aW5maWxlLm1hZT4nLCAnLW9tYWUnLCAnPG91dGZpbGUubWFlPic=

> <r_epik_Ionization_Penalty>
0.000590726

> <r_epik_Ionization_Penalty_Charging>
0.000590692

> <r_epik_Ionization_Penalty_Neutral>
3.44741e-08

> <r_epik_State_Penalty>
0.000371644

> <r_epik_Charging_Adjusted_Penalty>
0.000962336

> <i_epik_Tot_Q>
1

> <i_epik_Tot_abs_Q>
1

> <r_epik_Metal_State_Penalty>
-0

> <b_epik_Metal_Only>
0

> <s_lp_Force_Field>
OPLS_2005

> <r_lp_Energy>
22.6293

> <b_lp_Chiralities_Consistent>
1

> <s_lp_Variant>
AV-unprocessed.smi:1184-3

> <Gold.Version>
5.8.1

> <Gold.Id.Protein>
6NUR|6NUR_protein|mol2

> <Gold.PLP.Fitness>
46.5630

> <Gold.PLP.PLP>
-35.5066

> <Gold.PLP.part.hbond>
-5.5760

> <Gold.PLP.part.metal>
0.0000

> <Gold.PLP.part.buried>
-4.2507

> <Gold.PLP.part.nonpolar>
-28.9916

> <Gold.PLP.part.repulsive>
1.3422

> <Gold.PLP.ligand.clash>
0.0000

> <Gold.PLP.ligand.torsion>
0.6215

> <Gold.PLP.Chemscore.Hbond>
4.0677

> <Gold.PLP.Chemscore.CHOScore>
0.0000

> <Gold.PLP.Chemscore.Metal>
0.0000

> <Gold.Chemscore.Hbonds>
donor molecule, donor type, donor heavy atom, donor atom, acceptor molecule, acceptor atom, score
      L1  H     3    43       P1 10186  2.00
      L1  H     8    32       P1 10175  0.82
      P1  H  7989  7998       L1    16  0.04
      P1  H  8011  8017       L1    15  0.13

> <Gold.PLP.Chemscore.Internal.Correction>
0.0964

> <Gold.Rescore>
     Score         DG    S(hbond)    S(metal)    S(lipo)     H(rot)  DE(clash)    DE(int)     intcor
     11.37     -17.16       1.80        0.00      85.05       1.67       2.92       2.87       ----

> <Gold.Chemscore.Fitness>
11.3680

> <Gold.Chemscore.DG>
-17.1558

> <Gold.Chemscore.ZeroCoef>
-5.4800

> <Gold.Chemscore.Hbond>
1.7953

> <Gold.Chemscore.Metal>
0.0000

> <Gold.Chemscore.Lipo>
85.0501

> <Gold.Chemscore.Internal_Hbond>
0.0000

> <Gold.Chemscore.DEClash>
2.9169

> <Gold.Chemscore.DEInternal>
2.8710

> <Gold.Chemscore.Rot>
1.6684

> <Gold.Chemscore.Internal.Correction>
   9.000000E+99

> <Gold.Chemscore.Hbonds>
donor molecule, donor type, donor heavy atom, donor atom, acceptor molecule, acceptor atom, score
      L1  H     3    43       P1 10186  0.28
      L1  H     8    32       P1 10175  0.79
      P1  H  7989  7998       L1    16  0.02
      P1  H  8011  8017       L1    15  0.04

> <Gold.Chemscore.Hbond.Weighted>
-5.9962

> <Gold.Chemscore.Metal.Weighted>
-0.0000

> <Gold.Chemscore.Lipo.Weighted>
-9.9509

> <Gold.Chemscore.Internal_Hbond.Weighted>
0.0000

> <Gold.Chemscore.DEClash.Weighted>
2.9169

> <Gold.Chemscore.DEInternal.Weighted>
2.8710

> <Gold.Chemscore.Rot.Weighted>
4.2712

> <Gold.Chemscore.Internal.Correction.Weighted>
   9.000000E+99

> <Gold.Protein.RotatedTorsions>
[ 6907 6896 6895 6894 ] final  -99.96 input  -60.11 | X-H torsion
[ 7974 7965 7964 7962 ] final   99.73 input  175.53 | X-H torsion
[ 8008 7997 7996 7995 ] final  160.37 input   59.86 | X-H torsion
[ 10167 10162 10161 10158 ] final   18.42 input  -65.29 | X-H torsion
[ 10718 10713 10712 10709 ] final  127.14 input   66.30 | X-H torsion
[ 10763 10752 10751 10750 ] final   59.07 input  -60.55 | X-H torsion
[ 11005 11000 10999 10996 ] final -116.29 input  -57.11 | X-H torsion

> <Gold.Protein.ActiveResidues>
 VAL166  LYS551  ARG553  GLY616  TRP617  ASP618  TYR619  PRO620  LYS621  CYS622 
 ASP623  PHE694  ASN695  SER759  ASP760  ASP761  ALA762  ILE779  LEU786  VAL792 
 PHE793  MET794  SER795  GLU796  ALA797  LYS798  CYS799  TRP800  GLU811  SER814 

> <Gold.Protein.RotatedAtoms>
  150.7098  134.0960  159.3948 H   0  0  0  0  0  0  0  0  0  0  0  0  # atno 6907 bound_to 6896
  151.8946  135.0401  160.0510 H   0  0  0  0  0  0  0  0  0  0  0  0  # atno 6908 bound_to 6896
  152.2464  133.5143  159.5336 H   0  0  0  0  0  0  0  0  0  0  0  0  # atno 6909 bound_to 6896
  145.3949  139.2357  143.3331 H   0  0  0  0  0  0  0  0  0  0  0  0  # atno 7974 bound_to 7965
  156.2176  140.1806  156.7551 H   0  0  0  0  0  0  0  0  0  0  0  0  # atno 8008 bound_to 7997
  154.5816  140.0665  156.9141 H   0  0  0  0  0  0  0  0  0  0  0  0  # atno 8009 bound_to 7997
  155.2492  140.3327  155.4286 H   0  0  0  0  0  0  0  0  0  0  0  0  # atno 8010 bound_to 7997
  140.5655  143.9259  150.6673 H   0  0  0  0  0  0  0  0  0  0  0  0  # atno 10167 bound_to 10162
  157.5359  131.1097  150.8937 H   0  0  0  0  0  0  0  0  0  0  0  0  # atno 10718 bound_to 10713
  152.9885  135.5584  154.5654 H   0  0  0  0  0  0  0  0  0  0  0  0  # atno 10763 bound_to 10752
  154.5065  135.2800  155.1380 H   0  0  0  0  0  0  0  0  0  0  0  0  # atno 10764 bound_to 10752
  154.2789  135.6348  153.5392 H   0  0  0  0  0  0  0  0  0  0  0  0  # atno 10765 bound_to 10752
  141.0431  133.9804  157.2961 H   0  0  0  0  0  0  0  0  0  0  0  0  # atno 11005 bound_to 11000
  146.2780  140.4638  142.8788 LP  0  0  0  0  0  0  0  0  0  0  0  0  # atno 17320 bound_to 7965
  144.8414  140.6863  143.6227 LP  0  0  0  0  0  0  0  0  0  0  0  0  # atno 17321 bound_to 7965
  140.2721  143.3449  152.1228 LP  0  0  0  0  0  0  0  0  0  0  0  0  # atno 17342 bound_to 10162
  139.5091  144.6861  151.5884 LP  0  0  0  0  0  0  0  0  0  0  0  0  # atno 17343 bound_to 10162
  156.9504  130.5417  149.5282 LP  0  0  0  0  0  0  0  0  0  0  0  0  # atno 17370 bound_to 10713
  156.0458  130.5534  150.8877 LP  0  0  0  0  0  0  0  0  0  0  0  0  # atno 17371 bound_to 10713
  139.9291  135.0200  156.8338 LP  0  0  0  0  0  0  0  0  0  0  0  0  # atno 17394 bound_to 11000
  140.6197  134.0006  155.7612 LP  0  0  0  0  0  0  0  0  0  0  0  0  # atno 17395 bound_to 11000

$$$$
