AV-unprocessed.smi:2522|AV-procd|sdf|9919|dock7
  -GOLD-   2272013553D 1   1.00000     0.00000
 Structure written by MMmdl.
 41 42  0  0  0  0  0  0  0  0  1 V2000
  148.6752  132.7192  155.7639 C   0  0  0  0  0  0  0  0  0  0  0  0
  148.9500  133.8596  154.7613 C   0  0  0  0  0  0  0  0  0  0  0  0
  149.0043  133.2694  153.3399 C   0  0  0  0  0  0  0  0  0  0  0  0
  147.7944  134.8793  154.8297 C   0  0  0  0  0  0  0  0  0  0  0  0
  150.3109  134.5405  155.0639 C   0  0  0  0  0  0  0  0  0  0  0  0
  150.4337  135.8594  154.4496 N   0  0  0  0  0  0  0  0  0  0  0  0
  151.2731  136.8349  154.8321 C   0  0  0  0  0  0  0  0  0  0  0  0
  151.9843  136.7703  155.8345 O   0  0  0  0  0  0  0  0  0  0  0  0
  151.3439  138.0603  153.9185 C   0  0  0  0  0  0  0  0  0  0  0  0
  150.9810  139.2925  154.6975 C   0  0  0  0  0  0  0  0  0  0  0  0
  149.9655  140.1754  154.4228 C   0  0  0  0  0  0  0  0  0  0  0  0
  149.8591  141.4410  155.6170 S   0  0  0  0  0  0  0  0  0  0  0  0
  151.2246  140.7144  156.4617 C   0  0  0  0  0  0  0  0  0  0  0  0
  151.7602  141.2234  157.6826 N   0  0  0  0  0  0  0  0  0  0  0  0
  151.2964  142.4868  158.2430 C   0  0  0  0  0  0  0  0  0  0  0  0
  151.9268  142.5884  159.6365 C   0  0  0  0  0  0  0  0  0  0  0  0
  153.0164  141.5187  159.6703 C   0  0  0  0  0  0  0  0  0  0  0  0
  152.7165  140.6655  158.4493 C   0  0  0  0  0  0  0  0  0  0  0  0
  153.3090  139.6064  158.2438 O   0  0  0  0  0  0  0  0  0  0  0  0
  151.7030  139.6267  155.8483 N   0  0  0  0  0  0  0  0  0  0  0  0
  147.7523  132.1917  155.5208 H   0  0  0  0  0  0  0  0  0  0  0  0
  148.5706  133.0922  156.7827 H   0  0  0  0  0  0  0  0  0  0  0  0
  149.4823  131.9860  155.7635 H   0  0  0  0  0  0  0  0  0  0  0  0
  149.8011  132.5306  153.2466 H   0  0  0  0  0  0  0  0  0  0  0  0
  149.1866  134.0446  152.5948 H   0  0  0  0  0  0  0  0  0  0  0  0
  148.0682  132.7758  153.0766 H   0  0  0  0  0  0  0  0  0  0  0  0
  146.8473  134.4242  154.5388 H   0  0  0  0  0  0  0  0  0  0  0  0
  147.9713  135.7237  154.1627 H   0  0  0  0  0  0  0  0  0  0  0  0
  147.6621  135.2765  155.8365 H   0  0  0  0  0  0  0  0  0  0  0  0
  150.4242  134.6746  156.1401 H   0  0  0  0  0  0  0  0  0  0  0  0
  151.1347  133.8934  154.7577 H   0  0  0  0  0  0  0  0  0  0  0  0
  149.8934  136.0141  153.6104 H   0  0  0  0  0  0  0  0  0  0  0  0
  152.3482  138.1441  153.5011 H   0  0  0  0  0  0  0  0  0  0  0  0
  150.6671  137.9232  153.0742 H   0  0  0  0  0  0  0  0  0  0  0  0
  149.2656  140.1487  153.6006 H   0  0  0  0  0  0  0  0  0  0  0  0
  151.6307  143.3063  157.6052 H   0  0  0  0  0  0  0  0  0  0  0  0
  150.2079  142.5231  158.3021 H   0  0  0  0  0  0  0  0  0  0  0  0
  152.3255  143.5851  159.8283 H   0  0  0  0  0  0  0  0  0  0  0  0
  151.1794  142.3801  160.4032 H   0  0  0  0  0  0  0  0  0  0  0  0
  154.0093  141.9581  159.5701 H   0  0  0  0  0  0  0  0  0  0  0  0
  152.9849  140.9283  160.5865 H   0  0  0  0  0  0  0  0  0  0  0  0
  1  2  1  0  0  0  0
  1 21  1  0  0  0  0
  1 22  1  0  0  0  0
  1 23  1  0  0  0  0
  2  3  1  0  0  0  0
  2  4  1  0  0  0  0
  2  5  1  0  0  0  0
  3 24  1  0  0  0  0
  3 25  1  0  0  0  0
  3 26  1  0  0  0  0
  4 27  1  0  0  0  0
  4 28  1  0  0  0  0
  4 29  1  0  0  0  0
  5  6  1  0  0  0  0
  5 30  1  0  0  0  0
  5 31  1  0  0  0  0
  6  7  1  0  0  0  0
  6 32  1  0  0  0  0
  7  8  2  0  0  0  0
  7  9  1  0  0  0  0
  9 10  1  0  0  0  0
  9 33  1  0  0  0  0
  9 34  1  0  0  0  0
 10 20  1  0  0  0  0
 10 11  2  0  0  0  0
 11 12  1  0  0  0  0
 11 35  1  0  0  0  0
 12 13  1  0  0  0  0
 13 14  1  0  0  0  0
 13 20  2  0  0  0  0
 14 18  1  0  0  0  0
 14 15  1  0  0  0  0
 15 16  1  0  0  0  0
 15 36  1  0  0  0  0
 15 37  1  0  0  0  0
 16 17  1  0  0  0  0
 16 38  1  0  0  0  0
 16 39  1  0  0  0  0
 17 18  1  0  0  0  0
 17 40  1  0  0  0  0
 17 41  1  0  0  0  0
 18 19  2  0  0  0  0
M  END
> <s_m_source_file>
AV-unprocessed.smi

> <i_m_source_file_index>
2522

> <i_lp_mmshare_version>
43012

> <i_f3d_flags>
0

> <s_epik_input>
W0NIM11DKFtDSDNdKShbQ0gzXSlbQ0gyXVtOSF1DKD1PKVtDSDJdYzFbY0hdc2MobjEpTjJbQ0gyXVtDSDJdW0NIMl1DMj1P

> <s_epik_cmdline>
J2VwaWtfcHl0aG9uJywgJy1waCcsICc3LjAnLCAnLXRuJywgJzgnLCAnLW1hJywgJzIwMCcsICctbWV0YWxfYmluZGluZycsICctaW1hZScsICc8aW5maWxlLm1hZT4nLCAnLW9tYWUnLCAnPG91dGZpbGUubWFlPic=

> <r_lp_tautomer_probability>
1

> <r_epik_Ionization_Penalty>
2.986e-05

> <r_epik_Ionization_Penalty_Charging>
0

> <r_epik_Ionization_Penalty_Neutral>
2.986e-05

> <r_epik_State_Penalty>
-0

> <r_epik_Charging_Adjusted_Penalty>
0

> <i_epik_Tot_Q>
0

> <i_epik_Tot_abs_Q>
0

> <r_epik_Metal_State_Penalty>
-0

> <b_epik_Metal_Only>
0

> <s_lp_Force_Field>
OPLS_2005

> <r_lp_Energy>
19.1404

> <b_lp_Chiralities_Consistent>
1

> <s_lp_Variant>
AV-unprocessed.smi:2522-1

> <Gold.Version>
5.8.1

> <Gold.Id.Protein>
6NUR|6NUR_protein|mol2

> <Gold.PLP.Fitness>
46.6067

> <Gold.PLP.PLP>
-36.1829

> <Gold.PLP.part.hbond>
-3.8376

> <Gold.PLP.part.metal>
0.0000

> <Gold.PLP.part.buried>
0.4634

> <Gold.PLP.part.nonpolar>
-31.9630

> <Gold.PLP.part.repulsive>
0.1017

> <Gold.PLP.ligand.clash>
0.0000

> <Gold.PLP.ligand.torsion>
0.4320

> <Gold.PLP.Chemscore.Hbond>
2.7800

> <Gold.PLP.Chemscore.CHOScore>
0.9803

> <Gold.PLP.Chemscore.Metal>
0.0000

> <Gold.Chemscore.Hbonds>
donor molecule, donor type, donor heavy atom, donor atom, acceptor molecule, acceptor atom, score
      L1  H     6    32       P1  7948  0.75
      P1  H  7997  8009       L1    19  1.00
      P1  H 10752 10764       L1     8  0.79
      L1  C    11    35       P1  7957  1.00

> <Gold.PLP.Chemscore.Internal.Correction>
0.0070

> <Gold.Rescore>
     Score         DG    S(hbond)    S(metal)    S(lipo)     H(rot)  DE(clash)    DE(int)     intcor
     14.91     -18.10       2.25        0.00      78.30       1.59       0.25       2.93       ----

> <Gold.Chemscore.Fitness>
14.9095

> <Gold.Chemscore.DG>
-18.0964

> <Gold.Chemscore.ZeroCoef>
-5.4800

> <Gold.Chemscore.Hbond>
2.2527

> <Gold.Chemscore.Metal>
0.0000

> <Gold.Chemscore.Lipo>
78.2970

> <Gold.Chemscore.Internal_Hbond>
0.0000

> <Gold.Chemscore.DEClash>
0.2539

> <Gold.Chemscore.DEInternal>
2.9331

> <Gold.Chemscore.Rot>
1.5892

> <Gold.Chemscore.Internal.Correction>
   9.000000E+99

> <Gold.Chemscore.Hbonds>
donor molecule, donor type, donor heavy atom, donor atom, acceptor molecule, acceptor atom, score
      L1  H     6    32       P1  7948  0.09
      P1  H  7997  8009       L1    19  0.45
      P1  H 10752 10764       L1     8  0.15

> <Gold.Chemscore.Hbond.Weighted>
-7.5241

> <Gold.Chemscore.Metal.Weighted>
-0.0000

> <Gold.Chemscore.Lipo.Weighted>
-9.1607

> <Gold.Chemscore.Internal_Hbond.Weighted>
0.0000

> <Gold.Chemscore.DEClash.Weighted>
0.2539

> <Gold.Chemscore.DEInternal.Weighted>
2.9331

> <Gold.Chemscore.Rot.Weighted>
4.0684

> <Gold.Chemscore.Internal.Correction.Weighted>
   9.000000E+99

> <Gold.Protein.RotatedTorsions>
[ 6907 6896 6895 6894 ] final   84.27 input  -60.11 | X-H torsion
[ 7974 7965 7964 7962 ] final  -22.53 input  175.53 | X-H torsion
[ 8008 7997 7996 7995 ] final  157.30 input   59.86 | X-H torsion
[ 10167 10162 10161 10158 ] final   59.00 input  -65.29 | X-H torsion
[ 10718 10713 10712 10709 ] final    1.33 input   66.30 | X-H torsion
[ 10763 10752 10751 10750 ] final  -18.55 input  -60.55 | X-H torsion
[ 11005 11000 10999 10996 ] final -126.13 input  -57.11 | X-H torsion

> <Gold.Protein.ActiveResidues>
 VAL166  LYS551  ARG553  GLY616  TRP617  ASP618  TYR619  PRO620  LYS621  CYS622 
 ASP623  PHE694  ASN695  SER759  ASP760  ASP761  ALA762  ILE779  LEU786  VAL792 
 PHE793  MET794  SER795  GLU796  ALA797  LYS798  CYS799  TRP800  GLU811  SER814 

> <Gold.Protein.RotatedAtoms>
  152.5348  134.2766  159.8991 H   0  0  0  0  0  0  0  0  0  0  0  0  # atno 6907 bound_to 6896
  151.2721  133.4243  159.2629 H   0  0  0  0  0  0  0  0  0  0  0  0  # atno 6908 bound_to 6896
  151.0358  134.9587  159.8192 H   0  0  0  0  0  0  0  0  0  0  0  0  # atno 6909 bound_to 6896
  146.1670  140.4492  142.8548 H   0  0  0  0  0  0  0  0  0  0  0  0  # atno 7974 bound_to 7965
  156.2372  140.1889  156.7088 H   0  0  0  0  0  0  0  0  0  0  0  0  # atno 8008 bound_to 7997
  154.6128  140.0619  156.9542 H   0  0  0  0  0  0  0  0  0  0  0  0  # atno 8009 bound_to 7997
  155.1988  140.3290  155.4349 H   0  0  0  0  0  0  0  0  0  0  0  0  # atno 8010 bound_to 7997
  140.1812  144.4180  150.6614 H   0  0  0  0  0  0  0  0  0  0  0  0  # atno 10167 bound_to 10162
  156.8466  130.5539  149.5673 H   0  0  0  0  0  0  0  0  0  0  0  0  # atno 10718 bound_to 10713
  153.5910  135.7002  153.5423 H   0  0  0  0  0  0  0  0  0  0  0  0  # atno 10763 bound_to 10752
  153.3178  135.4082  155.1391 H   0  0  0  0  0  0  0  0  0  0  0  0  # atno 10764 bound_to 10752
  154.8600  135.3688  154.5442 H   0  0  0  0  0  0  0  0  0  0  0  0  # atno 10765 bound_to 10752
  140.9706  134.0810  157.3873 H   0  0  0  0  0  0  0  0  0  0  0  0  # atno 11005 bound_to 11000
  144.8107  140.6380  143.6417 LP  0  0  0  0  0  0  0  0  0  0  0  0  # atno 17320 bound_to 7965
  145.4441  139.1532  143.3954 LP  0  0  0  0  0  0  0  0  0  0  0  0  # atno 17321 bound_to 7965
  140.6518  143.2227  151.6059 LP  0  0  0  0  0  0  0  0  0  0  0  0  # atno 17342 bound_to 10162
  139.5295  144.2957  152.1115 LP  0  0  0  0  0  0  0  0  0  0  0  0  # atno 17343 bound_to 10162
  156.0851  130.5851  150.9633 LP  0  0  0  0  0  0  0  0  0  0  0  0  # atno 17370 bound_to 10713
  157.6326  131.0919  150.8411 LP  0  0  0  0  0  0  0  0  0  0  0  0  # atno 17371 bound_to 10713
  139.8911  135.0116  156.6772 LP  0  0  0  0  0  0  0  0  0  0  0  0  # atno 17394 bound_to 11000
  140.7334  133.9040  155.8227 LP  0  0  0  0  0  0  0  0  0  0  0  0  # atno 17395 bound_to 11000

$$$$
