AV-unprocessed.smi:423|AV-procd|sdf|2538|dock5
  -GOLD-   2262022503D 1   1.00000     0.00000
 Structure written by MMmdl.
 47 48  0  0  0  0  0  0  0  0  1 V2000
  149.2397  140.8194  154.4164 C   0  0  0  0  0  0  0  0  0  0  0  0
  150.2094  140.4072  155.4864 C   0  0  0  0  0  0  0  0  0  0  0  0
  150.3259  141.1487  156.5744 N   0  0  0  0  0  0  0  0  0  0  0  0
  151.2673  140.5305  157.3176 N   0  0  0  0  0  0  0  0  0  0  0  0
  151.6486  141.1084  158.5979 C   0  0  0  0  0  0  0  0  0  0  0  0
  152.2695  142.5169  158.4729 C   0  0  0  0  0  0  0  0  0  0  0  0
  152.7051  143.0412  159.8490 C   0  0  0  0  0  0  0  0  0  0  0  0
  151.3421  143.5248  157.7716 C   0  0  0  0  0  0  0  0  0  0  0  0
  151.7353  139.3846  156.6999 C   0  0  0  0  0  0  0  0  0  0  0  0
  152.7854  138.5097  157.3070 C   0  0  0  0  0  0  0  0  0  0  0  0
  151.0722  139.2728  155.5069 C   0  0  0  0  0  0  0  0  0  0  0  0
  151.2129  138.2071  154.4465 C   0  0  0  0  0  0  0  0  0  0  0  0
  150.9248  136.8023  155.0069 C   0  0  0  0  0  0  0  0  0  0  0  0
  151.5792  136.3571  155.9492 O   0  0  0  0  0  0  0  0  0  0  0  0
  149.9489  136.0678  154.4471 N   0  0  0  0  0  0  0  0  0  0  0  0
  149.5228  134.7224  154.8286 C   0  0  0  0  0  0  0  0  0  0  0  0
  149.6995  133.7172  153.6701 C   0  0  0  0  0  0  0  0  0  0  0  0
  148.3532  133.0085  153.5075 C   0  0  0  0  0  0  0  0  0  0  0  0
  147.3275  134.0257  153.9959 C   0  0  0  0  0  0  0  0  0  0  0  0
  148.0216  134.7161  155.1696 C   0  0  0  0  0  0  0  0  0  0  0  0
  149.6341  140.5983  153.4243 H   0  0  0  0  0  0  0  0  0  0  0  0
  149.0301  141.8891  154.4544 H   0  0  0  0  0  0  0  0  0  0  0  0
  148.2931  140.2903  154.5242 H   0  0  0  0  0  0  0  0  0  0  0  0
  150.7663  141.1478  159.2395 H   0  0  0  0  0  0  0  0  0  0  0  0
  152.3468  140.4288  159.0870 H   0  0  0  0  0  0  0  0  0  0  0  0
  153.1696  142.4321  157.8637 H   0  0  0  0  0  0  0  0  0  0  0  0
  151.8509  143.1559  160.5171 H   0  0  0  0  0  0  0  0  0  0  0  0
  153.1938  144.0122  159.7644 H   0  0  0  0  0  0  0  0  0  0  0  0
  153.4107  142.3593  160.3245 H   0  0  0  0  0  0  0  0  0  0  0  0
  150.3966  143.6287  158.3046 H   0  0  0  0  0  0  0  0  0  0  0  0
  151.1176  143.2205  156.7490 H   0  0  0  0  0  0  0  0  0  0  0  0
  151.8042  144.5108  157.7182 H   0  0  0  0  0  0  0  0  0  0  0  0
  152.8521  137.5548  156.7861 H   0  0  0  0  0  0  0  0  0  0  0  0
  152.5677  138.2989  158.3537 H   0  0  0  0  0  0  0  0  0  0  0  0
  153.7639  138.9858  157.2506 H   0  0  0  0  0  0  0  0  0  0  0  0
  150.5380  138.4102  153.6159 H   0  0  0  0  0  0  0  0  0  0  0  0
  152.2190  138.2092  154.0264 H   0  0  0  0  0  0  0  0  0  0  0  0
  149.4492  136.4875  153.6765 H   0  0  0  0  0  0  0  0  0  0  0  0
  150.0766  134.3927  155.7089 H   0  0  0  0  0  0  0  0  0  0  0  0
  149.9434  134.2366  152.7420 H   0  0  0  0  0  0  0  0  0  0  0  0
  150.5054  133.0083  153.8619 H   0  0  0  0  0  0  0  0  0  0  0  0
  148.1700  132.6852  152.4824 H   0  0  0  0  0  0  0  0  0  0  0  0
  148.3238  132.1243  154.1457 H   0  0  0  0  0  0  0  0  0  0  0  0
  147.1250  134.7519  153.2074 H   0  0  0  0  0  0  0  0  0  0  0  0
  146.3804  133.5657  154.2794 H   0  0  0  0  0  0  0  0  0  0  0  0
  147.8623  134.1266  156.0737 H   0  0  0  0  0  0  0  0  0  0  0  0
  147.6151  135.7101  155.3621 H   0  0  0  0  0  0  0  0  0  0  0  0
  1  2  1  0  0  0  0
  1 21  1  0  0  0  0
  1 22  1  0  0  0  0
  1 23  1  0  0  0  0
  2 11  1  0  0  0  0
  2  3  2  0  0  0  0
  3  4  1  0  0  0  0
  4  5  1  0  0  0  0
  4  9  1  0  0  0  0
  5  6  1  0  0  0  0
  5 24  1  0  0  0  0
  5 25  1  0  0  0  0
  6  7  1  0  0  0  0
  6  8  1  0  0  0  0
  6 26  1  0  0  0  0
  7 27  1  0  0  0  0
  7 28  1  0  0  0  0
  7 29  1  0  0  0  0
  8 30  1  0  0  0  0
  8 31  1  0  0  0  0
  8 32  1  0  0  0  0
  9 10  1  0  0  0  0
  9 11  2  0  0  0  0
 10 33  1  0  0  0  0
 10 34  1  0  0  0  0
 10 35  1  0  0  0  0
 11 12  1  0  0  0  0
 12 13  1  0  0  0  0
 12 36  1  0  0  0  0
 12 37  1  0  0  0  0
 13 14  2  0  0  0  0
 13 15  1  0  0  0  0
 15 16  1  0  0  0  0
 15 38  1  0  0  0  0
 16 20  1  0  0  0  0
 16 17  1  0  0  0  0
 16 39  1  0  0  0  0
 17 18  1  0  0  0  0
 17 40  1  0  0  0  0
 17 41  1  0  0  0  0
 18 19  1  0  0  0  0
 18 42  1  0  0  0  0
 18 43  1  0  0  0  0
 19 20  1  0  0  0  0
 19 44  1  0  0  0  0
 19 45  1  0  0  0  0
 20 46  1  0  0  0  0
 20 47  1  0  0  0  0
M  END
> <s_m_source_file>
AV-unprocessed.smi

> <i_m_source_file_index>
423

> <i_lp_mmshare_version>
43012

> <i_f3d_flags>
0

> <s_epik_input>
W0NIM11jMW5uKFtDSDJdW0NIXShbQ0gzXSlbQ0gzXSljKFtDSDNdKWMxW0NIMl1DKD1PKVtOSF1bQ0hdMltDSDJdW0NIMl1bQ0gyXVtDSDJdMg==

> <s_epik_cmdline>
J2VwaWtfcHl0aG9uJywgJy1waCcsICc3LjAnLCAnLXRuJywgJzgnLCAnLW1hJywgJzIwMCcsICctbWV0YWxfYmluZGluZycsICctaW1hZScsICc8aW5maWxlLm1hZT4nLCAnLW9tYWUnLCAnPG91dGZpbGUubWFlPic=

> <r_lp_tautomer_probability>
1

> <r_epik_Ionization_Penalty>
0.00323157

> <r_epik_Ionization_Penalty_Charging>
0

> <r_epik_Ionization_Penalty_Neutral>
0.00323157

> <r_epik_State_Penalty>
0.00228044

> <r_epik_Charging_Adjusted_Penalty>
0.00228044

> <i_epik_Tot_Q>
0

> <i_epik_Tot_abs_Q>
0

> <r_epik_Metal_State_Penalty>
-0

> <b_epik_Metal_Only>
0

> <s_lp_Force_Field>
OPLS_2005

> <r_lp_Energy>
20.2574

> <b_lp_Chiralities_Consistent>
1

> <s_lp_Variant>
AV-unprocessed.smi:423-1

> <Gold.Version>
5.8.1

> <Gold.Id.Protein>
6NUR|6NUR_protein|mol2

> <Gold.PLP.Fitness>
43.0091

> <Gold.PLP.PLP>
-37.1484

> <Gold.PLP.part.hbond>
-2.2802

> <Gold.PLP.part.metal>
0.0000

> <Gold.PLP.part.buried>
-4.8746

> <Gold.PLP.part.nonpolar>
-31.1362

> <Gold.PLP.part.repulsive>
0.1287

> <Gold.PLP.ligand.clash>
0.0000

> <Gold.PLP.ligand.torsion>
0.0214

> <Gold.PLP.Chemscore.Hbond>
1.9600

> <Gold.PLP.Chemscore.CHOScore>
0.0000

> <Gold.PLP.Chemscore.Metal>
0.0000

> <Gold.Chemscore.Hbonds>
donor molecule, donor type, donor heavy atom, donor atom, acceptor molecule, acceptor atom, score
      L1  H    15    38       P1  7948  0.85
      P1  H 10752 10764       L1    14  0.98

> <Gold.PLP.Chemscore.Internal.Correction>
0.0237

> <Gold.Rescore>
     Score         DG    S(hbond)    S(metal)    S(lipo)     H(rot)  DE(clash)    DE(int)     intcor
     16.57     -19.18       1.56        0.00     103.82       1.43       0.09       2.52       ----

> <Gold.Chemscore.Fitness>
16.5676

> <Gold.Chemscore.DG>
-19.1758

> <Gold.Chemscore.ZeroCoef>
-5.4800

> <Gold.Chemscore.Hbond>
1.5609

> <Gold.Chemscore.Metal>
0.0000

> <Gold.Chemscore.Lipo>
103.8233

> <Gold.Chemscore.Internal_Hbond>
0.0000

> <Gold.Chemscore.DEClash>
0.0851

> <Gold.Chemscore.DEInternal>
2.5231

> <Gold.Chemscore.Rot>
1.4316

> <Gold.Chemscore.Internal.Correction>
   9.000000E+99

> <Gold.Chemscore.Hbonds>
donor molecule, donor type, donor heavy atom, donor atom, acceptor molecule, acceptor atom, score
      L1  H    15    38       P1  7948  0.68
      P1  H 10752 10764       L1    14  0.49

> <Gold.Chemscore.Hbond.Weighted>
-5.2134

> <Gold.Chemscore.Metal.Weighted>
-0.0000

> <Gold.Chemscore.Lipo.Weighted>
-12.1473

> <Gold.Chemscore.Internal_Hbond.Weighted>
0.0000

> <Gold.Chemscore.DEClash.Weighted>
0.0851

> <Gold.Chemscore.DEInternal.Weighted>
2.5231

> <Gold.Chemscore.Rot.Weighted>
3.6649

> <Gold.Chemscore.Internal.Correction.Weighted>
   9.000000E+99

> <Gold.Protein.RotatedTorsions>
[ 6907 6896 6895 6894 ] final   99.73 input  -60.11 | X-H torsion
[ 7974 7965 7964 7962 ] final  159.34 input  175.53 | X-H torsion
[ 8008 7997 7996 7995 ] final  167.61 input   59.86 | X-H torsion
[ 10167 10162 10161 10158 ] final  165.61 input  -65.29 | X-H torsion
[ 10718 10713 10712 10709 ] final   73.73 input   66.30 | X-H torsion
[ 10763 10752 10751 10750 ] final  -22.73 input  -60.55 | X-H torsion
[ 11005 11000 10999 10996 ] final  173.79 input  -57.11 | X-H torsion

> <Gold.Protein.ActiveResidues>
 VAL166  LYS551  ARG553  GLY616  TRP617  ASP618  TYR619  PRO620  LYS621  CYS622 
 ASP623  PHE694  ASN695  SER759  ASP760  ASP761  ALA762  ILE779  LEU786  VAL792 
 PHE793  MET794  SER795  GLU796  ALA797  LYS798  CYS799  TRP800  GLU811  SER814 

> <Gold.Protein.RotatedAtoms>
  152.5386  134.0384  159.8056 H   0  0  0  0  0  0  0  0  0  0  0  0  # atno 6907 bound_to 6896
  151.0544  133.5589  159.2647 H   0  0  0  0  0  0  0  0  0  0  0  0  # atno 6908 bound_to 6896
  151.2511  135.0630  159.9116 H   0  0  0  0  0  0  0  0  0  0  0  0  # atno 6909 bound_to 6896
  144.7795  139.7604  143.6265 H   0  0  0  0  0  0  0  0  0  0  0  0  # atno 7974 bound_to 7965
  156.1619  140.1612  156.8598 H   0  0  0  0  0  0  0  0  0  0  0  0  # atno 8008 bound_to 7997
  154.5169  140.0787  156.8133 H   0  0  0  0  0  0  0  0  0  0  0  0  # atno 8009 bound_to 7997
  155.3690  140.3399  155.4245 H   0  0  0  0  0  0  0  0  0  0  0  0  # atno 8010 bound_to 7997
  139.4909  144.4114  151.9295 H   0  0  0  0  0  0  0  0  0  0  0  0  # atno 10167 bound_to 10162
  157.6561  130.9643  150.1110 H   0  0  0  0  0  0  0  0  0  0  0  0  # atno 10718 bound_to 10713
  153.6567  135.6978  153.5191 H   0  0  0  0  0  0  0  0  0  0  0  0  # atno 10763 bound_to 10752
  153.2664  135.4228  155.0944 H   0  0  0  0  0  0  0  0  0  0  0  0  # atno 10764 bound_to 10752
  154.8462  135.3567  154.6111 H   0  0  0  0  0  0  0  0  0  0  0  0  # atno 10765 bound_to 10752
  140.3443  134.7250  157.4224 H   0  0  0  0  0  0  0  0  0  0  0  0  # atno 11005 bound_to 11000
  146.1996  139.5282  142.9752 LP  0  0  0  0  0  0  0  0  0  0  0  0  # atno 17320 bound_to 7965
  145.6089  141.0343  143.1977 LP  0  0  0  0  0  0  0  0  0  0  0  0  # atno 17321 bound_to 7965
  140.3555  144.3037  150.5942 LP  0  0  0  0  0  0  0  0  0  0  0  0  # atno 17342 bound_to 10162
  140.5448  143.2217  151.8025 LP  0  0  0  0  0  0  0  0  0  0  0  0  # atno 17343 bound_to 10162
  156.2007  130.3660  149.8792 LP  0  0  0  0  0  0  0  0  0  0  0  0  # atno 17370 bound_to 10713
  156.6697  130.8815  151.3560 LP  0  0  0  0  0  0  0  0  0  0  0  0  # atno 17371 bound_to 10713
  140.0755  134.5803  155.8596 LP  0  0  0  0  0  0  0  0  0  0  0  0  # atno 17394 bound_to 11000
  141.2030  133.6629  156.6037 LP  0  0  0  0  0  0  0  0  0  0  0  0  # atno 17395 bound_to 11000

$$$$
