AV-unprocessed.smi:160|AV-procd|sdf|1353|dock3
  -GOLD-   2262019 53D 1   1.00000     0.00000
 Structure written by MMmdl.
 29 30  0  0  0  0  0  0  0  0  1 V2000
  150.6017  132.9571  155.2971 N   0  0  0  0  0  0  0  0  0  0  0  0
  151.0892  133.5345  156.4003 C   0  0  0  0  0  0  0  0  0  0  0  0
  151.5146  132.8823  157.3525 O   0  0  0  0  0  0  0  0  0  0  0  0
  151.0912  135.0382  156.4168 C   0  0  0  0  0  0  0  0  0  0  0  0
  151.1124  135.7312  157.5937 N   0  0  0  0  0  0  0  0  0  0  0  0
  151.1038  136.9659  157.1087 C   0  0  0  0  0  0  0  0  0  0  0  0
  151.0848  137.0305  155.7736 N   0  0  0  0  0  0  0  0  0  0  0  0
  151.0715  138.2310  154.8737 C   0  0  2  0  0  0  0  0  0  0  0  0
  151.2804  139.3707  155.6530 O   0  0  0  0  0  0  0  0  0  0  0  0
  150.0464  140.0531  155.8487 C   0  0  1  0  0  0  0  0  0  0  0  0
  150.2775  141.5187  156.2565 C   0  0  0  0  0  0  0  0  0  0  0  0
  149.0431  142.1472  156.5290 O   0  0  0  0  0  0  0  0  0  0  0  0
  149.3327  139.8421  154.5060 C   0  0  1  0  0  0  0  0  0  0  0  0
  149.7922  140.7650  153.5346 O   0  0  0  0  0  0  0  0  0  0  0  0
  149.7333  138.4225  154.1177 C   0  0  2  0  0  0  0  0  0  0  0  0
  148.7139  137.5092  154.4859 O   0  0  0  0  0  0  0  0  0  0  0  0
  151.0737  135.7605  155.2953 N   0  0  0  0  0  0  0  0  0  0  0  0
  151.9223  138.0787  154.2087 H   0  0  0  0  0  0  0  0  0  0  0  0
  149.4712  139.5401  156.6213 H   0  0  0  0  0  0  0  0  0  0  0  0
  148.2524  139.9636  154.5983 H   0  0  0  0  0  0  0  0  0  0  0  0
  149.9054  138.3249  153.0449 H   0  0  0  0  0  0  0  0  0  0  0  0
  150.5732  131.9505  155.2258 H   0  0  0  0  0  0  0  0  0  0  0  0
  150.2640  133.5349  154.5407 H   0  0  0  0  0  0  0  0  0  0  0  0
  151.1151  137.8422  157.7400 H   0  0  0  0  0  0  0  0  0  0  0  0
  150.9380  141.5929  157.1212 H   0  0  0  0  0  0  0  0  0  0  0  0
  150.7467  142.0664  155.4387 H   0  0  0  0  0  0  0  0  0  0  0  0
  149.0730  143.0289  156.1902 H   0  0  0  0  0  0  0  0  0  0  0  0
  149.5749  140.4324  152.6772 H   0  0  0  0  0  0  0  0  0  0  0  0
  148.6553  136.8395  153.8219 H   0  0  0  0  0  0  0  0  0  0  0  0
  1  2  1  0  0  0  0
  1 22  1  0  0  0  0
  1 23  1  0  0  0  0
  2  3  2  0  0  0  0
  2  4  1  0  0  0  0
  4 17  2  0  0  0  0
  4  5  1  0  0  0  0
  5  6  2  0  0  0  0
  6  7  1  0  0  0  0
  6 24  1  0  0  0  0
  7  8  1  0  0  0  0
  7 17  1  0  0  0  0
  8 18  1  0  0  0  0
  8 15  1  0  0  0  0
  8  9  1  0  0  0  0
  9 10  1  0  0  0  0
 10 19  1  0  0  0  0
 10 11  1  0  0  0  0
 10 13  1  0  0  0  0
 11 12  1  0  0  0  0
 11 25  1  0  0  0  0
 11 26  1  0  0  0  0
 12 27  1  0  0  0  0
 13 20  1  0  0  0  0
 13 14  1  0  0  0  0
 13 15  1  0  0  0  0
 14 28  1  0  0  0  0
 15 21  1  0  0  0  0
 15 16  1  0  0  0  0
 16 29  1  0  0  0  0
M  END
> <s_m_source_file>
AV-unprocessed.smi

> <i_m_source_file_index>
160

> <i_lp_mmshare_version>
43012

> <i_f3d_flags>
0

> <s_epik_input>
W05IMl1DKD1PKWMxbltjSF1uKG4xKVtDQEBIXTJPW0NASF0oW0NIMl1bT0hdKVtDQEBIXShbT0hdKVtDQEhdMltPSF0=

> <s_epik_cmdline>
J2VwaWtfcHl0aG9uJywgJy1waCcsICc3LjAnLCAnLXRuJywgJzgnLCAnLW1hJywgJzIwMCcsICctbWV0YWxfYmluZGluZycsICctaW1hZScsICc8aW5maWxlLm1hZT4nLCAnLW9tYWUnLCAnPG91dGZpbGUubWFlPic=

> <r_lp_tautomer_probability>
1

> <r_epik_Ionization_Penalty>
1.06932e-05

> <r_epik_Ionization_Penalty_Charging>
0

> <r_epik_Ionization_Penalty_Neutral>
1.06932e-05

> <r_epik_State_Penalty>
-0

> <r_epik_Charging_Adjusted_Penalty>
0

> <i_epik_Tot_Q>
0

> <i_epik_Tot_abs_Q>
0

> <r_epik_Metal_State_Penalty>
0.0142097

> <b_epik_Metal_Only>
0

> <s_epik_Chemistry_Notes>
This compound contains an acetal/aminal-like group ( X-CH(R)-Y where X, Y are N, S, or O) that may be acid/base labile, releasing an aldehyde.

> <s_lp_Force_Field>
OPLS_2005

> <r_lp_Energy>
42.6693

> <b_lp_Chiralities_Consistent>
1

> <s_lp_Variant>
AV-unprocessed.smi:160-11

> <Gold.Version>
5.8.1

> <Gold.Id.Protein>
6NUR|6NUR_protein|mol2

> <Gold.PLP.Fitness>
39.9744

> <Gold.PLP.PLP>
-24.7119

> <Gold.PLP.part.hbond>
-7.4335

> <Gold.PLP.part.metal>
0.0000

> <Gold.PLP.part.buried>
-2.8925

> <Gold.PLP.part.nonpolar>
-14.5161

> <Gold.PLP.part.repulsive>
0.1780

> <Gold.PLP.ligand.clash>
0.0000

> <Gold.PLP.ligand.torsion>
0.3943

> <Gold.PLP.Chemscore.Hbond>
5.3491

> <Gold.PLP.Chemscore.CHOScore>
0.0000

> <Gold.PLP.Chemscore.Metal>
0.0000

> <Gold.Chemscore.Hbonds>
donor molecule, donor type, donor heavy atom, donor atom, acceptor molecule, acceptor atom, score
      L1  H    12    27       P1  8028  1.00
      L1  H    14    28       P1  7957  1.00
      L1  H    16    29       P1  7948  0.90
      P1  H  6896  6907       L1     5  0.14
      P1  H  6896  6909       L1     3  0.88
      P1  H  7989  7998       L1    14  0.38
      P1  H 10752 10765       L1    17  1.00

> <Gold.PLP.Chemscore.Internal.Correction>
0.0038

> <Gold.Rescore>
     Score         DG    S(hbond)    S(metal)    S(lipo)     H(rot)  DE(clash)    DE(int)     intcor
     13.90     -14.93       5.07        0.00      24.99       4.06       0.35       0.68       ----

> <Gold.Chemscore.Fitness>
13.9049

> <Gold.Chemscore.DG>
-14.9331

> <Gold.Chemscore.ZeroCoef>
-5.4800

> <Gold.Chemscore.Hbond>
5.0666

> <Gold.Chemscore.Metal>
0.0000

> <Gold.Chemscore.Lipo>
24.9936

> <Gold.Chemscore.Internal_Hbond>
0.0000

> <Gold.Chemscore.DEClash>
0.3479

> <Gold.Chemscore.DEInternal>
0.6803

> <Gold.Chemscore.Rot>
4.0600

> <Gold.Chemscore.Internal.Correction>
   9.000000E+99

> <Gold.Chemscore.Hbonds>
donor molecule, donor type, donor heavy atom, donor atom, acceptor molecule, acceptor atom, score
      L1  H    12    27       P1  8028  1.00
      L1  H    14    28       P1  7957  0.97
      L1  H    16    29       P1  7948  0.83
      P1  H  6896  6907       L1     5  0.14
      P1  H  6896  6909       L1     3  0.86
      P1  H  7989  7998       L1    14  0.12
      P1  H 10752 10765       L1    17  0.17

> <Gold.Chemscore.Hbond.Weighted>
-16.9224

> <Gold.Chemscore.Metal.Weighted>
-0.0000

> <Gold.Chemscore.Lipo.Weighted>
-2.9242

> <Gold.Chemscore.Internal_Hbond.Weighted>
0.0000

> <Gold.Chemscore.DEClash.Weighted>
0.3479

> <Gold.Chemscore.DEInternal.Weighted>
0.6803

> <Gold.Chemscore.Rot.Weighted>
10.3936

> <Gold.Chemscore.Internal.Correction.Weighted>
   9.000000E+99

> <Gold.Protein.RotatedTorsions>
[ 6907 6896 6895 6894 ] final  -54.18 input  -60.11 | X-H torsion
[ 7974 7965 7964 7962 ] final -176.99 input  175.53 | X-H torsion
[ 8008 7997 7996 7995 ] final  -45.18 input   59.86 | X-H torsion
[ 10167 10162 10161 10158 ] final  160.21 input  -65.29 | X-H torsion
[ 10718 10713 10712 10709 ] final  -44.02 input   66.30 | X-H torsion
[ 10763 10752 10751 10750 ] final  176.80 input  -60.55 | X-H torsion
[ 11005 11000 10999 10996 ] final   45.69 input  -57.11 | X-H torsion

> <Gold.Protein.ActiveResidues>
 VAL166  LYS551  ARG553  GLY616  TRP617  ASP618  TYR619  PRO620  LYS621  CYS622 
 ASP623  PHE694  ASN695  SER759  ASP760  ASP761  ALA762  ILE779  LEU786  VAL792 
 PHE793  MET794  SER795  GLU796  ALA797  LYS798  CYS799  TRP800  GLU811  SER814 

> <Gold.Protein.RotatedAtoms>
  150.8360  134.7634  159.6893 H   0  0  0  0  0  0  0  0  0  0  0  0  # atno 6907 bound_to 6896
  152.4457  134.5496  159.9873 H   0  0  0  0  0  0  0  0  0  0  0  0  # atno 6908 bound_to 6896
  151.5646  133.3360  159.3013 H   0  0  0  0  0  0  0  0  0  0  0  0  # atno 6909 bound_to 6896
  144.7127  140.1087  143.6412 H   0  0  0  0  0  0  0  0  0  0  0  0  # atno 7974 bound_to 7965
  154.4000  140.1403  156.3805 H   0  0  0  0  0  0  0  0  0  0  0  0  # atno 8008 bound_to 7997
  155.8008  140.3476  155.5381 H   0  0  0  0  0  0  0  0  0  0  0  0  # atno 8009 bound_to 7997
  155.8485  140.0938  157.1680 H   0  0  0  0  0  0  0  0  0  0  0  0  # atno 8010 bound_to 7997
  139.4838  144.4656  151.8646 H   0  0  0  0  0  0  0  0  0  0  0  0  # atno 10167 bound_to 10162
  156.2429  130.4181  149.8739 H   0  0  0  0  0  0  0  0  0  0  0  0  # atno 10718 bound_to 10713
  154.4860  135.2777  155.1534 H   0  0  0  0  0  0  0  0  0  0  0  0  # atno 10763 bound_to 10752
  154.3225  135.6207  153.5518 H   0  0  0  0  0  0  0  0  0  0  0  0  # atno 10764 bound_to 10752
  152.9881  135.5746  154.5271 H   0  0  0  0  0  0  0  0  0  0  0  0  # atno 10765 bound_to 10752
  140.1437  134.4550  155.8431 H   0  0  0  0  0  0  0  0  0  0  0  0  # atno 11005 bound_to 11000
  145.9474  139.2710  143.1232 LP  0  0  0  0  0  0  0  0  0  0  0  0  # atno 17320 bound_to 7965
  145.9359  140.9015  143.0332 LP  0  0  0  0  0  0  0  0  0  0  0  0  # atno 17321 bound_to 7965
  140.4121  144.2355  150.5888 LP  0  0  0  0  0  0  0  0  0  0  0  0  # atno 17342 bound_to 10162
  140.4956  143.2333  151.8754 LP  0  0  0  0  0  0  0  0  0  0  0  0  # atno 17343 bound_to 10162
  156.6315  130.8667  151.3496 LP  0  0  0  0  0  0  0  0  0  0  0  0  # atno 17370 bound_to 10713
  157.7183  130.9525  150.1338 LP  0  0  0  0  0  0  0  0  0  0  0  0  # atno 17371 bound_to 10713
  141.2189  133.6843  156.7294 LP  0  0  0  0  0  0  0  0  0  0  0  0  # atno 17394 bound_to 11000
  140.2690  134.8407  157.3830 LP  0  0  0  0  0  0  0  0  0  0  0  0  # atno 17395 bound_to 11000

$$$$
