AV-unprocessed.smi:21|AV-procd|sdf|126|dock4
  -GOLD-   2262015303D 1   1.00000     0.00000
 Structure written by MMmdl.
 62 65  0  0  0  0  0  0  0  0  2 V2000
  145.9888  132.0501  149.8715 C   0  0  0  0  0  0  0  0  0  0  0  0
  146.3207  131.8410  151.2345 O   0  0  0  0  0  0  0  0  0  0  0  0
  147.0602  132.9089  151.8079 C   0  0  2  0  0  0  0  0  0  0  0  0
  147.5588  132.5277  153.1977 C   0  0  0  0  0  0  0  0  0  0  0  0
  147.7285  133.8662  153.9401 C   0  0  1  0  0  0  0  0  0  0  0  0
  149.1987  134.3359  154.0443 C   0  0  0  0  0  0  0  0  0  0  0  0
  149.8708  133.9123  155.2746 N   0  0  0  0  0  0  0  0  0  0  0  0
  150.2034  132.4997  155.4435 C   0  0  0  0  0  0  0  0  0  0  0  0
  149.7911  134.7032  156.3821 C   0  0  0  0  0  0  0  0  0  0  0  0
  148.7257  134.5564  157.2150 N   0  0  0  0  0  0  0  0  0  0  0  0
  148.5710  135.3554  158.2740 C   0  0  0  0  0  0  0  0  0  0  0  0
  149.3453  136.3626  158.6769 N   0  0  0  0  0  0  0  0  0  0  0  0
  150.4282  136.5072  157.8626 C   0  0  0  0  0  0  0  0  0  0  0  0
  150.7379  135.7183  156.7174 C   0  0  0  0  0  0  0  0  0  0  0  0
  151.9395  136.1534  156.1672 N   0  0  0  0  0  0  0  0  0  0  0  0
  152.3019  137.1537  156.9213 C   0  0  0  0  0  0  0  0  0  0  0  0
  151.4278  137.4610  157.9374 N   0  0  0  0  0  0  0  0  0  0  0  0
  151.5543  138.5469  158.8913 C   0  0  0  0  0  0  0  0  0  0  0  0
  151.5977  139.9649  158.2531 C   0  0  1  0  0  0  0  0  0  0  0  0
  150.3556  140.1490  157.3477 C   0  0  0  0  0  0  0  0  0  0  0  0
  149.1580  140.0597  158.0920 O   0  0  0  0  0  0  0  0  0  0  0  0
  151.7190  141.1154  159.3006 C   0  0  2  0  0  0  0  0  0  0  0  0
  151.8770  142.5101  158.7116 C   0  0  0  0  0  0  0  0  0  0  0  0
  152.4234  143.3047  159.8885 C   0  0  0  0  0  0  0  0  0  0  0  0
  153.3097  142.4088  160.5396 O   0  0  0  0  0  0  0  0  0  0  0  0
  152.9587  141.0680  160.2135 C   0  0  0  0  0  0  0  0  0  0  0  0
  146.9364  134.8594  153.1726 N   0  3  2  0  0  0  0  0  0  0  0  0
  146.0744  135.7303  154.0007 C   0  0  0  0  0  0  0  0  0  0  0  0
  146.2133  134.1456  152.1011 C   0  0  0  0  0  0  0  0  0  0  0  0
  147.9155  133.1733  151.1828 H   0  0  0  0  0  0  0  0  0  0  0  0
  147.2963  133.7623  154.9363 H   0  0  0  0  0  0  0  0  0  0  0  0
  145.4475  131.1837  149.4916 H   0  0  0  0  0  0  0  0  0  0  0  0
  146.8846  132.1783  149.2625 H   0  0  0  0  0  0  0  0  0  0  0  0
  145.3500  132.9242  149.7434 H   0  0  0  0  0  0  0  0  0  0  0  0
  146.7974  131.9343  153.7063 H   0  0  0  0  0  0  0  0  0  0  0  0
  148.4637  131.9231  153.1592 H   0  0  0  0  0  0  0  0  0  0  0  0
  149.7546  133.9580  153.1855 H   0  0  0  0  0  0  0  0  0  0  0  0
  149.2622  135.4193  153.9577 H   0  0  0  0  0  0  0  0  0  0  0  0
  151.1326  132.3897  156.0038 H   0  0  0  0  0  0  0  0  0  0  0  0
  150.3409  132.0100  154.4794 H   0  0  0  0  0  0  0  0  0  0  0  0
  149.4144  131.9721  155.9803 H   0  0  0  0  0  0  0  0  0  0  0  0
  147.6938  135.1695  158.8766 H   0  0  0  0  0  0  0  0  0  0  0  0
  153.2046  137.7175  156.7359 H   0  0  0  0  0  0  0  0  0  0  0  0
  150.7146  138.4616  159.5813 H   0  0  0  0  0  0  0  0  0  0  0  0
  152.4542  138.3813  159.4849 H   0  0  0  0  0  0  0  0  0  0  0  0
  152.4725  140.0226  157.6040 H   0  0  0  0  0  0  0  0  0  0  0  0
  150.3899  141.1088  156.8315 H   0  0  0  0  0  0  0  0  0  0  0  0
  150.2990  139.3754  156.5832 H   0  0  0  0  0  0  0  0  0  0  0  0
  148.7328  139.2421  157.8819 H   0  0  0  0  0  0  0  0  0  0  0  0
  150.8258  141.1207  159.9277 H   0  0  0  0  0  0  0  0  0  0  0  0
  152.6035  142.5029  157.8973 H   0  0  0  0  0  0  0  0  0  0  0  0
  150.9427  142.9288  158.3365 H   0  0  0  0  0  0  0  0  0  0  0  0
  152.9304  144.2200  159.5824 H   0  0  0  0  0  0  0  0  0  0  0  0
  151.6198  143.5712  160.5765 H   0  0  0  0  0  0  0  0  0  0  0  0
  152.7755  140.5108  161.1305 H   0  0  0  0  0  0  0  0  0  0  0  0
  153.8099  140.6144  159.7047 H   0  0  0  0  0  0  0  0  0  0  0  0
  145.3239  135.1480  154.5376 H   0  0  0  0  0  0  0  0  0  0  0  0
  145.5598  136.4608  153.3760 H   0  0  0  0  0  0  0  0  0  0  0  0
  146.6716  136.2754  154.7320 H   0  0  0  0  0  0  0  0  0  0  0  0
  146.0686  134.7789  151.2254 H   0  0  0  0  0  0  0  0  0  0  0  0
  145.2304  133.8385  152.4634 H   0  0  0  0  0  0  0  0  0  0  0  0
  147.6095  135.4539  152.7104 H   0  0  0  0  0  0  0  0  0  0  0  0
  1  2  1  0  0  0  0
  1 32  1  0  0  0  0
  1 33  1  0  0  0  0
  1 34  1  0  0  0  0
  2  3  1  0  0  0  0
  3 30  1  0  0  0  0
  3 29  1  0  0  0  0
  3  4  1  0  0  0  0
  4  5  1  0  0  0  0
  4 35  1  0  0  0  0
  4 36  1  0  0  0  0
  5 31  1  0  0  0  0
  5  6  1  0  0  0  0
  5 27  1  0  0  0  0
  6  7  1  0  0  0  0
  6 37  1  0  0  0  0
  6 38  1  0  0  0  0
  7  8  1  0  0  0  0
  7  9  1  0  0  0  0
  8 39  1  0  0  0  0
  8 40  1  0  0  0  0
  8 41  1  0  0  0  0
  9 14  1  0  0  0  0
  9 10  2  0  0  0  0
 10 11  1  0  0  0  0
 11 12  2  0  0  0  0
 11 42  1  0  0  0  0
 12 13  1  0  0  0  0
 13 17  1  0  0  0  0
 13 14  2  0  0  0  0
 14 15  1  0  0  0  0
 15 16  2  0  0  0  0
 16 17  1  0  0  0  0
 16 43  1  0  0  0  0
 17 18  1  0  0  0  0
 18 19  1  0  0  0  0
 18 44  1  0  0  0  0
 18 45  1  0  0  0  0
 19 20  1  0  0  0  0
 19 22  1  0  0  0  0
 19 46  1  0  0  0  0
 20 21  1  0  0  0  0
 20 47  1  0  0  0  0
 20 48  1  0  0  0  0
 21 49  1  0  0  0  0
 22 26  1  0  0  0  0
 22 23  1  0  0  0  0
 22 50  1  0  0  0  0
 23 24  1  0  0  0  0
 23 51  1  0  0  0  0
 23 52  1  0  0  0  0
 24 25  1  0  0  0  0
 24 53  1  0  0  0  0
 24 54  1  0  0  0  0
 25 26  1  0  0  0  0
 26 55  1  0  0  0  0
 26 56  1  0  0  0  0
 27 28  1  0  0  0  0
 27 29  1  0  0  0  0
 27 62  1  0  0  0  0
 28 57  1  0  0  0  0
 28 58  1  0  0  0  0
 28 59  1  0  0  0  0
 29 60  1  0  0  0  0
 29 61  1  0  0  0  0
M  CHG  1  27   1
M  END
> <s_m_source_file>
AV-unprocessed.smi

> <i_m_source_file_index>
21

> <i_lp_mmshare_version>
43012

> <i_f3d_flags>
0

> <s_epik_input>
W0NIM11PW0NASF0xW0NIMl1bQ0BIXShOKFtDSDNdKVtDSDJdMSlbQ0gyXU4oW0NIM10pYyhuW2NIXW4yKWMoYzIzKW5bY0hdbjNbQ0gyXVtDQEhdKFtDSDJdW09IXSlbQ0BASF00W0NIMl1bQ0gyXU9bQ0gyXTQ=

> <s_epik_cmdline>
J2VwaWtfcHl0aG9uJywgJy1waCcsICc3LjAnLCAnLXRuJywgJzgnLCAnLW1hJywgJzIwMCcsICctbWV0YWxfYmluZGluZycsICctaW1hZScsICc8aW5maWxlLm1hZT4nLCAnLW9tYWUnLCAnPG91dGZpbGUubWFlPic=

> <r_lp_tautomer_probability>
1

> <r_epik_Ionization_Penalty>
0.0157465

> <r_epik_Ionization_Penalty_Charging>
0.015354

> <r_epik_Ionization_Penalty_Neutral>
0.000392529

> <r_epik_State_Penalty>
0.0120612

> <r_epik_Charging_Adjusted_Penalty>
0.0274152

> <i_epik_Tot_Q>
1

> <i_epik_Tot_abs_Q>
1

> <r_epik_Metal_State_Penalty>
0.0121253

> <b_epik_Metal_Only>
0

> <s_lp_Force_Field>
OPLS_2005

> <r_lp_Energy>
57.6991

> <b_lp_Chiralities_Consistent>
1

> <s_lp_Variant>
AV-unprocessed.smi:21-6

> <Gold.Version>
5.8.1

> <Gold.Id.Protein>
6NUR|6NUR_protein|mol2

> <Gold.PLP.Fitness>
45.5737

> <Gold.PLP.PLP>
-40.0102

> <Gold.PLP.part.hbond>
-2.1612

> <Gold.PLP.part.metal>
0.0000

> <Gold.PLP.part.buried>
-4.7201

> <Gold.PLP.part.nonpolar>
-33.5633

> <Gold.PLP.part.repulsive>
0.1233

> <Gold.PLP.ligand.clash>
0.0000

> <Gold.PLP.ligand.torsion>
2.1710

> <Gold.PLP.Chemscore.Hbond>
3.0063

> <Gold.PLP.Chemscore.CHOScore>
0.0000

> <Gold.PLP.Chemscore.Metal>
0.0000

> <Gold.Chemscore.Hbonds>
donor molecule, donor type, donor heavy atom, donor atom, acceptor molecule, acceptor atom, score
      L1  H    27    62       P1  7948  2.00
      P1  H 10752 10765       L1    15  1.00

> <Gold.PLP.Chemscore.Internal.Correction>
0.8868

> <Gold.Rescore>
     Score         DG    S(hbond)    S(metal)    S(lipo)     H(rot)  DE(clash)    DE(int)     intcor
     13.46     -15.97       1.97        0.00     100.85       3.08       0.32       2.19       ----

> <Gold.Chemscore.Fitness>
13.4605

> <Gold.Chemscore.DG>
-15.9702

> <Gold.Chemscore.ZeroCoef>
-5.4800

> <Gold.Chemscore.Hbond>
1.9655

> <Gold.Chemscore.Metal>
0.0000

> <Gold.Chemscore.Lipo>
100.8514

> <Gold.Chemscore.Internal_Hbond>
0.0000

> <Gold.Chemscore.DEClash>
0.3180

> <Gold.Chemscore.DEInternal>
2.1916

> <Gold.Chemscore.Rot>
3.0758

> <Gold.Chemscore.Internal.Correction>
   9.000000E+99

> <Gold.Chemscore.Hbonds>
donor molecule, donor type, donor heavy atom, donor atom, acceptor molecule, acceptor atom, score
      L1  H    27    62       P1  7948  1.00
      P1  H 10752 10765       L1    15  0.98

> <Gold.Chemscore.Hbond.Weighted>
-6.5647

> <Gold.Chemscore.Metal.Weighted>
-0.0000

> <Gold.Chemscore.Lipo.Weighted>
-11.7996

> <Gold.Chemscore.Internal_Hbond.Weighted>
0.0000

> <Gold.Chemscore.DEClash.Weighted>
0.3180

> <Gold.Chemscore.DEInternal.Weighted>
2.1916

> <Gold.Chemscore.Rot.Weighted>
7.8741

> <Gold.Chemscore.Internal.Correction.Weighted>
   9.000000E+99

> <Gold.Protein.RotatedTorsions>
[ 6907 6896 6895 6894 ] final -177.29 input  -60.11 | X-H torsion
[ 7974 7965 7964 7962 ] final  -99.62 input  175.53 | X-H torsion
[ 8008 7997 7996 7995 ] final   46.16 input   59.86 | X-H torsion
[ 10167 10162 10161 10158 ] final -115.89 input  -65.29 | X-H torsion
[ 10718 10713 10712 10709 ] final    2.06 input   66.30 | X-H torsion
[ 10763 10752 10751 10750 ] final -165.54 input  -60.55 | X-H torsion
[ 11005 11000 10999 10996 ] final -106.43 input  -57.11 | X-H torsion

> <Gold.Protein.ActiveResidues>
 VAL166  LYS551  ARG553  GLY616  TRP617  ASP618  TYR619  PRO620  LYS621  CYS622 
 ASP623  PHE694  ASN695  SER759  ASP760  ASP761  ALA762  ILE779  LEU786  VAL792 
 PHE793  MET794  SER795  GLU796  ALA797  LYS798  CYS799  TRP800  GLU811  SER814 

> <Gold.Protein.RotatedAtoms>
  151.6185  133.3341  159.3082 H   0  0  0  0  0  0  0  0  0  0  0  0  # atno 6907 bound_to 6896
  150.8118  134.7281  159.6706 H   0  0  0  0  0  0  0  0  0  0  0  0  # atno 6908 bound_to 6896
  152.4215  134.5952  160.0036 H   0  0  0  0  0  0  0  0  0  0  0  0  # atno 6909 bound_to 6896
  145.3052  140.9387  143.2801 H   0  0  0  0  0  0  0  0  0  0  0  0  # atno 7974 bound_to 7965
  155.3478  140.3412  155.4239 H   0  0  0  0  0  0  0  0  0  0  0  0  # atno 8008 bound_to 7997
  156.1780  140.1654  156.8363 H   0  0  0  0  0  0  0  0  0  0  0  0  # atno 8009 bound_to 7997
  154.5302  140.0747  156.8314 H   0  0  0  0  0  0  0  0  0  0  0  0  # atno 8010 bound_to 7997
  140.0851  143.4751  152.1903 H   0  0  0  0  0  0  0  0  0  0  0  0  # atno 10167 bound_to 10162
  156.8574  130.5574  149.5665 H   0  0  0  0  0  0  0  0  0  0  0  0  # atno 10718 bound_to 10713
  154.6922  135.2973  154.9463 H   0  0  0  0  0  0  0  0  0  0  0  0  # atno 10763 bound_to 10752
  154.0422  135.6656  153.4795 H   0  0  0  0  0  0  0  0  0  0  0  0  # atno 10764 bound_to 10752
  153.0620  135.5110  154.8020 H   0  0  0  0  0  0  0  0  0  0  0  0  # atno 10765 bound_to 10752
  141.1005  133.8893  157.1855 H   0  0  0  0  0  0  0  0  0  0  0  0  # atno 11005 bound_to 11000
  144.9061  139.4587  143.6609 LP  0  0  0  0  0  0  0  0  0  0  0  0  # atno 17320 bound_to 7965
  146.3138  139.7843  142.8999 LP  0  0  0  0  0  0  0  0  0  0  0  0  # atno 17321 bound_to 7965
  139.5757  144.7486  151.3772 LP  0  0  0  0  0  0  0  0  0  0  0  0  # atno 17342 bound_to 10162
  140.7057  143.7519  150.7479 LP  0  0  0  0  0  0  0  0  0  0  0  0  # atno 17343 bound_to 10162
  156.0795  130.5809  150.9537 LP  0  0  0  0  0  0  0  0  0  0  0  0  # atno 17370 bound_to 10713
  157.6269  131.0925  150.8516 LP  0  0  0  0  0  0  0  0  0  0  0  0  # atno 17371 bound_to 10713
  139.9854  135.0083  156.9851 LP  0  0  0  0  0  0  0  0  0  0  0  0  # atno 17394 bound_to 11000
  140.5035  134.1074  155.7255 LP  0  0  0  0  0  0  0  0  0  0  0  0  # atno 17395 bound_to 11000

$$$$
