AV-unprocessed.smi:1707|AV-procd|sdf|6887|dock8
  -GOLD-   22720 8 93D 1   1.00000     0.00000
 Structure written by MMmdl.
 41 42  0  0  0  0  0  0  0  0  1 V2000
  151.8482  141.3426  157.3476 O   0  0  0  0  0  0  0  0  0  0  0  0
  151.1041  142.2077  156.8868 C   0  0  0  0  0  0  0  0  0  0  0  0
  151.1933  143.5039  157.2185 N   0  0  0  0  0  0  0  0  0  0  0  0
  152.1626  144.0633  158.1533 C   0  0  0  0  0  0  0  0  0  0  0  0
  151.5922  144.1355  159.5806 C   0  0  0  0  0  0  0  0  0  0  0  0
  152.3266  143.2301  160.5550 C   0  0  0  0  0  0  0  0  0  0  0  0
  152.3464  143.4740  161.8799 C   0  0  0  0  0  0  0  0  0  0  0  0
  153.0728  142.6097  162.8957 C   0  0  0  0  0  0  0  0  0  0  0  0
  154.0616  141.6345  162.2353 C   0  0  0  0  0  0  0  0  0  0  0  0
  153.4442  140.9759  160.9956 C   0  0  0  0  0  0  0  0  0  0  0  0
  153.0383  142.0267  159.9465 C   0  0  0  0  0  0  0  0  0  0  0  0
  150.1000  142.0054  156.0138 N   0  0  0  0  0  0  0  0  0  0  0  0
  149.6658  140.8157  155.4032 C   0  0  0  0  0  0  0  0  0  0  0  0
  149.9635  139.5607  155.8321 C   0  0  0  0  0  0  0  0  0  0  0  0
  149.4854  138.3749  155.1410 C   0  0  0  0  0  0  0  0  0  0  0  0
  149.7625  136.9788  155.6766 C   0  0  0  0  0  0  0  0  0  0  0  0
  150.4136  137.0245  156.8398 F   0  0  0  0  0  0  0  0  0  0  0  0
  148.6141  136.3312  155.8679 F   0  0  0  0  0  0  0  0  0  0  0  0
  150.4961  136.2750  154.8140 F   0  0  0  0  0  0  0  0  0  0  0  0
  148.7197  138.5812  154.0537 C   0  0  0  0  0  0  0  0  0  0  0  0
  148.4242  139.8667  153.5956 N   0  0  0  0  0  0  0  0  0  0  0  0
  148.8451  141.0029  154.1950 C   0  0  0  0  0  0  0  0  0  0  0  0
  148.5398  142.1000  153.7285 O   0  0  0  0  0  0  0  0  0  0  0  0
  147.8556  139.9385  152.7641 H   0  0  0  0  0  0  0  0  0  0  0  0
  150.5427  144.1504  156.7965 H   0  0  0  0  0  0  0  0  0  0  0  0
  153.0808  143.4747  158.1272 H   0  0  0  0  0  0  0  0  0  0  0  0
  152.4249  145.0640  157.8090 H   0  0  0  0  0  0  0  0  0  0  0  0
  151.6391  145.1653  159.9377 H   0  0  0  0  0  0  0  0  0  0  0  0
  150.5371  143.8587  159.5833 H   0  0  0  0  0  0  0  0  0  0  0  0
  151.8134  144.3253  162.2777 H   0  0  0  0  0  0  0  0  0  0  0  0
  153.5997  143.2506  163.6027 H   0  0  0  0  0  0  0  0  0  0  0  0
  152.3238  142.0580  163.4646 H   0  0  0  0  0  0  0  0  0  0  0  0
  154.9638  142.1728  161.9416 H   0  0  0  0  0  0  0  0  0  0  0  0
  154.3740  140.8764  162.9538 H   0  0  0  0  0  0  0  0  0  0  0  0
  154.1429  140.2634  160.5563 H   0  0  0  0  0  0  0  0  0  0  0  0
  152.5661  140.4026  161.2951 H   0  0  0  0  0  0  0  0  0  0  0  0
  152.3961  141.5630  159.1973 H   0  0  0  0  0  0  0  0  0  0  0  0
  153.9261  142.3838  159.4244 H   0  0  0  0  0  0  0  0  0  0  0  0
  149.5531  142.8188  155.7710 H   0  0  0  0  0  0  0  0  0  0  0  0
  150.5841  139.3973  156.6970 H   0  0  0  0  0  0  0  0  0  0  0  0
  148.2759  137.7936  153.4626 H   0  0  0  0  0  0  0  0  0  0  0  0
  1  2  2  0  0  0  0
  2  3  1  0  0  0  0
  2 12  1  0  0  0  0
  3  4  1  0  0  0  0
  3 25  1  0  0  0  0
  4  5  1  0  0  0  0
  4 26  1  0  0  0  0
  4 27  1  0  0  0  0
  5  6  1  0  0  0  0
  5 28  1  0  0  0  0
  5 29  1  0  0  0  0
  6 11  1  0  0  0  0
  6  7  2  0  0  0  0
  7  8  1  0  0  0  0
  7 30  1  0  0  0  0
  8  9  1  0  0  0  0
  8 31  1  0  0  0  0
  8 32  1  0  0  0  0
  9 10  1  0  0  0  0
  9 33  1  0  0  0  0
  9 34  1  0  0  0  0
 10 11  1  0  0  0  0
 10 35  1  0  0  0  0
 10 36  1  0  0  0  0
 11 37  1  0  0  0  0
 11 38  1  0  0  0  0
 12 13  1  0  0  0  0
 12 39  1  0  0  0  0
 13 22  1  0  0  0  0
 13 14  2  0  0  0  0
 14 15  1  0  0  0  0
 14 40  1  0  0  0  0
 15 16  1  0  0  0  0
 15 20  2  0  0  0  0
 16 17  1  0  0  0  0
 16 18  1  0  0  0  0
 16 19  1  0  0  0  0
 20 21  1  0  0  0  0
 20 41  1  0  0  0  0
 21 24  1  0  0  0  0
 21 22  1  0  0  0  0
 22 23  2  0  0  0  0
M  END
> <s_m_source_file>
AV-unprocessed.smi

> <i_m_source_file_index>
1707

> <i_lp_mmshare_version>
43012

> <i_f3d_flags>
0

> <s_epik_input>
Tz1jMVtuSF1bY0hdYyhDKEYpKEYpRilbY0hdYzFbTkhdQyg9TylbTkhdW0NIMl1bQ0gyXUMyPVtDSF1bQ0gyXVtDSDJdW0NIMl1bQ0gyXTI=

> <s_epik_cmdline>
J2VwaWtfcHl0aG9uJywgJy1waCcsICc3LjAnLCAnLXRuJywgJzgnLCAnLW1hJywgJzIwMCcsICctbWV0YWxfYmluZGluZycsICctaW1hZScsICc8aW5maWxlLm1hZT4nLCAnLW9tYWUnLCAnPG91dGZpbGUubWFlPic=

> <r_lp_tautomer_probability>
1

> <r_epik_Ionization_Penalty>
0.00382222

> <r_epik_Ionization_Penalty_Charging>
0.0038016

> <r_epik_Ionization_Penalty_Neutral>
2.06242e-05

> <r_epik_State_Penalty>
-0

> <r_epik_Charging_Adjusted_Penalty>
0.0038016

> <i_epik_Tot_Q>
0

> <i_epik_Tot_abs_Q>
0

> <r_epik_Metal_State_Penalty>
0.371215

> <b_epik_Metal_Only>
0

> <s_lp_Force_Field>
OPLS_2005

> <r_lp_Energy>
19.0753

> <b_lp_Chiralities_Consistent>
1

> <s_lp_Variant>
AV-unprocessed.smi:1707-1

> <Gold.Version>
5.8.1

> <Gold.Id.Protein>
6NUR|6NUR_protein|mol2

> <Gold.PLP.Fitness>
55.0777

> <Gold.PLP.PLP>
-47.0022

> <Gold.PLP.part.hbond>
-4.0000

> <Gold.PLP.part.metal>
0.0000

> <Gold.PLP.part.buried>
-1.2659

> <Gold.PLP.part.nonpolar>
-41.6709

> <Gold.PLP.part.repulsive>
0.4048

> <Gold.PLP.ligand.clash>
0.0000

> <Gold.PLP.ligand.torsion>
1.0520

> <Gold.PLP.Chemscore.Hbond>
2.3753

> <Gold.PLP.Chemscore.CHOScore>
1.0000

> <Gold.PLP.Chemscore.Metal>
0.0000

> <Gold.Chemscore.Hbonds>
donor molecule, donor type, donor heavy atom, donor atom, acceptor molecule, acceptor atom, score
      L1  H     3    25       P1  8028  0.91
      L1  H    12    39       P1  8028  1.00
      P1  H  8011  8017       L1    23  0.38
      L1  C    20    41       P1  7948  1.00

> <Gold.PLP.Chemscore.Internal.Correction>
0.0538

> <Gold.Rescore>
     Score         DG    S(hbond)    S(metal)    S(lipo)     H(rot)  DE(clash)    DE(int)     intcor
     18.14     -21.67       2.11        0.00     112.61       1.57       1.61       1.93       ----

> <Gold.Chemscore.Fitness>
18.1395

> <Gold.Chemscore.DG>
-21.6726

> <Gold.Chemscore.ZeroCoef>
-5.4800

> <Gold.Chemscore.Hbond>
2.1082

> <Gold.Chemscore.Metal>
0.0000

> <Gold.Chemscore.Lipo>
112.6057

> <Gold.Chemscore.Internal_Hbond>
0.0000

> <Gold.Chemscore.DEClash>
1.6061

> <Gold.Chemscore.DEInternal>
1.9270

> <Gold.Chemscore.Rot>
1.5717

> <Gold.Chemscore.Internal.Correction>
   9.000000E+99

> <Gold.Chemscore.Hbonds>
donor molecule, donor type, donor heavy atom, donor atom, acceptor molecule, acceptor atom, score
      L1  H     3    25       P1  8028  0.87
      L1  H    12    39       P1  8028  0.94
      L1  H    21    24       P1  7957  0.01
      P1  H  8011  8017       L1    23  0.21

> <Gold.Chemscore.Hbond.Weighted>
-7.0414

> <Gold.Chemscore.Metal.Weighted>
-0.0000

> <Gold.Chemscore.Lipo.Weighted>
-13.1749

> <Gold.Chemscore.Internal_Hbond.Weighted>
0.0000

> <Gold.Chemscore.DEClash.Weighted>
1.6061

> <Gold.Chemscore.DEInternal.Weighted>
1.9270

> <Gold.Chemscore.Rot.Weighted>
4.0237

> <Gold.Chemscore.Internal.Correction.Weighted>
   9.000000E+99

> <Gold.Protein.RotatedTorsions>
[ 6907 6896 6895 6894 ] final  119.78 input  -60.11 | X-H torsion
[ 7974 7965 7964 7962 ] final  169.56 input  175.53 | X-H torsion
[ 8008 7997 7996 7995 ] final  115.35 input   59.86 | X-H torsion
[ 10167 10162 10161 10158 ] final    6.72 input  -65.29 | X-H torsion
[ 10718 10713 10712 10709 ] final -131.03 input   66.30 | X-H torsion
[ 10763 10752 10751 10750 ] final  100.34 input  -60.55 | X-H torsion
[ 11005 11000 10999 10996 ] final  -92.41 input  -57.11 | X-H torsion

> <Gold.Protein.ActiveResidues>
 VAL166  LYS551  ARG553  GLY616  TRP617  ASP618  TYR619  PRO620  LYS621  CYS622 
 ASP623  PHE694  ASN695  SER759  ASP760  ASP761  ALA762  ILE779  LEU786  VAL792 
 PHE793  MET794  SER795  GLU796  ALA797  LYS798  CYS799  TRP800  GLU811  SER814 

> <Gold.Protein.RotatedAtoms>
  152.4447  133.7514  159.6695 H   0  0  0  0  0  0  0  0  0  0  0  0  # atno 6907 bound_to 6896
  150.8344  133.8027  159.3091 H   0  0  0  0  0  0  0  0  0  0  0  0  # atno 6908 bound_to 6896
  151.5671  135.1066  160.0038 H   0  0  0  0  0  0  0  0  0  0  0  0  # atno 6909 bound_to 6896
  144.7351  139.9073  143.6413 H   0  0  0  0  0  0  0  0  0  0  0  0  # atno 7974 bound_to 7965
  156.2376  140.2940  156.0355 H   0  0  0  0  0  0  0  0  0  0  0  0  # atno 8008 bound_to 7997
  155.2046  140.0410  157.2940 H   0  0  0  0  0  0  0  0  0  0  0  0  # atno 8009 bound_to 7997
  154.6108  140.2451  155.7679 H   0  0  0  0  0  0  0  0  0  0  0  0  # atno 8010 bound_to 7997
  140.6412  143.7769  150.7431 H   0  0  0  0  0  0  0  0  0  0  0  0  # atno 10167 bound_to 10162
  156.2203  130.6974  151.0749 H   0  0  0  0  0  0  0  0  0  0  0  0  # atno 10718 bound_to 10713
  153.3127  135.4082  155.1349 H   0  0  0  0  0  0  0  0  0  0  0  0  # atno 10763 bound_to 10752
  154.8580  135.3568  154.5702 H   0  0  0  0  0  0  0  0  0  0  0  0  # atno 10764 bound_to 10752
  153.6132  135.7067  153.5397 H   0  0  0  0  0  0  0  0  0  0  0  0  # atno 10765 bound_to 10752
  141.1522  133.7819  157.0015 H   0  0  0  0  0  0  0  0  0  0  0  0  # atno 11005 bound_to 11000
  146.1027  139.4024  143.0337 LP  0  0  0  0  0  0  0  0  0  0  0  0  # atno 17320 bound_to 7965
  145.7555  140.9956  143.1227 LP  0  0  0  0  0  0  0  0  0  0  0  0  # atno 17321 bound_to 7965
  140.1401  143.4449  152.2199 LP  0  0  0  0  0  0  0  0  0  0  0  0  # atno 17342 bound_to 10162
  139.5621  144.7412  151.4124 LP  0  0  0  0  0  0  0  0  0  0  0  0  # atno 17343 bound_to 10162
  157.7084  131.0746  150.6587 LP  0  0  0  0  0  0  0  0  0  0  0  0  # atno 17370 bound_to 10713
  156.6650  130.4523  149.5675 LP  0  0  0  0  0  0  0  0  0  0  0  0  # atno 17371 bound_to 10713
  140.0937  134.9577  157.1815 LP  0  0  0  0  0  0  0  0  0  0  0  0  # atno 17394 bound_to 11000
  140.3412  134.2702  155.7212 LP  0  0  0  0  0  0  0  0  0  0  0  0  # atno 17395 bound_to 11000

$$$$
