AV-unprocessed.smi:283|AV-procd|sdf|2128|dock4
  -GOLD-   2262021433D 1   1.00000     0.00000
 Structure written by MMmdl.
 48 51  0  0  0  0  0  0  0  0  1 V2000
  154.0889  139.9951  159.5379 C   0  0  0  0  0  0  0  0  0  0  0  0
  152.9464  140.8360  158.9527 C   0  0  1  0  0  0  0  0  0  0  0  0
  151.8176  139.9688  158.6225 N   0  0  0  0  0  0  0  0  0  0  0  0
  151.8911  139.0651  157.6201 C   0  0  0  0  0  0  0  0  0  0  0  0
  152.6441  139.4370  156.5587 N   0  0  0  0  0  0  0  0  0  0  0  0
  152.7955  138.6089  155.5234 C   0  0  0  0  0  0  0  0  0  0  0  0
  152.2891  137.3878  155.3543 N   0  0  0  0  0  0  0  0  0  0  0  0
  151.5218  136.9993  156.4141 C   0  0  0  0  0  0  0  0  0  0  0  0
  151.2637  137.7844  157.5765 C   0  0  0  0  0  0  0  0  0  0  0  0
  150.4159  137.0841  158.4245 N   0  0  0  0  0  0  0  0  0  0  0  0
  150.2084  135.9530  157.8121 C   0  0  0  0  0  0  0  0  0  0  0  0
  150.8490  135.8032  156.6027 N   0  0  0  0  0  0  0  0  0  0  0  0
  150.7823  134.5934  155.7076 C   0  0  1  0  0  0  0  0  0  0  0  0
  150.5709  133.4444  156.4728 O   0  0  0  0  0  0  0  0  0  0  0  0
  149.2294  132.9699  156.3270 C   0  0  2  0  0  0  0  0  0  0  0  0
  149.2719  131.5120  155.8306 C   0  0  0  0  0  0  0  0  0  0  0  0
  150.1098  131.3515  154.7039 O   0  0  0  0  0  0  0  0  0  0  0  0
  148.4874  133.9598  155.4122 C   0  0  1  0  0  0  0  0  0  0  0  0
  147.7012  134.8382  156.1979 O   0  0  0  0  0  0  0  0  0  0  0  0
  149.6249  134.6784  154.6967 C   0  0  1  0  0  0  0  0  0  0  0  0
  149.2811  135.9824  154.2587 O   0  0  0  0  0  0  0  0  0  0  0  0
  152.6120  142.0027  159.8873 C   0  0  0  0  0  0  0  0  0  0  0  0
  152.9214  141.9176  161.2652 C   0  0  0  0  0  0  0  0  0  0  0  0
  152.6148  142.9786  162.1376 C   0  0  0  0  0  0  0  0  0  0  0  0
  152.0022  144.1424  161.6400 C   0  0  0  0  0  0  0  0  0  0  0  0
  151.7037  144.2453  160.2690 C   0  0  0  0  0  0  0  0  0  0  0  0
  152.0087  143.1861  159.3909 C   0  0  0  0  0  0  0  0  0  0  0  0
  151.6315  143.3749  157.7138 Cl  0  0  0  0  0  0  0  0  0  0  0  0
  151.7655  134.5681  155.2364 H   0  0  0  0  0  0  0  0  0  0  0  0
  148.7710  132.9508  157.3167 H   0  0  0  0  0  0  0  0  0  0  0  0
  147.8202  133.4617  154.7079 H   0  0  0  0  0  0  0  0  0  0  0  0
  149.9204  134.0920  153.8261 H   0  0  0  0  0  0  0  0  0  0  0  0
  154.9771  140.6042  159.7088 H   0  0  0  0  0  0  0  0  0  0  0  0
  154.3703  139.1886  158.8602 H   0  0  0  0  0  0  0  0  0  0  0  0
  153.8046  139.5468  160.4906 H   0  0  0  0  0  0  0  0  0  0  0  0
  153.3036  141.2340  158.0045 H   0  0  0  0  0  0  0  0  0  0  0  0
  150.9316  140.2682  159.0027 H   0  0  0  0  0  0  0  0  0  0  0  0
  153.4143  138.9739  154.7171 H   0  0  0  0  0  0  0  0  0  0  0  0
  149.5824  135.1817  158.2365 H   0  0  0  0  0  0  0  0  0  0  0  0
  149.6003  130.8449  156.6281 H   0  0  0  0  0  0  0  0  0  0  0  0
  148.2689  131.1944  155.5444 H   0  0  0  0  0  0  0  0  0  0  0  0
  150.8969  131.8564  154.8419 H   0  0  0  0  0  0  0  0  0  0  0  0
  148.2443  135.1828  156.8905 H   0  0  0  0  0  0  0  0  0  0  0  0
  148.9838  135.9297  153.3636 H   0  0  0  0  0  0  0  0  0  0  0  0
  153.3938  141.0325  161.6650 H   0  0  0  0  0  0  0  0  0  0  0  0
  152.8509  142.8993  163.1885 H   0  0  0  0  0  0  0  0  0  0  0  0
  151.7658  144.9577  162.3078 H   0  0  0  0  0  0  0  0  0  0  0  0
  151.2394  145.1434  159.8891 H   0  0  0  0  0  0  0  0  0  0  0  0
  1  2  1  0  0  0  0
  1 33  1  0  0  0  0
  1 34  1  0  0  0  0
  1 35  1  0  0  0  0
  2  3  1  0  0  0  0
  2 22  1  0  0  0  0
  2 36  1  0  0  0  0
  3  4  1  0  0  0  0
  3 37  1  0  0  0  0
  4  9  1  0  0  0  0
  4  5  2  0  0  0  0
  5  6  1  0  0  0  0
  6  7  2  0  0  0  0
  6 38  1  0  0  0  0
  7  8  1  0  0  0  0
  8 12  1  0  0  0  0
  8  9  2  0  0  0  0
  9 10  1  0  0  0  0
 10 11  2  0  0  0  0
 11 12  1  0  0  0  0
 11 39  1  0  0  0  0
 12 13  1  0  0  0  0
 13 29  1  0  0  0  0
 13 20  1  0  0  0  0
 13 14  1  0  0  0  0
 14 15  1  0  0  0  0
 15 30  1  0  0  0  0
 15 16  1  0  0  0  0
 15 18  1  0  0  0  0
 16 17  1  0  0  0  0
 16 40  1  0  0  0  0
 16 41  1  0  0  0  0
 17 42  1  0  0  0  0
 18 31  1  0  0  0  0
 18 19  1  0  0  0  0
 18 20  1  0  0  0  0
 19 43  1  0  0  0  0
 20 32  1  0  0  0  0
 20 21  1  0  0  0  0
 21 44  1  0  0  0  0
 22 27  1  0  0  0  0
 22 23  2  0  0  0  0
 23 24  1  0  0  0  0
 23 45  1  0  0  0  0
 24 25  2  0  0  0  0
 24 46  1  0  0  0  0
 25 26  1  0  0  0  0
 25 47  1  0  0  0  0
 26 27  2  0  0  0  0
 26 48  1  0  0  0  0
 27 28  1  0  0  0  0
M  END
> <s_m_source_file>
AV-unprocessed.smi

> <i_m_source_file_index>
283

> <i_lp_mmshare_version>
43012

> <i_f3d_flags>
0

> <s_epik_input>
Q2xjMVtjSF1bY0hdW2NIXVtjSF1jMVtDQEhdKFtDSDNdKVtOSF1jKG5bY0hdbjIpYyhjMjMpbltjSF1uM1tDQEBIXTRPW0NASF0oW0NIMl1bT0hdKVtDQEBIXShbT0hdKVtDQEhdNFtPSF0=

> <s_epik_cmdline>
J2VwaWtfcHl0aG9uJywgJy1waCcsICc3LjAnLCAnLXRuJywgJzgnLCAnLW1hJywgJzIwMCcsICctbWV0YWxfYmluZGluZycsICctaW1hZScsICc8aW5maWxlLm1hZT4nLCAnLW9tYWUnLCAnPG91dGZpbGUubWFlPic=

> <r_lp_tautomer_probability>
1

> <r_epik_Ionization_Penalty>
0.000266407

> <r_epik_Ionization_Penalty_Charging>
0

> <r_epik_Ionization_Penalty_Neutral>
0.000266407

> <r_epik_State_Penalty>
-0

> <r_epik_Charging_Adjusted_Penalty>
0

> <i_epik_Tot_Q>
0

> <i_epik_Tot_abs_Q>
0

> <r_epik_Metal_State_Penalty>
-0

> <b_epik_Metal_Only>
0

> <s_epik_Chemistry_Notes>
This compound contains an acetal/aminal-like group ( X-CH(R)-Y where X, Y are N, S, or O) that may be acid/base labile, releasing an aldehyde.

> <s_lp_Force_Field>
OPLS_2005

> <r_lp_Energy>
53.7739

> <b_lp_Chiralities_Consistent>
1

> <s_lp_Variant>
AV-unprocessed.smi:283-4

> <Gold.Version>
5.8.1

> <Gold.Id.Protein>
6NUR|6NUR_protein|mol2

> <Gold.PLP.Fitness>
48.8464

> <Gold.PLP.PLP>
-43.7314

> <Gold.PLP.part.hbond>
-2.8866

> <Gold.PLP.part.metal>
0.0000

> <Gold.PLP.part.buried>
-3.7235

> <Gold.PLP.part.nonpolar>
-37.1566

> <Gold.PLP.part.repulsive>
0.1577

> <Gold.PLP.ligand.clash>
0.0000

> <Gold.PLP.ligand.torsion>
1.7631

> <Gold.PLP.Chemscore.Hbond>
2.7520

> <Gold.PLP.Chemscore.CHOScore>
0.0000

> <Gold.PLP.Chemscore.Metal>
0.0000

> <Gold.Chemscore.Hbonds>
donor molecule, donor type, donor heavy atom, donor atom, acceptor molecule, acceptor atom, score
      L1  H    21    44       P1  7948  0.96
      P1  H  7997  8009       L1     5  0.90
      P1  H 10752 10764       L1     7  0.73

> <Gold.PLP.Chemscore.Internal.Correction>
0.3851

> <Gold.Rescore>
     Score         DG    S(hbond)    S(metal)    S(lipo)     H(rot)  DE(clash)    DE(int)     intcor
     13.45     -15.19       2.10        0.00     112.77       4.10       0.08       1.66       ----

> <Gold.Chemscore.Fitness>
13.4498

> <Gold.Chemscore.DG>
-15.1886

> <Gold.Chemscore.ZeroCoef>
-5.4800

> <Gold.Chemscore.Hbond>
2.0967

> <Gold.Chemscore.Metal>
0.0000

> <Gold.Chemscore.Lipo>
112.7652

> <Gold.Chemscore.Internal_Hbond>
0.0000

> <Gold.Chemscore.DEClash>
0.0797

> <Gold.Chemscore.DEInternal>
1.6590

> <Gold.Chemscore.Rot>
4.0968

> <Gold.Chemscore.Internal.Correction>
   9.000000E+99

> <Gold.Chemscore.Hbonds>
donor molecule, donor type, donor heavy atom, donor atom, acceptor molecule, acceptor atom, score
      L1  H    21    44       P1  7948  0.84
      P1  H  7997  8009       L1     5  0.18
      P1  H 10752 10764       L1     7  0.20

> <Gold.Chemscore.Hbond.Weighted>
-7.0030

> <Gold.Chemscore.Metal.Weighted>
-0.0000

> <Gold.Chemscore.Lipo.Weighted>
-13.1935

> <Gold.Chemscore.Internal_Hbond.Weighted>
0.0000

> <Gold.Chemscore.DEClash.Weighted>
0.0797

> <Gold.Chemscore.DEInternal.Weighted>
1.6590

> <Gold.Chemscore.Rot.Weighted>
10.4879

> <Gold.Chemscore.Internal.Correction.Weighted>
   9.000000E+99

> <Gold.Protein.RotatedTorsions>
[ 6907 6896 6895 6894 ] final -102.57 input  -60.11 | X-H torsion
[ 7974 7965 7964 7962 ] final -165.48 input  175.53 | X-H torsion
[ 8008 7997 7996 7995 ] final -179.00 input   59.86 | X-H torsion
[ 10167 10162 10161 10158 ] final  -87.65 input  -65.29 | X-H torsion
[ 10718 10713 10712 10709 ] final  -74.05 input   66.30 | X-H torsion
[ 10763 10752 10751 10750 ] final  -54.19 input  -60.55 | X-H torsion
[ 11005 11000 10999 10996 ] final  -72.32 input  -57.11 | X-H torsion

> <Gold.Protein.ActiveResidues>
 VAL166  LYS551  ARG553  GLY616  TRP617  ASP618  TYR619  PRO620  LYS621  CYS622 
 ASP623  PHE694  ASN695  SER759  ASP760  ASP761  ALA762  ILE779  LEU786  VAL792 
 PHE793  MET794  SER795  GLU796  ALA797  LYS798  CYS799  TRP800  GLU811  SER814 

> <Gold.Protein.RotatedAtoms>
  150.7202  134.0561  159.3814 H   0  0  0  0  0  0  0  0  0  0  0  0  # atno 6907 bound_to 6896
  151.8539  135.0546  160.0471 H   0  0  0  0  0  0  0  0  0  0  0  0  # atno 6908 bound_to 6896
  152.2769  133.5398  159.5510 H   0  0  0  0  0  0  0  0  0  0  0  0  # atno 6909 bound_to 6896
  144.7269  140.2807  143.6236 H   0  0  0  0  0  0  0  0  0  0  0  0  # atno 7974 bound_to 7965
  156.0254  140.1270  157.0313 H   0  0  0  0  0  0  0  0  0  0  0  0  # atno 8008 bound_to 7997
  154.4328  140.1060  156.6094 H   0  0  0  0  0  0  0  0  0  0  0  0  # atno 8009 bound_to 7997
  155.5884  140.3469  155.4561 H   0  0  0  0  0  0  0  0  0  0  0  0  # atno 8010 bound_to 7997
  140.3824  143.2742  151.9367 H   0  0  0  0  0  0  0  0  0  0  0  0  # atno 10167 bound_to 10162
  156.0257  130.4408  150.2834 H   0  0  0  0  0  0  0  0  0  0  0  0  # atno 10718 bound_to 10713
  154.1708  135.6459  153.5009 H   0  0  0  0  0  0  0  0  0  0  0  0  # atno 10763 bound_to 10752
  153.0085  135.5383  154.6614 H   0  0  0  0  0  0  0  0  0  0  0  0  # atno 10764 bound_to 10752
  154.5953  135.2938  155.0565 H   0  0  0  0  0  0  0  0  0  0  0  0  # atno 10765 bound_to 10752
  141.1606  133.6843  156.7041 H   0  0  0  0  0  0  0  0  0  0  0  0  # atno 11005 bound_to 11000
  145.7952  139.1942  143.2080 LP  0  0  0  0  0  0  0  0  0  0  0  0  # atno 17320 bound_to 7965
  146.0723  140.7856  142.9682 LP  0  0  0  0  0  0  0  0  0  0  0  0  # atno 17321 bound_to 7965
  139.4794  144.5806  151.7939 LP  0  0  0  0  0  0  0  0  0  0  0  0  # atno 17342 bound_to 10162
  140.4924  144.1291  150.5953 LP  0  0  0  0  0  0  0  0  0  0  0  0  # atno 17343 bound_to 10162
  157.0937  131.0177  151.3112 LP  0  0  0  0  0  0  0  0  0  0  0  0  # atno 17370 bound_to 10713
  157.4834  130.7778  149.7436 LP  0  0  0  0  0  0  0  0  0  0  0  0  # atno 17371 bound_to 10713
  140.2937  134.8220  157.4038 LP  0  0  0  0  0  0  0  0  0  0  0  0  # atno 17394 bound_to 11000
  140.1324  134.5078  155.8095 LP  0  0  0  0  0  0  0  0  0  0  0  0  # atno 17395 bound_to 11000

$$$$
