AV-unprocessed.smi:3154|AV-procd|sdf|12021|dock9
  -GOLD-   2272017433D 1   1.00000     0.00000
 Structure written by MMmdl.
 35 36  0  0  0  0  0  0  0  0  2 V2000
  147.9104  140.7562  154.4697 C   0  0  0  0  0  0  0  0  0  0  0  0
  148.5369  139.3695  154.2465 C   0  0  2  0  0  0  0  0  0  0  0  0
  150.0791  139.3940  154.3624 C   0  0  0  0  0  0  0  0  0  0  0  0
  150.5458  139.9668  155.6120 N   0  0  0  0  0  0  0  0  0  0  0  0
  150.4058  141.2598  156.0710 C   0  0  0  0  0  0  0  0  0  0  0  0
  151.0209  141.3268  157.2882 C   0  0  0  0  0  0  0  0  0  0  0  0
  151.5197  140.0093  157.4885 C   0  0  0  0  0  0  0  0  0  0  0  0
  151.2373  139.1989  156.4812 N   0  0  0  0  0  0  0  0  0  0  0  0
  148.1114  138.8455  152.9298 N   0  3  0  0  0  0  0  0  0  0  0  0
  146.6486  138.7549  152.7265 C   0  0  0  0  0  0  0  0  0  0  0  0
  146.2852  137.9308  151.4901 C   0  0  0  0  0  0  0  0  0  0  0  0
  146.7802  138.1927  150.3930 O   0  0  0  0  0  0  0  0  0  0  0  0
  145.4196  136.9266  151.6904 N   0  0  0  0  0  0  0  0  0  0  0  0
  144.9516  136.0227  150.6896 C   0  0  0  0  0  0  0  0  0  0  0  0
  143.9596  134.9594  151.1086 C   0  0  0  0  0  0  0  0  0  0  0  0
  145.3797  134.5749  150.7979 C   0  0  0  0  0  0  0  0  0  0  0  0
  148.1242  141.1375  155.4686 H   0  0  0  0  0  0  0  0  0  0  0  0
  146.8255  140.7170  154.3670 H   0  0  0  0  0  0  0  0  0  0  0  0
  148.2868  141.4826  153.7487 H   0  0  0  0  0  0  0  0  0  0  0  0
  148.1334  138.7058  155.0130 H   0  0  0  0  0  0  0  0  0  0  0  0
  150.4945  138.3890  154.2873 H   0  0  0  0  0  0  0  0  0  0  0  0
  150.5074  139.9691  153.5403 H   0  0  0  0  0  0  0  0  0  0  0  0
  149.8858  142.0163  155.5018 H   0  0  0  0  0  0  0  0  0  0  0  0
  151.1048  142.1864  157.9364 H   0  0  0  0  0  0  0  0  0  0  0  0
  152.0761  139.6216  158.3291 H   0  0  0  0  0  0  0  0  0  0  0  0
  148.4701  139.4673  152.2193 H   0  0  0  0  0  0  0  0  0  0  0  0
  146.1749  138.2960  153.5939 H   0  0  0  0  0  0  0  0  0  0  0  0
  146.2352  139.7587  152.6201 H   0  0  0  0  0  0  0  0  0  0  0  0
  145.0670  136.7853  152.6262 H   0  0  0  0  0  0  0  0  0  0  0  0
  144.8386  136.4104  149.6780 H   0  0  0  0  0  0  0  0  0  0  0  0
  143.6494  134.9334  152.1514 H   0  0  0  0  0  0  0  0  0  0  0  0
  143.1940  134.6766  150.3887 H   0  0  0  0  0  0  0  0  0  0  0  0
  145.5619  134.0341  149.8713 H   0  0  0  0  0  0  0  0  0  0  0  0
  146.0164  134.2921  151.6340 H   0  0  0  0  0  0  0  0  0  0  0  0
  148.5224  137.9340  152.7876 H   0  0  0  0  0  0  0  0  0  0  0  0
  1  2  1  0  0  0  0
  1 17  1  0  0  0  0
  1 18  1  0  0  0  0
  1 19  1  0  0  0  0
  2  3  1  0  0  0  0
  2  9  1  0  0  0  0
  2 20  1  0  0  0  0
  3  4  1  0  0  0  0
  3 21  1  0  0  0  0
  3 22  1  0  0  0  0
  4  8  1  0  0  0  0
  4  5  1  0  0  0  0
  5  6  2  0  0  0  0
  5 23  1  0  0  0  0
  6  7  1  0  0  0  0
  6 24  1  0  0  0  0
  7  8  2  0  0  0  0
  7 25  1  0  0  0  0
  9 10  1  0  0  0  0
  9 26  1  0  0  0  0
  9 35  1  0  0  0  0
 10 11  1  0  0  0  0
 10 27  1  0  0  0  0
 10 28  1  0  0  0  0
 11 12  2  0  0  0  0
 11 13  1  0  0  0  0
 13 14  1  0  0  0  0
 13 29  1  0  0  0  0
 14 16  1  0  0  0  0
 14 15  1  0  0  0  0
 14 30  1  0  0  0  0
 15 16  1  0  0  0  0
 15 31  1  0  0  0  0
 15 32  1  0  0  0  0
 16 33  1  0  0  0  0
 16 34  1  0  0  0  0
M  CHG  1   9   1
M  END
> <s_m_source_file>
AV-unprocessed.smi

> <i_m_source_file_index>
3154

> <i_lp_mmshare_version>
43012

> <i_f3d_flags>
0

> <s_epik_input>
bjFbY0hdW2NIXVtjSF1uMVtDSDJdW0NAQEhdKFtDSDNdKVtOSF1bQ0gyXUMoPU8pW05IXVtDSF0yW0NIMl1bQ0gyXTI=

> <s_epik_cmdline>
J2VwaWtfcHl0aG9uJywgJy1waCcsICc3LjAnLCAnLXRuJywgJzgnLCAnLW1hJywgJzIwMCcsICctbWV0YWxfYmluZGluZycsICctaW1hZScsICc8aW5maWxlLm1hZT4nLCAnLW9tYWUnLCAnPG91dGZpbGUubWFlPic=

> <r_lp_tautomer_probability>
1

> <r_epik_Ionization_Penalty>
0.12065

> <r_epik_Ionization_Penalty_Charging>
0.120646

> <r_epik_Ionization_Penalty_Neutral>
4.1343e-06

> <r_epik_State_Penalty>
0.110186

> <r_epik_Charging_Adjusted_Penalty>
0.230832

> <i_epik_Tot_Q>
1

> <i_epik_Tot_abs_Q>
1

> <r_epik_Metal_State_Penalty>
0.110197

> <b_epik_Metal_Only>
0

> <s_lp_Force_Field>
OPLS_2005

> <r_lp_Energy>
15.3848

> <b_lp_Chiralities_Consistent>
1

> <s_lp_Variant>
AV-unprocessed.smi:3154-1

> <Gold.Version>
5.8.1

> <Gold.Id.Protein>
6NUR|6NUR_protein|mol2

> <Gold.PLP.Fitness>
44.1545

> <Gold.PLP.PLP>
-29.7527

> <Gold.PLP.part.hbond>
-3.3647

> <Gold.PLP.part.metal>
0.0000

> <Gold.PLP.part.buried>
0.3816

> <Gold.PLP.part.nonpolar>
-29.1418

> <Gold.PLP.part.repulsive>
1.6389

> <Gold.PLP.ligand.clash>
0.0000

> <Gold.PLP.ligand.torsion>
0.1472

> <Gold.PLP.Chemscore.Hbond>
3.9040

> <Gold.PLP.Chemscore.CHOScore>
0.9786

> <Gold.PLP.Chemscore.Metal>
0.0000

> <Gold.Chemscore.Hbonds>
donor molecule, donor type, donor heavy atom, donor atom, acceptor molecule, acceptor atom, score
      L1  H     9    26       P1  7957  1.00
      L1  H     9    35       P1  7948  2.00
      P1  H  7954  7966       L1    12  0.80
      L1  C     5    23       P1  8028  0.11

> <Gold.PLP.Chemscore.Internal.Correction>
0.0484

> <Gold.Rescore>
     Score         DG    S(hbond)    S(metal)    S(lipo)     H(rot)  DE(clash)    DE(int)     intcor
     14.32     -16.46       2.77        0.00      62.87       2.20       1.82       0.33       ----

> <Gold.Chemscore.Fitness>
14.3154

> <Gold.Chemscore.DG>
-16.4570

> <Gold.Chemscore.ZeroCoef>
-5.4800

> <Gold.Chemscore.Hbond>
2.7736

> <Gold.Chemscore.Metal>
0.0000

> <Gold.Chemscore.Lipo>
62.8700

> <Gold.Chemscore.Internal_Hbond>
0.0000

> <Gold.Chemscore.DEClash>
1.8156

> <Gold.Chemscore.DEInternal>
0.3260

> <Gold.Chemscore.Rot>
2.2042

> <Gold.Chemscore.Internal.Correction>
   9.000000E+99

> <Gold.Chemscore.Hbonds>
donor molecule, donor type, donor heavy atom, donor atom, acceptor molecule, acceptor atom, score
      L1  H     9    26       P1  7957  0.98
      L1  H     9    35       P1  7948  0.97
      P1  H  7954  7966       L1    12  0.75

> <Gold.Chemscore.Hbond.Weighted>
-9.2639

> <Gold.Chemscore.Metal.Weighted>
-0.0000

> <Gold.Chemscore.Lipo.Weighted>
-7.3558

> <Gold.Chemscore.Internal_Hbond.Weighted>
0.0000

> <Gold.Chemscore.DEClash.Weighted>
1.8156

> <Gold.Chemscore.DEInternal.Weighted>
0.3260

> <Gold.Chemscore.Rot.Weighted>
5.6427

> <Gold.Chemscore.Internal.Correction.Weighted>
   9.000000E+99

> <Gold.Protein.RotatedTorsions>
[ 6907 6896 6895 6894 ] final  166.20 input  -60.11 | X-H torsion
[ 7974 7965 7964 7962 ] final -103.17 input  175.53 | X-H torsion
[ 8008 7997 7996 7995 ] final  -88.94 input   59.86 | X-H torsion
[ 10167 10162 10161 10158 ] final  -92.57 input  -65.29 | X-H torsion
[ 10718 10713 10712 10709 ] final  -87.84 input   66.30 | X-H torsion
[ 10763 10752 10751 10750 ] final -130.52 input  -60.55 | X-H torsion
[ 11005 11000 10999 10996 ] final -141.68 input  -57.11 | X-H torsion

> <Gold.Protein.ActiveResidues>
 VAL166  LYS551  ARG553  GLY616  TRP617  ASP618  TYR619  PRO620  LYS621  CYS622 
 ASP623  PHE694  ASN695  SER759  ASP760  ASP761  ALA762  ILE779  LEU786  VAL792 
 PHE793  MET794  SER795  GLU796  ALA797  LYS798  CYS799  TRP800  GLU811  SER814 

> <Gold.Protein.RotatedAtoms>
  151.8827  133.3498  159.3771 H   0  0  0  0  0  0  0  0  0  0  0  0  # atno 6907 bound_to 6896
  150.7123  134.5003  159.5567 H   0  0  0  0  0  0  0  0  0  0  0  0  # atno 6908 bound_to 6896
  152.2557  134.8086  160.0490 H   0  0  0  0  0  0  0  0  0  0  0  0  # atno 6909 bound_to 6896
  145.2594  140.9264  143.3049 H   0  0  0  0  0  0  0  0  0  0  0  0  # atno 7974 bound_to 7965
  154.6807  140.0547  157.0262 H   0  0  0  0  0  0  0  0  0  0  0  0  # atno 8008 bound_to 7997
  155.0956  140.3223  155.4542 H   0  0  0  0  0  0  0  0  0  0  0  0  # atno 8009 bound_to 7997
  156.2693  140.2040  156.6083 H   0  0  0  0  0  0  0  0  0  0  0  0  # atno 8010 bound_to 7997
  140.3335  143.2982  151.9916 H   0  0  0  0  0  0  0  0  0  0  0  0  # atno 10167 bound_to 10162
  155.9984  130.4814  150.4929 H   0  0  0  0  0  0  0  0  0  0  0  0  # atno 10718 bound_to 10713
  154.8755  135.3860  154.4097 H   0  0  0  0  0  0  0  0  0  0  0  0  # atno 10763 bound_to 10752
  153.4812  135.7030  153.5942 H   0  0  0  0  0  0  0  0  0  0  0  0  # atno 10764 bound_to 10752
  153.4357  135.3868  155.2165 H   0  0  0  0  0  0  0  0  0  0  0  0  # atno 10765 bound_to 10752
  140.8300  134.2528  157.4861 H   0  0  0  0  0  0  0  0  0  0  0  0  # atno 11005 bound_to 11000
  144.9432  139.4165  143.6439 LP  0  0  0  0  0  0  0  0  0  0  0  0  # atno 17320 bound_to 7965
  146.3279  139.8402  142.8892 LP  0  0  0  0  0  0  0  0  0  0  0  0  # atno 17321 bound_to 7965
  139.4852  144.6216  151.7245 LP  0  0  0  0  0  0  0  0  0  0  0  0  # atno 17342 bound_to 10162
  140.5375  144.0632  150.6076 LP  0  0  0  0  0  0  0  0  0  0  0  0  # atno 17343 bound_to 10162
  157.2922  131.0628  151.2126 LP  0  0  0  0  0  0  0  0  0  0  0  0  # atno 17370 bound_to 10713
  157.3135  130.6901  149.6229 LP  0  0  0  0  0  0  0  0  0  0  0  0  # atno 17371 bound_to 10713
  139.8705  134.9581  156.4289 LP  0  0  0  0  0  0  0  0  0  0  0  0  # atno 17394 bound_to 11000
  140.9008  133.7781  155.9678 LP  0  0  0  0  0  0  0  0  0  0  0  0  # atno 17395 bound_to 11000

$$$$
