AV-unprocessed.smi:1760|AV-procd|sdf|7093|dock3
  -GOLD-   22720 8313D 1   1.00000     0.00000
 Structure written by MMmdl.
 43 45  0  0  0  0  0  0  0  0  3 V2000
  148.2118  136.7630  156.1170 O   0  0  0  0  0  0  0  0  0  0  0  0
  148.6918  136.5625  155.0017 C   0  0  0  0  0  0  0  0  0  0  0  0
  149.7603  137.1886  154.4758 N   0  0  0  0  0  0  0  0  0  0  0  0
  150.5865  138.1771  155.0384 C   0  0  0  0  0  0  0  0  0  0  0  0
  150.1679  139.1479  155.8973 C   0  0  0  0  0  0  0  0  0  0  0  0
  151.0783  140.1427  156.4513 C   0  0  0  0  0  0  0  0  0  0  0  0
  150.6597  141.2568  157.3932 C   0  0  0  0  0  0  0  0  0  0  0  0
  151.3046  141.1450  158.5539 F   0  0  0  0  0  0  0  0  0  0  0  0
  150.9623  142.4431  156.8670 F   0  0  0  0  0  0  0  0  0  0  0  0
  149.3490  141.2254  157.6349 F   0  0  0  0  0  0  0  0  0  0  0  0
  152.3768  139.9673  156.0171 C   0  0  0  0  0  0  0  0  0  0  0  0
  152.8756  139.0288  155.1829 N   0  5  0  0  0  0  0  0  0  0  0  0
  152.0149  138.1078  154.6643 C   0  0  0  0  0  0  0  0  0  0  0  0
  152.4017  137.2257  153.8966 O   0  0  0  0  0  0  0  0  0  0  0  0
  148.1822  135.6814  154.1279 N   0  0  0  0  0  0  0  0  0  0  0  0
  147.0004  134.8499  154.3409 C   0  0  2  0  0  0  0  0  0  0  0  0
  147.2894  133.4005  153.9160 C   0  0  0  0  0  0  0  0  0  0  0  0
  146.0254  132.5265  154.0266 C   0  0  0  0  0  0  0  0  0  0  0  0
  144.8853  133.0907  153.2587 N   0  3  2  0  0  0  0  0  0  0  0  0
  145.0177  132.9113  151.7938 C   0  0  0  0  0  0  0  0  0  0  0  0
  143.7119  132.5967  151.1017 C   0  0  0  0  0  0  0  0  0  0  0  0
  144.7316  131.5029  151.3275 C   0  0  0  0  0  0  0  0  0  0  0  0
  144.5827  134.4903  153.6550 C   0  0  0  0  0  0  0  0  0  0  0  0
  145.8154  135.4061  153.5344 C   0  0  0  0  0  0  0  0  0  0  0  0
  149.9922  136.9551  153.5213 H   0  0  0  0  0  0  0  0  0  0  0  0
  149.1386  139.2022  156.2101 H   0  0  0  0  0  0  0  0  0  0  0  0
  153.1262  140.6940  156.3973 H   0  0  0  0  0  0  0  0  0  0  0  0
  148.6453  135.5896  153.2354 H   0  0  0  0  0  0  0  0  0  0  0  0
  146.7198  134.8467  155.3958 H   0  0  0  0  0  0  0  0  0  0  0  0
  147.6657  133.3787  152.8924 H   0  0  0  0  0  0  0  0  0  0  0  0
  148.0799  132.9816  154.5399 H   0  0  0  0  0  0  0  0  0  0  0  0
  146.2344  131.5101  153.6912 H   0  0  0  0  0  0  0  0  0  0  0  0
  145.7285  132.4491  155.0734 H   0  0  0  0  0  0  0  0  0  0  0  0
  145.7729  133.5118  151.2905 H   0  0  0  0  0  0  0  0  0  0  0  0
  142.8035  132.5673  151.7009 H   0  0  0  0  0  0  0  0  0  0  0  0
  143.5848  132.9567  150.0827 H   0  0  0  0  0  0  0  0  0  0  0  0
  145.2757  131.1421  150.4570 H   0  0  0  0  0  0  0  0  0  0  0  0
  144.4998  130.7477  152.0765 H   0  0  0  0  0  0  0  0  0  0  0  0
  143.7592  134.8787  153.0549 H   0  0  0  0  0  0  0  0  0  0  0  0
  144.2337  134.4864  154.6885 H   0  0  0  0  0  0  0  0  0  0  0  0
  145.5636  136.4071  153.8867 H   0  0  0  0  0  0  0  0  0  0  0  0
  146.0944  135.5141  152.4853 H   0  0  0  0  0  0  0  0  0  0  0  0
  144.0758  132.5456  153.5195 H   0  0  0  0  0  0  0  0  0  0  0  0
  1  2  2  0  0  0  0
  2  3  1  0  0  0  0
  2 15  1  0  0  0  0
  3  4  1  0  0  0  0
  3 25  1  0  0  0  0
  4 13  1  0  0  0  0
  4  5  2  0  0  0  0
  5  6  1  0  0  0  0
  5 26  1  0  0  0  0
  6  7  1  0  0  0  0
  6 11  2  0  0  0  0
  7  8  1  0  0  0  0
  7  9  1  0  0  0  0
  7 10  1  0  0  0  0
 11 12  1  0  0  0  0
 11 27  1  0  0  0  0
 12 13  1  0  0  0  0
 13 14  2  0  0  0  0
 15 16  1  0  0  0  0
 15 28  1  0  0  0  0
 16 24  1  0  0  0  0
 16 17  1  0  0  0  0
 16 29  1  0  0  0  0
 17 18  1  0  0  0  0
 17 30  1  0  0  0  0
 17 31  1  0  0  0  0
 18 19  1  0  0  0  0
 18 32  1  0  0  0  0
 18 33  1  0  0  0  0
 19 20  1  0  0  0  0
 19 23  1  0  0  0  0
 19 43  1  0  0  0  0
 20 22  1  0  0  0  0
 20 21  1  0  0  0  0
 20 34  1  0  0  0  0
 21 22  1  0  0  0  0
 21 35  1  0  0  0  0
 21 36  1  0  0  0  0
 22 37  1  0  0  0  0
 22 38  1  0  0  0  0
 23 24  1  0  0  0  0
 23 39  1  0  0  0  0
 23 40  1  0  0  0  0
 24 41  1  0  0  0  0
 24 42  1  0  0  0  0
M  CHG  1  12  -1
M  CHG  1  19   1
M  END
> <s_m_source_file>
AV-unprocessed.smi

> <i_m_source_file_index>
1760

> <i_lp_mmshare_version>
43012

> <i_f3d_flags>
0

> <s_epik_input>
W0NIMl0xW0NIMl1bQ0hdMU4oW0NIMl1bQ0gyXTIpW0NIMl1bQ0gyXVtDSF0yW05IXUMoPU8pW05IXWMzW2NIXWMoQyhGKShGKUYpW2NIXVtuSF1jMz1P

> <s_epik_cmdline>
J2VwaWtfcHl0aG9uJywgJy1waCcsICc3LjAnLCAnLXRuJywgJzgnLCAnLW1hJywgJzIwMCcsICctbWV0YWxfYmluZGluZycsICctaW1hZScsICc8aW5maWxlLm1hZT4nLCAnLW9tYWUnLCAnPG91dGZpbGUubWFlPic=

> <r_lp_tautomer_probability>
0.999

> <r_epik_Ionization_Penalty>
3.16043

> <r_epik_Ionization_Penalty_Charging>
0.268029

> <r_epik_Ionization_Penalty_Neutral>
2.8924

> <r_epik_State_Penalty>
3.0039

> <r_epik_Charging_Adjusted_Penalty>
3.27193

> <i_epik_Tot_Q>
0

> <i_epik_Tot_abs_Q>
2

> <r_epik_Metal_State_Penalty>
0.560618

> <b_epik_Metal_Only>
1

> <s_lp_Force_Field>
OPLS_2005

> <r_lp_Energy>
41.7611

> <b_lp_Chiralities_Consistent>
1

> <s_lp_Variant>
AV-unprocessed.smi:1760-5

> <Gold.Version>
5.8.1

> <Gold.Id.Protein>
6NUR|6NUR_protein|mol2

> <Gold.PLP.Fitness>
44.3197

> <Gold.PLP.PLP>
-31.3130

> <Gold.PLP.part.hbond>
-4.5448

> <Gold.PLP.part.metal>
0.0000

> <Gold.PLP.part.buried>
-4.9249

> <Gold.PLP.part.nonpolar>
-24.4977

> <Gold.PLP.part.repulsive>
1.4050

> <Gold.PLP.ligand.clash>
0.0000

> <Gold.PLP.ligand.torsion>
1.0615

> <Gold.PLP.Chemscore.Hbond>
4.6152

> <Gold.PLP.Chemscore.CHOScore>
0.0000

> <Gold.PLP.Chemscore.Metal>
0.0000

> <Gold.Chemscore.Hbonds>
donor molecule, donor type, donor heavy atom, donor atom, acceptor molecule, acceptor atom, score
      L1  H     3    25       P1  7948  0.72
      L1  H    15    28       P1  7948  0.97
      L1  H    19    43       P1 10957  1.98
      P1  H 10752 10765       L1    14  0.86

> <Gold.PLP.Chemscore.Internal.Correction>
1.2841

> <Gold.Rescore>
     Score         DG    S(hbond)    S(metal)    S(lipo)     H(rot)  DE(clash)    DE(int)     intcor
     18.32     -20.45       3.34        0.00      60.50       1.28       0.96       1.17       ----

> <Gold.Chemscore.Fitness>
18.3236

> <Gold.Chemscore.DG>
-20.4527

> <Gold.Chemscore.ZeroCoef>
-5.4800

> <Gold.Chemscore.Hbond>
3.3436

> <Gold.Chemscore.Metal>
0.0000

> <Gold.Chemscore.Lipo>
60.5022

> <Gold.Chemscore.Internal_Hbond>
0.0000

> <Gold.Chemscore.DEClash>
0.9593

> <Gold.Chemscore.DEInternal>
1.1698

> <Gold.Chemscore.Rot>
1.2787

> <Gold.Chemscore.Internal.Correction>
   9.000000E+99

> <Gold.Chemscore.Hbonds>
donor molecule, donor type, donor heavy atom, donor atom, acceptor molecule, acceptor atom, score
      L1  H     3    25       P1  7948  0.21
      L1  H    15    28       P1  7948  0.84
      L1  H    19    43       P1 10957  0.32
      P1  H 10752 10765       L1    14  0.84

> <Gold.Chemscore.Hbond.Weighted>
-11.1675

> <Gold.Chemscore.Metal.Weighted>
-0.0000

> <Gold.Chemscore.Lipo.Weighted>
-7.0788

> <Gold.Chemscore.Internal_Hbond.Weighted>
0.0000

> <Gold.Chemscore.DEClash.Weighted>
0.9593

> <Gold.Chemscore.DEInternal.Weighted>
1.1698

> <Gold.Chemscore.Rot.Weighted>
3.2735

> <Gold.Chemscore.Internal.Correction.Weighted>
   9.000000E+99

> <Gold.Protein.RotatedTorsions>
[ 6907 6896 6895 6894 ] final   51.91 input  -60.11 | X-H torsion
[ 7974 7965 7964 7962 ] final  -14.88 input  175.53 | X-H torsion
[ 8008 7997 7996 7995 ] final -157.32 input   59.86 | X-H torsion
[ 10167 10162 10161 10158 ] final  -73.75 input  -65.29 | X-H torsion
[ 10718 10713 10712 10709 ] final  167.55 input   66.30 | X-H torsion
[ 10763 10752 10751 10750 ] final  141.31 input  -60.55 | X-H torsion
[ 11005 11000 10999 10996 ] final  117.23 input  -57.11 | X-H torsion

> <Gold.Protein.ActiveResidues>
 VAL166  LYS551  ARG553  GLY616  TRP617  ASP618  TYR619  PRO620  LYS621  CYS622 
 ASP623  PHE694  ASN695  SER759  ASP760  ASP761  ALA762  ILE779  LEU786  VAL792 
 PHE793  MET794  SER795  GLU796  ALA797  LYS798  CYS799  TRP800  GLU811  SER814 

> <Gold.Protein.RotatedAtoms>
  152.3177  134.7420  160.0321 H   0  0  0  0  0  0  0  0  0  0  0  0  # atno 6907 bound_to 6896
  151.7879  133.3351  159.3498 H   0  0  0  0  0  0  0  0  0  0  0  0  # atno 6908 bound_to 6896
  150.7353  134.5801  159.5979 H   0  0  0  0  0  0  0  0  0  0  0  0  # atno 6909 bound_to 6896
  146.2056  140.3412  142.8408 H   0  0  0  0  0  0  0  0  0  0  0  0  # atno 7974 bound_to 7965
  155.7306  140.0801  157.2290 H   0  0  0  0  0  0  0  0  0  0  0  0  # atno 8008 bound_to 7997
  154.4033  140.1596  156.2559 H   0  0  0  0  0  0  0  0  0  0  0  0  # atno 8009 bound_to 7997
  155.9112  140.3404  155.6103 H   0  0  0  0  0  0  0  0  0  0  0  0  # atno 8010 bound_to 7997
  140.5084  143.2349  151.7635 H   0  0  0  0  0  0  0  0  0  0  0  0  # atno 10167 bound_to 10162
  157.0499  131.0310  151.2684 H   0  0  0  0  0  0  0  0  0  0  0  0  # atno 10718 bound_to 10713
  153.9372  135.2984  155.3444 H   0  0  0  0  0  0  0  0  0  0  0  0  # atno 10763 bound_to 10752
  154.7496  135.4986  153.9268 H   0  0  0  0  0  0  0  0  0  0  0  0  # atno 10764 bound_to 10752
  153.1061  135.6747  153.9690 H   0  0  0  0  0  0  0  0  0  0  0  0  # atno 10765 bound_to 10752
  139.9067  134.9608  156.7319 H   0  0  0  0  0  0  0  0  0  0  0  0  # atno 11005 bound_to 11000
  144.8784  140.7367  143.6002 LP  0  0  0  0  0  0  0  0  0  0  0  0  # atno 17320 bound_to 7965
  145.3332  139.1753  143.4526 LP  0  0  0  0  0  0  0  0  0  0  0  0  # atno 17321 bound_to 7965
  139.4889  144.4425  151.9748 LP  0  0  0  0  0  0  0  0  0  0  0  0  # atno 17342 bound_to 10162
  140.3516  144.3082  150.5948 LP  0  0  0  0  0  0  0  0  0  0  0  0  # atno 17343 bound_to 10162
  157.5038  130.7896  149.7633 LP  0  0  0  0  0  0  0  0  0  0  0  0  # atno 17370 bound_to 10713
  156.0011  130.3880  150.2603 LP  0  0  0  0  0  0  0  0  0  0  0  0  # atno 17371 bound_to 10713
  140.6918  133.9383  155.7971 LP  0  0  0  0  0  0  0  0  0  0  0  0  # atno 17394 bound_to 11000
  141.0436  134.0586  157.3872 LP  0  0  0  0  0  0  0  0  0  0  0  0  # atno 17395 bound_to 11000

$$$$
