AV-unprocessed.smi:510|AV-procd|sdf|2762|dock3
  -GOLD-   2262023223D 1   1.00000     0.00000
 Structure written by MMmdl.
 30 31  0  0  0  0  0  0  0  0  1 V2000
  144.8338  141.9236  155.4547 C   0  0  0  0  0  0  0  0  0  0  0  0
  146.0551  142.3407  154.8718 O   0  0  0  0  0  0  0  0  0  0  0  0
  147.1298  141.4650  155.1719 C   0  0  0  0  0  0  0  0  0  0  0  0
  148.4490  142.0554  154.6532 C   0  0  0  0  0  0  0  0  0  0  0  0
  149.6072  141.2871  155.0987 N   0  0  0  0  0  0  0  0  0  0  0  0
  150.6225  141.7079  155.8933 C   0  0  0  0  0  0  0  0  0  0  0  0
  150.6435  143.0036  156.3885 N   0  0  0  0  0  0  0  0  0  0  0  0
  151.5641  140.7955  156.1422 N   0  0  0  0  0  0  0  0  0  0  0  0
  151.1076  139.6909  155.4357 C   0  0  0  0  0  0  0  0  0  0  0  0
  149.9377  139.9643  154.8034 C   0  0  0  0  0  0  0  0  0  0  0  0
  149.2382  138.9723  153.9774 C   0  0  0  0  0  0  0  0  0  0  0  0
  148.1821  139.1993  153.3916 O   0  0  0  0  0  0  0  0  0  0  0  0
  149.8788  137.7790  153.9269 N   0  0  0  0  0  0  0  0  0  0  0  0
  151.0538  137.4372  154.5396 C   0  0  0  0  0  0  0  0  0  0  0  0
  151.5077  136.3025  154.3954 O   0  0  0  0  0  0  0  0  0  0  0  0
  151.6790  138.3955  155.2988 N   0  0  0  0  0  0  0  0  0  0  0  0
  152.9429  138.1340  155.9906 C   0  0  0  0  0  0  0  0  0  0  0  0
  149.4388  137.0593  153.3722 H   0  0  0  0  0  0  0  0  0  0  0  0
  144.0449  142.6296  155.1956 H   0  0  0  0  0  0  0  0  0  0  0  0
  144.9085  141.8861  156.5421 H   0  0  0  0  0  0  0  0  0  0  0  0
  144.5384  140.9394  155.0889 H   0  0  0  0  0  0  0  0  0  0  0  0
  147.1912  141.3096  156.2501 H   0  0  0  0  0  0  0  0  0  0  0  0
  146.9572  140.4909  154.7122 H   0  0  0  0  0  0  0  0  0  0  0  0
  148.4403  142.0851  153.5635 H   0  0  0  0  0  0  0  0  0  0  0  0
  148.5554  143.0913  154.9715 H   0  0  0  0  0  0  0  0  0  0  0  0
  149.9082  143.6608  156.1707 H   0  0  0  0  0  0  0  0  0  0  0  0
  151.3933  143.3326  156.9792 H   0  0  0  0  0  0  0  0  0  0  0  0
  153.3250  137.1224  155.8516 H   0  0  0  0  0  0  0  0  0  0  0  0
  152.8200  138.2918  157.0626 H   0  0  0  0  0  0  0  0  0  0  0  0
  153.7101  138.8234  155.6365 H   0  0  0  0  0  0  0  0  0  0  0  0
  1  2  1  0  0  0  0
  1 19  1  0  0  0  0
  1 20  1  0  0  0  0
  1 21  1  0  0  0  0
  2  3  1  0  0  0  0
  3  4  1  0  0  0  0
  3 22  1  0  0  0  0
  3 23  1  0  0  0  0
  4  5  1  0  0  0  0
  4 24  1  0  0  0  0
  4 25  1  0  0  0  0
  5 10  1  0  0  0  0
  5  6  1  0  0  0  0
  6  7  1  0  0  0  0
  6  8  2  0  0  0  0
  7 26  1  0  0  0  0
  7 27  1  0  0  0  0
  8  9  1  0  0  0  0
  9 16  1  0  0  0  0
  9 10  2  0  0  0  0
 10 11  1  0  0  0  0
 11 12  2  0  0  0  0
 11 13  1  0  0  0  0
 13 18  1  0  0  0  0
 13 14  1  0  0  0  0
 14 15  2  0  0  0  0
 14 16  1  0  0  0  0
 16 17  1  0  0  0  0
 17 28  1  0  0  0  0
 17 29  1  0  0  0  0
 17 30  1  0  0  0  0
M  END
> <s_m_source_file>
AV-unprocessed.smi

> <i_m_source_file_index>
510

> <i_lp_mmshare_version>
43012

> <i_f3d_flags>
0

> <s_epik_input>
W0NIM11PW0NIMl1bQ0gyXW4oYyhuMSlbTkgyXSljKGMxMiljKD1PKVtuSF1jKD1PKW4yW0NIM10=

> <s_epik_cmdline>
J2VwaWtfcHl0aG9uJywgJy1waCcsICc3LjAnLCAnLXRuJywgJzgnLCAnLW1hJywgJzIwMCcsICctbWV0YWxfYmluZGluZycsICctaW1hZScsICc8aW5maWxlLm1hZT4nLCAnLW9tYWUnLCAnPG91dGZpbGUubWFlPic=

> <r_lp_tautomer_probability>
1

> <r_epik_Ionization_Penalty>
0.000102378

> <r_epik_Ionization_Penalty_Charging>
3.81714e-05

> <r_epik_Ionization_Penalty_Neutral>
6.42066e-05

> <r_epik_State_Penalty>
-0

> <r_epik_Charging_Adjusted_Penalty>
3.81714e-05

> <i_epik_Tot_Q>
0

> <i_epik_Tot_abs_Q>
0

> <r_epik_Metal_State_Penalty>
0.0348186

> <b_epik_Metal_Only>
0

> <s_lp_Force_Field>
OPLS_2005

> <r_lp_Energy>
22.8727

> <b_lp_Chiralities_Consistent>
1

> <s_lp_Variant>
AV-unprocessed.smi:510-1

> <Gold.Version>
5.8.1

> <Gold.Id.Protein>
6NUR|6NUR_protein|mol2

> <Gold.PLP.Fitness>
35.2033

> <Gold.PLP.PLP>
-26.3021

> <Gold.PLP.part.hbond>
-3.0000

> <Gold.PLP.part.metal>
0.0000

> <Gold.PLP.part.buried>
-1.7585

> <Gold.PLP.part.nonpolar>
-23.4494

> <Gold.PLP.part.repulsive>
2.6506

> <Gold.PLP.ligand.clash>
0.0000

> <Gold.PLP.ligand.torsion>
0.0379

> <Gold.PLP.Chemscore.Hbond>
2.9920

> <Gold.PLP.Chemscore.CHOScore>
0.0000

> <Gold.PLP.Chemscore.Metal>
0.0000

> <Gold.Chemscore.Hbonds>
donor molecule, donor type, donor heavy atom, donor atom, acceptor molecule, acceptor atom, score
      L1  H     7    26       P1  8028  1.00
      L1  H    13    18       P1  7948  1.00
      P1  H 10752 10764       L1    15  1.00

> <Gold.PLP.Chemscore.Internal.Correction>
0.0010

> <Gold.Rescore>
     Score         DG    S(hbond)    S(metal)    S(lipo)     H(rot)  DE(clash)    DE(int)     intcor
     12.20     -13.12       2.74        0.00      26.06       1.78       0.27       0.66       ----

> <Gold.Chemscore.Fitness>
12.1975

> <Gold.Chemscore.DG>
-13.1211

> <Gold.Chemscore.ZeroCoef>
-5.4800

> <Gold.Chemscore.Hbond>
2.7413

> <Gold.Chemscore.Metal>
0.0000

> <Gold.Chemscore.Lipo>
26.0647

> <Gold.Chemscore.Internal_Hbond>
0.0000

> <Gold.Chemscore.DEClash>
0.2656

> <Gold.Chemscore.DEInternal>
0.6580

> <Gold.Chemscore.Rot>
1.7830

> <Gold.Chemscore.Internal.Correction>
   9.000000E+99

> <Gold.Chemscore.Hbonds>
donor molecule, donor type, donor heavy atom, donor atom, acceptor molecule, acceptor atom, score
      L1  H     7    26       P1  8028  0.95
      L1  H    13    18       P1  7948  0.89
      P1  H 10752 10764       L1    15  0.98

> <Gold.Chemscore.Hbond.Weighted>
-9.1561

> <Gold.Chemscore.Metal.Weighted>
-0.0000

> <Gold.Chemscore.Lipo.Weighted>
-3.0496

> <Gold.Chemscore.Internal_Hbond.Weighted>
0.0000

> <Gold.Chemscore.DEClash.Weighted>
0.2656

> <Gold.Chemscore.DEInternal.Weighted>
0.6580

> <Gold.Chemscore.Rot.Weighted>
4.5646

> <Gold.Chemscore.Internal.Correction.Weighted>
   9.000000E+99

> <Gold.Protein.RotatedTorsions>
[ 6907 6896 6895 6894 ] final  -47.68 input  -60.11 | X-H torsion
[ 7974 7965 7964 7962 ] final   36.66 input  175.53 | X-H torsion
[ 8008 7997 7996 7995 ] final -176.22 input   59.86 | X-H torsion
[ 10167 10162 10161 10158 ] final -118.11 input  -65.29 | X-H torsion
[ 10718 10713 10712 10709 ] final  -74.32 input   66.30 | X-H torsion
[ 10763 10752 10751 10750 ] final  -57.55 input  -60.55 | X-H torsion
[ 11005 11000 10999 10996 ] final -136.29 input  -57.11 | X-H torsion

> <Gold.Protein.ActiveResidues>
 VAL166  LYS551  ARG553  GLY616  TRP617  ASP618  TYR619  PRO620  LYS621  CYS622 
 ASP623  PHE694  ASN695  SER759  ASP760  ASP761  ALA762  ILE779  LEU786  VAL792 
 PHE793  MET794  SER795  GLU796  ALA797  LYS798  CYS799  TRP800  GLU811  SER814 

> <Gold.Protein.RotatedAtoms>
  150.8983  134.8393  159.7341 H   0  0  0  0  0  0  0  0  0  0  0  0  # atno 6907 bound_to 6896
  152.4877  134.4542  159.9594 H   0  0  0  0  0  0  0  0  0  0  0  0  # atno 6908 bound_to 6896
  151.4597  133.3557  159.2842 H   0  0  0  0  0  0  0  0  0  0  0  0  # atno 6909 bound_to 6896
  146.1195  139.5990  142.9299 H   0  0  0  0  0  0  0  0  0  0  0  0  # atno 7974 bound_to 7965
  155.9921  140.1203  157.0628 H   0  0  0  0  0  0  0  0  0  0  0  0  # atno 8008 bound_to 7997
  154.4215  140.1123  156.5649 H   0  0  0  0  0  0  0  0  0  0  0  0  # atno 8009 bound_to 7997
  155.6328  140.3473  155.4690 H   0  0  0  0  0  0  0  0  0  0  0  0  # atno 8010 bound_to 7997
  140.0610  143.4968  152.2031 H   0  0  0  0  0  0  0  0  0  0  0  0  # atno 10167 bound_to 10162
  156.0247  130.4414  150.2875 H   0  0  0  0  0  0  0  0  0  0  0  0  # atno 10718 bound_to 10713
  154.2241  135.6372  153.5154 H   0  0  0  0  0  0  0  0  0  0  0  0  # atno 10763 bound_to 10752
  152.9962  135.5504  154.6082 H   0  0  0  0  0  0  0  0  0  0  0  0  # atno 10764 bound_to 10752
  154.5550  135.2904  155.0947 H   0  0  0  0  0  0  0  0  0  0  0  0  # atno 10765 bound_to 10752
  140.8818  134.1922  157.4586 H   0  0  0  0  0  0  0  0  0  0  0  0  # atno 11005 bound_to 11000
  145.5496  141.0414  143.2286 LP  0  0  0  0  0  0  0  0  0  0  0  0  # atno 17320 bound_to 7965
  144.7584  139.7017  143.7244 LP  0  0  0  0  0  0  0  0  0  0  0  0  # atno 17321 bound_to 7965
  139.5894  144.7544  151.3440 LP  0  0  0  0  0  0  0  0  0  0  0  0  # atno 17342 bound_to 10162
  140.7172  143.7235  150.7677 LP  0  0  0  0  0  0  0  0  0  0  0  0  # atno 17343 bound_to 10162
  157.0979  131.0187  151.3097 LP  0  0  0  0  0  0  0  0  0  0  0  0  # atno 17370 bound_to 10713
  157.4803  130.7761  149.7408 LP  0  0  0  0  0  0  0  0  0  0  0  0  # atno 17371 bound_to 10713
  139.8720  134.9821  156.5141 LP  0  0  0  0  0  0  0  0  0  0  0  0  # atno 17394 bound_to 11000
  140.8452  133.8174  155.9114 LP  0  0  0  0  0  0  0  0  0  0  0  0  # atno 17395 bound_to 11000

$$$$
