AV-unprocessed.smi:2889|AV-procd|sdf|11110|dock2
  -GOLD-   2272015573D 1   1.00000     0.00000
 Structure written by MMmdl.
 36 37  0  0  0  0  0  0  0  0  1 V2000
  144.9310  137.1804  152.5376 C   0  0  0  0  0  0  0  0  0  0  0  0
  146.6710  137.0807  153.0379 S   0  0  0  0  0  0  0  0  0  0  0  0
  146.9228  138.7348  153.7584 C   0  0  2  0  0  0  0  0  0  0  0  0
  146.9171  139.8146  152.6600 C   0  0  0  0  0  0  0  0  0  0  0  0
  147.1197  141.2209  153.2429 C   0  0  0  0  0  0  0  0  0  0  0  0
  148.4222  141.2990  154.0503 C   0  0  0  0  0  0  0  0  0  0  0  0
  148.4530  140.2452  155.1697 C   0  0  0  0  0  0  0  0  0  0  0  0
  148.1911  138.8195  154.6436 C   0  0  2  0  0  0  0  0  0  0  0  0
  149.3713  138.3120  153.9341 N   0  0  0  0  0  0  0  0  0  0  0  0
  150.8784  138.2571  154.7697 S   0  0  0  0  0  0  0  0  0  0  0  0
  151.5984  137.0571  154.3156 O   0  0  0  0  0  0  0  0  0  0  0  0
  151.5044  139.5817  154.6397 O   0  0  0  0  0  0  0  0  0  0  0  0
  150.3562  138.0036  156.5173 C   0  0  0  0  0  0  0  0  0  0  0  0
  151.4577  138.4417  157.4397 C   0  0  0  0  0  0  0  0  0  0  0  0
  151.4777  138.4319  158.8621 C   0  0  0  0  0  0  0  0  0  0  0  0
  152.7111  138.9307  159.1671 C   0  0  0  0  0  0  0  0  0  0  0  0
  153.3960  139.2295  158.0345 O   0  0  0  0  0  0  0  0  0  0  0  0
  152.5869  138.9149  156.9368 N   0  0  0  0  0  0  0  0  0  0  0  0
  144.6385  136.2640  152.0257 H   0  0  0  0  0  0  0  0  0  0  0  0
  144.7759  138.0191  151.8591 H   0  0  0  0  0  0  0  0  0  0  0  0
  144.2826  137.3065  153.4039 H   0  0  0  0  0  0  0  0  0  0  0  0
  146.0591  138.9264  154.3966 H   0  0  0  0  0  0  0  0  0  0  0  0
  147.7029  139.6065  151.9327 H   0  0  0  0  0  0  0  0  0  0  0  0
  145.9750  139.7801  152.1117 H   0  0  0  0  0  0  0  0  0  0  0  0
  147.1380  141.9564  152.4382 H   0  0  0  0  0  0  0  0  0  0  0  0
  146.2741  141.4810  153.8808 H   0  0  0  0  0  0  0  0  0  0  0  0
  149.2734  141.1509  153.3846 H   0  0  0  0  0  0  0  0  0  0  0  0
  148.5360  142.2961  154.4766 H   0  0  0  0  0  0  0  0  0  0  0  0
  149.4036  140.2891  155.7026 H   0  0  0  0  0  0  0  0  0  0  0  0
  147.6858  140.4942  155.9038 H   0  0  0  0  0  0  0  0  0  0  0  0
  148.0317  138.1801  155.5121 H   0  0  0  0  0  0  0  0  0  0  0  0
  149.1671  137.4160  153.4913 H   0  0  0  0  0  0  0  0  0  0  0  0
  149.4425  138.5735  156.6886 H   0  0  0  0  0  0  0  0  0  0  0  0
  150.1220  136.9486  156.6577 H   0  0  0  0  0  0  0  0  0  0  0  0
  150.7107  138.1059  159.5487 H   0  0  0  0  0  0  0  0  0  0  0  0
  153.2235  139.1262  160.0975 H   0  0  0  0  0  0  0  0  0  0  0  0
  1  2  1  0  0  0  0
  1 19  1  0  0  0  0
  1 20  1  0  0  0  0
  1 21  1  0  0  0  0
  2  3  1  0  0  0  0
  3  8  1  0  0  0  0
  3  4  1  0  0  0  0
  3 22  1  0  0  0  0
  4  5  1  0  0  0  0
  4 23  1  0  0  0  0
  4 24  1  0  0  0  0
  5  6  1  0  0  0  0
  5 25  1  0  0  0  0
  5 26  1  0  0  0  0
  6  7  1  0  0  0  0
  6 27  1  0  0  0  0
  6 28  1  0  0  0  0
  7  8  1  0  0  0  0
  7 29  1  0  0  0  0
  7 30  1  0  0  0  0
  8  9  1  0  0  0  0
  8 31  1  0  0  0  0
  9 10  1  0  0  0  0
  9 32  1  0  0  0  0
 10 11  2  0  0  0  0
 10 12  2  0  0  0  0
 10 13  1  0  0  0  0
 13 14  1  0  0  0  0
 13 33  1  0  0  0  0
 13 34  1  0  0  0  0
 14 18  2  0  0  0  0
 14 15  1  0  0  0  0
 15 16  2  0  0  0  0
 15 35  1  0  0  0  0
 16 17  1  0  0  0  0
 16 36  1  0  0  0  0
 17 18  1  0  0  0  0
M  END
> <s_m_source_file>
AV-unprocessed.smi

> <i_m_source_file_index>
2889

> <i_lp_mmshare_version>
43012

> <i_f3d_flags>
0

> <s_epik_input>
W0NIM11TW0NAQEhdMVtDSDJdW0NIMl1bQ0gyXVtDSDJdW0NASF0xW05IXVMoPU8pKD1PKVtDSDJdYzJbY0hdW2NIXW9uMg==

> <s_epik_cmdline>
J2VwaWtfcHl0aG9uJywgJy1waCcsICc3LjAnLCAnLXRuJywgJzgnLCAnLW1hJywgJzIwMCcsICctbWV0YWxfYmluZGluZycsICctaW1hZScsICc8aW5maWxlLm1hZT4nLCAnLW9tYWUnLCAnPG91dGZpbGUubWFlPic=

> <r_lp_tautomer_probability>
1

> <r_epik_Ionization_Penalty>
0.000229547

> <r_epik_Ionization_Penalty_Charging>
0

> <r_epik_Ionization_Penalty_Neutral>
0.000229547

> <r_epik_State_Penalty>
-0

> <r_epik_Charging_Adjusted_Penalty>
0

> <i_epik_Tot_Q>
0

> <i_epik_Tot_abs_Q>
0

> <r_epik_Metal_State_Penalty>
0.145979

> <b_epik_Metal_Only>
0

> <s_lp_Force_Field>
OPLS_2005

> <r_lp_Energy>
4.93405

> <b_lp_Chiralities_Consistent>
1

> <s_lp_Variant>
AV-unprocessed.smi:2889-3

> <Gold.Version>
5.8.1

> <Gold.Id.Protein>
6NUR|6NUR_protein|mol2

> <Gold.PLP.Fitness>
31.5288

> <Gold.PLP.PLP>
-21.4884

> <Gold.PLP.part.hbond>
-5.0077

> <Gold.PLP.part.metal>
0.0000

> <Gold.PLP.part.buried>
-0.7200

> <Gold.PLP.part.nonpolar>
-16.6236

> <Gold.PLP.part.repulsive>
0.5245

> <Gold.PLP.ligand.clash>
0.0000

> <Gold.PLP.ligand.torsion>
1.0626

> <Gold.PLP.Chemscore.Hbond>
3.9833

> <Gold.PLP.Chemscore.CHOScore>
0.0000

> <Gold.PLP.Chemscore.Metal>
0.0000

> <Gold.Chemscore.Hbonds>
donor molecule, donor type, donor heavy atom, donor atom, acceptor molecule, acceptor atom, score
      L1  H     9    32       P1  7948  1.00
      P1  H  7989  7998       L1    12  1.00
      P1  H  7997  8009       L1    17  1.00
      P1  H 10752 10765       L1    11  1.00

> <Gold.PLP.Chemscore.Internal.Correction>
0.2157

> <Gold.Rescore>
     Score         DG    S(hbond)    S(metal)    S(lipo)     H(rot)  DE(clash)    DE(int)     intcor
     14.98     -19.59       3.46        0.00      61.38       1.81       2.14       2.47       ----

> <Gold.Chemscore.Fitness>
14.9785

> <Gold.Chemscore.DG>
-19.5919

> <Gold.Chemscore.ZeroCoef>
-5.4800

> <Gold.Chemscore.Hbond>
3.4590

> <Gold.Chemscore.Metal>
0.0000

> <Gold.Chemscore.Lipo>
61.3820

> <Gold.Chemscore.Internal_Hbond>
0.0000

> <Gold.Chemscore.DEClash>
2.1413

> <Gold.Chemscore.DEInternal>
2.4721

> <Gold.Chemscore.Rot>
1.8058

> <Gold.Chemscore.Internal.Correction>
   9.000000E+99

> <Gold.Chemscore.Hbonds>
donor molecule, donor type, donor heavy atom, donor atom, acceptor molecule, acceptor atom, score
      L1  H     9    32       P1  7948  0.91
      P1  H  7989  7998       L1    12  1.00
      P1  H  7997  8009       L1    17  0.33
      P1  H 10752 10765       L1    11  0.93

> <Gold.Chemscore.Hbond.Weighted>
-11.5530

> <Gold.Chemscore.Metal.Weighted>
-0.0000

> <Gold.Chemscore.Lipo.Weighted>
-7.1817

> <Gold.Chemscore.Internal_Hbond.Weighted>
0.0000

> <Gold.Chemscore.DEClash.Weighted>
2.1413

> <Gold.Chemscore.DEInternal.Weighted>
2.4721

> <Gold.Chemscore.Rot.Weighted>
4.6228

> <Gold.Chemscore.Internal.Correction.Weighted>
   9.000000E+99

> <Gold.Protein.RotatedTorsions>
[ 6907 6896 6895 6894 ] final   59.44 input  -60.11 | X-H torsion
[ 7974 7965 7964 7962 ] final  174.77 input  175.53 | X-H torsion
[ 8008 7997 7996 7995 ] final  134.51 input   59.86 | X-H torsion
[ 10167 10162 10161 10158 ] final  158.06 input  -65.29 | X-H torsion
[ 10718 10713 10712 10709 ] final   32.17 input   66.30 | X-H torsion
[ 10763 10752 10751 10750 ] final  145.32 input  -60.55 | X-H torsion
[ 11005 11000 10999 10996 ] final  -78.41 input  -57.11 | X-H torsion

> <Gold.Protein.ActiveResidues>
 VAL166  LYS551  ARG553  GLY616  TRP617  ASP618  TYR619  PRO620  LYS621  CYS622 
 ASP623  PHE694  ASN695  SER759  ASP760  ASP761  ALA762  ILE779  LEU786  VAL792 
 PHE793  MET794  SER795  GLU796  ALA797  LYS798  CYS799  TRP800  GLU811  SER814 

> <Gold.Protein.RotatedAtoms>
  152.3914  134.6434  160.0105 H   0  0  0  0  0  0  0  0  0  0  0  0  # atno 6907 bound_to 6896
  151.6667  133.3309  159.3195 H   0  0  0  0  0  0  0  0  0  0  0  0  # atno 6908 bound_to 6896
  150.7830  134.6834  159.6501 H   0  0  0  0  0  0  0  0  0  0  0  0  # atno 6909 bound_to 6896
  144.7215  139.9847  143.6439 H   0  0  0  0  0  0  0  0  0  0  0  0  # atno 7974 bound_to 7965
  156.2999  140.2494  156.3428 H   0  0  0  0  0  0  0  0  0  0  0  0  # atno 8008 bound_to 7997
  154.9038  140.0405  157.1927 H   0  0  0  0  0  0  0  0  0  0  0  0  # atno 8009 bound_to 7997
  154.8473  140.2900  155.5625 H   0  0  0  0  0  0  0  0  0  0  0  0  # atno 8010 bound_to 7997
  139.4825  144.4859  151.8378 H   0  0  0  0  0  0  0  0  0  0  0  0  # atno 10167 bound_to 10162
  157.2818  130.7259  149.6561 H   0  0  0  0  0  0  0  0  0  0  0  0  # atno 10718 bound_to 10713
  154.0034  135.2921  155.3400 H   0  0  0  0  0  0  0  0  0  0  0  0  # atno 10763 bound_to 10752
  154.7146  135.5135  153.8721 H   0  0  0  0  0  0  0  0  0  0  0  0  # atno 10764 bound_to 10752
  153.0755  135.6662  154.0273 H   0  0  0  0  0  0  0  0  0  0  0  0  # atno 10765 bound_to 10752
  141.1664  133.7062  156.7968 H   0  0  0  0  0  0  0  0  0  0  0  0  # atno 11005 bound_to 11000
  146.0460  139.3466  143.0668 LP  0  0  0  0  0  0  0  0  0  0  0  0  # atno 17320 bound_to 7965
  145.8275  140.9647  143.0866 LP  0  0  0  0  0  0  0  0  0  0  0  0  # atno 17321 bound_to 7965
  140.4339  144.2078  150.5889 LP  0  0  0  0  0  0  0  0  0  0  0  0  # atno 17342 bound_to 10162
  140.4751  143.2399  151.9034 LP  0  0  0  0  0  0  0  0  0  0  0  0  # atno 17343 bound_to 10162
  155.9664  130.4335  150.5011 LP  0  0  0  0  0  0  0  0  0  0  0  0  # atno 17370 bound_to 10713
  157.2957  131.0635  151.2103 LP  0  0  0  0  0  0  0  0  0  0  0  0  # atno 17371 bound_to 10713
  140.2285  134.8703  157.3452 LP  0  0  0  0  0  0  0  0  0  0  0  0  # atno 17394 bound_to 11000
  140.1915  134.4366  155.7713 LP  0  0  0  0  0  0  0  0  0  0  0  0  # atno 17395 bound_to 11000

$$$$
