#       Name:                AV-unprocessed.smi:3340
#       Creating user name   scv26
#       Creation time:       Fri Mar 27 19:28:15 2020


#       File generated by GOLD software.
#

@<TRIPOS>MOLECULE
AV-unprocessed.smi:3340
    46    47     1
SMALL
NO_CHARGES


@<TRIPOS>ATOM
      1 ****        -6.0639   1.3644  -1.1010 C.3            1 S1                 0.0000
      2 ****        -5.1623   0.1379  -0.9440 C.2            1 S1                 0.0000
      3 ****        -5.6289  -0.9626  -1.2389 O.2            1 S1                 0.0000
      4 ****        -3.8949   0.2987  -0.4933 N.am           1 S1                 0.0000
      5 ****        -2.9446  -0.8169  -0.3755 C.3            1 S1                 0.0000
      6 ****        -1.7837  -0.5910  -1.3651 C.3            1 S1                 0.0000
      7 ****        -1.1383   0.7011  -1.0604 N.am           1 S1                 0.0000
      8 ****         0.1064   0.8711  -0.5487 C.2            1 S1                 0.0000
      9 ****         0.5051   1.9373  -0.0777 O.2            1 S1                 0.0000
     10 ****         0.9037  -0.2067  -0.6465 N.am           1 S1                 0.0000
     11 ****         2.2957  -0.2776  -0.2127 C.3            1 S1                 0.0000
     12 ****         3.0273  -1.3453  -1.0425 C.3            1 S1                 0.0000
     13 ****         2.3638  -0.5360   1.3078 C.3            1 S1                 0.0000
     14 ****         3.7378  -0.6084   1.8131 N.pl3          1 S1                 0.0000
     15 ****         4.5938   0.4394   2.0349 C.2            1 S1                 0.0000
     16 ****         5.7615  -0.1030   2.5065 C.2            1 S1                 0.0000
     17 ****         5.5679  -1.4577   2.5551 N.pl3          1 S1                 1.0000
     18 ****         4.3353  -1.7628   2.1363 C.2            1 S1                 0.0000
     19 ****        -2.0943   1.8139  -1.1716 C.3            1 S1                 0.0000
     20 ****        -3.2556   1.5865  -0.1836 C.3            1 S1                 0.0000
     21 ****        -5.6338   2.0718  -1.8106 H              1 S1                 0.0000
     22 ****        -6.2080   1.8640  -0.1427 H              1 S1                 0.0000
     23 ****        -7.0459   1.0741  -1.4760 H              1 S1                 0.0000
     24 ****        -2.5671  -0.8628   0.6472 H              1 S1                 0.0000
     25 ****        -3.4050  -1.7866  -0.5682 H              1 S1                 0.0000
     26 ****        -1.1096  -1.4460  -1.3215 H              1 S1                 0.0000
     27 ****        -2.1622  -0.5671  -2.3881 H              1 S1                 0.0000
     28 ****         0.5147  -1.0394  -1.0648 H              1 S1                 0.0000
     29 ****         2.7737   0.6805  -0.4250 H              1 S1                 0.0000
     30 ****         4.0940  -1.3642  -0.8195 H              1 S1                 0.0000
     31 ****         2.9259  -1.1477  -2.1103 H              1 S1                 0.0000
     32 ****         2.6274  -2.3412  -0.8492 H              1 S1                 0.0000
     33 ****         1.8597   0.2605   1.8572 H              1 S1                 0.0000
     34 ****         1.8536  -1.4665   1.5629 H              1 S1                 0.0000
     35 ****         4.3151   1.4659   1.8439 H              1 S1                 0.0000
     36 ****         6.6908   0.3613   2.8035 H              1 S1                 0.0000
     37 ****         3.9099  -2.7482   2.0676 H              1 S1                 0.0000
     38 ****        -1.6346   2.7848  -0.9828 H              1 S1                 0.0000
     39 ****        -2.4727   1.8599  -2.1940 H              1 S1                 0.0000
     40 ****        -3.9368   2.4348  -0.2243 H              1 S1                 0.0000
     41 ****        -2.8783   1.5611   0.8397 H              1 S1                 0.0000
     42 ****         6.2561  -2.1331   2.8634 H              1 S1                 0.0000
     43 ****        -6.5700  -1.0344  -1.5693 LP             1 S1                 0.0000
     44 ****        -5.0667  -1.7846  -1.1481 LP             1 S1                 0.0000
     45 ****        -0.0998   2.7334  -0.0599 LP             1 S1                 0.0000
     46 ****         1.4338   2.0068   0.2867 LP             1 S1                 0.0000
@<TRIPOS>BOND
    1    1    2 1     
    2    1   21 1     
    3    1   22 1     
    4    1   23 1     
    5    2    3 2     
    6    2    4 am    
    7    4   20 1     
    8    4    5 1     
    9    5    6 1     
   10    5   24 1     
   11    5   25 1     
   12    6    7 1     
   13    6   26 1     
   14    6   27 1     
   15    7    8 am    
   16    7   19 1     
   17    8    9 2     
   18    8   10 am    
   19   10   11 1     
   20   10   28 1     
   21   11   12 1     
   22   11   13 1     
   23   11   29 1     
   24   12   30 1     
   25   12   31 1     
   26   12   32 1     
   27   13   14 1     
   28   13   33 1     
   29   13   34 1     
   30   14   18 1     
   31   14   15 1     
   32   15   16 2     
   33   15   35 1     
   34   16   17 1     
   35   16   36 1     
   36   17   18 2     
   37   17   42 1     
   38   18   37 1     
   39   19   20 1     
   40   19   38 1     
   41   19   39 1     
   42   20   40 1     
   43   20   41 1     
   44    3   43 1     
   45    3   44 1     
   46    9   45 1     
   47    9   46 1     
@<TRIPOS>SUBSTRUCTURE
      1 S1             1
@<TRIPOS>SET
LONE_PAIRS      STATIC     ATOMS    <user>   **** ""
4 43 44 45 46
DONOR_HYDROGENS      STATIC     ATOMS    <user>   **** ""
2 28 42
ATOM$BLUE        STATIC     ATOMS    COLORGROUP SYSTEM
4 43 44 45 46
ATOM$RED        STATIC     ATOMS    COLORGROUP SYSTEM
2 28 42
