AV-unprocessed.smi:3297|AV-procd|sdf|12639|dock4
  -GOLD-   2272018573D 1   1.00000     0.00000
 Structure written by MMmdl.
 34 35  0  0  0  0  0  0  0  0  1 V2000
  147.9405  137.0753  161.1788 O   0  0  0  0  0  0  0  0  0  0  0  0
  148.2262  136.3970  159.9740 C   0  0  0  0  0  0  0  0  0  0  0  0
  149.0501  137.2955  159.0439 C   0  0  0  0  0  0  0  0  0  0  0  0
  150.4314  137.0645  159.2823 O   0  0  0  0  0  0  0  0  0  0  0  0
  151.3050  137.8809  158.5138 C   0  0  1  0  0  0  0  0  0  0  0  0
  151.0143  137.6008  157.0299 C   0  0  0  0  0  0  0  0  0  0  0  0
  151.8561  138.5249  156.1374 C   0  0  0  0  0  0  0  0  0  0  0  0
  151.6240  139.9997  156.5039 C   0  0  0  0  0  0  0  0  0  0  0  0
  151.8625  140.2273  157.9289 N   0  0  0  0  0  0  0  0  0  0  0  0
  151.9962  141.5858  158.2815 C   0  0  0  0  0  0  0  0  0  0  0  0
  151.3611  142.5106  157.5185 N   0  0  0  0  0  0  0  0  0  0  0  0
  151.4921  143.8167  157.8338 C   0  0  0  0  0  0  0  0  0  0  0  0
  152.2583  144.2748  158.9221 C   0  0  0  0  0  0  0  0  0  0  0  0
  152.9143  143.3209  159.7216 C   0  0  0  0  0  0  0  0  0  0  0  0
  152.7821  141.9558  159.4010 C   0  0  0  0  0  0  0  0  0  0  0  0
  153.3890  141.0220  160.1735 F   0  0  0  0  0  0  0  0  0  0  0  0
  151.0833  139.3755  158.8301 C   0  0  0  0  0  0  0  0  0  0  0  0
  147.0665  137.4302  161.1236 H   0  0  0  0  0  0  0  0  0  0  0  0
  148.7986  135.5041  160.2268 H   0  0  0  0  0  0  0  0  0  0  0  0
  147.3049  136.0657  159.4938 H   0  0  0  0  0  0  0  0  0  0  0  0
  148.7759  137.1303  158.0015 H   0  0  0  0  0  0  0  0  0  0  0  0
  148.8305  138.3393  159.2738 H   0  0  0  0  0  0  0  0  0  0  0  0
  152.3429  137.6102  158.7167 H   0  0  0  0  0  0  0  0  0  0  0  0
  151.2251  136.5571  156.7945 H   0  0  0  0  0  0  0  0  0  0  0  0
  149.9549  137.7603  156.8241 H   0  0  0  0  0  0  0  0  0  0  0  0
  152.9134  138.2818  156.2513 H   0  0  0  0  0  0  0  0  0  0  0  0
  151.6106  138.3583  155.0883 H   0  0  0  0  0  0  0  0  0  0  0  0
  152.2639  140.6298  155.8870 H   0  0  0  0  0  0  0  0  0  0  0  0
  150.5958  140.2818  156.2739 H   0  0  0  0  0  0  0  0  0  0  0  0
  150.9704  144.5172  157.1987 H   0  0  0  0  0  0  0  0  0  0  0  0
  152.3373  145.3297  159.1395 H   0  0  0  0  0  0  0  0  0  0  0  0
  153.5067  143.6303  160.5700 H   0  0  0  0  0  0  0  0  0  0  0  0
  150.0249  139.6216  158.7310 H   0  0  0  0  0  0  0  0  0  0  0  0
  151.3681  139.5865  159.8610 H   0  0  0  0  0  0  0  0  0  0  0  0
  1  2  1  0  0  0  0
  1 18  1  0  0  0  0
  2  3  1  0  0  0  0
  2 19  1  0  0  0  0
  2 20  1  0  0  0  0
  3  4  1  0  0  0  0
  3 21  1  0  0  0  0
  3 22  1  0  0  0  0
  4  5  1  0  0  0  0
  5 17  1  0  0  0  0
  5  6  1  0  0  0  0
  5 23  1  0  0  0  0
  6  7  1  0  0  0  0
  6 24  1  0  0  0  0
  6 25  1  0  0  0  0
  7  8  1  0  0  0  0
  7 26  1  0  0  0  0
  7 27  1  0  0  0  0
  8  9  1  0  0  0  0
  8 28  1  0  0  0  0
  8 29  1  0  0  0  0
  9 10  1  0  0  0  0
  9 17  1  0  0  0  0
 10 15  1  0  0  0  0
 10 11  2  0  0  0  0
 11 12  1  0  0  0  0
 12 13  2  0  0  0  0
 12 30  1  0  0  0  0
 13 14  1  0  0  0  0
 13 31  1  0  0  0  0
 14 15  2  0  0  0  0
 14 32  1  0  0  0  0
 15 16  1  0  0  0  0
 17 33  1  0  0  0  0
 17 34  1  0  0  0  0
M  END
> <s_m_source_file>
AV-unprocessed.smi

> <i_m_source_file_index>
3297

> <i_lp_mmshare_version>
43012

> <i_f3d_flags>
0

> <s_epik_input>
W09IXVtDSDJdW0NIMl1PW0NAQEhdMVtDSDJdW0NIMl1bQ0gyXU4oW0NIMl0xKWMybltjSF1bY0hdW2NIXWMyRg==

> <s_epik_cmdline>
J2VwaWtfcHl0aG9uJywgJy1waCcsICc3LjAnLCAnLXRuJywgJzgnLCAnLW1hJywgJzIwMCcsICctbWV0YWxfYmluZGluZycsICctaW1hZScsICc8aW5maWxlLm1hZT4nLCAnLW9tYWUnLCAnPG91dGZpbGUubWFlPic=

> <r_lp_tautomer_probability>
1

> <r_epik_Ionization_Penalty>
0.00104501

> <r_epik_Ionization_Penalty_Charging>
0

> <r_epik_Ionization_Penalty_Neutral>
0.00104501

> <r_epik_State_Penalty>
0.000654582

> <r_epik_Charging_Adjusted_Penalty>
0.000654582

> <i_epik_Tot_Q>
0

> <i_epik_Tot_abs_Q>
0

> <r_epik_Metal_State_Penalty>
-0

> <b_epik_Metal_Only>
0

> <s_lp_Force_Field>
OPLS_2005

> <r_lp_Energy>
21.7067

> <b_lp_Chiralities_Consistent>
1

> <s_lp_Variant>
AV-unprocessed.smi:3297-2

> <Gold.Version>
5.8.1

> <Gold.Id.Protein>
6NUR|6NUR_protein|mol2

> <Gold.PLP.Fitness>
42.0799

> <Gold.PLP.PLP>
-34.1802

> <Gold.PLP.part.hbond>
-2.5826

> <Gold.PLP.part.metal>
0.0000

> <Gold.PLP.part.buried>
-5.4575

> <Gold.PLP.part.nonpolar>
-27.9899

> <Gold.PLP.part.repulsive>
0.0667

> <Gold.PLP.ligand.clash>
0.0000

> <Gold.PLP.ligand.torsion>
0.6573

> <Gold.PLP.Chemscore.Hbond>
1.9588

> <Gold.PLP.Chemscore.CHOScore>
1.0000

> <Gold.PLP.Chemscore.Metal>
0.0000

> <Gold.Chemscore.Hbonds>
donor molecule, donor type, donor heavy atom, donor atom, acceptor molecule, acceptor atom, score
      P1  H  6896  6908       L1     4  0.65
      P1  H  6931  6943       L1     1  1.00
      L1  C    12    30       P1  8028  0.92

> <Gold.PLP.Chemscore.Internal.Correction>
0.3380

> <Gold.Rescore>
     Score         DG    S(hbond)    S(metal)    S(lipo)     H(rot)  DE(clash)    DE(int)     intcor
     14.26     -15.08       1.90        0.00      77.24       2.25       0.00       0.82       ----

> <Gold.Chemscore.Fitness>
14.2611

> <Gold.Chemscore.DG>
-15.0839

> <Gold.Chemscore.ZeroCoef>
-5.4800

> <Gold.Chemscore.Hbond>
1.8961

> <Gold.Chemscore.Metal>
0.0000

> <Gold.Chemscore.Lipo>
77.2389

> <Gold.Chemscore.Internal_Hbond>
0.0000

> <Gold.Chemscore.DEClash>
0.0000

> <Gold.Chemscore.DEInternal>
0.8228

> <Gold.Chemscore.Rot>
2.2524

> <Gold.Chemscore.Internal.Correction>
   9.000000E+99

> <Gold.Chemscore.Hbonds>
donor molecule, donor type, donor heavy atom, donor atom, acceptor molecule, acceptor atom, score
      P1  H  6896  6908       L1     4  0.61
      P1  H  6931  6943       L1     1  0.72

> <Gold.Chemscore.Hbond.Weighted>
-6.3331

> <Gold.Chemscore.Metal.Weighted>
-0.0000

> <Gold.Chemscore.Lipo.Weighted>
-9.0370

> <Gold.Chemscore.Internal_Hbond.Weighted>
0.0000

> <Gold.Chemscore.DEClash.Weighted>
0.0000

> <Gold.Chemscore.DEInternal.Weighted>
0.8228

> <Gold.Chemscore.Rot.Weighted>
5.7661

> <Gold.Chemscore.Internal.Correction.Weighted>
   9.000000E+99

> <Gold.Protein.RotatedTorsions>
[ 6907 6896 6895 6894 ] final -146.78 input  -60.11 | X-H torsion
[ 7974 7965 7964 7962 ] final -177.23 input  175.53 | X-H torsion
[ 8008 7997 7996 7995 ] final   -0.12 input   59.86 | X-H torsion
[ 10167 10162 10161 10158 ] final  -47.11 input  -65.29 | X-H torsion
[ 10718 10713 10712 10709 ] final   12.34 input   66.30 | X-H torsion
[ 10763 10752 10751 10750 ] final  -45.69 input  -60.55 | X-H torsion
[ 11005 11000 10999 10996 ] final  -51.04 input  -57.11 | X-H torsion

> <Gold.Protein.ActiveResidues>
 VAL166  LYS551  ARG553  GLY616  TRP617  ASP618  TYR619  PRO620  LYS621  CYS622 
 ASP623  PHE694  ASN695  SER759  ASP760  ASP761  ALA762  ILE779  LEU786  VAL792 
 PHE793  MET794  SER795  GLU796  ALA797  LYS798  CYS799  TRP800  GLU811  SER814 

> <Gold.Protein.RotatedAtoms>
  151.1464  133.4936  159.2595 H   0  0  0  0  0  0  0  0  0  0  0  0  # atno 6907 bound_to 6896
  151.1600  135.0268  159.8716 H   0  0  0  0  0  0  0  0  0  0  0  0  # atno 6908 bound_to 6896
  152.5463  134.1339  159.8504 H   0  0  0  0  0  0  0  0  0  0  0  0  # atno 6909 bound_to 6896
  144.7127  140.1050  143.6414 H   0  0  0  0  0  0  0  0  0  0  0  0  # atno 7974 bound_to 7965
  154.6616  140.2592  155.7102 H   0  0  0  0  0  0  0  0  0  0  0  0  # atno 8008 bound_to 7997
  156.2621  140.2847  156.1012 H   0  0  0  0  0  0  0  0  0  0  0  0  # atno 8009 bound_to 7997
  155.1299  140.0378  157.2762 H   0  0  0  0  0  0  0  0  0  0  0  0  # atno 8010 bound_to 7997
  140.6789  143.2799  151.3879 H   0  0  0  0  0  0  0  0  0  0  0  0  # atno 10167 bound_to 10162
  157.0087  130.6108  149.5705 H   0  0  0  0  0  0  0  0  0  0  0  0  # atno 10718 bound_to 10713
  154.0328  135.6654  153.4782 H   0  0  0  0  0  0  0  0  0  0  0  0  # atno 10763 bound_to 10752
  153.0533  135.5071  154.7917 H   0  0  0  0  0  0  0  0  0  0  0  0  # atno 10764 bound_to 10752
  154.6868  135.3054  154.9502 H   0  0  0  0  0  0  0  0  0  0  0  0  # atno 10765 bound_to 10752
  141.0849  133.6645  156.3819 H   0  0  0  0  0  0  0  0  0  0  0  0  # atno 11005 bound_to 11000
  145.9504  139.2730  143.1215 LP  0  0  0  0  0  0  0  0  0  0  0  0  # atno 17320 bound_to 7965
  145.9329  140.9035  143.0347 LP  0  0  0  0  0  0  0  0  0  0  0  0  # atno 17321 bound_to 7965
  139.6098  144.1121  152.2287 LP  0  0  0  0  0  0  0  0  0  0  0  0  # atno 17342 bound_to 10162
  140.0532  144.5916  150.7320 LP  0  0  0  0  0  0  0  0  0  0  0  0  # atno 17343 bound_to 10162
  156.0144  130.5237  150.8089 LP  0  0  0  0  0  0  0  0  0  0  0  0  # atno 17370 bound_to 10713
  157.5336  131.0938  150.9922 LP  0  0  0  0  0  0  0  0  0  0  0  0  # atno 17371 bound_to 10713
  140.5385  134.6143  157.5372 LP  0  0  0  0  0  0  0  0  0  0  0  0  # atno 17394 bound_to 11000
  139.9666  134.7362  156.0125 LP  0  0  0  0  0  0  0  0  0  0  0  0  # atno 17395 bound_to 11000

$$$$
