AV-unprocessed.smi:2866|AV-procd|sdf|11020|dock8
  -GOLD-   2272015483D 1   1.00000     0.00000
 Structure written by MMmdl.
 41 43  0  0  0  0  0  0  0  0  1 V2000
  151.2482  144.3959  158.3308 C   0  0  0  0  0  0  0  0  0  0  0  0
  151.3603  142.9273  157.9614 C   0  0  0  0  0  0  0  0  0  0  0  0
  150.9099  142.5021  156.6914 C   0  0  0  0  0  0  0  0  0  0  0  0
  151.0023  141.1466  156.3067 C   0  0  0  0  0  0  0  0  0  0  0  0
  150.6344  140.5194  155.1286 N   0  0  0  0  0  0  0  0  0  0  0  0
  150.9756  139.2585  155.3783 C   0  0  0  0  0  0  0  0  0  0  0  0
  151.5211  138.9939  156.5808 N   0  0  0  0  0  0  0  0  0  0  0  0
  151.9699  137.7021  157.0689 C   0  0  0  0  0  0  0  0  0  0  0  0
  151.1793  137.2350  158.3096 C   0  0  1  0  0  0  0  0  0  0  0  0
  151.7393  137.7991  159.4791 O   0  0  0  0  0  0  0  0  0  0  0  0
  149.6848  137.6109  158.2652 C   0  0  0  0  0  0  0  0  0  0  0  0
  148.8393  136.6605  158.9654 N   0  0  0  0  0  0  0  0  0  0  0  0
  148.5240  135.3677  158.6077 C   0  0  0  0  0  0  0  0  0  0  0  0
  147.6871  134.8746  159.5669 C   0  0  0  0  0  0  0  0  0  0  0  0
  147.5361  135.9545  160.4848 C   0  0  0  0  0  0  0  0  0  0  0  0
  146.7217  135.9981  161.7510 C   0  0  0  0  0  0  0  0  0  0  0  0
  145.7448  136.8984  161.6415 F   0  0  0  0  0  0  0  0  0  0  0  0
  146.1791  134.8029  161.9831 F   0  0  0  0  0  0  0  0  0  0  0  0
  147.4988  136.3310  162.7817 F   0  0  0  0  0  0  0  0  0  0  0  0
  148.2281  137.0232  160.1133 N   0  0  0  0  0  0  0  0  0  0  0  0
  151.5589  140.2200  157.2361 C   0  0  0  0  0  0  0  0  0  0  0  0
  152.0077  140.6304  158.5037 C   0  0  0  0  0  0  0  0  0  0  0  0
  151.9114  141.9890  158.8709 C   0  0  0  0  0  0  0  0  0  0  0  0
  152.4048  142.4229  160.2397 C   0  0  0  0  0  0  0  0  0  0  0  0
  150.7934  144.9747  157.5265 H   0  0  0  0  0  0  0  0  0  0  0  0
  152.2346  144.8157  158.5291 H   0  0  0  0  0  0  0  0  0  0  0  0
  150.6324  144.5208  159.2218 H   0  0  0  0  0  0  0  0  0  0  0  0
  150.4907  143.2162  155.9979 H   0  0  0  0  0  0  0  0  0  0  0  0
  150.8229  138.4811  154.6438 H   0  0  0  0  0  0  0  0  0  0  0  0
  151.8824  136.9735  156.2619 H   0  0  0  0  0  0  0  0  0  0  0  0
  153.0329  137.7830  157.2988 H   0  0  0  0  0  0  0  0  0  0  0  0
  151.2688  136.1515  158.3978 H   0  0  0  0  0  0  0  0  0  0  0  0
  152.4114  138.4126  159.2233 H   0  0  0  0  0  0  0  0  0  0  0  0
  149.5280  138.5961  158.7069 H   0  0  0  0  0  0  0  0  0  0  0  0
  149.3444  137.6749  157.2307 H   0  0  0  0  0  0  0  0  0  0  0  0
  148.9180  134.9105  157.7119 H   0  0  0  0  0  0  0  0  0  0  0  0
  147.2457  133.8897  159.6068 H   0  0  0  0  0  0  0  0  0  0  0  0
  152.4271  139.9054  159.1857 H   0  0  0  0  0  0  0  0  0  0  0  0
  152.7969  141.5787  160.8076 H   0  0  0  0  0  0  0  0  0  0  0  0
  151.5926  142.8656  160.8169 H   0  0  0  0  0  0  0  0  0  0  0  0
  153.2024  143.1597  160.1422 H   0  0  0  0  0  0  0  0  0  0  0  0
  1  2  1  0  0  0  0
  1 25  1  0  0  0  0
  1 26  1  0  0  0  0
  1 27  1  0  0  0  0
  2 23  1  0  0  0  0
  2  3  2  0  0  0  0
  3  4  1  0  0  0  0
  3 28  1  0  0  0  0
  4 21  2  0  0  0  0
  4  5  1  0  0  0  0
  5  6  2  0  0  0  0
  6  7  1  0  0  0  0
  6 29  1  0  0  0  0
  7  8  1  0  0  0  0
  7 21  1  0  0  0  0
  8  9  1  0  0  0  0
  8 30  1  0  0  0  0
  8 31  1  0  0  0  0
  9 10  1  0  0  0  0
  9 11  1  0  0  0  0
  9 32  1  0  0  0  0
 10 33  1  0  0  0  0
 11 12  1  0  0  0  0
 11 34  1  0  0  0  0
 11 35  1  0  0  0  0
 12 20  1  0  0  0  0
 12 13  1  0  0  0  0
 13 14  2  0  0  0  0
 13 36  1  0  0  0  0
 14 15  1  0  0  0  0
 14 37  1  0  0  0  0
 15 16  1  0  0  0  0
 15 20  2  0  0  0  0
 16 17  1  0  0  0  0
 16 18  1  0  0  0  0
 16 19  1  0  0  0  0
 21 22  1  0  0  0  0
 22 23  2  0  0  0  0
 22 38  1  0  0  0  0
 23 24  1  0  0  0  0
 24 39  1  0  0  0  0
 24 40  1  0  0  0  0
 24 41  1  0  0  0  0
M  END
> <s_m_source_file>
AV-unprocessed.smi

> <i_m_source_file_index>
2866

> <i_lp_mmshare_version>
43012

> <i_f3d_flags>
0

> <s_epik_input>
W0NIM11jKFtjSF0xKWMoW0NIM10pW2NIXWMoYzEyKW4oW2NIXW4yKVtDSDJdW0NASF0oW09IXSlbQ0gyXW4zW2NIXVtjSF1jKG4zKUMoRikoRilG

> <s_epik_cmdline>
J2VwaWtfcHl0aG9uJywgJy1waCcsICc3LjAnLCAnLXRuJywgJzgnLCAnLW1hJywgJzIwMCcsICctbWV0YWxfYmluZGluZycsICctaW1hZScsICc8aW5maWxlLm1hZT4nLCAnLW9tYWUnLCAnPG91dGZpbGUubWFlPic=

> <r_lp_tautomer_probability>
1

> <r_epik_Ionization_Penalty>
0.1021

> <r_epik_Ionization_Penalty_Charging>
0

> <r_epik_Ionization_Penalty_Neutral>
0.1021

> <r_epik_State_Penalty>
0.0920694

> <r_epik_Charging_Adjusted_Penalty>
0.0920694

> <i_epik_Tot_Q>
0

> <i_epik_Tot_abs_Q>
0

> <r_epik_Metal_State_Penalty>
0.0784291

> <b_epik_Metal_Only>
0

> <s_lp_Force_Field>
OPLS_2005

> <r_lp_Energy>
10.7654

> <b_lp_Chiralities_Consistent>
1

> <s_lp_Variant>
AV-unprocessed.smi:2866-2

> <Gold.Version>
5.8.1

> <Gold.Id.Protein>
6NUR|6NUR_protein|mol2

> <Gold.PLP.Fitness>
55.5764

> <Gold.PLP.PLP>
-51.2382

> <Gold.PLP.part.hbond>
-3.0000

> <Gold.PLP.part.metal>
0.0000

> <Gold.PLP.part.buried>
-5.8185

> <Gold.PLP.part.nonpolar>
-42.3645

> <Gold.PLP.part.repulsive>
0.0641

> <Gold.PLP.ligand.clash>
0.0000

> <Gold.PLP.ligand.torsion>
0.7622

> <Gold.PLP.Chemscore.Hbond>
1.9406

> <Gold.PLP.Chemscore.CHOScore>
0.0000

> <Gold.PLP.Chemscore.Metal>
0.0000

> <Gold.Chemscore.Hbonds>
donor molecule, donor type, donor heavy atom, donor atom, acceptor molecule, acceptor atom, score
      P1  H  6931  6943       L1    20  0.21
      P1  H  6934  6947       L1    20  0.07
      P1  H  7989  7998       L1     5  0.99

> <Gold.PLP.Chemscore.Internal.Correction>
0.0409

> <Gold.Rescore>
     Score         DG    S(hbond)    S(metal)    S(lipo)     H(rot)  DE(clash)    DE(int)     intcor
     15.62     -16.70       1.44        0.00     107.79       2.42       0.06       1.02       ----

> <Gold.Chemscore.Fitness>
15.6250

> <Gold.Chemscore.DG>
-16.6965

> <Gold.Chemscore.ZeroCoef>
-5.4800

> <Gold.Chemscore.Hbond>
1.4404

> <Gold.Chemscore.Metal>
0.0000

> <Gold.Chemscore.Lipo>
107.7930

> <Gold.Chemscore.Internal_Hbond>
0.0000

> <Gold.Chemscore.DEClash>
0.0550

> <Gold.Chemscore.DEInternal>
1.0166

> <Gold.Chemscore.Rot>
2.4243

> <Gold.Chemscore.Internal.Correction>
   9.000000E+99

> <Gold.Chemscore.Hbonds>
donor molecule, donor type, donor heavy atom, donor atom, acceptor molecule, acceptor atom, score
      P1  H  6931  6943       L1    20  0.19
      P1  H  6934  6947       L1    20  0.07
      P1  H  7989  7998       L1     5  0.31

> <Gold.Chemscore.Hbond.Weighted>
-4.8110

> <Gold.Chemscore.Metal.Weighted>
-0.0000

> <Gold.Chemscore.Lipo.Weighted>
-12.6118

> <Gold.Chemscore.Internal_Hbond.Weighted>
0.0000

> <Gold.Chemscore.DEClash.Weighted>
0.0550

> <Gold.Chemscore.DEInternal.Weighted>
1.0166

> <Gold.Chemscore.Rot.Weighted>
6.2063

> <Gold.Chemscore.Internal.Correction.Weighted>
   9.000000E+99

> <Gold.Protein.RotatedTorsions>
[ 6907 6896 6895 6894 ] final  128.95 input  -60.11 | X-H torsion
[ 7974 7965 7964 7962 ] final -177.54 input  175.53 | X-H torsion
[ 8008 7997 7996 7995 ] final -137.15 input   59.86 | X-H torsion
[ 10167 10162 10161 10158 ] final   67.39 input  -65.29 | X-H torsion
[ 10718 10713 10712 10709 ] final -151.05 input   66.30 | X-H torsion
[ 10763 10752 10751 10750 ] final -112.38 input  -60.55 | X-H torsion
[ 11005 11000 10999 10996 ] final -178.52 input  -57.11 | X-H torsion

> <Gold.Protein.ActiveResidues>
 VAL166  LYS551  ARG553  GLY616  TRP617  ASP618  TYR619  PRO620  LYS621  CYS622 
 ASP623  PHE694  ASN695  SER759  ASP760  ASP761  ALA762  ILE779  LEU786  VAL792 
 PHE793  MET794  SER795  GLU796  ALA797  LYS798  CYS799  TRP800  GLU811  SER814 

> <Gold.Protein.RotatedAtoms>
  152.3670  133.6370  159.6057 H   0  0  0  0  0  0  0  0  0  0  0  0  # atno 6907 bound_to 6896
  150.7641  133.9332  159.3442 H   0  0  0  0  0  0  0  0  0  0  0  0  # atno 6908 bound_to 6896
  151.7160  135.0904  160.0327 H   0  0  0  0  0  0  0  0  0  0  0  0  # atno 6909 bound_to 6896
  144.7128  140.1003  143.6417 H   0  0  0  0  0  0  0  0  0  0  0  0  # atno 7974 bound_to 7965
  155.4070  140.0509  157.3034 H   0  0  0  0  0  0  0  0  0  0  0  0  # atno 8008 bound_to 7997
  154.4964  140.2140  155.9398 H   0  0  0  0  0  0  0  0  0  0  0  0  # atno 8009 bound_to 7997
  156.1411  140.3154  155.8502 H   0  0  0  0  0  0  0  0  0  0  0  0  # atno 8010 bound_to 7997
  140.0900  144.4996  150.7105 H   0  0  0  0  0  0  0  0  0  0  0  0  # atno 10167 bound_to 10162
  156.4542  130.8182  151.2413 H   0  0  0  0  0  0  0  0  0  0  0  0  # atno 10718 bound_to 10713
  154.8347  135.4493  154.1185 H   0  0  0  0  0  0  0  0  0  0  0  0  # atno 10763 bound_to 10752
  153.2427  135.6918  153.7771 H   0  0  0  0  0  0  0  0  0  0  0  0  # atno 10764 bound_to 10752
  153.7113  135.3356  155.3222 H   0  0  0  0  0  0  0  0  0  0  0  0  # atno 10765 bound_to 10752
  140.4288  134.6538  157.4701 H   0  0  0  0  0  0  0  0  0  0  0  0  # atno 11005 bound_to 11000
  145.9543  139.2756  143.1193 LP  0  0  0  0  0  0  0  0  0  0  0  0  # atno 17320 bound_to 7965
  145.9289  140.9062  143.0366 LP  0  0  0  0  0  0  0  0  0  0  0  0  # atno 17321 bound_to 7965
  140.7033  143.2450  151.4800 LP  0  0  0  0  0  0  0  0  0  0  0  0  # atno 17342 bound_to 10162
  139.5730  144.1884  152.1863 LP  0  0  0  0  0  0  0  0  0  0  0  0  # atno 17343 bound_to 10162
  157.7501  131.0128  150.3399 LP  0  0  0  0  0  0  0  0  0  0  0  0  # atno 17370 bound_to 10713
  156.3784  130.3876  149.7120 LP  0  0  0  0  0  0  0  0  0  0  0  0  # atno 17371 bound_to 10713
  140.0149  134.6635  155.9325 LP  0  0  0  0  0  0  0  0  0  0  0  0  # atno 17394 bound_to 11000
  141.1754  133.6540  156.4809 LP  0  0  0  0  0  0  0  0  0  0  0  0  # atno 17395 bound_to 11000

$$$$
