#       Name:                AV-unprocessed.smi:1611
#       Creating user name   scv26
#       Creation time:       Fri Mar 27 07:13:36 2020


#       File generated by GOLD software.
#

@<TRIPOS>MOLECULE
AV-unprocessed.smi:1611
    56    57     1
SMALL
NO_CHARGES


@<TRIPOS>ATOM
      1 ****        -5.8670   1.9463   2.1088 C.3            1 S1                 0.0000
      2 ****        -5.0027   1.7189   0.8806 C.ar           1 S1                 0.0000
      3 ****        -5.6179   1.6694  -0.3869 C.ar           1 S1                 0.0000
      4 ****        -4.8480   1.4636  -1.5448 C.ar           1 S1                 0.0000
      5 ****        -3.4532   1.2959  -1.4476 C.ar           1 S1                 0.0000
      6 ****        -2.6365   1.0804  -2.7080 C.3            1 S1                 0.0000
      7 ****        -2.8283   1.3269  -0.1797 C.ar           1 S1                 0.0000
      8 ****        -1.4707   1.1533  -0.0928 O.3            1 S1                 0.0000
      9 ****        -1.0840  -0.1913   0.1537 C.3            1 S1                 0.0000
     10 ****         0.4199  -0.2304   0.4730 C.3            1 S1                 0.0000
     11 ****         0.5628   0.1266   1.8341 O.3            1 S1                 0.0000
     12 ****         1.0132  -1.6429   0.2756 C.3            1 S1                 0.0000
     13 ****         2.4761  -1.6111   0.1506 N.am           1 S1                 0.0000
     14 ****         2.9253  -1.3497  -1.1297 N.2            1 S1                 0.0000
     15 ****         4.1874  -1.2713  -1.3975 C.2            1 S1                 0.0000
     16 ****         4.5589  -0.9830  -2.8272 C.3            1 S1                 0.0000
     17 ****         5.1660  -1.4616  -0.3320 C.2            1 S1                 0.0000
     18 ****         6.6382  -1.3571  -0.7065 C.3            1 S1                 0.0000
     19 ****         4.7126  -1.7205   0.9200 C.2            1 S1                 0.0000
     20 ****         5.5942  -1.9219   2.0245 C.1            1 S1                 0.0000
     21 ****         6.3251  -2.0851   2.9073 N.1            1 S1                 0.0000
     22 ****         3.2841  -1.8117   1.2307 C.2            1 S1                 0.0000
     23 ****         2.8425  -2.0457   2.3567 O.2            1 S1                 0.0000
     24 ****        -3.5984   1.5580   0.9883 C.ar           1 S1                 0.0000
     25 ****        -2.9187   1.6288   2.3493 C.3            1 S1                 0.0000
     26 ****        -6.9280   1.9024   1.8612 H              1 S1                 0.0000
     27 ****        -5.6638   2.9267   2.5402 H              1 S1                 0.0000
     28 ****        -5.6710   1.1856   2.8650 H              1 S1                 0.0000
     29 ****        -6.6871   1.7939  -0.4784 H              1 S1                 0.0000
     30 ****        -5.3342   1.4342  -2.5089 H              1 S1                 0.0000
     31 ****        -1.7111   1.6562  -2.6740 H              1 S1                 0.0000
     32 ****        -3.1908   1.3925  -3.5938 H              1 S1                 0.0000
     33 ****        -2.3834   0.0260  -2.8188 H              1 S1                 0.0000
     34 ****        -1.6694  -0.6492   0.9537 H              1 S1                 0.0000
     35 ****        -1.2868  -0.7637  -0.7521 H              1 S1                 0.0000
     36 ****         0.9447   0.4884  -0.1581 H              1 S1                 0.0000
     37 ****         0.1112  -0.5133   2.3629 H              1 S1                 0.0000
     38 ****         0.6802  -2.3220   1.0629 H              1 S1                 0.0000
     39 ****         0.6167  -2.0744  -0.6453 H              1 S1                 0.0000
     40 ****         5.1557  -1.7951  -3.2426 H              1 S1                 0.0000
     41 ****         5.1411  -0.0642  -2.8986 H              1 S1                 0.0000
     42 ****         3.6789  -0.8642  -3.4609 H              1 S1                 0.0000
     43 ****         7.2938  -1.4903   0.1535 H              1 S1                 0.0000
     44 ****         6.8567  -0.3781  -1.1340 H              1 S1                 0.0000
     45 ****         6.9009  -2.1200  -1.4401 H              1 S1                 0.0000
     46 ****        -1.8482   1.8131   2.2629 H              1 S1                 0.0000
     47 ****        -3.0589   0.6914   2.8876 H              1 S1                 0.0000
     48 ****        -3.3292   2.4375   2.9535 H              1 S1                 0.0000
     49 ****        -1.1262   1.7232   0.6533 LP             1 S1                 0.0000
     50 ****        -1.0584   1.4479  -0.9549 LP             1 S1                 0.0000
     51 ****         0.1662   1.0315   1.9885 LP             1 S1                 0.0000
     52 ****         1.5324   0.1417   2.0784 LP             1 S1                 0.0000
     53 ****         2.2600  -1.2184  -1.8645 LP             1 S1                 0.0000
     54 ****         6.9565  -2.2260   3.6699 LP             1 S1                 0.0000
     55 ****         1.8550  -2.0947   2.5063 LP             1 S1                 0.0000
     56 ****         3.4716  -2.1865   3.1212 LP             1 S1                 0.0000
@<TRIPOS>BOND
    1    1    2 1     
    2    1   26 1     
    3    1   27 1     
    4    1   28 1     
    5    2   24 ar    
    6    2    3 ar    
    7    3    4 ar    
    8    3   29 1     
    9    4    5 ar    
   10    4   30 1     
   11    5    6 1     
   12    5    7 ar    
   13    6   31 1     
   14    6   32 1     
   15    6   33 1     
   16    7    8 1     
   17    7   24 ar    
   18    8    9 1     
   19    9   10 1     
   20    9   34 1     
   21    9   35 1     
   22   10   11 1     
   23   10   12 1     
   24   10   36 1     
   25   11   37 1     
   26   12   13 1     
   27   12   38 1     
   28   12   39 1     
   29   13   22 am    
   30   13   14 1     
   31   14   15 2     
   32   15   16 1     
   33   15   17 1     
   34   16   40 1     
   35   16   41 1     
   36   16   42 1     
   37   17   18 1     
   38   17   19 2     
   39   18   43 1     
   40   18   44 1     
   41   18   45 1     
   42   19   20 1     
   43   19   22 1     
   44   20   21 3     
   45   22   23 2     
   46   24   25 1     
   47   25   46 1     
   48   25   47 1     
   49   25   48 1     
   50    8   49 1     
   51    8   50 1     
   52   11   51 1     
   53   11   52 1     
   54   14   53 1     
   55   21   54 1     
   56   23   55 1     
   57   23   56 1     
@<TRIPOS>SUBSTRUCTURE
      1 S1             1
@<TRIPOS>SET
LONE_PAIRS      STATIC     ATOMS    <user>   **** ""
8 49 50 51 52 53 54 55 56
DONOR_HYDROGENS      STATIC     ATOMS    <user>   **** ""
1 37
ATOM$BLUE        STATIC     ATOMS    COLORGROUP SYSTEM
8 49 50 51 52 53 54 55 56
ATOM$RED        STATIC     ATOMS    COLORGROUP SYSTEM
1 37
