AV-unprocessed.smi:1033|AV-procd|sdf|4499|dock4
  -GOLD-   22720 2493D 1   1.00000     0.00000
 Structure written by MMmdl.
 57 59  0  0  0  0  0  0  0  0  3 V2000
  152.1315  144.4605  160.8359 C   0  0  0  0  0  0  0  0  0  0  0  0
  151.9576  143.4190  159.7436 C   0  0  0  0  0  0  0  0  0  0  0  0
  151.1804  143.7522  158.6118 C   0  0  0  0  0  0  0  0  0  0  0  0
  151.0295  142.7745  157.6360 C   0  0  0  0  0  0  0  0  0  0  0  0
  150.3275  142.7902  156.4296 N   0  3  0  0  0  0  0  0  0  0  0  0
  150.4609  141.5854  155.8099 C   0  0  0  0  0  0  0  0  0  0  0  0
  151.2310  140.7955  156.6075 N   0  0  0  0  0  0  0  0  0  0  0  0
  151.6619  139.4043  156.4015 C   0  0  0  0  0  0  0  0  0  0  0  0
  151.5123  138.9299  154.9386 C   0  0  1  0  0  0  0  0  0  0  0  0
  152.8110  138.7143  154.4295 O   0  0  0  0  0  0  0  0  0  0  0  0
  150.7121  137.6199  154.7476 C   0  0  0  0  0  0  0  0  0  0  0  0
  149.2931  137.8413  154.3740 N   0  3  0  0  0  0  0  0  0  0  0  0
  149.0521  139.1813  153.7842 C   0  0  0  0  0  0  0  0  0  0  0  0
  147.5970  139.2764  153.2861 C   0  0  0  0  0  0  0  0  0  0  0  0
  146.6094  139.0473  154.3414 N   0  0  0  0  0  0  0  0  0  0  0  0
  146.5428  140.1611  155.3007 C   0  0  0  0  0  0  0  0  0  0  0  0
  145.6942  141.3857  154.8897 C   0  0  2  0  0  0  0  0  0  0  0  0
  145.9762  142.7041  155.6227 C   0  0  0  0  0  0  0  0  0  0  0  0
  144.3225  141.0652  154.9876 O   0  0  0  0  0  0  0  0  0  0  0  0
  146.8786  137.7337  154.9397 C   0  0  0  0  0  0  0  0  0  0  0  0
  148.3212  137.5707  155.4643 C   0  0  0  0  0  0  0  0  0  0  0  0
  151.6250  141.5028  157.7512 C   0  0  0  0  0  0  0  0  0  0  0  0
  152.4044  141.1633  158.8553 C   0  0  0  0  0  0  0  0  0  0  0  0
  152.5620  142.1410  159.8632 C   0  0  0  0  0  0  0  0  0  0  0  0
  153.3906  141.7913  161.0875 C   0  0  0  0  0  0  0  0  0  0  0  0
  151.5865  145.3762  160.6050 H   0  0  0  0  0  0  0  0  0  0  0  0
  153.1839  144.7202  160.9537 H   0  0  0  0  0  0  0  0  0  0  0  0
  151.7585  144.0830  161.7883 H   0  0  0  0  0  0  0  0  0  0  0  0
  150.7189  144.7243  158.5136 H   0  0  0  0  0  0  0  0  0  0  0  0
  150.0282  141.3050  154.8598 H   0  0  0  0  0  0  0  0  0  0  0  0
  152.7126  139.3642  156.6936 H   0  0  0  0  0  0  0  0  0  0  0  0
  151.1351  138.7444  157.0900 H   0  0  0  0  0  0  0  0  0  0  0  0
  151.0842  139.7315  154.3378 H   0  0  0  0  0  0  0  0  0  0  0  0
  152.7441  138.3579  153.5566 H   0  0  0  0  0  0  0  0  0  0  0  0
  151.1785  136.9943  153.9847 H   0  0  0  0  0  0  0  0  0  0  0  0
  150.7571  137.0514  155.6778 H   0  0  0  0  0  0  0  0  0  0  0  0
  149.2682  139.9591  154.5183 H   0  0  0  0  0  0  0  0  0  0  0  0
  149.7286  139.3410  152.9438 H   0  0  0  0  0  0  0  0  0  0  0  0
  147.4262  140.2479  152.8205 H   0  0  0  0  0  0  0  0  0  0  0  0
  147.4464  138.5427  152.4933 H   0  0  0  0  0  0  0  0  0  0  0  0
  146.2158  139.8056  156.2769 H   0  0  0  0  0  0  0  0  0  0  0  0
  147.5528  140.5393  155.4674 H   0  0  0  0  0  0  0  0  0  0  0  0
  145.8902  141.5620  153.8315 H   0  0  0  0  0  0  0  0  0  0  0  0
  147.0428  142.9290  155.6365 H   0  0  0  0  0  0  0  0  0  0  0  0
  145.6116  142.6849  156.6493 H   0  0  0  0  0  0  0  0  0  0  0  0
  145.4729  143.5336  155.1249 H   0  0  0  0  0  0  0  0  0  0  0  0
  143.9384  141.1206  154.1259 H   0  0  0  0  0  0  0  0  0  0  0  0
  146.1807  137.5173  155.7432 H   0  0  0  0  0  0  0  0  0  0  0  0
  146.6966  136.9649  154.1875 H   0  0  0  0  0  0  0  0  0  0  0  0
  148.4425  136.5530  155.8323 H   0  0  0  0  0  0  0  0  0  0  0  0
  148.5128  138.2311  156.3102 H   0  0  0  0  0  0  0  0  0  0  0  0
  152.8642  140.1914  158.9553 H   0  0  0  0  0  0  0  0  0  0  0  0
  153.8080  140.7868  161.0145 H   0  0  0  0  0  0  0  0  0  0  0  0
  152.7776  141.8327  161.9882 H   0  0  0  0  0  0  0  0  0  0  0  0
  154.2213  142.4883  161.2010 H   0  0  0  0  0  0  0  0  0  0  0  0
  149.0929  137.1780  153.6395 H   0  0  0  0  0  0  0  0  0  0  0  0
  149.7994  143.5670  156.0515 H   0  0  0  0  0  0  0  0  0  0  0  0
  1  2  1  0  0  0  0
  1 26  1  0  0  0  0
  1 27  1  0  0  0  0
  1 28  1  0  0  0  0
  2 24  1  0  0  0  0
  2  3  2  0  0  0  0
  3  4  1  0  0  0  0
  3 29  1  0  0  0  0
  4 22  2  0  0  0  0
  4  5  1  0  0  0  0
  5  6  2  0  0  0  0
  5 57  1  0  0  0  0
  6  7  1  0  0  0  0
  6 30  1  0  0  0  0
  7  8  1  0  0  0  0
  7 22  1  0  0  0  0
  8  9  1  0  0  0  0
  8 31  1  0  0  0  0
  8 32  1  0  0  0  0
  9 10  1  0  0  0  0
  9 11  1  0  0  0  0
  9 33  1  0  0  0  0
 10 34  1  0  0  0  0
 11 12  1  0  0  0  0
 11 35  1  0  0  0  0
 11 36  1  0  0  0  0
 12 21  1  0  0  0  0
 12 13  1  0  0  0  0
 12 56  1  0  0  0  0
 13 14  1  0  0  0  0
 13 37  1  0  0  0  0
 13 38  1  0  0  0  0
 14 15  1  0  0  0  0
 14 39  1  0  0  0  0
 14 40  1  0  0  0  0
 15 16  1  0  0  0  0
 15 20  1  0  0  0  0
 16 17  1  0  0  0  0
 16 41  1  0  0  0  0
 16 42  1  0  0  0  0
 17 18  1  0  0  0  0
 17 19  1  0  0  0  0
 17 43  1  0  0  0  0
 18 44  1  0  0  0  0
 18 45  1  0  0  0  0
 18 46  1  0  0  0  0
 19 47  1  0  0  0  0
 20 21  1  0  0  0  0
 20 48  1  0  0  0  0
 20 49  1  0  0  0  0
 21 50  1  0  0  0  0
 21 51  1  0  0  0  0
 22 23  1  0  0  0  0
 23 24  2  0  0  0  0
 23 52  1  0  0  0  0
 24 25  1  0  0  0  0
 25 53  1  0  0  0  0
 25 54  1  0  0  0  0
 25 55  1  0  0  0  0
M  CHG  1   5   1
M  CHG  1  12   1
M  END
> <s_m_source_file>
AV-unprocessed.smi

> <i_m_source_file_index>
1033

> <i_lp_mmshare_version>
43012

> <i_f3d_flags>
0

> <s_epik_input>
W0NIM11jKFtjSF0xKWMoW0NIM10pW2NIXWMoYzEyKW4oW2NIXW4yKVtDSDJdW0NASF0oW09IXSlbQ0gyXU4zW0NIMl1bQ0gyXU4oW0NIMl1bQ0gyXTMpW0NIMl1bQ0BIXShbQ0gzXSlbT0hd

> <s_epik_cmdline>
J2VwaWtfcHl0aG9uJywgJy1waCcsICc3LjAnLCAnLXRuJywgJzgnLCAnLW1hJywgJzIwMCcsICctbWV0YWxfYmluZGluZycsICctaW1hZScsICc8aW5maWxlLm1hZT4nLCAnLW9tYWUnLCAnPG91dGZpbGUubWFlPic=

> <r_epik_Ionization_Penalty>
1.22049

> <r_epik_Ionization_Penalty_Charging>
1.17952

> <r_epik_Ionization_Penalty_Neutral>
0.0409743

> <r_epik_State_Penalty>
1.61468

> <r_epik_Charging_Adjusted_Penalty>
2.7942

> <i_epik_Tot_Q>
2

> <i_epik_Tot_abs_Q>
2

> <r_epik_Metal_State_Penalty>
5.63169

> <b_epik_Metal_Only>
0

> <s_lp_Force_Field>
OPLS_2005

> <r_lp_Energy>
50.4079

> <b_lp_Chiralities_Consistent>
1

> <s_lp_Variant>
AV-unprocessed.smi:1033-10

> <Gold.Version>
5.8.1

> <Gold.Id.Protein>
6NUR|6NUR_protein|mol2

> <Gold.PLP.Fitness>
54.5198

> <Gold.PLP.PLP>
-44.9545

> <Gold.PLP.part.hbond>
-3.0013

> <Gold.PLP.part.metal>
0.0000

> <Gold.PLP.part.buried>
-2.5014

> <Gold.PLP.part.nonpolar>
-40.1484

> <Gold.PLP.part.repulsive>
0.2060

> <Gold.PLP.ligand.clash>
0.7557

> <Gold.PLP.ligand.torsion>
2.4787

> <Gold.PLP.Chemscore.Hbond>
5.0000

> <Gold.PLP.Chemscore.CHOScore>
0.0000

> <Gold.PLP.Chemscore.Metal>
0.0000

> <Gold.Chemscore.Hbonds>
donor molecule, donor type, donor heavy atom, donor atom, acceptor molecule, acceptor atom, score
      L1  H     5    57       P1  8028  1.95
      L1  H    12    56       P1  7948  2.00
      L1  H    19    47       P1 10175  1.00

> <Gold.PLP.Chemscore.Internal.Correction>
0.2785

> <Gold.Rescore>
     Score         DG    S(hbond)    S(metal)    S(lipo)     H(rot)  DE(clash)    DE(int)     intcor
     18.77     -21.63       2.91        0.00     123.70       3.15       0.29       2.56       ----

> <Gold.Chemscore.Fitness>
18.7746

> <Gold.Chemscore.DG>
-21.6257

> <Gold.Chemscore.ZeroCoef>
-5.4800

> <Gold.Chemscore.Hbond>
2.9139

> <Gold.Chemscore.Metal>
0.0000

> <Gold.Chemscore.Lipo>
123.7008

> <Gold.Chemscore.Internal_Hbond>
0.0000

> <Gold.Chemscore.DEClash>
0.2880

> <Gold.Chemscore.DEInternal>
2.5631

> <Gold.Chemscore.Rot>
3.1483

> <Gold.Chemscore.Internal.Correction>
   9.000000E+99

> <Gold.Chemscore.Hbonds>
donor molecule, donor type, donor heavy atom, donor atom, acceptor molecule, acceptor atom, score
      L1  H     5    57       P1  8028  0.91
      L1  H    12    56       P1  7948  0.96
      L1  H    19    47       P1 10175  0.63

> <Gold.Chemscore.Hbond.Weighted>
-9.7324

> <Gold.Chemscore.Metal.Weighted>
-0.0000

> <Gold.Chemscore.Lipo.Weighted>
-14.4730

> <Gold.Chemscore.Internal_Hbond.Weighted>
0.0000

> <Gold.Chemscore.DEClash.Weighted>
0.2880

> <Gold.Chemscore.DEInternal.Weighted>
2.5631

> <Gold.Chemscore.Rot.Weighted>
8.0597

> <Gold.Chemscore.Internal.Correction.Weighted>
   9.000000E+99

> <Gold.Protein.RotatedTorsions>
[ 6907 6896 6895 6894 ] final   49.16 input  -60.11 | X-H torsion
[ 7974 7965 7964 7962 ] final -151.02 input  175.53 | X-H torsion
[ 8008 7997 7996 7995 ] final   46.88 input   59.86 | X-H torsion
[ 10167 10162 10161 10158 ] final  157.04 input  -65.29 | X-H torsion
[ 10718 10713 10712 10709 ] final  -39.00 input   66.30 | X-H torsion
[ 10763 10752 10751 10750 ] final   85.28 input  -60.55 | X-H torsion
[ 11005 11000 10999 10996 ] final  135.22 input  -57.11 | X-H torsion

> <Gold.Protein.ActiveResidues>
 VAL166  LYS551  ARG553  GLY616  TRP617  ASP618  TYR619  PRO620  LYS621  CYS622 
 ASP623  PHE694  ASN695  SER759  ASP760  ASP761  ALA762  ILE779  LEU786  VAL792 
 PHE793  MET794  SER795  GLU796  ALA797  LYS798  CYS799  TRP800  GLU811  SER814 

> <Gold.Protein.RotatedAtoms>
  152.2876  134.7758  160.0384 H   0  0  0  0  0  0  0  0  0  0  0  0  # atno 6907 bound_to 6896
  151.8315  133.3404  159.3623 H   0  0  0  0  0  0  0  0  0  0  0  0  # atno 6908 bound_to 6896
  150.7216  134.5407  159.5790 H   0  0  0  0  0  0  0  0  0  0  0  0  # atno 6909 bound_to 6896
  144.7874  140.4853  143.5797 H   0  0  0  0  0  0  0  0  0  0  0  0  # atno 7974 bound_to 7965
  155.3598  140.3418  155.4240 H   0  0  0  0  0  0  0  0  0  0  0  0  # atno 8008 bound_to 7997
  156.1720  140.1635  156.8465 H   0  0  0  0  0  0  0  0  0  0  0  0  # atno 8009 bound_to 7997
  154.5242  140.0760  156.8211 H   0  0  0  0  0  0  0  0  0  0  0  0  # atno 8010 bound_to 7997
  139.4822  144.4954  151.8247 H   0  0  0  0  0  0  0  0  0  0  0  0  # atno 10167 bound_to 10162
  156.2974  130.4236  149.8177 H   0  0  0  0  0  0  0  0  0  0  0  0  # atno 10718 bound_to 10713
  153.1460  135.4623  154.9567 H   0  0  0  0  0  0  0  0  0  0  0  0  # atno 10763 bound_to 10752
  154.7786  135.3181  154.8040 H   0  0  0  0  0  0  0  0  0  0  0  0  # atno 10764 bound_to 10752
  153.8554  135.6917  153.4842 H   0  0  0  0  0  0  0  0  0  0  0  0  # atno 10765 bound_to 10752
  139.9965  134.9495  156.9976 H   0  0  0  0  0  0  0  0  0  0  0  0  # atno 11005 bound_to 11000
  145.5886  139.1494  143.3195 LP  0  0  0  0  0  0  0  0  0  0  0  0  # atno 17320 bound_to 7965
  146.2111  140.6013  142.9059 LP  0  0  0  0  0  0  0  0  0  0  0  0  # atno 17321 bound_to 7965
  140.4442  144.1945  150.5893 LP  0  0  0  0  0  0  0  0  0  0  0  0  # atno 17342 bound_to 10162
  140.4652  143.2433  151.9165 LP  0  0  0  0  0  0  0  0  0  0  0  0  # atno 17343 bound_to 10162
  156.5568  130.8366  151.3316 LP  0  0  0  0  0  0  0  0  0  0  0  0  # atno 17370 bound_to 10713
  157.7359  130.9769  150.2106 LP  0  0  0  0  0  0  0  0  0  0  0  0  # atno 17371 bound_to 10713
  140.4808  134.1291  155.7216 LP  0  0  0  0  0  0  0  0  0  0  0  0  # atno 17394 bound_to 11000
  141.1608  133.8796  157.1852 LP  0  0  0  0  0  0  0  0  0  0  0  0  # atno 17395 bound_to 11000

$$$$
