AV-unprocessed.smi:3335|AV-procd|sdf|12852|dock6
  -GOLD-   2272019243D 1   1.00000     0.00000
 Structure written by MMmdl.
 46 47  0  0  0  0  0  0  0  0  1 V2000
  146.6746  134.3783  161.8744 C   0  0  0  0  0  0  0  0  0  0  0  0
  146.9577  135.5900  161.0342 C   0  0  0  0  0  0  0  0  0  0  0  0
  146.6323  136.9471  161.3161 C   0  0  0  0  0  0  0  0  0  0  0  0
  147.0227  137.7777  160.3638 N   0  0  0  0  0  0  0  0  0  0  0  0
  147.6131  136.9847  159.4413 N   0  0  0  0  0  0  0  0  0  0  0  0
  148.1743  137.5604  158.2251 C   0  0  1  0  0  0  0  0  0  0  0  0
  147.0662  138.2681  157.4204 C   0  0  0  0  0  0  0  0  0  0  0  0
  149.3829  138.4905  158.5180 C   0  0  1  0  0  0  0  0  0  0  0  0
  150.5661  137.7609  159.1894 C   0  0  0  0  0  0  0  0  0  0  0  0
  149.8375  139.0542  157.2445 N   0  0  0  0  0  0  0  0  0  0  0  0
  151.2030  139.6158  157.2453 C   0  0  1  0  0  0  0  0  0  0  0  0
  151.8251  139.4419  155.8512 C   0  0  0  0  0  0  0  0  0  0  0  0
  151.2457  141.1063  157.6519 C   0  0  0  0  0  0  0  0  0  0  0  0
  150.6863  141.9337  156.9297 O   0  0  0  0  0  0  0  0  0  0  0  0
  151.8895  141.4699  158.7823 N   0  0  0  0  0  0  0  0  0  0  0  0
  152.5817  140.5164  159.6481 C   0  0  0  0  0  0  0  0  0  0  0  0
  153.3515  141.3581  160.6658 C   0  0  0  0  0  0  0  0  0  0  0  0
  152.5714  142.6629  160.7335 C   0  0  0  0  0  0  0  0  0  0  0  0
  151.9893  142.8232  159.3291 C   0  0  0  0  0  0  0  0  0  0  0  0
  147.5844  135.6593  159.8224 C   0  0  0  0  0  0  0  0  0  0  0  0
  146.2219  134.6435  162.8302 H   0  0  0  0  0  0  0  0  0  0  0  0
  147.5850  133.8204  162.0943 H   0  0  0  0  0  0  0  0  0  0  0  0
  145.9903  133.6934  161.3735 H   0  0  0  0  0  0  0  0  0  0  0  0
  146.1259  137.3511  162.1804 H   0  0  0  0  0  0  0  0  0  0  0  0
  148.5310  136.7209  157.6255 H   0  0  0  0  0  0  0  0  0  0  0  0
  147.4267  138.5990  156.4465 H   0  0  0  0  0  0  0  0  0  0  0  0
  146.6875  139.1452  157.9462 H   0  0  0  0  0  0  0  0  0  0  0  0
  146.2242  137.5983  157.2424 H   0  0  0  0  0  0  0  0  0  0  0  0
  149.0384  139.2751  159.1919 H   0  0  0  0  0  0  0  0  0  0  0  0
  150.2882  137.3531  160.1611 H   0  0  0  0  0  0  0  0  0  0  0  0
  151.4095  138.4273  159.3668 H   0  0  0  0  0  0  0  0  0  0  0  0
  150.9208  136.9340  158.5734 H   0  0  0  0  0  0  0  0  0  0  0  0
  149.1703  139.7466  156.9345 H   0  0  0  0  0  0  0  0  0  0  0  0
  151.7975  139.0256  157.9394 H   0  0  0  0  0  0  0  0  0  0  0  0
  152.8495  139.8151  155.8225 H   0  0  0  0  0  0  0  0  0  0  0  0
  151.2561  139.9753  155.0884 H   0  0  0  0  0  0  0  0  0  0  0  0
  151.8548  138.3898  155.5661 H   0  0  0  0  0  0  0  0  0  0  0  0
  151.8421  139.8906  160.1501 H   0  0  0  0  0  0  0  0  0  0  0  0
  153.2526  139.8642  159.0864 H   0  0  0  0  0  0  0  0  0  0  0  0
  153.4445  140.8690  161.6359 H   0  0  0  0  0  0  0  0  0  0  0  0
  154.3576  141.5540  160.2927 H   0  0  0  0  0  0  0  0  0  0  0  0
  151.7599  142.5658  161.4560 H   0  0  0  0  0  0  0  0  0  0  0  0
  153.1873  143.5104  161.0352 H   0  0  0  0  0  0  0  0  0  0  0  0
  152.6627  143.4114  158.7038 H   0  0  0  0  0  0  0  0  0  0  0  0
  151.0235  143.3290  159.3645 H   0  0  0  0  0  0  0  0  0  0  0  0
  148.0095  134.8812  159.2059 H   0  0  0  0  0  0  0  0  0  0  0  0
  1  2  1  0  0  0  0
  1 21  1  0  0  0  0
  1 22  1  0  0  0  0
  1 23  1  0  0  0  0
  2 20  2  0  0  0  0
  2  3  1  0  0  0  0
  3  4  2  0  0  0  0
  3 24  1  0  0  0  0
  4  5  1  0  0  0  0
  5  6  1  0  0  0  0
  5 20  1  0  0  0  0
  6  7  1  0  0  0  0
  6  8  1  0  0  0  0
  6 25  1  0  0  0  0
  7 26  1  0  0  0  0
  7 27  1  0  0  0  0
  7 28  1  0  0  0  0
  8  9  1  0  0  0  0
  8 10  1  0  0  0  0
  8 29  1  0  0  0  0
  9 30  1  0  0  0  0
  9 31  1  0  0  0  0
  9 32  1  0  0  0  0
 10 11  1  0  0  0  0
 10 33  1  0  0  0  0
 11 12  1  0  0  0  0
 11 13  1  0  0  0  0
 11 34  1  0  0  0  0
 12 35  1  0  0  0  0
 12 36  1  0  0  0  0
 12 37  1  0  0  0  0
 13 14  2  0  0  0  0
 13 15  1  0  0  0  0
 15 19  1  0  0  0  0
 15 16  1  0  0  0  0
 16 17  1  0  0  0  0
 16 38  1  0  0  0  0
 16 39  1  0  0  0  0
 17 18  1  0  0  0  0
 17 40  1  0  0  0  0
 17 41  1  0  0  0  0
 18 19  1  0  0  0  0
 18 42  1  0  0  0  0
 18 43  1  0  0  0  0
 19 44  1  0  0  0  0
 19 45  1  0  0  0  0
 20 46  1  0  0  0  0
M  END
> <s_m_source_file>
AV-unprocessed.smi

> <i_m_source_file_index>
3335

> <i_lp_mmshare_version>
43012

> <i_f3d_flags>
0

> <s_epik_input>
W0NIM11jMVtjSF1ubihbY0hdMSlbQ0BIXShbQ0gzXSlbQ0BIXShbQ0gzXSlbTkhdW0NASF0oW0NIM10pQyg9TylOMltDSDJdW0NIMl1bQ0gyXVtDSDJdMg==

> <s_epik_cmdline>
J2VwaWtfcHl0aG9uJywgJy1waCcsICc3LjAnLCAnLXRuJywgJzgnLCAnLW1hJywgJzIwMCcsICctbWV0YWxfYmluZGluZycsICctaW1hZScsICc8aW5maWxlLm1hZT4nLCAnLW9tYWUnLCAnPG91dGZpbGUubWFlPic=

> <r_lp_tautomer_probability>
1

> <r_epik_Ionization_Penalty>
0.918803

> <r_epik_Ionization_Penalty_Charging>
0

> <r_epik_Ionization_Penalty_Neutral>
0.918803

> <r_epik_State_Penalty>
0.958258

> <r_epik_Charging_Adjusted_Penalty>
0.958258

> <i_epik_Tot_Q>
0

> <i_epik_Tot_abs_Q>
0

> <r_epik_Metal_State_Penalty>
0.956786

> <b_epik_Metal_Only>
0

> <s_lp_Force_Field>
OPLS_2005

> <r_lp_Energy>
36.4187

> <b_lp_Chiralities_Consistent>
1

> <s_lp_Variant>
AV-unprocessed.smi:3335-16

> <Gold.Version>
5.8.1

> <Gold.Id.Protein>
6NUR|6NUR_protein|mol2

> <Gold.PLP.Fitness>
43.0097

> <Gold.PLP.PLP>
-39.1021

> <Gold.PLP.part.hbond>
-2.0000

> <Gold.PLP.part.metal>
0.0000

> <Gold.PLP.part.buried>
-5.3623

> <Gold.PLP.part.nonpolar>
-32.1379

> <Gold.PLP.part.repulsive>
0.0751

> <Gold.PLP.ligand.clash>
0.0000

> <Gold.PLP.ligand.torsion>
0.6350

> <Gold.PLP.Chemscore.Hbond>
1.6752

> <Gold.PLP.Chemscore.CHOScore>
0.0000

> <Gold.PLP.Chemscore.Metal>
0.0000

> <Gold.Chemscore.Hbonds>
donor molecule, donor type, donor heavy atom, donor atom, acceptor molecule, acceptor atom, score
      P1  H  6934  6947       L1     4  0.60

> <Gold.PLP.Chemscore.Internal.Correction>
0.1520

> <Gold.Rescore>
     Score         DG    S(hbond)    S(metal)    S(lipo)     H(rot)  DE(clash)    DE(int)     intcor
     14.59     -15.42       1.05        0.00      90.32       1.62       0.02       0.81       ----

> <Gold.Chemscore.Fitness>
14.5912

> <Gold.Chemscore.DG>
-15.4155

> <Gold.Chemscore.ZeroCoef>
-5.4800

> <Gold.Chemscore.Hbond>
1.0526

> <Gold.Chemscore.Metal>
0.0000

> <Gold.Chemscore.Lipo>
90.3236

> <Gold.Chemscore.Internal_Hbond>
0.0000

> <Gold.Chemscore.DEClash>
0.0174

> <Gold.Chemscore.DEInternal>
0.8069

> <Gold.Chemscore.Rot>
1.6204

> <Gold.Chemscore.Internal.Correction>
   9.000000E+99

> <Gold.Chemscore.Hbonds>
donor molecule, donor type, donor heavy atom, donor atom, acceptor molecule, acceptor atom, score
      P1  H  6934  6947       L1     4  0.42

> <Gold.Chemscore.Hbond.Weighted>
-3.5158

> <Gold.Chemscore.Metal.Weighted>
-0.0000

> <Gold.Chemscore.Lipo.Weighted>
-10.5679

> <Gold.Chemscore.Internal_Hbond.Weighted>
0.0000

> <Gold.Chemscore.DEClash.Weighted>
0.0174

> <Gold.Chemscore.DEInternal.Weighted>
0.8069

> <Gold.Chemscore.Rot.Weighted>
4.1482

> <Gold.Chemscore.Internal.Correction.Weighted>
   9.000000E+99

> <Gold.Protein.RotatedTorsions>
[ 6907 6896 6895 6894 ] final -100.22 input  -60.11 | X-H torsion
[ 7974 7965 7964 7962 ] final  102.37 input  175.53 | X-H torsion
[ 8008 7997 7996 7995 ] final   22.30 input   59.86 | X-H torsion
[ 10167 10162 10161 10158 ] final  151.49 input  -65.29 | X-H torsion
[ 10718 10713 10712 10709 ] final   80.55 input   66.30 | X-H torsion
[ 10763 10752 10751 10750 ] final  -59.40 input  -60.55 | X-H torsion
[ 11005 11000 10999 10996 ] final  143.08 input  -57.11 | X-H torsion

> <Gold.Protein.ActiveResidues>
 VAL166  LYS551  ARG553  GLY616  TRP617  ASP618  TYR619  PRO620  LYS621  CYS622 
 ASP623  PHE694  ASN695  SER759  ASP760  ASP761  ALA762  ILE779  LEU786  VAL792 
 PHE793  MET794  SER795  GLU796  ALA797  LYS798  CYS799  TRP800  GLU811  SER814 

> <Gold.Protein.RotatedAtoms>
  150.7108  134.0921  159.3935 H   0  0  0  0  0  0  0  0  0  0  0  0  # atno 6907 bound_to 6896
  151.8907  135.0415  160.0507 H   0  0  0  0  0  0  0  0  0  0  0  0  # atno 6908 bound_to 6896
  152.2494  133.5166  159.5353 H   0  0  0  0  0  0  0  0  0  0  0  0  # atno 6909 bound_to 6896
  145.3601  139.2420  143.3511 H   0  0  0  0  0  0  0  0  0  0  0  0  # atno 7974 bound_to 7965
  154.9636  140.3081  155.5019 H   0  0  0  0  0  0  0  0  0  0  0  0  # atno 8008 bound_to 7997
  156.2974  140.2297  156.4662 H   0  0  0  0  0  0  0  0  0  0  0  0  # atno 8009 bound_to 7997
  154.7942  140.0438  157.1212 H   0  0  0  0  0  0  0  0  0  0  0  0  # atno 8010 bound_to 7997
  139.4840  144.5436  151.7522 H   0  0  0  0  0  0  0  0  0  0  0  0  # atno 10167 bound_to 10162
  157.6809  130.9964  150.2095 H   0  0  0  0  0  0  0  0  0  0  0  0  # atno 10718 bound_to 10713
  154.2530  135.6322  153.5247 H   0  0  0  0  0  0  0  0  0  0  0  0  # atno 10763 bound_to 10752
  152.9909  135.5569  154.5786 H   0  0  0  0  0  0  0  0  0  0  0  0  # atno 10764 bound_to 10752
  154.5318  135.2889  155.1148 H   0  0  0  0  0  0  0  0  0  0  0  0  # atno 10765 bound_to 10752
  140.0526  134.9247  157.1044 H   0  0  0  0  0  0  0  0  0  0  0  0  # atno 11005 bound_to 11000
  146.2931  140.4233  142.8732 LP  0  0  0  0  0  0  0  0  0  0  0  0  # atno 17320 bound_to 7965
  144.8653  140.7197  143.6081 LP  0  0  0  0  0  0  0  0  0  0  0  0  # atno 17321 bound_to 7965
  140.4979  144.1213  150.5964 LP  0  0  0  0  0  0  0  0  0  0  0  0  # atno 17342 bound_to 10162
  140.4096  143.2663  151.9849 LP  0  0  0  0  0  0  0  0  0  0  0  0  # atno 17343 bound_to 10162
  156.2769  130.3728  149.7974 LP  0  0  0  0  0  0  0  0  0  0  0  0  # atno 17370 bound_to 10713
  156.5674  130.8410  151.3346 LP  0  0  0  0  0  0  0  0  0  0  0  0  # atno 17371 bound_to 10713
  140.3893  134.2202  155.7167 LP  0  0  0  0  0  0  0  0  0  0  0  0  # atno 17394 bound_to 11000
  141.1937  133.8144  157.0786 LP  0  0  0  0  0  0  0  0  0  0  0  0  # atno 17395 bound_to 11000

$$$$
