AV-unprocessed.smi:1281|AV-procd|sdf|5359|dock3
  -GOLD-   22720 4493D 1   1.00000     0.00000
 Structure written by MMmdl.
 45 46  0  0  0  0  0  0  0  0  1 V2000
  147.6589  136.2320  162.4320 C   0  0  0  0  0  0  0  0  0  0  0  0
  148.0679  137.0196  161.3282 O   0  0  0  0  0  0  0  0  0  0  0  0
  147.4716  136.6022  160.1105 C   0  0  0  0  0  0  0  0  0  0  0  0
  147.8350  135.1332  159.8413 C   0  0  0  0  0  0  0  0  0  0  0  0
  148.6049  134.9798  158.6020 N   0  0  0  0  0  0  0  0  0  0  0  0
  149.5305  135.9871  158.3868 N   0  0  0  0  0  0  0  0  0  0  0  0
  150.2711  135.9748  157.3261 C   0  0  0  0  0  0  0  0  0  0  0  0
  151.2722  137.0433  157.0547 C   0  0  0  0  0  0  0  0  0  0  0  0
  152.0721  136.9629  156.1208 O   0  0  0  0  0  0  0  0  0  0  0  0
  151.2369  138.0933  157.8954 N   0  0  0  0  0  0  0  0  0  0  0  0
  152.1161  139.2544  157.8281 C   0  0  0  0  0  0  0  0  0  0  0  0
  151.3428  140.5321  157.4568 C   0  0  0  0  0  0  0  0  0  0  0  0
  151.8731  141.7644  158.1701 C   0  0  0  0  0  0  0  0  0  0  0  0
  152.7778  141.6778  159.1648 C   0  0  0  0  0  0  0  0  0  0  0  0
  153.3264  142.8715  159.9267 C   0  0  0  0  0  0  0  0  0  0  0  0
  152.5022  144.1479  159.6885 C   0  0  0  0  0  0  0  0  0  0  0  0
  152.1396  144.3041  158.2066 C   0  0  0  0  0  0  0  0  0  0  0  0
  151.3178  143.1047  157.7010 C   0  0  0  0  0  0  0  0  0  0  0  0
  150.1520  134.9063  156.3481 C   0  0  0  0  0  0  0  0  0  0  0  0
  149.2396  133.9342  156.5681 C   0  0  0  0  0  0  0  0  0  0  0  0
  148.3819  133.9307  157.7542 C   0  0  0  0  0  0  0  0  0  0  0  0
  147.5345  133.0644  157.9696 O   0  0  0  0  0  0  0  0  0  0  0  0
  148.1436  136.5938  163.3388 H   0  0  0  0  0  0  0  0  0  0  0  0
  147.9374  135.1861  162.2955 H   0  0  0  0  0  0  0  0  0  0  0  0
  146.5798  136.2916  162.5800 H   0  0  0  0  0  0  0  0  0  0  0  0
  146.3876  136.7004  160.1853 H   0  0  0  0  0  0  0  0  0  0  0  0
  147.7981  137.2377  159.2858 H   0  0  0  0  0  0  0  0  0  0  0  0
  148.3959  134.7335  160.6882 H   0  0  0  0  0  0  0  0  0  0  0  0
  146.9247  134.5333  159.7921 H   0  0  0  0  0  0  0  0  0  0  0  0
  150.5488  138.0831  158.6348 H   0  0  0  0  0  0  0  0  0  0  0  0
  152.5894  139.3688  158.8034 H   0  0  0  0  0  0  0  0  0  0  0  0
  152.9189  139.0716  157.1118 H   0  0  0  0  0  0  0  0  0  0  0  0
  151.3968  140.6946  156.3794 H   0  0  0  0  0  0  0  0  0  0  0  0
  150.2848  140.4159  157.6947 H   0  0  0  0  0  0  0  0  0  0  0  0
  153.1612  140.7117  159.4592 H   0  0  0  0  0  0  0  0  0  0  0  0
  153.3494  142.6387  160.9916 H   0  0  0  0  0  0  0  0  0  0  0  0
  154.3592  143.0257  159.6130 H   0  0  0  0  0  0  0  0  0  0  0  0
  151.5855  144.1052  160.2779 H   0  0  0  0  0  0  0  0  0  0  0  0
  153.0552  145.0196  160.0394 H   0  0  0  0  0  0  0  0  0  0  0  0
  151.5847  145.2289  158.0471 H   0  0  0  0  0  0  0  0  0  0  0  0
  153.0564  144.3899  157.6217 H   0  0  0  0  0  0  0  0  0  0  0  0
  151.2797  143.1237  156.6113 H   0  0  0  0  0  0  0  0  0  0  0  0
  150.2899  143.1898  158.0546 H   0  0  0  0  0  0  0  0  0  0  0  0
  150.7715  134.8838  155.4633 H   0  0  0  0  0  0  0  0  0  0  0  0
  149.1391  133.1349  155.8486 H   0  0  0  0  0  0  0  0  0  0  0  0
  1  2  1  0  0  0  0
  1 23  1  0  0  0  0
  1 24  1  0  0  0  0
  1 25  1  0  0  0  0
  2  3  1  0  0  0  0
  3  4  1  0  0  0  0
  3 26  1  0  0  0  0
  3 27  1  0  0  0  0
  4  5  1  0  0  0  0
  4 28  1  0  0  0  0
  4 29  1  0  0  0  0
  5 21  1  0  0  0  0
  5  6  1  0  0  0  0
  6  7  2  0  0  0  0
  7  8  1  0  0  0  0
  7 19  1  0  0  0  0
  8  9  2  0  0  0  0
  8 10  1  0  0  0  0
 10 11  1  0  0  0  0
 10 30  1  0  0  0  0
 11 12  1  0  0  0  0
 11 31  1  0  0  0  0
 11 32  1  0  0  0  0
 12 13  1  0  0  0  0
 12 33  1  0  0  0  0
 12 34  1  0  0  0  0
 13 18  1  0  0  0  0
 13 14  2  0  0  0  0
 14 15  1  0  0  0  0
 14 35  1  0  0  0  0
 15 16  1  0  0  0  0
 15 36  1  0  0  0  0
 15 37  1  0  0  0  0
 16 17  1  0  0  0  0
 16 38  1  0  0  0  0
 16 39  1  0  0  0  0
 17 18  1  0  0  0  0
 17 40  1  0  0  0  0
 17 41  1  0  0  0  0
 18 42  1  0  0  0  0
 18 43  1  0  0  0  0
 19 20  2  0  0  0  0
 19 44  1  0  0  0  0
 20 21  1  0  0  0  0
 20 45  1  0  0  0  0
 21 22  2  0  0  0  0
M  END
> <s_m_source_file>
AV-unprocessed.smi

> <i_m_source_file_index>
1281

> <i_lp_mmshare_version>
43012

> <i_f3d_flags>
0

> <s_epik_input>
W0NIM11PW0NIMl1bQ0gyXW4xbmMoW2NIXVtjSF1jMT1PKUMoPU8pW05IXVtDSDJdW0NIMl1DMj1bQ0hdW0NIMl1bQ0gyXVtDSDJdW0NIMl0y

> <s_epik_cmdline>
J2VwaWtfcHl0aG9uJywgJy1waCcsICc3LjAnLCAnLXRuJywgJzgnLCAnLW1hJywgJzIwMCcsICctbWV0YWxfYmluZGluZycsICctaW1hZScsICc8aW5maWxlLm1hZT4nLCAnLW9tYWUnLCAnPG91dGZpbGUubWFlPic=

> <r_lp_tautomer_probability>
1

> <r_epik_Ionization_Penalty>
8.17845e-07

> <r_epik_Ionization_Penalty_Charging>
5.79962e-09

> <r_epik_Ionization_Penalty_Neutral>
8.12046e-07

> <r_epik_State_Penalty>
-0

> <r_epik_Charging_Adjusted_Penalty>
5.79962e-09

> <i_epik_Tot_Q>
0

> <i_epik_Tot_abs_Q>
0

> <r_epik_Metal_State_Penalty>
-0

> <b_epik_Metal_Only>
0

> <s_lp_Force_Field>
OPLS_2005

> <r_lp_Energy>
28.483

> <b_lp_Chiralities_Consistent>
1

> <s_lp_Variant>
AV-unprocessed.smi:1281-1

> <Gold.Version>
5.8.1

> <Gold.Id.Protein>
6NUR|6NUR_protein|mol2

> <Gold.PLP.Fitness>
43.7258

> <Gold.PLP.PLP>
-37.2461

> <Gold.PLP.part.hbond>
-3.5758

> <Gold.PLP.part.metal>
0.0000

> <Gold.PLP.part.buried>
-4.6079

> <Gold.PLP.part.nonpolar>
-30.1313

> <Gold.PLP.part.repulsive>
0.0466

> <Gold.PLP.ligand.clash>
0.0000

> <Gold.PLP.ligand.torsion>
1.0507

> <Gold.PLP.Chemscore.Hbond>
2.8080

> <Gold.PLP.Chemscore.CHOScore>
0.0000

> <Gold.PLP.Chemscore.Metal>
0.0000

> <Gold.Chemscore.Hbonds>
donor molecule, donor type, donor heavy atom, donor atom, acceptor molecule, acceptor atom, score
      P1  H  6931  6943       L1     2  1.00
      P1  H  6934  6947       L1     2  0.13
      P1  H 10752 10765       L1     9  0.80

> <Gold.PLP.Chemscore.Internal.Correction>
0.1570

> <Gold.Rescore>
     Score         DG    S(hbond)    S(metal)    S(lipo)     H(rot)  DE(clash)    DE(int)     intcor
     18.85     -19.99       1.93        0.00     109.86       1.86       0.04       1.11       ----

> <Gold.Chemscore.Fitness>
18.8494

> <Gold.Chemscore.DG>
-19.9938

> <Gold.Chemscore.ZeroCoef>
-5.4800

> <Gold.Chemscore.Hbond>
1.9264

> <Gold.Chemscore.Metal>
0.0000

> <Gold.Chemscore.Lipo>
109.8611

> <Gold.Chemscore.Internal_Hbond>
0.0000

> <Gold.Chemscore.DEClash>
0.0382

> <Gold.Chemscore.DEInternal>
1.1062

> <Gold.Chemscore.Rot>
1.8649

> <Gold.Chemscore.Internal.Correction>
   9.000000E+99

> <Gold.Chemscore.Hbonds>
donor molecule, donor type, donor heavy atom, donor atom, acceptor molecule, acceptor atom, score
      P1  H  6931  6943       L1     2  0.65
      P1  H 10752 10765       L1     9  0.76

> <Gold.Chemscore.Hbond.Weighted>
-6.4342

> <Gold.Chemscore.Metal.Weighted>
-0.0000

> <Gold.Chemscore.Lipo.Weighted>
-12.8537

> <Gold.Chemscore.Internal_Hbond.Weighted>
0.0000

> <Gold.Chemscore.DEClash.Weighted>
0.0382

> <Gold.Chemscore.DEInternal.Weighted>
1.1062

> <Gold.Chemscore.Rot.Weighted>
4.7741

> <Gold.Chemscore.Internal.Correction.Weighted>
   9.000000E+99

> <Gold.Protein.RotatedTorsions>
[ 6907 6896 6895 6894 ] final  112.22 input  -60.11 | X-H torsion
[ 7974 7965 7964 7962 ] final  146.26 input  175.53 | X-H torsion
[ 8008 7997 7996 7995 ] final -137.07 input   59.86 | X-H torsion
[ 10167 10162 10161 10158 ] final  169.72 input  -65.29 | X-H torsion
[ 10718 10713 10712 10709 ] final   91.57 input   66.30 | X-H torsion
[ 10763 10752 10751 10750 ] final -149.48 input  -60.55 | X-H torsion
[ 11005 11000 10999 10996 ] final  141.89 input  -57.11 | X-H torsion

> <Gold.Protein.ActiveResidues>
 VAL166  LYS551  ARG553  GLY616  TRP617  ASP618  TYR619  PRO620  LYS621  CYS622 
 ASP623  PHE694  ASN695  SER759  ASP760  ASP761  ALA762  ILE779  LEU786  VAL792 
 PHE793  MET794  SER795  GLU796  ALA797  LYS798  CYS799  TRP800  GLU811  SER814 

> <Gold.Protein.RotatedAtoms>
  152.4928  133.8547  159.7219 H   0  0  0  0  0  0  0  0  0  0  0  0  # atno 6907 bound_to 6896
  150.9075  133.7031  159.2870 H   0  0  0  0  0  0  0  0  0  0  0  0  # atno 6908 bound_to 6896
  151.4452  135.1028  159.9734 H   0  0  0  0  0  0  0  0  0  0  0  0  # atno 6909 bound_to 6896
  144.8685  139.5884  143.5898 H   0  0  0  0  0  0  0  0  0  0  0  0  # atno 7974 bound_to 7965
  155.4057  140.0509  157.3034 H   0  0  0  0  0  0  0  0  0  0  0  0  # atno 8008 bound_to 7997
  154.4969  140.2142  155.9387 H   0  0  0  0  0  0  0  0  0  0  0  0  # atno 8009 bound_to 7997
  156.1418  140.3153  155.8512 H   0  0  0  0  0  0  0  0  0  0  0  0  # atno 8010 bound_to 7997
  139.4999  144.3675  151.9760 H   0  0  0  0  0  0  0  0  0  0  0  0  # atno 10167 bound_to 10162
  157.6960  131.0412  150.3750 H   0  0  0  0  0  0  0  0  0  0  0  0  # atno 10718 bound_to 10713
  154.8175  135.3308  154.7135 H   0  0  0  0  0  0  0  0  0  0  0  0  # atno 10763 bound_to 10752
  153.7773  135.6921  153.4899 H   0  0  0  0  0  0  0  0  0  0  0  0  # atno 10764 bound_to 10752
  153.2004  135.4518  155.0207 H   0  0  0  0  0  0  0  0  0  0  0  0  # atno 10765 bound_to 10752
  140.0436  134.9292  157.0888 H   0  0  0  0  0  0  0  0  0  0  0  0  # atno 11005 bound_to 11000
  146.2913  139.7148  142.9159 LP  0  0  0  0  0  0  0  0  0  0  0  0  # atno 17320 bound_to 7965
  145.4175  141.0403  143.2982 LP  0  0  0  0  0  0  0  0  0  0  0  0  # atno 17321 bound_to 7965
  140.3111  144.3537  150.6033 LP  0  0  0  0  0  0  0  0  0  0  0  0  # atno 17342 bound_to 10162
  140.5798  143.2173  151.7449 LP  0  0  0  0  0  0  0  0  0  0  0  0  # atno 17343 bound_to 10162
  156.4170  130.3945  149.6851 LP  0  0  0  0  0  0  0  0  0  0  0  0  # atno 17370 bound_to 10713
  156.4115  130.7724  151.2738 LP  0  0  0  0  0  0  0  0  0  0  0  0  # atno 17371 bound_to 10713
  140.4030  134.2062  155.7163 LP  0  0  0  0  0  0  0  0  0  0  0  0  # atno 17394 bound_to 11000
  141.1895  133.8236  157.0953 LP  0  0  0  0  0  0  0  0  0  0  0  0  # atno 17395 bound_to 11000

$$$$
