AV-unprocessed.smi:2499|AV-procd|sdf|9835|dock1
  -GOLD-   2272013463D 1   1.00000     0.00000
 Structure written by MMmdl.
 27 28  0  0  0  0  0  0  0  0  1 V2000
  153.2265  142.2526  160.7735 C   0  0  0  0  0  0  0  0  0  0  0  0
  152.3911  142.4048  159.4950 C   0  0  2  0  0  0  0  0  0  0  0  0
  152.6751  141.2743  158.6161 N   0  0  0  0  0  0  0  0  0  0  0  0
  151.9718  140.9299  157.5264 C   0  0  0  0  0  0  0  0  0  0  0  0
  150.9702  141.5599  157.1722 O   0  0  0  0  0  0  0  0  0  0  0  0
  152.5217  139.8011  156.9392 N   0  0  0  0  0  0  0  0  0  0  0  0
  151.9322  139.2784  155.9088 C   0  0  0  0  0  0  0  0  0  0  0  0
  152.3317  138.1738  155.1737 N   0  0  0  0  0  0  0  0  0  0  0  0
  151.4115  137.9665  154.1833 C   0  0  0  0  0  0  0  0  0  0  0  0
  150.4704  138.9000  154.2906 C   0  0  0  0  0  0  0  0  0  0  0  0
  150.7597  139.7199  155.3393 O   0  0  0  0  0  0  0  0  0  0  0  0
  152.6409  143.7545  158.8429 C   0  0  0  0  0  0  0  0  0  0  0  0
  151.8602  144.9774  159.2636 C   0  0  0  0  0  0  0  0  0  0  0  0
  151.6371  144.3713  157.8973 C   0  0  0  0  0  0  0  0  0  0  0  0
  153.0057  143.0494  161.4843 H   0  0  0  0  0  0  0  0  0  0  0  0
  154.2947  142.2876  160.5566 H   0  0  0  0  0  0  0  0  0  0  0  0
  153.0176  141.3043  161.2701 H   0  0  0  0  0  0  0  0  0  0  0  0
  151.3408  142.3610  159.7900 H   0  0  0  0  0  0  0  0  0  0  0  0
  153.4771  140.7080  158.8528 H   0  0  0  0  0  0  0  0  0  0  0  0
  153.1480  137.5947  155.3083 H   0  0  0  0  0  0  0  0  0  0  0  0
  151.5318  137.1489  153.4880 H   0  0  0  0  0  0  0  0  0  0  0  0
  149.5734  139.1065  153.7258 H   0  0  0  0  0  0  0  0  0  0  0  0
  153.6880  143.9316  158.6035 H   0  0  0  0  0  0  0  0  0  0  0  0
  151.0724  144.8477  160.0031 H   0  0  0  0  0  0  0  0  0  0  0  0
  152.3971  145.9223  159.3142 H   0  0  0  0  0  0  0  0  0  0  0  0
  152.0265  144.9100  157.0360 H   0  0  0  0  0  0  0  0  0  0  0  0
  150.7003  143.8431  157.7321 H   0  0  0  0  0  0  0  0  0  0  0  0
  1  2  1  0  0  0  0
  1 15  1  0  0  0  0
  1 16  1  0  0  0  0
  1 17  1  0  0  0  0
  2  3  1  0  0  0  0
  2 12  1  0  0  0  0
  2 18  1  0  0  0  0
  3 19  1  0  0  0  0
  3  4  1  0  0  0  0
  4  6  1  0  0  0  0
  4  5  2  0  0  0  0
  6  7  2  0  0  0  0
  7 11  1  0  0  0  0
  7  8  1  0  0  0  0
  8 20  1  0  0  0  0
  8  9  1  0  0  0  0
  9 21  1  0  0  0  0
  9 10  2  0  0  0  0
 10 22  1  0  0  0  0
 10 11  1  0  0  0  0
 12 14  1  0  0  0  0
 12 13  1  0  0  0  0
 12 23  1  0  0  0  0
 13 14  1  0  0  0  0
 13 24  1  0  0  0  0
 13 25  1  0  0  0  0
 14 26  1  0  0  0  0
 14 27  1  0  0  0  0
M  END
> <s_m_source_file>
AV-unprocessed.smi

> <i_m_source_file_index>
2499

> <i_lp_mmshare_version>
43012

> <i_f3d_flags>
0

> <s_epik_input>
W0NIMl0xW0NIMl1bQ0hdMVtDQEhdKFtDSDNdKVtOSF1DKD1PKVtOSF1jMm5bY0hdW2NIXW8y

> <s_epik_cmdline>
J2VwaWtfcHl0aG9uJywgJy1waCcsICc3LjAnLCAnLXRuJywgJzgnLCAnLW1hJywgJzIwMCcsICctbWV0YWxfYmluZGluZycsICctaW1hZScsICc8aW5maWxlLm1hZT4nLCAnLW9tYWUnLCAnPG91dGZpbGUubWFlPic=

> <r_lp_tautomer_probability>
0.107061

> <r_epik_Ionization_Penalty>
1.51515

> <r_epik_Ionization_Penalty_Charging>
1.51478

> <r_epik_Ionization_Penalty_Neutral>
0.000369309

> <r_epik_State_Penalty>
2.62718

> <r_epik_Charging_Adjusted_Penalty>
4.14196

> <i_epik_Tot_Q>
0

> <i_epik_Tot_abs_Q>
0

> <r_epik_Metal_State_Penalty>
3.5378

> <b_epik_Metal_Only>
0

> <s_lp_Force_Field>
OPLS_2005

> <r_lp_Energy>
35.8345

> <b_lp_Chiralities_Consistent>
1

> <s_lp_Variant>
AV-unprocessed.smi:2499-5

> <Gold.Version>
5.8.1

> <Gold.Id.Protein>
6NUR|6NUR_protein|mol2

> <Gold.PLP.Fitness>
43.2809

> <Gold.PLP.PLP>
-34.4978

> <Gold.PLP.part.hbond>
-1.4335

> <Gold.PLP.part.metal>
0.0000

> <Gold.PLP.part.buried>
-4.8770

> <Gold.PLP.part.nonpolar>
-28.7817

> <Gold.PLP.part.repulsive>
0.3590

> <Gold.PLP.ligand.clash>
0.0000

> <Gold.PLP.ligand.torsion>
0.6405

> <Gold.PLP.Chemscore.Hbond>
1.0000

> <Gold.PLP.Chemscore.CHOScore>
2.0000

> <Gold.PLP.Chemscore.Metal>
0.0000

> <Gold.Chemscore.Hbonds>
donor molecule, donor type, donor heavy atom, donor atom, acceptor molecule, acceptor atom, score
      P1  H  7997  8009       L1     6  1.00
      L1  C     9    21       P1  7949  1.00
      L1  C    10    22       P1  7957  0.44

> <Gold.PLP.Chemscore.Internal.Correction>
1.0642

> <Gold.Rescore>
     Score         DG    S(hbond)    S(metal)    S(lipo)     H(rot)  DE(clash)    DE(int)     intcor
     11.56     -14.00       0.79        0.00      78.37       1.29       0.10       2.33       ----

> <Gold.Chemscore.Fitness>
11.5639

> <Gold.Chemscore.DG>
-13.9953

> <Gold.Chemscore.ZeroCoef>
-5.4800

> <Gold.Chemscore.Hbond>
0.7942

> <Gold.Chemscore.Metal>
0.0000

> <Gold.Chemscore.Lipo>
78.3679

> <Gold.Chemscore.Internal_Hbond>
0.0000

> <Gold.Chemscore.DEClash>
0.0990

> <Gold.Chemscore.DEInternal>
2.3325

> <Gold.Chemscore.Rot>
1.2915

> <Gold.Chemscore.Internal.Correction>
   9.000000E+99

> <Gold.Chemscore.Hbonds>
donor molecule, donor type, donor heavy atom, donor atom, acceptor molecule, acceptor atom, score
      P1  H  7997  8009       L1     6  0.38

> <Gold.Chemscore.Hbond.Weighted>
-2.6525

> <Gold.Chemscore.Metal.Weighted>
-0.0000

> <Gold.Chemscore.Lipo.Weighted>
-9.1690

> <Gold.Chemscore.Internal_Hbond.Weighted>
0.0000

> <Gold.Chemscore.DEClash.Weighted>
0.0990

> <Gold.Chemscore.DEInternal.Weighted>
2.3325

> <Gold.Chemscore.Rot.Weighted>
3.3062

> <Gold.Chemscore.Internal.Correction.Weighted>
   9.000000E+99

> <Gold.Protein.RotatedTorsions>
[ 6907 6896 6895 6894 ] final   29.54 input  -60.11 | X-H torsion
[ 7974 7965 7964 7962 ] final   45.02 input  175.53 | X-H torsion
[ 8008 7997 7996 7995 ] final -162.93 input   59.86 | X-H torsion
[ 10167 10162 10161 10158 ] final  117.71 input  -65.29 | X-H torsion
[ 10718 10713 10712 10709 ] final  131.93 input   66.30 | X-H torsion
[ 10763 10752 10751 10750 ] final -157.94 input  -60.55 | X-H torsion
[ 11005 11000 10999 10996 ] final  -82.02 input  -57.11 | X-H torsion

> <Gold.Protein.ActiveResidues>
 VAL166  LYS551  ARG553  GLY616  TRP617  ASP618  TYR619  PRO620  LYS621  CYS622 
 ASP623  PHE694  ASN695  SER759  ASP760  ASP761  ALA762  ILE779  LEU786  VAL792 
 PHE793  MET794  SER795  GLU796  ALA797  LYS798  CYS799  TRP800  GLU811  SER814 

> <Gold.Protein.RotatedAtoms>
  152.0331  134.9756  160.0572 H   0  0  0  0  0  0  0  0  0  0  0  0  # atno 6907 bound_to 6896
  152.1225  133.4356  159.4690 H   0  0  0  0  0  0  0  0  0  0  0  0  # atno 6908 bound_to 6896
  150.6850  134.2436  159.4526 H   0  0  0  0  0  0  0  0  0  0  0  0  # atno 6909 bound_to 6896
  146.0517  139.5011  142.9714 H   0  0  0  0  0  0  0  0  0  0  0  0  # atno 7974 bound_to 7965
  155.8139  140.0909  157.1888 H   0  0  0  0  0  0  0  0  0  0  0  0  # atno 8008 bound_to 7997
  154.3979  140.1449  156.3479 H   0  0  0  0  0  0  0  0  0  0  0  0  # atno 8009 bound_to 7997
  155.8336  140.3441  155.5590 H   0  0  0  0  0  0  0  0  0  0  0  0  # atno 8010 bound_to 7997
  139.6160  144.7092  151.2737 H   0  0  0  0  0  0  0  0  0  0  0  0  # atno 10167 bound_to 10162
  157.4921  131.1091  150.9543 H   0  0  0  0  0  0  0  0  0  0  0  0  # atno 10718 bound_to 10713
  154.7597  135.3114  154.8403 H   0  0  0  0  0  0  0  0  0  0  0  0  # atno 10763 bound_to 10752
  153.9167  135.6800  153.4753 H   0  0  0  0  0  0  0  0  0  0  0  0  # atno 10764 bound_to 10752
  153.1196  135.4828  154.9105 H   0  0  0  0  0  0  0  0  0  0  0  0  # atno 10765 bound_to 10752
  141.1664  133.7224  156.8509 H   0  0  0  0  0  0  0  0  0  0  0  0  # atno 11005 bound_to 11000
  145.6712  141.0216  143.1656 LP  0  0  0  0  0  0  0  0  0  0  0  0  # atno 17320 bound_to 7965
  144.7126  139.8313  143.7409 LP  0  0  0  0  0  0  0  0  0  0  0  0  # atno 17321 bound_to 7965
  140.7351  143.6746  150.8053 LP  0  0  0  0  0  0  0  0  0  0  0  0  # atno 17342 bound_to 10162
  140.0348  143.5406  152.2744 LP  0  0  0  0  0  0  0  0  0  0  0  0  # atno 17343 bound_to 10162
  157.0241  130.5685  149.5335 LP  0  0  0  0  0  0  0  0  0  0  0  0  # atno 17370 bound_to 10713
  156.0179  130.5274  150.8190 LP  0  0  0  0  0  0  0  0  0  0  0  0  # atno 17371 bound_to 10713
  140.1916  134.8961  157.3067 LP  0  0  0  0  0  0  0  0  0  0  0  0  # atno 17394 bound_to 11000
  140.2284  134.3939  155.7533 LP  0  0  0  0  0  0  0  0  0  0  0  0  # atno 17395 bound_to 11000

$$$$
