#       Name:                AV-unprocessed.smi:2424
#       Creating user name   scv26
#       Creation time:       Fri Mar 27 13:19:16 2020


#       File generated by GOLD software.
#

@<TRIPOS>MOLECULE
AV-unprocessed.smi:2424
    56    57     1
SMALL
NO_CHARGES


@<TRIPOS>ATOM
      1 ****        -1.7557  -2.3847   2.9682 C.3            1 S1                 0.0000
      2 ****        -1.3003  -1.2764   2.0052 C.3            1 S1                 0.0000
      3 ****        -2.1782  -1.1046   0.7374 C.3            1 S1                 0.0000
      4 ****        -3.6101  -0.7134   1.1796 C.3            1 S1                 0.0000
      5 ****        -3.7226   0.6141   1.9480 C.3            1 S1                 0.0000
      6 ****        -1.6172  -0.2279  -0.4210 C.3            1 S1                 0.0000
      7 ****        -0.1557  -0.1415  -0.4369 N.am           1 S1                 0.0000
      8 ****         0.5572   0.9912  -0.4019 C.2            1 S1                 0.0000
      9 ****         0.0494   2.1116  -0.3721 O.2            1 S1                 0.0000
     10 ****         1.8747   0.7220  -0.3847 N.am           1 S1                 0.0000
     11 ****         2.9530   1.6158  -0.4083 C.2            1 S1                 0.0000
     12 ****         4.1768   1.1354  -0.1288 C.2            1 S1                 0.0000
     13 ****         5.3051   1.9588  -0.1342 N.am           1 S1                 0.0000
     14 ****         5.2802   3.2803  -0.4201 C.2            1 S1                 0.0000
     15 ****         6.3159   3.9429  -0.3946 O.2            1 S1                 0.0000
     16 ****         3.9568   3.8307  -0.7556 C.2            1 S1                 0.0000
     17 ****         3.8681   5.3019  -1.1200 C.3            1 S1                 0.0000
     18 ****         2.8640   3.0325  -0.7452 C.2            1 S1                 0.0000
     19 ****        -2.1379  -1.2633  -1.4326 C.3            1 S1                 0.0000
     20 ****        -1.3897  -1.5453  -2.7344 C.3            1 S1                 0.0000
     21 ****        -2.1465  -2.2812  -0.2767 C.3            1 S1                 0.0000
     22 ****        -0.9346  -3.0242  -0.1947 O.3            1 S1                 0.0000
     23 ****        -1.0256  -4.3060  -0.7921 C.3            1 S1                 0.0000
     24 ****         6.1881   1.5289   0.0999 H              1 S1                 0.0000
     25 ****        -1.0196  -2.5270   3.7594 H              1 S1                 0.0000
     26 ****        -1.8717  -3.3381   2.4526 H              1 S1                 0.0000
     27 ****        -2.7014  -2.1425   3.4519 H              1 S1                 0.0000
     28 ****        -1.2140  -0.3359   2.5481 H              1 S1                 0.0000
     29 ****        -0.2750  -1.5181   1.7263 H              1 S1                 0.0000
     30 ****        -4.2553  -0.6301   0.3051 H              1 S1                 0.0000
     31 ****        -4.0650  -1.5089   1.7688 H              1 S1                 0.0000
     32 ****        -4.7692   0.8731   2.1079 H              1 S1                 0.0000
     33 ****        -3.2622   1.4371   1.4018 H              1 S1                 0.0000
     34 ****        -3.2555   0.5566   2.9306 H              1 S1                 0.0000
     35 ****        -2.1215   0.7336  -0.5271 H              1 S1                 0.0000
     36 ****         0.3449  -1.0181  -0.4568 H              1 S1                 0.0000
     37 ****         2.1321  -0.2534  -0.3468 H              1 S1                 0.0000
     38 ****         4.3855   0.1063   0.1260 H              1 S1                 0.0000
     39 ****         2.8447   5.5936  -1.3578 H              1 S1                 0.0000
     40 ****         4.4905   5.5180  -1.9891 H              1 S1                 0.0000
     41 ****         4.2106   5.9208  -0.2901 H              1 S1                 0.0000
     42 ****         1.9190   3.4739  -1.0182 H              1 S1                 0.0000
     43 ****        -3.1721  -1.0085  -1.6689 H              1 S1                 0.0000
     44 ****        -0.3689  -1.8836  -2.5561 H              1 S1                 0.0000
     45 ****        -1.3337  -0.6507  -3.3548 H              1 S1                 0.0000
     46 ****        -1.8930  -2.3166  -3.3172 H              1 S1                 0.0000
     47 ****        -3.0415  -2.9048  -0.2314 H              1 S1                 0.0000
     48 ****        -0.0579  -4.8037  -0.7360 H              1 S1                 0.0000
     49 ****        -1.3122  -4.2423  -1.8419 H              1 S1                 0.0000
     50 ****        -1.7539  -4.9277  -0.2702 H              1 S1                 0.0000
     51 ****        -0.9458   2.2097  -0.3733 LP             1 S1                 0.0000
     52 ****         0.6319   2.9240  -0.3467 LP             1 S1                 0.0000
     53 ****         7.1841   3.5049  -0.1613 LP             1 S1                 0.0000
     54 ****         6.2899   4.9197  -0.6072 LP             1 S1                 0.0000
     55 ****        -0.6965  -3.1390   0.7697 LP             1 S1                 0.0000
     56 ****        -0.2133  -2.5083  -0.6570 LP             1 S1                 0.0000
@<TRIPOS>BOND
    1    1    2 1     
    2    1   25 1     
    3    1   26 1     
    4    1   27 1     
    5    2    3 1     
    6    2   28 1     
    7    2   29 1     
    8    3   21 1     
    9    3    4 1     
   10    3    6 1     
   11    4    5 1     
   12    4   30 1     
   13    4   31 1     
   14    5   32 1     
   15    5   33 1     
   16    5   34 1     
   17    6    7 1     
   18    6   19 1     
   19    6   35 1     
   20    7    8 am    
   21    7   36 1     
   22    8    9 2     
   23    8   10 am    
   24   10   11 1     
   25   10   37 1     
   26   11   18 1     
   27   11   12 2     
   28   12   13 1     
   29   12   38 1     
   30   13   24 1     
   31   13   14 am    
   32   14   15 2     
   33   14   16 1     
   34   16   17 1     
   35   16   18 2     
   36   17   39 1     
   37   17   40 1     
   38   17   41 1     
   39   18   42 1     
   40   19   20 1     
   41   19   21 1     
   42   19   43 1     
   43   20   44 1     
   44   20   45 1     
   45   20   46 1     
   46   21   22 1     
   47   21   47 1     
   48   22   23 1     
   49   23   48 1     
   50   23   49 1     
   51   23   50 1     
   52    9   51 1     
   53    9   52 1     
   54   15   53 1     
   55   15   54 1     
   56   22   55 1     
   57   22   56 1     
@<TRIPOS>SUBSTRUCTURE
      1 S1             1
@<TRIPOS>SET
LONE_PAIRS      STATIC     ATOMS    <user>   **** ""
6 51 52 53 54 55 56
DONOR_HYDROGENS      STATIC     ATOMS    <user>   **** ""
3 36 37 24
ATOM$BLUE        STATIC     ATOMS    COLORGROUP SYSTEM
6 51 52 53 54 55 56
ATOM$RED        STATIC     ATOMS    COLORGROUP SYSTEM
3 36 37 24
