AV-unprocessed.smi:92|AV-procd|sdf|848|dock3
  -GOLD-   2262017283D 1   1.00000     0.00000
 Structure written by MMmdl.
 61 64  0  0  0  0  0  0  0  0  2 V2000
  151.7857  142.9219  157.7968 C   0  0  0  0  0  0  0  0  0  0  0  0
  150.3132  142.6213  158.1114 C   0  0  0  0  0  0  0  0  0  0  0  0
  149.5510  142.1963  156.9102 N   0  3  1  0  0  0  0  0  0  0  0  0
  150.4037  141.4733  155.9320 C   0  0  0  0  0  0  0  0  0  0  0  0
  149.6338  141.1759  154.6358 C   0  0  0  0  0  0  0  0  0  0  0  0
  148.3418  140.3913  154.9346 C   0  0  2  0  0  0  0  0  0  0  0  0
  147.6219  139.9623  153.7246 N   0  0  0  0  0  0  0  0  0  0  0  0
  147.0311  140.9339  152.8015 C   0  0  0  0  0  0  0  0  0  0  0  0
  147.0044  138.7533  153.8021 C   0  0  0  0  0  0  0  0  0  0  0  0
  146.8440  138.1672  155.0188 N   0  0  0  0  0  0  0  0  0  0  0  0
  146.2658  136.9677  155.1208 C   0  0  0  0  0  0  0  0  0  0  0  0
  145.7828  136.1911  154.1507 N   0  0  0  0  0  0  0  0  0  0  0  0
  145.9310  136.7723  152.9259 C   0  0  0  0  0  0  0  0  0  0  0  0
  146.5248  138.0408  152.6649 C   0  0  0  0  0  0  0  0  0  0  0  0
  146.4859  138.3055  151.3011 N   0  0  0  0  0  0  0  0  0  0  0  0
  145.9133  137.2528  150.7854 C   0  0  0  0  0  0  0  0  0  0  0  0
  145.5488  136.2793  151.6879 N   0  0  0  0  0  0  0  0  0  0  0  0
  144.9047  135.0317  151.3819 C   0  0  0  0  0  0  0  0  0  0  0  0
  145.5782  133.6913  151.6887 C   0  0  0  0  0  0  0  0  0  0  0  0
  144.9063  133.0795  150.4367 C   0  0  0  0  0  0  0  0  0  0  0  0
  145.7731  132.1278  149.5883 C   0  0  0  0  0  0  0  0  0  0  0  0
  146.2091  130.9964  150.3154 O   0  0  0  0  0  0  0  0  0  0  0  0
  143.5825  132.3499  150.7319 C   0  0  0  0  0  0  0  0  0  0  0  0
  142.8418  132.1141  149.5513 O   0  0  0  0  0  0  0  0  0  0  0  0
  144.7624  134.5379  149.9395 C   0  0  0  0  0  0  0  0  0  0  0  0
  147.4721  141.1343  155.9847 C   0  0  2  0  0  0  0  0  0  0  0  0
  146.7742  142.4119  155.4810 C   0  0  0  0  0  0  0  0  0  0  0  0
  148.3223  141.4240  157.2395 C   0  0  0  0  0  0  0  0  0  0  0  0
  152.3348  143.1440  158.7120 H   0  0  0  0  0  0  0  0  0  0  0  0
  151.8988  143.7822  157.1380 H   0  0  0  0  0  0  0  0  0  0  0  0
  152.2691  142.0677  157.3217 H   0  0  0  0  0  0  0  0  0  0  0  0
  150.2912  141.8219  158.8533 H   0  0  0  0  0  0  0  0  0  0  0  0
  149.8327  143.4844  158.5746 H   0  0  0  0  0  0  0  0  0  0  0  0
  151.2832  142.0724  155.6930 H   0  0  0  0  0  0  0  0  0  0  0  0
  150.7647  140.5452  156.3784 H   0  0  0  0  0  0  0  0  0  0  0  0
  149.4098  142.1167  154.1322 H   0  0  0  0  0  0  0  0  0  0  0  0
  150.2699  140.6047  153.9585 H   0  0  0  0  0  0  0  0  0  0  0  0
  148.6866  139.4818  155.4226 H   0  0  0  0  0  0  0  0  0  0  0  0
  146.7341  140.4451  151.8725 H   0  0  0  0  0  0  0  0  0  0  0  0
  147.7474  141.7082  152.5301 H   0  0  0  0  0  0  0  0  0  0  0  0
  146.1496  141.4158  153.2199 H   0  0  0  0  0  0  0  0  0  0  0  0
  146.1787  136.5724  156.1220 H   0  0  0  0  0  0  0  0  0  0  0  0
  145.7395  137.1596  149.7231 H   0  0  0  0  0  0  0  0  0  0  0  0
  143.9219  135.0676  151.8558 H   0  0  0  0  0  0  0  0  0  0  0  0
  146.6657  133.7416  151.6253 H   0  0  0  0  0  0  0  0  0  0  0  0
  145.2715  133.2449  152.6351 H   0  0  0  0  0  0  0  0  0  0  0  0
  145.2204  131.7724  148.7181 H   0  0  0  0  0  0  0  0  0  0  0  0
  146.6611  132.6359  149.2112 H   0  0  0  0  0  0  0  0  0  0  0  0
  147.0831  130.7750  150.0324 H   0  0  0  0  0  0  0  0  0  0  0  0
  143.7637  131.3957  151.2279 H   0  0  0  0  0  0  0  0  0  0  0  0
  142.9538  132.9298  151.4081 H   0  0  0  0  0  0  0  0  0  0  0  0
  142.1546  132.7603  149.4933 H   0  0  0  0  0  0  0  0  0  0  0  0
  143.8024  134.7748  149.4804 H   0  0  0  0  0  0  0  0  0  0  0  0
  145.5820  134.8606  149.2971 H   0  0  0  0  0  0  0  0  0  0  0  0
  146.6780  140.4566  156.3013 H   0  0  0  0  0  0  0  0  0  0  0  0
  147.4752  143.1157  155.0331 H   0  0  0  0  0  0  0  0  0  0  0  0
  146.2693  142.9275  156.2982 H   0  0  0  0  0  0  0  0  0  0  0  0
  146.0069  142.1787  154.7446 H   0  0  0  0  0  0  0  0  0  0  0  0
  148.6106  140.4842  157.7138 H   0  0  0  0  0  0  0  0  0  0  0  0
  147.7156  141.9594  157.9689 H   0  0  0  0  0  0  0  0  0  0  0  0
  149.2513  143.0435  156.4489 H   0  0  0  0  0  0  0  0  0  0  0  0
  1  2  1  0  0  0  0
  1 29  1  0  0  0  0
  1 30  1  0  0  0  0
  1 31  1  0  0  0  0
  2  3  1  0  0  0  0
  2 32  1  0  0  0  0
  2 33  1  0  0  0  0
  3 28  1  0  0  0  0
  3  4  1  0  0  0  0
  3 61  1  0  0  0  0
  4  5  1  0  0  0  0
  4 34  1  0  0  0  0
  4 35  1  0  0  0  0
  5  6  1  0  0  0  0
  5 36  1  0  0  0  0
  5 37  1  0  0  0  0
  6  7  1  0  0  0  0
  6 26  1  0  0  0  0
  6 38  1  0  0  0  0
  7  8  1  0  0  0  0
  7  9  1  0  0  0  0
  8 39  1  0  0  0  0
  8 40  1  0  0  0  0
  8 41  1  0  0  0  0
  9 14  1  0  0  0  0
  9 10  2  0  0  0  0
 10 11  1  0  0  0  0
 11 12  2  0  0  0  0
 11 42  1  0  0  0  0
 12 13  1  0  0  0  0
 13 17  1  0  0  0  0
 13 14  2  0  0  0  0
 14 15  1  0  0  0  0
 15 16  2  0  0  0  0
 16 17  1  0  0  0  0
 16 43  1  0  0  0  0
 17 18  1  0  0  0  0
 18 25  1  0  0  0  0
 18 19  1  0  0  0  0
 18 44  1  0  0  0  0
 19 20  1  0  0  0  0
 19 45  1  0  0  0  0
 19 46  1  0  0  0  0
 20 21  1  0  0  0  0
 20 23  1  0  0  0  0
 20 25  1  0  0  0  0
 21 22  1  0  0  0  0
 21 47  1  0  0  0  0
 21 48  1  0  0  0  0
 22 49  1  0  0  0  0
 23 24  1  0  0  0  0
 23 50  1  0  0  0  0
 23 51  1  0  0  0  0
 24 52  1  0  0  0  0
 25 53  1  0  0  0  0
 25 54  1  0  0  0  0
 26 27  1  0  0  0  0
 26 28  1  0  0  0  0
 26 55  1  0  0  0  0
 27 56  1  0  0  0  0
 27 57  1  0  0  0  0
 27 58  1  0  0  0  0
 28 59  1  0  0  0  0
 28 60  1  0  0  0  0
M  CHG  1   3   1
M  END
> <s_m_source_file>
AV-unprocessed.smi

> <i_m_source_file_index>
92

> <i_lp_mmshare_version>
43012

> <i_f3d_flags>
0

> <s_epik_input>
W0NIM11bQ0gyXU4xW0NIMl1bQ0gyXVtDQEhdKFtDQEBIXShbQ0gzXSlbQ0gyXTEpTihbQ0gzXSljKG5bY0hdbjIpYyhjMjMpbltjSF1uM1tDSF0oW0NIMl00KVtDSDJdQzQoW0NIMl1bT0hdKVtDSDJdW09IXQ==

> <s_epik_cmdline>
J2VwaWtfcHl0aG9uJywgJy1waCcsICc3LjAnLCAnLXRuJywgJzgnLCAnLW1hJywgJzIwMCcsICctbWV0YWxfYmluZGluZycsICctaW1hZScsICc8aW5maWxlLm1hZT4nLCAnLW9tYWUnLCAnPG91dGZpbGUubWFlPic=

> <r_lp_tautomer_probability>
1

> <r_epik_Ionization_Penalty>
0.00235514

> <r_epik_Ionization_Penalty_Charging>
0.00137877

> <r_epik_Ionization_Penalty_Neutral>
0.000976366

> <r_epik_State_Penalty>
-0

> <r_epik_Charging_Adjusted_Penalty>
0.00137877

> <i_epik_Tot_Q>
1

> <i_epik_Tot_abs_Q>
1

> <r_epik_Metal_State_Penalty>
-0

> <b_epik_Metal_Only>
0

> <s_lp_Force_Field>
OPLS_2005

> <r_lp_Energy>
56.4815

> <b_lp_Chiralities_Consistent>
1

> <s_lp_Variant>
AV-unprocessed.smi:92-8

> <Gold.Version>
5.8.1

> <Gold.Id.Protein>
6NUR|6NUR_protein|mol2

> <Gold.PLP.Fitness>
57.0385

> <Gold.PLP.PLP>
-43.7127

> <Gold.PLP.part.hbond>
-5.2808

> <Gold.PLP.part.metal>
0.0000

> <Gold.PLP.part.buried>
0.2133

> <Gold.PLP.part.nonpolar>
-41.1693

> <Gold.PLP.part.repulsive>
1.3036

> <Gold.PLP.ligand.clash>
0.5082

> <Gold.PLP.ligand.torsion>
1.3403

> <Gold.PLP.Chemscore.Hbond>
4.8606

> <Gold.PLP.Chemscore.CHOScore>
0.1915

> <Gold.PLP.Chemscore.Metal>
0.0000

> <Gold.Chemscore.Hbonds>
donor molecule, donor type, donor heavy atom, donor atom, acceptor molecule, acceptor atom, score
      L1  H     3    61       P1  8028  2.00
      L1  H    22    49       P1 10747  1.00
      L1  H    24    52       P1 10186  1.00
      P1  H  7954  7966       L1    15  0.15
      P1  H 10785 10796       L1    24  0.68
      L1  C    16    43       P1 10171  0.27

> <Gold.PLP.Chemscore.Internal.Correction>
1.3583

> <Gold.Rescore>
     Score         DG    S(hbond)    S(metal)    S(lipo)     H(rot)  DE(clash)    DE(int)     intcor
     16.61     -21.03       3.49        0.00     103.67       3.22       3.14       1.28       ----

> <Gold.Chemscore.Fitness>
16.6082

> <Gold.Chemscore.DG>
-21.0297

> <Gold.Chemscore.ZeroCoef>
-5.4800

> <Gold.Chemscore.Hbond>
3.4934

> <Gold.Chemscore.Metal>
0.0000

> <Gold.Chemscore.Lipo>
103.6747

> <Gold.Chemscore.Internal_Hbond>
0.0000

> <Gold.Chemscore.DEClash>
3.1387

> <Gold.Chemscore.DEInternal>
1.2827

> <Gold.Chemscore.Rot>
3.2219

> <Gold.Chemscore.Internal.Correction>
   9.000000E+99

> <Gold.Chemscore.Hbonds>
donor molecule, donor type, donor heavy atom, donor atom, acceptor molecule, acceptor atom, score
      L1  H     3    61       P1  8028  1.00
      L1  H    22    49       P1 10747  0.96
      L1  H    24    52       P1 10186  0.95
      P1  H 10785 10796       L1    24  0.55

> <Gold.Chemscore.Hbond.Weighted>
-11.6679

> <Gold.Chemscore.Metal.Weighted>
-0.0000

> <Gold.Chemscore.Lipo.Weighted>
-12.1299

> <Gold.Chemscore.Internal_Hbond.Weighted>
0.0000

> <Gold.Chemscore.DEClash.Weighted>
3.1387

> <Gold.Chemscore.DEInternal.Weighted>
1.2827

> <Gold.Chemscore.Rot.Weighted>
8.2482

> <Gold.Chemscore.Internal.Correction.Weighted>
   9.000000E+99

> <Gold.Protein.RotatedTorsions>
[ 6907 6896 6895 6894 ] final   73.09 input  -60.11 | X-H torsion
[ 7974 7965 7964 7962 ] final -127.29 input  175.53 | X-H torsion
[ 8008 7997 7996 7995 ] final  -50.51 input   59.86 | X-H torsion
[ 10167 10162 10161 10158 ] final   95.06 input  -65.29 | X-H torsion
[ 10718 10713 10712 10709 ] final  -90.59 input   66.30 | X-H torsion
[ 10763 10752 10751 10750 ] final -137.73 input  -60.55 | X-H torsion
[ 11005 11000 10999 10996 ] final -117.52 input  -57.11 | X-H torsion

> <Gold.Protein.ActiveResidues>
 VAL166  LYS551  ARG553  GLY616  TRP617  ASP618  TYR619  PRO620  LYS621  CYS622 
 ASP623  PHE694  ASN695  SER759  ASP760  ASP761  ALA762  ILE779  LEU786  VAL792 
 PHE793  MET794  SER795  GLU796  ALA797  LYS798  CYS799  TRP800  GLU811  SER814 

> <Gold.Protein.RotatedAtoms>
  152.4904  134.4474  159.9563 H   0  0  0  0  0  0  0  0  0  0  0  0  # atno 6907 bound_to 6896
  151.4462  133.3624  159.2796 H   0  0  0  0  0  0  0  0  0  0  0  0  # atno 6908 bound_to 6896
  150.9053  134.8491  159.7448 H   0  0  0  0  0  0  0  0  0  0  0  0  # atno 6909 bound_to 6896
  144.9785  140.7617  143.4626 H   0  0  0  0  0  0  0  0  0  0  0  0  # atno 7974 bound_to 7965
  154.4063  140.1270  156.4678 H   0  0  0  0  0  0  0  0  0  0  0  0  # atno 8008 bound_to 7997
  155.7209  140.3492  155.4996 H   0  0  0  0  0  0  0  0  0  0  0  0  # atno 8009 bound_to 7997
  155.9215  140.1053  157.1193 H   0  0  0  0  0  0  0  0  0  0  0  0  # atno 8010 bound_to 7997
  139.8024  144.6808  150.9747 H   0  0  0  0  0  0  0  0  0  0  0  0  # atno 10167 bound_to 10162
  155.9988  130.4915  150.5346 H   0  0  0  0  0  0  0  0  0  0  0  0  # atno 10718 bound_to 10713
  154.8654  135.3633  154.5271 H   0  0  0  0  0  0  0  0  0  0  0  0  # atno 10763 bound_to 10752
  153.5898  135.7016  153.5433 H   0  0  0  0  0  0  0  0  0  0  0  0  # atno 10764 bound_to 10752
  153.3383  135.4105  155.1513 H   0  0  0  0  0  0  0  0  0  0  0  0  # atno 10765 bound_to 10752
  141.0349  133.9925  157.3086 H   0  0  0  0  0  0  0  0  0  0  0  0  # atno 11005 bound_to 11000
  145.2455  139.2054  143.4970 LP  0  0  0  0  0  0  0  0  0  0  0  0  # atno 17320 bound_to 7965
  146.3402  140.2358  142.8594 LP  0  0  0  0  0  0  0  0  0  0  0  0  # atno 17321 bound_to 7965
  140.7820  143.4267  151.0756 LP  0  0  0  0  0  0  0  0  0  0  0  0  # atno 17342 bound_to 10162
  139.7939  143.8180  152.3155 LP  0  0  0  0  0  0  0  0  0  0  0  0  # atno 17343 bound_to 10162
  157.3290  131.0696  151.1875 LP  0  0  0  0  0  0  0  0  0  0  0  0  # atno 17370 bound_to 10713
  157.2762  130.6728  149.6043 LP  0  0  0  0  0  0  0  0  0  0  0  0  # atno 17371 bound_to 10713
  139.9234  135.0201  156.8146 LP  0  0  0  0  0  0  0  0  0  0  0  0  # atno 17394 bound_to 11000
  140.6340  133.9879  155.7675 LP  0  0  0  0  0  0  0  0  0  0  0  0  # atno 17395 bound_to 11000

$$$$
