AV-unprocessed.smi:3071|AV-procd|sdf|11716|dock8
  -GOLD-   2272017113D 1   1.00000     0.00000
 Structure written by MMmdl.
 29 30  0  0  0  0  0  0  0  0  3 V2000
  151.4363  138.8640  154.8196 C   0  0  0  0  0  0  0  0  0  0  0  0
  150.4586  139.9938  154.8730 C   0  0  0  0  0  0  0  0  0  0  0  0
  149.5108  140.2437  153.9622 N   0  3  0  0  0  0  0  0  0  0  0  0
  148.7861  141.3483  154.3182 C   0  0  0  0  0  0  0  0  0  0  0  0
  149.3155  141.7934  155.5009 C   0  0  0  0  0  0  0  0  0  0  0  0
  150.3454  140.9433  155.8178 N   0  0  0  0  0  0  0  0  0  0  0  0
  151.2091  141.0254  157.0046 C   0  0  0  0  0  0  0  0  0  0  0  0
  151.0043  142.3244  157.8077 C   0  0  1  0  0  0  0  0  0  0  0  0
  151.8699  142.4540  159.0650 C   0  0  0  0  0  0  0  0  0  0  0  0
  151.9045  143.9600  159.2962 C   0  0  0  0  0  0  0  0  0  0  0  0
  151.9256  144.5390  157.8791 C   0  0  0  0  0  0  0  0  0  0  0  0
  151.3034  143.5256  157.0021 N   0  3  0  0  0  0  0  0  0  0  0  0
  151.2523  138.2772  153.9190 H   0  0  0  0  0  0  0  0  0  0  0  0
  151.2995  138.2388  155.7022 H   0  0  0  0  0  0  0  0  0  0  0  0
  152.4467  139.2718  154.7952 H   0  0  0  0  0  0  0  0  0  0  0  0
  147.9687  141.7237  153.7195 H   0  0  0  0  0  0  0  0  0  0  0  0
  149.0419  142.6329  156.1236 H   0  0  0  0  0  0  0  0  0  0  0  0
  150.9898  140.1574  157.6279 H   0  0  0  0  0  0  0  0  0  0  0  0
  152.2475  140.9236  156.6870 H   0  0  0  0  0  0  0  0  0  0  0  0
  149.9589  142.4043  158.1087 H   0  0  0  0  0  0  0  0  0  0  0  0
  151.4673  141.9052  159.9171 H   0  0  0  0  0  0  0  0  0  0  0  0
  152.8799  142.0881  158.8728 H   0  0  0  0  0  0  0  0  0  0  0  0
  150.9953  144.2736  159.8116 H   0  0  0  0  0  0  0  0  0  0  0  0
  152.7570  144.2792  159.8968 H   0  0  0  0  0  0  0  0  0  0  0  0
  151.4012  145.4932  157.8170 H   0  0  0  0  0  0  0  0  0  0  0  0
  152.9527  144.6977  157.5481 H   0  0  0  0  0  0  0  0  0  0  0  0
  151.9626  143.2879  156.2744 H   0  0  0  0  0  0  0  0  0  0  0  0
  150.4559  143.8852  156.5861 H   0  0  0  0  0  0  0  0  0  0  0  0
  149.3516  139.6898  153.1295 H   0  0  0  0  0  0  0  0  0  0  0  0
  1  2  1  0  0  0  0
  1 13  1  0  0  0  0
  1 14  1  0  0  0  0
  1 15  1  0  0  0  0
  2  6  1  0  0  0  0
  2  3  2  0  0  0  0
  3  4  1  0  0  0  0
  3 29  1  0  0  0  0
  4  5  2  0  0  0  0
  4 16  1  0  0  0  0
  5  6  1  0  0  0  0
  5 17  1  0  0  0  0
  6  7  1  0  0  0  0
  7  8  1  0  0  0  0
  7 18  1  0  0  0  0
  7 19  1  0  0  0  0
  8 12  1  0  0  0  0
  8  9  1  0  0  0  0
  8 20  1  0  0  0  0
  9 10  1  0  0  0  0
  9 21  1  0  0  0  0
  9 22  1  0  0  0  0
 10 11  1  0  0  0  0
 10 23  1  0  0  0  0
 10 24  1  0  0  0  0
 11 12  1  0  0  0  0
 11 25  1  0  0  0  0
 11 26  1  0  0  0  0
 12 27  1  0  0  0  0
 12 28  1  0  0  0  0
M  CHG  1   3   1
M  CHG  1  12   1
M  END
> <s_m_source_file>
AV-unprocessed.smi

> <i_m_source_file_index>
3071

> <i_lp_mmshare_version>
43012

> <i_f3d_flags>
0

> <s_epik_input>
W0NIM11jMW5bY0hdW2NIXW4xW0NIMl1bQ0BASF0yW0NIMl1bQ0gyXVtDSDJdW05IXTI=

> <s_epik_cmdline>
J2VwaWtfcHl0aG9uJywgJy1waCcsICc3LjAnLCAnLXRuJywgJzgnLCAnLW1hJywgJzIwMCcsICctbWV0YWxfYmluZGluZycsICctaW1hZScsICc8aW5maWxlLm1hZT4nLCAnLW9tYWUnLCAnPG91dGZpbGUubWFlPic=

> <r_lp_tautomer_probability>
1

> <r_epik_Ionization_Penalty>
0.770167

> <r_epik_Ionization_Penalty_Charging>
0.000985251

> <r_epik_Ionization_Penalty_Neutral>
0.769181

> <r_epik_State_Penalty>
0.493256

> <r_epik_Charging_Adjusted_Penalty>
0.494241

> <i_epik_Tot_Q>
2

> <i_epik_Tot_abs_Q>
2

> <r_epik_Metal_State_Penalty>
4.24699

> <b_epik_Metal_Only>
0

> <s_lp_Force_Field>
OPLS_2005

> <r_lp_Energy>
34.2931

> <b_lp_Chiralities_Consistent>
1

> <s_lp_Variant>
AV-unprocessed.smi:3071-4

> <Gold.Version>
5.8.1

> <Gold.Id.Protein>
6NUR|6NUR_protein|mol2

> <Gold.PLP.Fitness>
41.0244

> <Gold.PLP.PLP>
-30.1598

> <Gold.PLP.part.hbond>
-2.0000

> <Gold.PLP.part.metal>
0.0000

> <Gold.PLP.part.buried>
-0.2703

> <Gold.PLP.part.nonpolar>
-28.1201

> <Gold.PLP.part.repulsive>
0.7039

> <Gold.PLP.ligand.clash>
0.0000

> <Gold.PLP.ligand.torsion>
0.0753

> <Gold.PLP.Chemscore.Hbond>
2.6720

> <Gold.PLP.Chemscore.CHOScore>
0.9996

> <Gold.PLP.Chemscore.Metal>
0.0000

> <Gold.Chemscore.Hbonds>
donor molecule, donor type, donor heavy atom, donor atom, acceptor molecule, acceptor atom, score
      L1  H     3    29       P1  7957  0.67
      L1  H    12    28       P1  8028  2.00
      L1  C     5    17       P1  8028  1.00

> <Gold.PLP.Chemscore.Internal.Correction>
0.0003

> <Gold.Rescore>
     Score         DG    S(hbond)    S(metal)    S(lipo)     H(rot)  DE(clash)    DE(int)     intcor
     15.52     -15.94       1.57        0.00      71.82       1.25       0.31       0.11       ----

> <Gold.Chemscore.Fitness>
15.5228

> <Gold.Chemscore.DG>
-15.9420

> <Gold.Chemscore.ZeroCoef>
-5.4800

> <Gold.Chemscore.Hbond>
1.5729

> <Gold.Chemscore.Metal>
0.0000

> <Gold.Chemscore.Lipo>
71.8157

> <Gold.Chemscore.Internal_Hbond>
0.0000

> <Gold.Chemscore.DEClash>
0.3096

> <Gold.Chemscore.DEInternal>
0.1096

> <Gold.Chemscore.Rot>
1.2477

> <Gold.Chemscore.Internal.Correction>
   9.000000E+99

> <Gold.Chemscore.Hbonds>
donor molecule, donor type, donor heavy atom, donor atom, acceptor molecule, acceptor atom, score
      L1  H     3    29       P1  7957  0.64
      L1  H    12    28       P1  8028  0.97

> <Gold.Chemscore.Hbond.Weighted>
-5.2536

> <Gold.Chemscore.Metal.Weighted>
-0.0000

> <Gold.Chemscore.Lipo.Weighted>
-8.4024

> <Gold.Chemscore.Internal_Hbond.Weighted>
0.0000

> <Gold.Chemscore.DEClash.Weighted>
0.3096

> <Gold.Chemscore.DEInternal.Weighted>
0.1096

> <Gold.Chemscore.Rot.Weighted>
3.1941

> <Gold.Chemscore.Internal.Correction.Weighted>
   9.000000E+99

> <Gold.Protein.RotatedTorsions>
[ 6907 6896 6895 6894 ] final  -85.59 input  -60.11 | X-H torsion
[ 7974 7965 7964 7962 ] final  -40.34 input  175.53 | X-H torsion
[ 8008 7997 7996 7995 ] final    2.28 input   59.86 | X-H torsion
[ 10167 10162 10161 10158 ] final  175.45 input  -65.29 | X-H torsion
[ 10718 10713 10712 10709 ] final   96.15 input   66.30 | X-H torsion
[ 10763 10752 10751 10750 ] final   80.33 input  -60.55 | X-H torsion
[ 11005 11000 10999 10996 ] final   52.91 input  -57.11 | X-H torsion

> <Gold.Protein.ActiveResidues>
 VAL166  LYS551  ARG553  GLY616  TRP617  ASP618  TYR619  PRO620  LYS621  CYS622 
 ASP623  PHE694  ASN695  SER759  ASP760  ASP761  ALA762  ILE779  LEU786  VAL792 
 PHE793  MET794  SER795  GLU796  ALA797  LYS798  CYS799  TRP800  GLU811  SER814 

> <Gold.Protein.RotatedAtoms>
  150.6869  134.3181  159.4774 H   0  0  0  0  0  0  0  0  0  0  0  0  # atno 6907 bound_to 6896
  152.1059  134.9306  160.0577 H   0  0  0  0  0  0  0  0  0  0  0  0  # atno 6908 bound_to 6896
  152.0567  133.4008  159.4437 H   0  0  0  0  0  0  0  0  0  0  0  0  # atno 6909 bound_to 6896
  146.0313  140.6727  142.9131 H   0  0  0  0  0  0  0  0  0  0  0  0  # atno 7974 bound_to 7965
  154.6897  140.2650  155.6825 H   0  0  0  0  0  0  0  0  0  0  0  0  # atno 8008 bound_to 7997
  156.2727  140.2793  156.1394 H   0  0  0  0  0  0  0  0  0  0  0  0  # atno 8009 bound_to 7997
  155.0914  140.0373  157.2660 H   0  0  0  0  0  0  0  0  0  0  0  0  # atno 8010 bound_to 7997
  139.5178  144.3030  152.0361 H   0  0  0  0  0  0  0  0  0  0  0  0  # atno 10167 bound_to 10162
  157.6930  131.0568  150.4447 H   0  0  0  0  0  0  0  0  0  0  0  0  # atno 10718 bound_to 10713
  153.1025  135.4806  154.8892 H   0  0  0  0  0  0  0  0  0  0  0  0  # atno 10763 bound_to 10752
  154.7394  135.3078  154.8757 H   0  0  0  0  0  0  0  0  0  0  0  0  # atno 10764 bound_to 10752
  153.9369  135.6838  153.4798 H   0  0  0  0  0  0  0  0  0  0  0  0  # atno 10765 bound_to 10752
  140.0811  134.5338  155.8946 H   0  0  0  0  0  0  0  0  0  0  0  0  # atno 11005 bound_to 11000
  144.7032  140.3741  143.7139 LP  0  0  0  0  0  0  0  0  0  0  0  0  # atno 17320 bound_to 7965
  145.7035  139.1667  143.2579 LP  0  0  0  0  0  0  0  0  0  0  0  0  # atno 17321 bound_to 7965
  140.2477  144.4202  150.6234 LP  0  0  0  0  0  0  0  0  0  0  0  0  # atno 17342 bound_to 10162
  140.6247  143.2180  151.6622 LP  0  0  0  0  0  0  0  0  0  0  0  0  # atno 17343 bound_to 10162
  156.4803  130.4072  149.6466 LP  0  0  0  0  0  0  0  0  0  0  0  0  # atno 17370 bound_to 10713
  156.3514  130.7434  151.2394 LP  0  0  0  0  0  0  0  0  0  0  0  0  # atno 17371 bound_to 10713
  141.2047  133.6641  156.6135 LP  0  0  0  0  0  0  0  0  0  0  0  0  # atno 17394 bound_to 11000
  140.3487  134.7787  157.4451 LP  0  0  0  0  0  0  0  0  0  0  0  0  # atno 17395 bound_to 11000

$$$$
