#       Name:                AV-unprocessed.smi:1743
#       Creating user name   scv26
#       Creation time:       Fri Mar 27 08:24:07 2020


#       File generated by GOLD software.
#

@<TRIPOS>MOLECULE
AV-unprocessed.smi:1743
    45    46     1
SMALL
NO_CHARGES


@<TRIPOS>ATOM
      1 ****        -7.1546   2.5115  -0.3948 C.3            1 S1                 0.0000
      2 ****        -6.6300   1.1882  -0.4013 O.3            1 S1                 0.0000
      3 ****        -5.2597   1.0269  -0.3821 C.ar           1 S1                 0.0000
      4 ****        -4.7346  -0.2807  -0.3756 C.ar           1 S1                 0.0000
      5 ****        -3.3375  -0.4541  -0.3537 C.ar           1 S1                 0.0000
      6 ****        -2.5066   0.6912  -0.3316 C.ar           1 S1                 0.0000
      7 ****        -1.0863   0.6475  -0.3288 N.am           1 S1                 0.0000
      8 ****        -0.2823  -0.3511   0.0750 C.2            1 S1                 0.0000
      9 ****        -0.6628  -1.4139   0.5657 O.2            1 S1                 0.0000
     10 ****         1.0080  -0.0334  -0.1049 N.am           1 S1                 0.0000
     11 ****         2.1530  -0.8734   0.2370 C.3            1 S1                 0.0000
     12 ****         2.9304  -0.2455   1.4087 C.3            1 S1                 0.0000
     13 ****         4.1913  -1.0586   1.7524 C.3            1 S1                 0.0000
     14 ****         5.1012  -1.2726   0.5279 C.3            1 S1                 0.0000
     15 ****         5.7074  -0.0508   0.1553 O.3            1 S1                 0.0000
     16 ****         4.3198  -1.8597  -0.6629 C.3            1 S1                 0.0000
     17 ****         3.0601  -1.0408  -0.9956 C.3            1 S1                 0.0000
     18 ****        -3.1311   1.9554  -0.3570 C.ar           1 S1                 0.0000
     19 ****        -4.4693   2.1288  -0.3758 N.ar           1 S1                 0.0000
     20 ****        -8.2435   2.4684  -0.4136 H              1 S1                 0.0000
     21 ****        -6.8308   3.0743  -1.2715 H              1 S1                 0.0000
     22 ****        -6.8602   3.0522   0.5058 H              1 S1                 0.0000
     23 ****        -5.3923  -1.1372  -0.3914 H              1 S1                 0.0000
     24 ****        -2.9345  -1.4547  -0.3695 H              1 S1                 0.0000
     25 ****        -0.6266   1.4971  -0.6218 H              1 S1                 0.0000
     26 ****         1.2184   0.8675  -0.5087 H              1 S1                 0.0000
     27 ****         1.8165  -1.8658   0.5427 H              1 S1                 0.0000
     28 ****         3.2158   0.7774   1.1584 H              1 S1                 0.0000
     29 ****         2.2887  -0.1781   2.2879 H              1 S1                 0.0000
     30 ****         4.7454  -0.5698   2.5546 H              1 S1                 0.0000
     31 ****         3.8877  -2.0309   2.1423 H              1 S1                 0.0000
     32 ****         5.9069  -1.9561   0.7980 H              1 S1                 0.0000
     33 ****         6.2848  -0.2127  -0.5749 H              1 S1                 0.0000
     34 ****         4.9634  -1.9315  -1.5404 H              1 S1                 0.0000
     35 ****         4.0215  -2.8808  -0.4219 H              1 S1                 0.0000
     36 ****         2.5086  -1.5306  -1.7991 H              1 S1                 0.0000
     37 ****         3.3525  -0.0613  -1.3768 H              1 S1                 0.0000
     38 ****        -2.5394   2.8592  -0.3575 H              1 S1                 0.0000
     39 ****        -6.9692   0.7394  -1.2281 LP             1 S1                 0.0000
     40 ****        -6.9942   0.7215   0.4046 LP             1 S1                 0.0000
     41 ****        -1.6400  -1.5857   0.6901 LP             1 S1                 0.0000
     42 ****         0.0053  -2.1056   0.8399 LP             1 S1                 0.0000
     43 ****         6.2312   0.3143   0.9249 LP             1 S1                 0.0000
     44 ****         5.0034   0.6075  -0.1110 LP             1 S1                 0.0000
     45 ****        -4.8677   3.0459  -0.3849 LP             1 S1                 0.0000
@<TRIPOS>BOND
    1    1    2 1     
    2    1   20 1     
    3    1   21 1     
    4    1   22 1     
    5    2    3 1     
    6    3   19 ar    
    7    3    4 ar    
    8    4    5 ar    
    9    4   23 1     
   10    5    6 ar    
   11    5   24 1     
   12    6    7 1     
   13    6   18 ar    
   14    7    8 am    
   15    7   25 1     
   16    8    9 2     
   17    8   10 am    
   18   10   11 1     
   19   10   26 1     
   20   11   17 1     
   21   11   12 1     
   22   11   27 1     
   23   12   13 1     
   24   12   28 1     
   25   12   29 1     
   26   13   14 1     
   27   13   30 1     
   28   13   31 1     
   29   14   15 1     
   30   14   16 1     
   31   14   32 1     
   32   15   33 1     
   33   16   17 1     
   34   16   34 1     
   35   16   35 1     
   36   17   36 1     
   37   17   37 1     
   38   18   19 ar    
   39   18   38 1     
   40    2   39 1     
   41    2   40 1     
   42    9   41 1     
   43    9   42 1     
   44   15   43 1     
   45   15   44 1     
   46   19   45 1     
@<TRIPOS>SUBSTRUCTURE
      1 S1             1
@<TRIPOS>SET
LONE_PAIRS      STATIC     ATOMS    <user>   **** ""
7 39 40 41 42 43 44 45
DONOR_HYDROGENS      STATIC     ATOMS    <user>   **** ""
3 25 26 33
ATOM$BLUE        STATIC     ATOMS    COLORGROUP SYSTEM
7 39 40 41 42 43 44 45
ATOM$RED        STATIC     ATOMS    COLORGROUP SYSTEM
3 25 26 33
