#       Name:                AV-unprocessed.smi:2999
#       Creating user name   scv26
#       Creation time:       Fri Mar 27 16:34:38 2020


#       File generated by GOLD software.
#

@<TRIPOS>MOLECULE
AV-unprocessed.smi:2999
    43    45     1
SMALL
NO_CHARGES


@<TRIPOS>ATOM
      1 ****        -0.4156   2.0445  -1.6224 O.2            1 S1                 0.0000
      2 ****        -0.8679   1.0159  -2.1244 C.2            1 S1                 0.0000
      3 ****        -0.1175  -0.0594  -2.4041 N.am           1 S1                 0.0000
      4 ****         1.3235  -0.1655  -2.1876 C.3            1 S1                 0.0000
      5 ****         1.6838  -0.8633  -0.8613 C.3            1 S1                 0.0000
      6 ****         1.1694  -0.1395   0.4016 C.3            1 S1                 0.0000
      7 ****         1.5565  -0.8909   1.6164 N.4            1 S1                 1.0000
      8 ****         1.1239  -0.2159   2.8591 C.3            1 S1                 0.0000
      9 ****         2.0705   0.8662   3.3236 C.3            1 S1                 0.0000
     10 ****         2.0365  -0.4676   4.0365 C.3            1 S1                 0.0000
     11 ****         1.0766  -2.2893   1.5360 C.3            1 S1                 0.0000
     12 ****         1.5806  -2.9535   0.2439 C.3            1 S1                 0.0000
     13 ****         1.1658  -2.1906  -0.8837 O.3            1 S1                 0.0000
     14 ****        -2.1535   0.8116  -2.4526 N.am           1 S1                 0.0000
     15 ****        -3.2442   1.6994  -2.2798 C.2            1 S1                 0.0000
     16 ****        -4.4623   1.3047  -2.6545 N.2            1 S1                 0.0000
     17 ****        -5.4285   2.2867  -2.4168 C.2            1 S1                 0.0000
     18 ****        -4.9235   3.4334  -1.8556 C.2            1 S1                 0.0000
     19 ****        -3.2025   3.3281  -1.5997 S.3            1 S1                 0.0000
     20 ****        -0.5739  -0.8633  -2.8102 H              1 S1                 0.0000
     21 ****         1.7431  -0.7321  -3.0193 H              1 S1                 0.0000
     22 ****         1.7932   0.8185  -2.2304 H              1 S1                 0.0000
     23 ****         2.7728  -0.9208  -0.8121 H              1 S1                 0.0000
     24 ****         1.5797   0.8701   0.4456 H              1 S1                 0.0000
     25 ****         0.0833  -0.0444   0.3808 H              1 S1                 0.0000
     26 ****         0.0502  -0.1076   3.0035 H              1 S1                 0.0000
     27 ****         2.9434   1.0862   2.7116 H              1 S1                 0.0000
     28 ****         1.6399   1.7198   3.8430 H              1 S1                 0.0000
     29 ****         1.5851  -0.4919   5.0263 H              1 S1                 0.0000
     30 ****         2.8879  -1.1318   3.8980 H              1 S1                 0.0000
     31 ****         1.4266  -2.8502   2.4032 H              1 S1                 0.0000
     32 ****        -0.0142  -2.3047   1.5626 H              1 S1                 0.0000
     33 ****         2.6677  -3.0489   0.2535 H              1 S1                 0.0000
     34 ****         1.1743  -3.9613   0.1562 H              1 S1                 0.0000
     35 ****        -2.3814  -0.0816  -2.8637 H              1 S1                 0.0000
     36 ****        -6.4567   2.0846  -2.6781 H              1 S1                 0.0000
     37 ****        -5.4575   4.3301  -1.5781 H              1 S1                 0.0000
     38 ****         2.5658  -0.9244   1.6342 H              1 S1                 0.0000
     39 ****         0.5578   2.1072  -1.4023 LP             1 S1                 0.0000
     40 ****        -1.0216   2.8175  -1.4347 LP             1 S1                 0.0000
     41 ****         1.4851  -2.6461  -1.7148 LP             1 S1                 0.0000
     42 ****         0.1668  -2.1455  -0.8912 LP             1 S1                 0.0000
     43 ****        -4.6609   0.4115  -3.0580 LP             1 S1                 0.0000
@<TRIPOS>BOND
    1    1    2 2     
    2    2    3 am    
    3    2   14 am    
    4    3    4 1     
    5    3   20 1     
    6    4    5 1     
    7    4   21 1     
    8    4   22 1     
    9    5   13 1     
   10    5    6 1     
   11    5   23 1     
   12    6    7 1     
   13    6   24 1     
   14    6   25 1     
   15    7    8 1     
   16    7   11 1     
   17    7   38 1     
   18    8   10 1     
   19    8    9 1     
   20    8   26 1     
   21    9   10 1     
   22    9   27 1     
   23    9   28 1     
   24   10   29 1     
   25   10   30 1     
   26   11   12 1     
   27   11   31 1     
   28   11   32 1     
   29   12   13 1     
   30   12   33 1     
   31   12   34 1     
   32   14   15 1     
   33   14   35 1     
   34   15   19 1     
   35   15   16 2     
   36   16   17 1     
   37   17   18 2     
   38   17   36 1     
   39   18   19 1     
   40   18   37 1     
   41    1   39 1     
   42    1   40 1     
   43   13   41 1     
   44   13   42 1     
   45   16   43 1     
@<TRIPOS>SUBSTRUCTURE
      1 S1             1
@<TRIPOS>SET
LONE_PAIRS      STATIC     ATOMS    <user>   **** ""
5 39 40 41 42 43
DONOR_HYDROGENS      STATIC     ATOMS    <user>   **** ""
3 20 38 35
ATOM$BLUE        STATIC     ATOMS    COLORGROUP SYSTEM
5 39 40 41 42 43
ATOM$RED        STATIC     ATOMS    COLORGROUP SYSTEM
3 20 38 35
