AV-unprocessed.smi:1830|AV-procd|sdf|7455|dock5
  -GOLD-   22720 9143D 1   1.00000     0.00000
 Structure written by MMmdl.
 53 56  0  0  0  0  0  0  0  0  2 V2000
  149.0317  136.8265  156.3142 O   0  0  0  0  0  0  0  0  0  0  0  0
  148.8988  136.5845  155.1148 C   0  0  0  0  0  0  0  0  0  0  0  0
  149.7129  137.0627  154.1638 N   0  0  0  0  0  0  0  0  0  0  0  0
  150.8776  137.9143  154.3923 C   0  0  0  0  0  0  0  0  0  0  0  0
  150.5708  139.0743  155.3566 C   0  0  1  0  0  0  0  0  0  0  0  0
  151.7010  139.3631  156.3753 C   0  0  0  0  0  0  0  0  0  0  0  0
  151.3549  140.5211  157.1759 N   0  0  0  0  0  0  0  0  0  0  0  0
  152.3435  140.9780  158.1249 C   0  0  0  0  0  0  0  0  0  0  0  0
  151.8867  142.4006  158.4930 C   0  0  0  0  0  0  0  0  0  0  0  0
  150.9612  142.8215  157.3299 C   0  0  0  0  0  0  0  0  0  0  0  0
  151.1160  141.6664  156.3391 C   0  0  2  0  0  0  0  0  0  0  0  0
  149.9551  141.3998  155.3695 C   0  0  0  0  0  0  0  0  0  0  0  0
  150.2842  140.2491  154.5866 O   0  0  0  0  0  0  0  0  0  0  0  0
  147.9271  135.8238  154.5841 N   0  0  0  0  0  0  0  0  0  0  0  0
  146.8454  135.1899  155.2584 C   0  0  0  0  0  0  0  0  0  0  0  0
  146.6073  135.4156  156.6388 C   0  0  0  0  0  0  0  0  0  0  0  0
  145.5731  134.7237  157.2965 C   0  0  0  0  0  0  0  0  0  0  0  0
  144.8016  133.8019  156.5686 C   0  0  0  0  0  0  0  0  0  0  0  0
  145.0616  133.5983  155.2607 N   0  3  0  0  0  0  0  0  0  0  0  0
  146.0328  134.2443  154.5677 C   0  0  0  0  0  0  0  0  0  0  0  0
  146.1819  133.9348  153.1965 N   0  0  0  0  0  0  0  0  0  0  0  0
  146.7501  132.6562  152.7852 C   0  0  0  0  0  0  0  0  0  0  0  0
  146.4253  132.5389  151.2987 C   0  0  0  0  0  0  0  0  0  0  0  0
  145.0582  133.2102  151.2079 C   0  0  0  0  0  0  0  0  0  0  0  0
  145.1249  134.3177  152.2652 C   0  0  0  0  0  0  0  0  0  0  0  0
  149.5275  136.8078  153.2048 H   0  0  0  0  0  0  0  0  0  0  0  0
  151.6688  137.2929  154.8124 H   0  0  0  0  0  0  0  0  0  0  0  0
  151.2700  138.3053  153.4522 H   0  0  0  0  0  0  0  0  0  0  0  0
  149.6662  138.8156  155.9099 H   0  0  0  0  0  0  0  0  0  0  0  0
  151.8585  138.4975  157.0195 H   0  0  0  0  0  0  0  0  0  0  0  0
  152.6421  139.5475  155.8561 H   0  0  0  0  0  0  0  0  0  0  0  0
  152.4053  140.3186  158.9911 H   0  0  0  0  0  0  0  0  0  0  0  0
  153.3279  141.0146  157.6555 H   0  0  0  0  0  0  0  0  0  0  0  0
  151.3372  142.4031  159.4350 H   0  0  0  0  0  0  0  0  0  0  0  0
  152.7398  143.0711  158.6007 H   0  0  0  0  0  0  0  0  0  0  0  0
  149.9300  142.8967  157.6781 H   0  0  0  0  0  0  0  0  0  0  0  0
  151.2433  143.7798  156.8929 H   0  0  0  0  0  0  0  0  0  0  0  0
  152.0112  141.8604  155.7443 H   0  0  0  0  0  0  0  0  0  0  0  0
  149.0221  141.2284  155.9086 H   0  0  0  0  0  0  0  0  0  0  0  0
  149.7992  142.2533  154.7096 H   0  0  0  0  0  0  0  0  0  0  0  0
  147.8956  135.7845  153.5757 H   0  0  0  0  0  0  0  0  0  0  0  0
  147.2192  136.0950  157.2129 H   0  0  0  0  0  0  0  0  0  0  0  0
  145.3843  134.8892  158.3471 H   0  0  0  0  0  0  0  0  0  0  0  0
  143.9937  133.2210  156.9897 H   0  0  0  0  0  0  0  0  0  0  0  0
  147.8244  132.6199  152.9688 H   0  0  0  0  0  0  0  0  0  0  0  0
  146.2789  131.8359  153.3284 H   0  0  0  0  0  0  0  0  0  0  0  0
  147.1546  133.0984  150.7110 H   0  0  0  0  0  0  0  0  0  0  0  0
  146.4208  131.5079  150.9439 H   0  0  0  0  0  0  0  0  0  0  0  0
  144.8347  133.5896  150.2105 H   0  0  0  0  0  0  0  0  0  0  0  0
  144.2811  132.4930  151.4760 H   0  0  0  0  0  0  0  0  0  0  0  0
  144.1636  134.4484  152.7640 H   0  0  0  0  0  0  0  0  0  0  0  0
  145.3960  135.2638  151.7959 H   0  0  0  0  0  0  0  0  0  0  0  0
  144.4854  132.9213  154.7604 H   0  0  0  0  0  0  0  0  0  0  0  0
  1  2  2  0  0  0  0
  2  3  1  0  0  0  0
  2 14  1  0  0  0  0
  3  4  1  0  0  0  0
  3 26  1  0  0  0  0
  4  5  1  0  0  0  0
  4 27  1  0  0  0  0
  4 28  1  0  0  0  0
  5 13  1  0  0  0  0
  5  6  1  0  0  0  0
  5 29  1  0  0  0  0
  6  7  1  0  0  0  0
  6 30  1  0  0  0  0
  6 31  1  0  0  0  0
  7 11  1  0  0  0  0
  7  8  1  0  0  0  0
  8  9  1  0  0  0  0
  8 32  1  0  0  0  0
  8 33  1  0  0  0  0
  9 10  1  0  0  0  0
  9 34  1  0  0  0  0
  9 35  1  0  0  0  0
 10 11  1  0  0  0  0
 10 36  1  0  0  0  0
 10 37  1  0  0  0  0
 11 12  1  0  0  0  0
 11 38  1  0  0  0  0
 12 13  1  0  0  0  0
 12 39  1  0  0  0  0
 12 40  1  0  0  0  0
 14 15  1  0  0  0  0
 14 41  1  0  0  0  0
 15 20  1  0  0  0  0
 15 16  2  0  0  0  0
 16 17  1  0  0  0  0
 16 42  1  0  0  0  0
 17 18  2  0  0  0  0
 17 43  1  0  0  0  0
 18 19  1  0  0  0  0
 18 44  1  0  0  0  0
 19 20  2  0  0  0  0
 19 53  1  0  0  0  0
 20 21  1  0  0  0  0
 21 25  1  0  0  0  0
 21 22  1  0  0  0  0
 22 23  1  0  0  0  0
 22 45  1  0  0  0  0
 22 46  1  0  0  0  0
 23 24  1  0  0  0  0
 23 47  1  0  0  0  0
 23 48  1  0  0  0  0
 24 25  1  0  0  0  0
 24 49  1  0  0  0  0
 24 50  1  0  0  0  0
 25 51  1  0  0  0  0
 25 52  1  0  0  0  0
M  CHG  1  19   1
M  END
> <s_m_source_file>
AV-unprocessed.smi

> <i_m_source_file_index>
1830

> <i_lp_mmshare_version>
43012

> <i_f3d_flags>
0

> <s_epik_input>
W0NIMl0xW0NIMl1bQ0gyXVtDQEhdKE4xMilbQ0gyXU9bQ0BASF0oW0NIMl0yKVtDSDJdW05IXUMoPU8pW05IXWMzW2NIXVtjSF1bY0hdbmMzTjRbQ0gyXVtDSDJdW0NIMl1bQ0gyXTQ=

> <s_epik_cmdline>
J2VwaWtfcHl0aG9uJywgJy1waCcsICc3LjAnLCAnLXRuJywgJzgnLCAnLW1hJywgJzIwMCcsICctbWV0YWxfYmluZGluZycsICctaW1hZScsICc8aW5maWxlLm1hZT4nLCAnLW9tYWUnLCAnPG91dGZpbGUubWFlPic=

> <r_epik_Ionization_Penalty>
2.19264

> <r_epik_Ionization_Penalty_Charging>
1.12452

> <r_epik_Ionization_Penalty_Neutral>
1.06812

> <r_epik_State_Penalty>
2.334

> <r_epik_Charging_Adjusted_Penalty>
3.45852

> <i_epik_Tot_Q>
1

> <i_epik_Tot_abs_Q>
1

> <r_epik_Metal_State_Penalty>
2.41144

> <b_epik_Metal_Only>
0

> <s_lp_Force_Field>
OPLS_2005

> <r_lp_Energy>
84.0052

> <b_lp_Chiralities_Consistent>
1

> <s_lp_Variant>
AV-unprocessed.smi:1830-24

> <Gold.Version>
5.8.1

> <Gold.Id.Protein>
6NUR|6NUR_protein|mol2

> <Gold.PLP.Fitness>
42.2545

> <Gold.PLP.PLP>
-30.4823

> <Gold.PLP.part.hbond>
-4.2527

> <Gold.PLP.part.metal>
0.0000

> <Gold.PLP.part.buried>
-5.5899

> <Gold.PLP.part.nonpolar>
-22.4063

> <Gold.PLP.part.repulsive>
0.2225

> <Gold.PLP.ligand.clash>
0.0000

> <Gold.PLP.ligand.torsion>
0.8349

> <Gold.PLP.Chemscore.Hbond>
4.3431

> <Gold.PLP.Chemscore.CHOScore>
0.0000

> <Gold.PLP.Chemscore.Metal>
0.0000

> <Gold.Chemscore.Hbonds>
donor molecule, donor type, donor heavy atom, donor atom, acceptor molecule, acceptor atom, score
      L1  H     3    26       P1  7948  1.00
      L1  H    14    41       P1  7948  0.83
      L1  H    19    53       P1 10957  1.30
      P1  H  7989  7998       L1    13  1.00

> <Gold.PLP.Chemscore.Internal.Correction>
0.4126

> <Gold.Rescore>
     Score         DG    S(hbond)    S(metal)    S(lipo)     H(rot)  DE(clash)    DE(int)     intcor
     17.74     -21.32       2.91        0.00      82.94       1.40       0.04       3.54       ----

> <Gold.Chemscore.Fitness>
17.7375

> <Gold.Chemscore.DG>
-21.3200

> <Gold.Chemscore.ZeroCoef>
-5.4800

> <Gold.Chemscore.Hbond>
2.9070

> <Gold.Chemscore.Metal>
0.0000

> <Gold.Chemscore.Lipo>
82.9410

> <Gold.Chemscore.Internal_Hbond>
0.0000

> <Gold.Chemscore.DEClash>
0.0417

> <Gold.Chemscore.DEInternal>
3.5408

> <Gold.Chemscore.Rot>
1.3959

> <Gold.Chemscore.Internal.Correction>
   9.000000E+99

> <Gold.Chemscore.Hbonds>
donor molecule, donor type, donor heavy atom, donor atom, acceptor molecule, acceptor atom, score
      L1  H     3    26       P1  7948  0.65
      L1  H    14    41       P1  7948  0.78
      L1  H    19    53       P1 10957  0.63
      P1  H  7989  7998       L1    13  0.37

> <Gold.Chemscore.Hbond.Weighted>
-9.7095

> <Gold.Chemscore.Metal.Weighted>
-0.0000

> <Gold.Chemscore.Lipo.Weighted>
-9.7041

> <Gold.Chemscore.Internal_Hbond.Weighted>
0.0000

> <Gold.Chemscore.DEClash.Weighted>
0.0417

> <Gold.Chemscore.DEInternal.Weighted>
3.5408

> <Gold.Chemscore.Rot.Weighted>
3.5736

> <Gold.Chemscore.Internal.Correction.Weighted>
   9.000000E+99

> <Gold.Protein.RotatedTorsions>
[ 6907 6896 6895 6894 ] final  165.30 input  -60.11 | X-H torsion
[ 7974 7965 7964 7962 ] final   13.14 input  175.53 | X-H torsion
[ 8008 7997 7996 7995 ] final   27.74 input   59.86 | X-H torsion
[ 10167 10162 10161 10158 ] final   92.30 input  -65.29 | X-H torsion
[ 10718 10713 10712 10709 ] final  178.09 input   66.30 | X-H torsion
[ 10763 10752 10751 10750 ] final   52.34 input  -60.55 | X-H torsion
[ 11005 11000 10999 10996 ] final  131.76 input  -57.11 | X-H torsion

> <Gold.Protein.ActiveResidues>
 VAL166  LYS551  ARG553  GLY616  TRP617  ASP618  TYR619  PRO620  LYS621  CYS622 
 ASP623  PHE694  ASN695  SER759  ASP760  ASP761  ALA762  ILE779  LEU786  VAL792 
 PHE793  MET794  SER795  GLU796  ALA797  LYS798  CYS799  TRP800  GLU811  SER814 

> <Gold.Protein.RotatedAtoms>
  151.8965  133.3528  159.3815 H   0  0  0  0  0  0  0  0  0  0  0  0  # atno 6907 bound_to 6896
  150.7090  134.4871  159.5507 H   0  0  0  0  0  0  0  0  0  0  0  0  # atno 6908 bound_to 6896
  152.2452  134.8189  160.0505 H   0  0  0  0  0  0  0  0  0  0  0  0  # atno 6909 bound_to 6896
  146.2336  139.9232  142.8507 H   0  0  0  0  0  0  0  0  0  0  0  0  # atno 7974 bound_to 7965
  155.0477  140.3176  155.4702 H   0  0  0  0  0  0  0  0  0  0  0  0  # atno 8008 bound_to 7997
  156.2841  140.2151  156.5546 H   0  0  0  0  0  0  0  0  0  0  0  0  # atno 8009 bound_to 7997
  154.7236  140.0487  157.0650 H   0  0  0  0  0  0  0  0  0  0  0  0  # atno 8010 bound_to 7997
  139.8290  144.6696  150.9423 H   0  0  0  0  0  0  0  0  0  0  0  0  # atno 10167 bound_to 10162
  156.8958  130.9862  151.3043 H   0  0  0  0  0  0  0  0  0  0  0  0  # atno 10718 bound_to 10713
  152.9788  135.5816  154.4562 H   0  0  0  0  0  0  0  0  0  0  0  0  # atno 10763 bound_to 10752
  154.4144  135.2770  155.2018 H   0  0  0  0  0  0  0  0  0  0  0  0  # atno 10764 bound_to 10752
  154.3794  135.6150  153.5836 H   0  0  0  0  0  0  0  0  0  0  0  0  # atno 10765 bound_to 10752
  139.9749  134.9566  156.9484 H   0  0  0  0  0  0  0  0  0  0  0  0  # atno 11005 bound_to 11000
  145.2116  140.9898  143.4097 LP  0  0  0  0  0  0  0  0  0  0  0  0  # atno 17320 bound_to 7965
  144.9686  139.3903  143.6320 LP  0  0  0  0  0  0  0  0  0  0  0  0  # atno 17321 bound_to 7965
  140.7808  143.4018  151.1136 LP  0  0  0  0  0  0  0  0  0  0  0  0  # atno 17342 bound_to 10162
  139.7673  143.8546  152.3113 LP  0  0  0  0  0  0  0  0  0  0  0  0  # atno 17343 bound_to 10162
  157.6056  130.8545  149.8870 LP  0  0  0  0  0  0  0  0  0  0  0  0  # atno 17370 bound_to 10713
  156.0606  130.3700  150.0990 LP  0  0  0  0  0  0  0  0  0  0  0  0  # atno 17371 bound_to 10713
  140.5215  134.0902  155.7293 LP  0  0  0  0  0  0  0  0  0  0  0  0  # atno 17394 bound_to 11000
  141.1427  133.9110  157.2289 LP  0  0  0  0  0  0  0  0  0  0  0  0  # atno 17395 bound_to 11000

$$$$
