#       Name:                AV-unprocessed.smi:1808
#       Creating user name   scv26
#       Creation time:       Fri Mar 27 08:56:34 2020


#       File generated by GOLD software.
#

@<TRIPOS>MOLECULE
AV-unprocessed.smi:1808
    33    34     1
SMALL
NO_CHARGES


@<TRIPOS>ATOM
      1 ****        -0.4508   1.6423  -0.5535 O.2            1 S1                 0.0000
      2 ****        -0.9221   0.6213  -1.0601 C.2            1 S1                 0.0000
      3 ****        -0.1207  -0.4154  -1.3437 N.am           1 S1                 0.0000
      4 ****         1.3159  -0.4765  -1.0968 C.3            1 S1                 0.0000
      5 ****         1.6238  -0.8010   0.3742 C.3            1 S1                 0.0000
      6 ****         3.1127  -0.8234   0.7025 C.3            1 S1                 0.0000
      7 ****         3.1524  -1.6424   1.9790 C.3            1 S1                 0.0000
      8 ****         1.9051  -2.5271   1.8818 C.3            1 S1                 0.0000
      9 ****         1.2287  -2.1262   0.6951 O.3            1 S1                 0.0000
     10 ****        -2.2198   0.4097  -1.3772 N.pl3          1 S1                -1.0000
     11 ****        -3.1351   1.3615  -1.1321 C.2            1 S1                 0.0000
     12 ****        -3.6027   2.1851  -2.0773 N.2            1 S1                 0.0000
     13 ****        -4.5516   3.0926  -1.6030 C.2            1 S1                 0.0000
     14 ****        -4.8193   2.9515  -0.2671 C.2            1 S1                 0.0000
     15 ****        -3.8814   1.6667   0.4392 S.3            1 S1                 0.0000
     16 ****        -0.5477  -1.2327  -1.7544 H              1 S1                 0.0000
     17 ****         1.7460  -1.2377  -1.7480 H              1 S1                 0.0000
     18 ****         1.7784   0.4702  -1.3805 H              1 S1                 0.0000
     19 ****         1.1140  -0.1041   1.0422 H              1 S1                 0.0000
     20 ****         3.6663  -1.3377  -0.0843 H              1 S1                 0.0000
     21 ****         3.5364   0.1741   0.8217 H              1 S1                 0.0000
     22 ****         4.0723  -2.2208   2.0682 H              1 S1                 0.0000
     23 ****         3.0786  -0.9896   2.8496 H              1 S1                 0.0000
     24 ****         2.1567  -3.5863   1.8259 H              1 S1                 0.0000
     25 ****         1.2565  -2.3774   2.7457 H              1 S1                 0.0000
     26 ****        -4.9870   3.8043  -2.2883 H              1 S1                 0.0000
     27 ****        -5.5067   3.5195   0.3411 H              1 S1                 0.0000
     28 ****         0.5278   1.6960  -0.3549 LP             1 S1                 0.0000
     29 ****        -1.0472   2.4164  -0.3414 LP             1 S1                 0.0000
     30 ****         1.4715  -2.7412  -0.0552 LP             1 S1                 0.0000
     31 ****         0.2404  -2.1563   0.8442 LP             1 S1                 0.0000
     32 ****        -2.4978  -0.4556  -1.7942 LP             1 S1                 0.0000
     33 ****        -3.3018   2.1536  -3.0304 LP             1 S1                 0.0000
@<TRIPOS>BOND
    1    1    2 2     
    2    2    3 am    
    3    2   10 1     
    4    3    4 1     
    5    3   16 1     
    6    4    5 1     
    7    4   17 1     
    8    4   18 1     
    9    5    9 1     
   10    5    6 1     
   11    5   19 1     
   12    6    7 1     
   13    6   20 1     
   14    6   21 1     
   15    7    8 1     
   16    7   22 1     
   17    7   23 1     
   18    8    9 1     
   19    8   24 1     
   20    8   25 1     
   21   10   11 1     
   22   11   15 1     
   23   11   12 2     
   24   12   13 1     
   25   13   14 2     
   26   13   26 1     
   27   14   15 1     
   28   14   27 1     
   29    1   28 1     
   30    1   29 1     
   31    9   30 1     
   32    9   31 1     
   33   10   32 1     
   34   12   33 1     
@<TRIPOS>SUBSTRUCTURE
      1 S1             1
@<TRIPOS>SET
LONE_PAIRS      STATIC     ATOMS    <user>   **** ""
6 28 29 30 31 32 33
DONOR_HYDROGENS      STATIC     ATOMS    <user>   **** ""
1 16
ATOM$BLUE        STATIC     ATOMS    COLORGROUP SYSTEM
6 28 29 30 31 32 33
ATOM$RED        STATIC     ATOMS    COLORGROUP SYSTEM
1 16
