AV-unprocessed.smi:31|AV-procd|sdf|196|dock9
  -GOLD-   2262015463D 1   1.00000     0.00000
 Structure written by MMmdl.
 49 52  0  0  0  0  0  0  0  0  1 V2000
  150.3589  136.9370  159.5762 O   0  0  0  0  0  0  0  0  0  0  0  0
  149.5205  137.5541  158.9183 C   0  0  0  0  0  0  0  0  0  0  0  0
  149.9622  138.5364  157.8218 C   0  0  0  0  0  0  0  0  0  0  0  0
  150.8179  139.6354  158.3208 N   0  0  0  0  0  0  0  0  0  0  0  0
  152.1054  139.3253  158.8252 C   0  0  0  0  0  0  0  0  0  0  0  0
  152.5150  138.1641  158.8610 O   0  0  0  0  0  0  0  0  0  0  0  0
  152.8938  140.4641  159.2826 C   0  0  0  0  0  0  0  0  0  0  0  0
  154.1270  140.2637  159.7773 F   0  0  0  0  0  0  0  0  0  0  0  0
  152.4051  141.7198  159.2167 C   0  0  0  0  0  0  0  0  0  0  0  0
  151.1461  142.0081  158.7208 N   0  0  0  0  0  0  0  0  0  0  0  0
  150.6151  143.4241  158.6466 C   0  0  1  0  0  0  0  0  0  0  0  0
  150.6730  144.0969  160.0309 C   0  0  0  0  0  0  0  0  0  0  0  0
  151.3704  145.4094  159.7343 C   0  0  0  0  0  0  0  0  0  0  0  0
  152.2571  145.0322  158.5574 C   0  0  0  0  0  0  0  0  0  0  0  0
  151.4127  144.1874  157.7864 O   0  0  0  0  0  0  0  0  0  0  0  0
  150.3258  140.9602  158.2496 C   0  0  0  0  0  0  0  0  0  0  0  0
  149.2076  141.1979  157.7869 O   0  0  0  0  0  0  0  0  0  0  0  0
  148.1901  137.4690  159.1018 N   0  0  0  0  0  0  0  0  0  0  0  0
  147.4590  136.6617  160.0159 C   0  0  0  0  0  0  0  0  0  0  0  0
  148.2053  135.9022  160.9366 C   0  0  0  0  0  0  0  0  0  0  0  0
  147.5550  135.0834  161.8767 C   0  0  0  0  0  0  0  0  0  0  0  0
  146.1491  135.0106  161.9220 C   0  0  0  0  0  0  0  0  0  0  0  0
  145.3830  135.8263  161.0384 C   0  0  0  0  0  0  0  0  0  0  0  0
  146.0460  136.6239  160.0824 C   0  0  0  0  0  0  0  0  0  0  0  0
  144.0082  135.9157  161.0631 O   0  0  0  0  0  0  0  0  0  0  0  0
  143.3985  135.8155  162.3417 C   0  0  0  0  0  0  0  0  0  0  0  0
  143.1858  134.3537  162.7400 C   0  0  0  0  0  0  0  0  0  0  0  0
  144.4057  133.4819  162.4363 C   0  0  0  0  0  0  0  0  0  0  0  0
  145.6087  134.1260  162.8297 O   0  0  0  0  0  0  0  0  0  0  0  0
  150.4755  137.9815  157.0346 H   0  0  0  0  0  0  0  0  0  0  0  0
  149.0675  138.9213  157.3303 H   0  0  0  0  0  0  0  0  0  0  0  0
  153.0408  142.5177  159.5689 H   0  0  0  0  0  0  0  0  0  0  0  0
  149.6096  143.3428  158.2296 H   0  0  0  0  0  0  0  0  0  0  0  0
  149.6738  144.2226  160.4484 H   0  0  0  0  0  0  0  0  0  0  0  0
  151.2718  143.4964  160.7178 H   0  0  0  0  0  0  0  0  0  0  0  0
  150.6425  146.1620  159.4281 H   0  0  0  0  0  0  0  0  0  0  0  0
  151.9303  145.7988  160.5848 H   0  0  0  0  0  0  0  0  0  0  0  0
  152.5914  145.8970  157.9841 H   0  0  0  0  0  0  0  0  0  0  0  0
  153.1355  144.4806  158.8955 H   0  0  0  0  0  0  0  0  0  0  0  0
  147.6320  138.1002  158.5457 H   0  0  0  0  0  0  0  0  0  0  0  0
  149.2852  135.9319  160.9164 H   0  0  0  0  0  0  0  0  0  0  0  0
  148.1438  134.4851  162.5565 H   0  0  0  0  0  0  0  0  0  0  0  0
  145.4411  137.2339  159.4301 H   0  0  0  0  0  0  0  0  0  0  0  0
  143.9959  136.3384  163.0912 H   0  0  0  0  0  0  0  0  0  0  0  0
  142.4381  136.3301  162.3113 H   0  0  0  0  0  0  0  0  0  0  0  0
  142.9510  134.3083  163.8037 H   0  0  0  0  0  0  0  0  0  0  0  0
  142.3211  133.9462  162.2159 H   0  0  0  0  0  0  0  0  0  0  0  0
  144.3238  132.5380  162.9754 H   0  0  0  0  0  0  0  0  0  0  0  0
  144.4421  133.2207  161.3771 H   0  0  0  0  0  0  0  0  0  0  0  0
  1  2  2  0  0  0  0
  2  3  1  0  0  0  0
  2 18  1  0  0  0  0
  3  4  1  0  0  0  0
  3 30  1  0  0  0  0
  3 31  1  0  0  0  0
  4 16  1  0  0  0  0
  4  5  1  0  0  0  0
  5  6  2  0  0  0  0
  5  7  1  0  0  0  0
  7  8  1  0  0  0  0
  7  9  2  0  0  0  0
  9 10  1  0  0  0  0
  9 32  1  0  0  0  0
 10 11  1  0  0  0  0
 10 16  1  0  0  0  0
 11 15  1  0  0  0  0
 11 12  1  0  0  0  0
 11 33  1  0  0  0  0
 12 13  1  0  0  0  0
 12 34  1  0  0  0  0
 12 35  1  0  0  0  0
 13 14  1  0  0  0  0
 13 36  1  0  0  0  0
 13 37  1  0  0  0  0
 14 15  1  0  0  0  0
 14 38  1  0  0  0  0
 14 39  1  0  0  0  0
 16 17  2  0  0  0  0
 18 19  1  0  0  0  0
 18 40  1  0  0  0  0
 19 24  1  0  0  0  0
 19 20  2  0  0  0  0
 20 21  1  0  0  0  0
 20 41  1  0  0  0  0
 21 22  2  0  0  0  0
 21 42  1  0  0  0  0
 22 29  1  0  0  0  0
 22 23  1  0  0  0  0
 23 24  2  0  0  0  0
 23 25  1  0  0  0  0
 24 43  1  0  0  0  0
 25 26  1  0  0  0  0
 26 27  1  0  0  0  0
 26 44  1  0  0  0  0
 26 45  1  0  0  0  0
 27 28  1  0  0  0  0
 27 46  1  0  0  0  0
 27 47  1  0  0  0  0
 28 29  1  0  0  0  0
 28 48  1  0  0  0  0
 28 49  1  0  0  0  0
M  END
> <s_m_source_file>
AV-unprocessed.smi

> <i_m_source_file_index>
31

> <i_lp_mmshare_version>
43012

> <i_f3d_flags>
0

> <s_epik_input>
TzFbQ0gyXVtDSDJdW0NIMl1PYyhjMTIpW2NIXWMoW2NIXVtjSF0yKVtOSF1DKD1PKVtDSDJdbjNjKD1PKWMoRilbY0hdbihjMz1PKVtDQEBIXTRbQ0gyXVtDSDJdW0NIMl1PNA==

> <s_epik_cmdline>
J2VwaWtfcHl0aG9uJywgJy1waCcsICc3LjAnLCAnLXRuJywgJzgnLCAnLW1hJywgJzIwMCcsICctbWV0YWxfYmluZGluZycsICctaW1hZScsICc8aW5maWxlLm1hZT4nLCAnLW9tYWUnLCAnPG91dGZpbGUubWFlPic=

> <r_lp_tautomer_probability>
1

> <r_epik_Ionization_Penalty>
1.0483e-05

> <r_epik_Ionization_Penalty_Charging>
3.88729e-08

> <r_epik_Ionization_Penalty_Neutral>
1.04441e-05

> <r_epik_State_Penalty>
-0

> <r_epik_Charging_Adjusted_Penalty>
3.88729e-08

> <i_epik_Tot_Q>
0

> <i_epik_Tot_abs_Q>
0

> <r_epik_Metal_State_Penalty>
-0

> <b_epik_Metal_Only>
0

> <s_epik_Chemistry_Notes>
This compound contains an acetal/aminal-like group ( X-CH(R)-Y where X, Y are N, S, or O) that may be acid/base labile, releasing an aldehyde.

> <s_lp_Force_Field>
OPLS_2005

> <r_lp_Energy>
46.1803

> <b_lp_Chiralities_Consistent>
1

> <s_lp_Variant>
AV-unprocessed.smi:31-2

> <Gold.Version>
5.8.1

> <Gold.Id.Protein>
6NUR|6NUR_protein|mol2

> <Gold.PLP.Fitness>
53.6731

> <Gold.PLP.PLP>
-50.8183

> <Gold.PLP.part.hbond>
-2.1490

> <Gold.PLP.part.metal>
0.0000

> <Gold.PLP.part.buried>
-9.9388

> <Gold.PLP.part.nonpolar>
-40.0067

> <Gold.PLP.part.repulsive>
0.4036

> <Gold.PLP.ligand.clash>
0.0192

> <Gold.PLP.ligand.torsion>
0.0690

> <Gold.PLP.Chemscore.Hbond>
1.0000

> <Gold.PLP.Chemscore.CHOScore>
0.0000

> <Gold.PLP.Chemscore.Metal>
0.0000

> <Gold.Chemscore.Hbonds>
donor molecule, donor type, donor heavy atom, donor atom, acceptor molecule, acceptor atom, score
      P1  H  6896  6908       L1     1  1.00

> <Gold.PLP.Chemscore.Internal.Correction>
0.0120

> <Gold.Rescore>
     Score         DG    S(hbond)    S(metal)    S(lipo)     H(rot)  DE(clash)    DE(int)     intcor
     13.54     -17.14       1.00        0.00     107.05       1.64       0.09       3.50       ----

> <Gold.Chemscore.Fitness>
13.5404

> <Gold.Chemscore.DG>
-17.1396

> <Gold.Chemscore.ZeroCoef>
-5.4800

> <Gold.Chemscore.Hbond>
1.0000

> <Gold.Chemscore.Metal>
0.0000

> <Gold.Chemscore.Lipo>
107.0510

> <Gold.Chemscore.Internal_Hbond>
0.0000

> <Gold.Chemscore.DEClash>
0.0947

> <Gold.Chemscore.DEInternal>
3.5046

> <Gold.Chemscore.Rot>
1.6427

> <Gold.Chemscore.Internal.Correction>
   9.000000E+99

> <Gold.Chemscore.Hbonds>
donor molecule, donor type, donor heavy atom, donor atom, acceptor molecule, acceptor atom, score
      P1  H  6896  6908       L1     1  0.93

> <Gold.Chemscore.Hbond.Weighted>
-3.3400

> <Gold.Chemscore.Metal.Weighted>
-0.0000

> <Gold.Chemscore.Lipo.Weighted>
-12.5250

> <Gold.Chemscore.Internal_Hbond.Weighted>
0.0000

> <Gold.Chemscore.DEClash.Weighted>
0.0947

> <Gold.Chemscore.DEInternal.Weighted>
3.5046

> <Gold.Chemscore.Rot.Weighted>
4.2053

> <Gold.Chemscore.Internal.Correction.Weighted>
   9.000000E+99

> <Gold.Protein.RotatedTorsions>
[ 6907 6896 6895 6894 ] final -153.35 input  -60.11 | X-H torsion
[ 7974 7965 7964 7962 ] final   79.39 input  175.53 | X-H torsion
[ 8008 7997 7996 7995 ] final  -92.54 input   59.86 | X-H torsion
[ 10167 10162 10161 10158 ] final -117.22 input  -65.29 | X-H torsion
[ 10718 10713 10712 10709 ] final   13.13 input   66.30 | X-H torsion
[ 10763 10752 10751 10750 ] final -148.69 input  -60.55 | X-H torsion
[ 11005 11000 10999 10996 ] final   31.06 input  -57.11 | X-H torsion

> <Gold.Protein.ActiveResidues>
 VAL166  LYS551  ARG553  GLY616  TRP617  ASP618  TYR619  PRO620  LYS621  CYS622 
 ASP623  PHE694  ASN695  SER759  ASP760  ASP761  ALA762  ILE779  LEU786  VAL792 
 PHE793  MET794  SER795  GLU796  ALA797  LYS798  CYS799  TRP800  GLU811  SER814 

> <Gold.Protein.RotatedAtoms>
  151.2413  133.4398  159.2607 H   0  0  0  0  0  0  0  0  0  0  0  0  # atno 6907 bound_to 6896
  151.0703  134.9794  159.8315 H   0  0  0  0  0  0  0  0  0  0  0  0  # atno 6908 bound_to 6896
  152.5411  134.2359  159.8896 H   0  0  0  0  0  0  0  0  0  0  0  0  # atno 6909 bound_to 6896
  145.6648  139.2481  143.1902 H   0  0  0  0  0  0  0  0  0  0  0  0  # atno 7974 bound_to 7965
  154.7244  140.0508  157.0669 H   0  0  0  0  0  0  0  0  0  0  0  0  # atno 8008 bound_to 7997
  155.0384  140.3166  155.4714 H   0  0  0  0  0  0  0  0  0  0  0  0  # atno 8009 bound_to 7997
  156.2825  140.2137  156.5507 H   0  0  0  0  0  0  0  0  0  0  0  0  # atno 8010 bound_to 7997
  140.0707  143.4879  152.1981 H   0  0  0  0  0  0  0  0  0  0  0  0  # atno 10167 bound_to 10162
  157.0201  130.6151  149.5720 H   0  0  0  0  0  0  0  0  0  0  0  0  # atno 10718 bound_to 10713
  154.8219  135.3328  154.7013 H   0  0  0  0  0  0  0  0  0  0  0  0  # atno 10763 bound_to 10752
  153.7644  135.6930  153.4923 H   0  0  0  0  0  0  0  0  0  0  0  0  # atno 10764 bound_to 10752
  153.2088  135.4490  155.0303 H   0  0  0  0  0  0  0  0  0  0  0  0  # atno 10765 bound_to 10752
  140.2878  134.2899  155.7783 H   0  0  0  0  0  0  0  0  0  0  0  0  # atno 11005 bound_to 11000
  146.1095  140.7446  142.9510 LP  0  0  0  0  0  0  0  0  0  0  0  0  # atno 17320 bound_to 7965
  144.7076  140.3915  143.7105 LP  0  0  0  0  0  0  0  0  0  0  0  0  # atno 17321 bound_to 7965
  139.5837  144.7522  151.3573 LP  0  0  0  0  0  0  0  0  0  0  0  0  # atno 17342 bound_to 10162
  140.7127  143.7349  150.7596 LP  0  0  0  0  0  0  0  0  0  0  0  0  # atno 17343 bound_to 10162
  156.0105  130.5196  150.7973 LP  0  0  0  0  0  0  0  0  0  0  0  0  # atno 17370 bound_to 10713
  157.5256  131.0934  151.0022 LP  0  0  0  0  0  0  0  0  0  0  0  0  # atno 17371 bound_to 10713
  141.2151  133.7566  156.9579 LP  0  0  0  0  0  0  0  0  0  0  0  0  # atno 17394 bound_to 11000
  140.1223  134.9409  157.2221 LP  0  0  0  0  0  0  0  0  0  0  0  0  # atno 17395 bound_to 11000

$$$$
