#       Name:                AV-unprocessed.smi:35
#       Creating user name   scv26
#       Creation time:       Thu Mar 26 16:04:41 2020


#       File generated by GOLD software.
#

@<TRIPOS>MOLECULE
AV-unprocessed.smi:35
    41    42     1
SMALL
NO_CHARGES


@<TRIPOS>ATOM
      1 ****        -2.1858   4.7317   1.1298 O.2            1 S1                 0.0000
      2 ****        -1.9259   3.6011   0.7218 C.2            1 S1                 0.0000
      3 ****        -2.8889   2.7015   0.3673 N.pl3          1 S1                -1.0000
      4 ****        -2.5953   1.4491  -0.0914 C.2            1 S1                 0.0000
      5 ****        -3.4573   0.6214  -0.3875 O.2            1 S1                 0.0000
      6 ****        -1.2318   1.0691  -0.2263 N.am           1 S1                 0.0000
      7 ****        -0.8938  -0.3165  -0.7276 C.3            1 S1                 0.0000
      8 ****         0.3848  -0.2974  -1.2950 O.3            1 S1                 0.0000
      9 ****         1.1918  -1.3263  -0.7315 C.3            1 S1                 0.0000
     10 ****         2.6659  -0.8930  -0.7780 C.3            1 S1                 0.0000
     11 ****         3.5145  -1.9723  -0.4489 O.3            1 S1                 0.0000
     12 ****         0.6118  -1.5040   0.6732 C.3            1 S1                 0.0000
     13 ****         0.9177  -2.7533   1.2631 O.3            1 S1                 0.0000
     14 ****        -0.8820  -1.3144   0.4411 C.3            1 S1                 0.0000
     15 ****        -1.5404  -2.5150   0.0799 O.3            1 S1                 0.0000
     16 ****        -0.2328   1.9521   0.1475 C.2            1 S1                 0.0000
     17 ****        -0.5308   3.1838   0.6078 C.2            1 S1                 0.0000
     18 ****         0.9985   4.3409   1.1069 Br             1 S1                 0.0000
     19 ****        -1.6236  -0.5449  -1.5063 H              1 S1                 0.0000
     20 ****         1.0349  -2.2282  -1.3262 H              1 S1                 0.0000
     21 ****         2.9229  -0.5571  -1.7828 H              1 S1                 0.0000
     22 ****         2.8514  -0.0569  -0.1031 H              1 S1                 0.0000
     23 ****         4.4102  -1.6746  -0.4917 H              1 S1                 0.0000
     24 ****         0.9759  -0.7068   1.3228 H              1 S1                 0.0000
     25 ****         0.5306  -3.4318   0.7309 H              1 S1                 0.0000
     26 ****        -1.3790  -0.9028   1.3209 H              1 S1                 0.0000
     27 ****        -2.4473  -2.3127  -0.0947 H              1 S1                 0.0000
     28 ****         0.8037   1.6585   0.0791 H              1 S1                 0.0000
     29 ****        -1.4453   5.3555   1.3798 LP             1 S1                 0.0000
     30 ****        -3.1376   5.0272   1.2115 LP             1 S1                 0.0000
     31 ****        -3.8488   2.9703   0.4466 LP             1 S1                 0.0000
     32 ****        -4.4257   0.8535  -0.2964 LP             1 S1                 0.0000
     33 ****        -3.1890  -0.2831  -0.7192 LP             1 S1                 0.0000
     34 ****         0.8108   0.5898  -1.1182 LP             1 S1                 0.0000
     35 ****         0.3098  -0.4404  -2.2819 LP             1 S1                 0.0000
     36 ****         3.3764  -2.7199  -1.0986 LP             1 S1                 0.0000
     37 ****         3.3095  -2.2924   0.4760 LP             1 S1                 0.0000
     38 ****         0.5413  -2.7924   2.1887 LP             1 S1                 0.0000
     39 ****         1.9094  -2.8766   1.3010 LP             1 S1                 0.0000
     40 ****        -1.4786  -3.1740   0.8295 LP             1 S1                 0.0000
     41 ****        -1.1157  -2.9011  -0.7391 LP             1 S1                 0.0000
@<TRIPOS>BOND
    1    1    2 2     
    2    2   17 1     
    3    2    3 1     
    4    3    4 1     
    5    4    5 2     
    6    4    6 am    
    7    6    7 1     
    8    6   16 1     
    9    7   14 1     
   10    7    8 1     
   11    7   19 1     
   12    8    9 1     
   13    9   10 1     
   14    9   12 1     
   15    9   20 1     
   16   10   11 1     
   17   10   21 1     
   18   10   22 1     
   19   11   23 1     
   20   12   13 1     
   21   12   14 1     
   22   12   24 1     
   23   13   25 1     
   24   14   15 1     
   25   14   26 1     
   26   15   27 1     
   27   16   17 2     
   28   16   28 1     
   29   17   18 1     
   30    1   29 1     
   31    1   30 1     
   32    3   31 1     
   33    5   32 1     
   34    5   33 1     
   35    8   34 1     
   36    8   35 1     
   37   11   36 1     
   38   11   37 1     
   39   13   38 1     
   40   13   39 1     
   41   15   40 1     
   42   15   41 1     
@<TRIPOS>SUBSTRUCTURE
      1 S1             1
@<TRIPOS>SET
LONE_PAIRS      STATIC     ATOMS    <user>   **** ""
13 29 30 31 32 33 34 35 36 37 38 39 40 41
DONOR_HYDROGENS      STATIC     ATOMS    <user>   **** ""
3 23 25 27
ATOM$BLUE        STATIC     ATOMS    COLORGROUP SYSTEM
13 29 30 31 32 33 34 35 36 37 38 39 40 41
ATOM$RED        STATIC     ATOMS    COLORGROUP SYSTEM
3 23 25 27
