AV-unprocessed.smi:1128|AV-procd|sdf|4842|dock3
  -GOLD-   22720 3413D 1   1.00000     0.00000
 Structure written by MMmdl.
 38 39  0  0  0  0  0  0  0  0  1 V2000
  145.3399  138.6695  152.9020 O   0  0  0  0  0  0  0  0  0  0  0  0
  146.3670  138.0521  152.6233 C   0  0  0  0  0  0  0  0  0  0  0  0
  146.3671  136.8834  151.9658 N   0  0  0  0  0  0  0  0  0  0  0  0
  145.1832  136.1702  151.4943 C   0  0  0  0  0  0  0  0  0  0  0  0
  145.3568  134.6394  151.5665 C   0  0  2  0  0  0  0  0  0  0  0  0
  146.6171  134.1446  150.8169 C   0  0  0  0  0  0  0  0  0  0  0  0
  146.6417  132.6366  150.6418 C   0  0  0  0  0  0  0  0  0  0  0  0
  145.5665  131.8523  150.8242 C   0  0  0  0  0  0  0  0  0  0  0  0
  144.2025  132.3873  151.2178 C   0  0  0  0  0  0  0  0  0  0  0  0
  144.1024  133.9141  151.0426 C   0  0  0  0  0  0  0  0  0  0  0  0
  147.6240  138.4268  152.9258 N   0  0  0  0  0  0  0  0  0  0  0  0
  148.0888  139.5649  153.6085 C   0  0  0  0  0  0  0  0  0  0  0  0
  149.0612  139.5701  154.5584 C   0  0  0  0  0  0  0  0  0  0  0  0
  149.4902  140.7927  155.2171 C   0  0  0  0  0  0  0  0  0  0  0  0
  150.5404  140.7757  156.3171 C   0  0  0  0  0  0  0  0  0  0  0  0
  150.7286  141.9931  156.8283 F   0  0  0  0  0  0  0  0  0  0  0  0
  150.1811  139.9574  157.3062 F   0  0  0  0  0  0  0  0  0  0  0  0
  151.7023  140.3469  155.8266 F   0  0  0  0  0  0  0  0  0  0  0  0
  148.8555  141.9234  154.8577 C   0  0  0  0  0  0  0  0  0  0  0  0
  147.8583  141.9283  153.8805 N   0  0  0  0  0  0  0  0  0  0  0  0
  147.4283  140.8253  153.2282 C   0  0  0  0  0  0  0  0  0  0  0  0
  146.5410  140.9137  152.3801 O   0  0  0  0  0  0  0  0  0  0  0  0
  147.4376  142.8190  153.6584 H   0  0  0  0  0  0  0  0  0  0  0  0
  147.2584  136.4468  151.7812 H   0  0  0  0  0  0  0  0  0  0  0  0
  144.3504  136.4741  152.1290 H   0  0  0  0  0  0  0  0  0  0  0  0
  144.9148  136.4748  150.4812 H   0  0  0  0  0  0  0  0  0  0  0  0
  145.4675  134.3694  152.6183 H   0  0  0  0  0  0  0  0  0  0  0  0
  146.6753  134.5975  149.8266 H   0  0  0  0  0  0  0  0  0  0  0  0
  147.5162  134.4448  151.3558 H   0  0  0  0  0  0  0  0  0  0  0  0
  147.5828  132.1965  150.3462 H   0  0  0  0  0  0  0  0  0  0  0  0
  145.6538  130.7828  150.7002 H   0  0  0  0  0  0  0  0  0  0  0  0
  143.4355  131.8945  150.6198 H   0  0  0  0  0  0  0  0  0  0  0  0
  144.0195  132.1138  152.2573 H   0  0  0  0  0  0  0  0  0  0  0  0
  143.2096  134.2781  151.5522 H   0  0  0  0  0  0  0  0  0  0  0  0
  143.9685  134.1494  149.9858 H   0  0  0  0  0  0  0  0  0  0  0  0
  148.3545  137.7907  152.6406 H   0  0  0  0  0  0  0  0  0  0  0  0
  149.5537  138.6620  154.8620 H   0  0  0  0  0  0  0  0  0  0  0  0
  149.0550  142.8958  155.2837 H   0  0  0  0  0  0  0  0  0  0  0  0
  1  2  2  0  0  0  0
  2  3  1  0  0  0  0
  2 11  1  0  0  0  0
  3  4  1  0  0  0  0
  3 24  1  0  0  0  0
  4  5  1  0  0  0  0
  4 25  1  0  0  0  0
  4 26  1  0  0  0  0
  5 10  1  0  0  0  0
  5  6  1  0  0  0  0
  5 27  1  0  0  0  0
  6  7  1  0  0  0  0
  6 28  1  0  0  0  0
  6 29  1  0  0  0  0
  7  8  2  0  0  0  0
  7 30  1  0  0  0  0
  8  9  1  0  0  0  0
  8 31  1  0  0  0  0
  9 10  1  0  0  0  0
  9 32  1  0  0  0  0
  9 33  1  0  0  0  0
 10 34  1  0  0  0  0
 10 35  1  0  0  0  0
 11 12  1  0  0  0  0
 11 36  1  0  0  0  0
 12 21  1  0  0  0  0
 12 13  2  0  0  0  0
 13 14  1  0  0  0  0
 13 37  1  0  0  0  0
 14 15  1  0  0  0  0
 14 19  2  0  0  0  0
 15 16  1  0  0  0  0
 15 17  1  0  0  0  0
 15 18  1  0  0  0  0
 19 20  1  0  0  0  0
 19 38  1  0  0  0  0
 20 23  1  0  0  0  0
 20 21  1  0  0  0  0
 21 22  2  0  0  0  0
M  END
> <s_m_source_file>
AV-unprocessed.smi

> <i_m_source_file_index>
1128

> <i_lp_mmshare_version>
43012

> <i_f3d_flags>
0

> <s_epik_input>
Tz1jMVtuSF1bY0hdYyhDKEYpKEYpRilbY0hdYzFbTkhdQyg9TylbTkhdW0NIMl1bQ0BASF0yW0NIMl1bQ0hdPVtDSF1bQ0gyXVtDSDJdMg==

> <s_epik_cmdline>
J2VwaWtfcHl0aG9uJywgJy1waCcsICc3LjAnLCAnLXRuJywgJzgnLCAnLW1hJywgJzIwMCcsICctbWV0YWxfYmluZGluZycsICctaW1hZScsICc8aW5maWxlLm1hZT4nLCAnLW9tYWUnLCAnPG91dGZpbGUubWFlPic=

> <r_lp_tautomer_probability>
1

> <r_epik_Ionization_Penalty>
0.00381734

> <r_epik_Ionization_Penalty_Charging>
0.00379608

> <r_epik_Ionization_Penalty_Neutral>
2.12611e-05

> <r_epik_State_Penalty>
-0

> <r_epik_Charging_Adjusted_Penalty>
0.00379608

> <i_epik_Tot_Q>
0

> <i_epik_Tot_abs_Q>
0

> <r_epik_Metal_State_Penalty>
0.371155

> <b_epik_Metal_Only>
0

> <s_lp_Force_Field>
OPLS_2005

> <r_lp_Energy>
20.2087

> <b_lp_Chiralities_Consistent>
1

> <s_lp_Variant>
AV-unprocessed.smi:1128-1

> <Gold.Version>
5.8.1

> <Gold.Id.Protein>
6NUR|6NUR_protein|mol2

> <Gold.PLP.Fitness>
42.7717

> <Gold.PLP.PLP>
-35.9759

> <Gold.PLP.part.hbond>
-2.3020

> <Gold.PLP.part.metal>
0.0000

> <Gold.PLP.part.buried>
-3.3050

> <Gold.PLP.part.nonpolar>
-32.8008

> <Gold.PLP.part.repulsive>
2.5046

> <Gold.PLP.ligand.clash>
1.0981

> <Gold.PLP.ligand.torsion>
0.5587

> <Gold.PLP.Chemscore.Hbond>
1.9920

> <Gold.PLP.Chemscore.CHOScore>
1.0000

> <Gold.PLP.Chemscore.Metal>
0.0000

> <Gold.Chemscore.Hbonds>
donor molecule, donor type, donor heavy atom, donor atom, acceptor molecule, acceptor atom, score
      L1  H     3    24       P1  7948  1.00
      L1  H    11    36       P1  7948  1.00
      L1  C    19    38       P1  8028  0.58

> <Gold.PLP.Chemscore.Internal.Correction>
0.0354

> <Gold.Rescore>
     Score         DG    S(hbond)    S(metal)    S(lipo)     H(rot)  DE(clash)    DE(int)     intcor
     11.57     -17.63       1.93        0.00      77.38       1.30       1.16       4.91       ----

> <Gold.Chemscore.Fitness>
11.5662

> <Gold.Chemscore.DG>
-17.6317

> <Gold.Chemscore.ZeroCoef>
-5.4800

> <Gold.Chemscore.Hbond>
1.9271

> <Gold.Chemscore.Metal>
0.0000

> <Gold.Chemscore.Lipo>
77.3767

> <Gold.Chemscore.Internal_Hbond>
0.0000

> <Gold.Chemscore.DEClash>
1.1562

> <Gold.Chemscore.DEInternal>
4.9093

> <Gold.Chemscore.Rot>
1.3038

> <Gold.Chemscore.Internal.Correction>
   9.000000E+99

> <Gold.Chemscore.Hbonds>
donor molecule, donor type, donor heavy atom, donor atom, acceptor molecule, acceptor atom, score
      L1  H     3    24       P1  7948  0.99
      L1  H    11    36       P1  7948  0.97

> <Gold.Chemscore.Hbond.Weighted>
-6.4364

> <Gold.Chemscore.Metal.Weighted>
-0.0000

> <Gold.Chemscore.Lipo.Weighted>
-9.0531

> <Gold.Chemscore.Internal_Hbond.Weighted>
0.0000

> <Gold.Chemscore.DEClash.Weighted>
1.1562

> <Gold.Chemscore.DEInternal.Weighted>
4.9093

> <Gold.Chemscore.Rot.Weighted>
3.3377

> <Gold.Chemscore.Internal.Correction.Weighted>
   9.000000E+99

> <Gold.Protein.RotatedTorsions>
[ 6907 6896 6895 6894 ] final  109.51 input  -60.11 | X-H torsion
[ 7974 7965 7964 7962 ] final  163.95 input  175.53 | X-H torsion
[ 8008 7997 7996 7995 ] final -169.98 input   59.86 | X-H torsion
[ 10167 10162 10161 10158 ] final  -30.13 input  -65.29 | X-H torsion
[ 10718 10713 10712 10709 ] final   77.35 input   66.30 | X-H torsion
[ 10763 10752 10751 10750 ] final  -83.43 input  -60.55 | X-H torsion
[ 11005 11000 10999 10996 ] final  174.28 input  -57.11 | X-H torsion

> <Gold.Protein.ActiveResidues>
 VAL166  LYS551  ARG553  GLY616  TRP617  ASP618  TYR619  PRO620  LYS621  CYS622 
 ASP623  PHE694  ASN695  SER759  ASP760  ASP761  ALA762  ILE779  LEU786  VAL792 
 PHE793  MET794  SER795  GLU796  ALA797  LYS798  CYS799  TRP800  GLU811  SER814 

> <Gold.Protein.RotatedAtoms>
  152.5064  133.8933  159.7404 H   0  0  0  0  0  0  0  0  0  0  0  0  # atno 6907 bound_to 6896
  150.9367  133.6695  159.2806 H   0  0  0  0  0  0  0  0  0  0  0  0  # atno 6908 bound_to 6896
  151.4021  135.0977  159.9611 H   0  0  0  0  0  0  0  0  0  0  0  0  # atno 6909 bound_to 6896
  144.7567  139.8255  143.6347 H   0  0  0  0  0  0  0  0  0  0  0  0  # atno 7974 bound_to 7965
  155.9122  140.1059  157.1271 H   0  0  0  0  0  0  0  0  0  0  0  0  # atno 8008 bound_to 7997
  154.4041  140.1272  156.4636 H   0  0  0  0  0  0  0  0  0  0  0  0  # atno 8009 bound_to 7997
  155.7297  140.3468  155.5056 H   0  0  0  0  0  0  0  0  0  0  0  0  # atno 8010 bound_to 7997
  140.7253  143.3873  151.1493 H   0  0  0  0  0  0  0  0  0  0  0  0  # atno 10167 bound_to 10162
  157.6707  130.9817  150.1629 H   0  0  0  0  0  0  0  0  0  0  0  0  # atno 10718 bound_to 10713
  154.5876  135.5556  153.7246 H   0  0  0  0  0  0  0  0  0  0  0  0  # atno 10763 bound_to 10752
  153.0104  135.6335  154.1894 H   0  0  0  0  0  0  0  0  0  0  0  0  # atno 10764 bound_to 10752
  154.1835  135.2886  155.3024 H   0  0  0  0  0  0  0  0  0  0  0  0  # atno 10765 bound_to 10752
  140.3496  134.7206  157.4259 H   0  0  0  0  0  0  0  0  0  0  0  0  # atno 11005 bound_to 11000
  146.1585  139.4691  143.0003 LP  0  0  0  0  0  0  0  0  0  0  0  0  # atno 17320 bound_to 7965
  145.6756  141.0205  143.1634 LP  0  0  0  0  0  0  0  0  0  0  0  0  # atno 17321 bound_to 7965
  139.7472  143.8834  152.3067 LP  0  0  0  0  0  0  0  0  0  0  0  0  # atno 17342 bound_to 10162
  139.8675  144.7085  150.9026 LP  0  0  0  0  0  0  0  0  0  0  0  0  # atno 17343 bound_to 10162
  156.2401  130.3690  149.8347 LP  0  0  0  0  0  0  0  0  0  0  0  0  # atno 17370 bound_to 10713
  156.6149  130.8602  151.3462 LP  0  0  0  0  0  0  0  0  0  0  0  0  # atno 17371 bound_to 10713
  140.0714  134.5858  155.8638 LP  0  0  0  0  0  0  0  0  0  0  0  0  # atno 17394 bound_to 11000
  141.2016  133.6619  156.5958 LP  0  0  0  0  0  0  0  0  0  0  0  0  # atno 17395 bound_to 11000

$$$$
