AV-unprocessed.smi:243|AV-procd|sdf|1853|dock4
  -GOLD-   2262020483D 1   1.00000     0.00000
 Structure written by MMmdl.
 58 61  0  0  0  0  0  0  0  0  2 V2000
  151.5337  142.7617  157.9860 C   0  0  0  0  0  0  0  0  0  0  0  0
  150.0561  142.4999  158.3115 C   0  0  0  0  0  0  0  0  0  0  0  0
  149.2175  142.3721  157.0924 N   0  3  1  0  0  0  0  0  0  0  0  0
  149.7076  141.3311  156.1518 C   0  0  0  0  0  0  0  0  0  0  0  0
  148.8824  141.3005  154.8501 C   0  0  0  0  0  0  0  0  0  0  0  0
  147.3537  141.2532  155.0602 C   0  0  1  0  0  0  0  0  0  0  0  0
  146.8180  139.8884  155.2201 N   0  0  0  0  0  0  0  0  0  0  0  0
  146.3088  139.3499  156.4781 C   0  0  0  0  0  0  0  0  0  0  0  0
  146.5489  139.1788  154.0940 C   0  0  0  0  0  0  0  0  0  0  0  0
  147.1477  139.5588  152.9352 N   0  0  0  0  0  0  0  0  0  0  0  0
  146.9153  138.8882  151.8033 C   0  0  0  0  0  0  0  0  0  0  0  0
  146.1300  137.8277  151.6087 N   0  0  0  0  0  0  0  0  0  0  0  0
  145.5202  137.4432  152.7664 C   0  0  0  0  0  0  0  0  0  0  0  0
  145.6757  138.0531  154.0439 C   0  0  0  0  0  0  0  0  0  0  0  0
  144.8929  137.3870  154.9802 N   0  0  0  0  0  0  0  0  0  0  0  0
  144.3163  136.4357  154.2984 C   0  0  0  0  0  0  0  0  0  0  0  0
  144.6270  136.4032  152.9578 N   0  0  0  0  0  0  0  0  0  0  0  0
  144.1245  135.4601  151.9698 C   0  0  0  0  0  0  0  0  0  0  0  0
  145.2321  134.6007  151.3151 C   0  0  2  0  0  0  0  0  0  0  0  0
  146.1123  135.4507  150.5995 O   0  0  0  0  0  0  0  0  0  0  0  0
  144.6810  133.5609  150.3472 C   0  0  0  0  0  0  0  0  0  0  0  0
  145.7201  132.4501  150.4187 C   0  0  0  0  0  0  0  0  0  0  0  0
  146.0531  132.4184  151.7960 O   0  0  0  0  0  0  0  0  0  0  0  0
  146.0647  133.7515  152.2991 C   0  0  0  0  0  0  0  0  0  0  0  0
  146.9101  142.2619  156.1489 C   0  0  1  0  0  0  0  0  0  0  0  0
  145.4047  142.2102  156.4621 C   0  0  0  0  0  0  0  0  0  0  0  0
  147.7810  142.1832  157.4178 C   0  0  0  0  0  0  0  0  0  0  0  0
  152.1003  142.9416  158.8999 H   0  0  0  0  0  0  0  0  0  0  0  0
  151.6478  143.6403  157.3505 H   0  0  0  0  0  0  0  0  0  0  0  0
  151.9996  141.9163  157.4808 H   0  0  0  0  0  0  0  0  0  0  0  0
  149.9502  141.6108  158.9348 H   0  0  0  0  0  0  0  0  0  0  0  0
  149.6976  143.3389  158.9092 H   0  0  0  0  0  0  0  0  0  0  0  0
  150.7462  141.5287  155.8889 H   0  0  0  0  0  0  0  0  0  0  0  0
  149.7082  140.3626  156.6469 H   0  0  0  0  0  0  0  0  0  0  0  0
  149.1142  142.2090  154.2930 H   0  0  0  0  0  0  0  0  0  0  0  0
  149.2053  140.4760  154.2129 H   0  0  0  0  0  0  0  0  0  0  0  0
  146.9312  141.6489  154.1360 H   0  0  0  0  0  0  0  0  0  0  0  0
  146.1795  138.2685  156.4164 H   0  0  0  0  0  0  0  0  0  0  0  0
  145.3426  139.7869  156.7274 H   0  0  0  0  0  0  0  0  0  0  0  0
  146.9948  139.5292  157.3002 H   0  0  0  0  0  0  0  0  0  0  0  0
  147.4315  139.2544  150.9280 H   0  0  0  0  0  0  0  0  0  0  0  0
  143.6370  135.7312  154.7561 H   0  0  0  0  0  0  0  0  0  0  0  0
  143.3893  134.8170  152.4549 H   0  0  0  0  0  0  0  0  0  0  0  0
  143.5816  136.0211  151.2077 H   0  0  0  0  0  0  0  0  0  0  0  0
  146.9332  135.4920  151.0659 H   0  0  0  0  0  0  0  0  0  0  0  0
  143.7263  133.1759  150.7082 H   0  0  0  0  0  0  0  0  0  0  0  0
  144.5248  133.9394  149.3362 H   0  0  0  0  0  0  0  0  0  0  0  0
  145.3373  131.4892  150.0746 H   0  0  0  0  0  0  0  0  0  0  0  0
  146.6051  132.7011  149.8321 H   0  0  0  0  0  0  0  0  0  0  0  0
  147.0914  134.1102  152.3887 H   0  0  0  0  0  0  0  0  0  0  0  0
  145.6375  133.7362  153.3011 H   0  0  0  0  0  0  0  0  0  0  0  0
  147.0897  143.2526  155.7276 H   0  0  0  0  0  0  0  0  0  0  0  0
  145.1273  141.2845  156.9655 H   0  0  0  0  0  0  0  0  0  0  0  0
  144.8110  142.2848  155.5504 H   0  0  0  0  0  0  0  0  0  0  0  0
  145.1123  143.0350  157.1128 H   0  0  0  0  0  0  0  0  0  0  0  0
  147.6416  141.2382  157.9418 H   0  0  0  0  0  0  0  0  0  0  0  0
  147.4646  142.9676  158.1067 H   0  0  0  0  0  0  0  0  0  0  0  0
  149.2795  143.2576  156.6104 H   0  0  0  0  0  0  0  0  0  0  0  0
  1  2  1  0  0  0  0
  1 28  1  0  0  0  0
  1 29  1  0  0  0  0
  1 30  1  0  0  0  0
  2  3  1  0  0  0  0
  2 31  1  0  0  0  0
  2 32  1  0  0  0  0
  3 27  1  0  0  0  0
  3  4  1  0  0  0  0
  3 58  1  0  0  0  0
  4  5  1  0  0  0  0
  4 33  1  0  0  0  0
  4 34  1  0  0  0  0
  5  6  1  0  0  0  0
  5 35  1  0  0  0  0
  5 36  1  0  0  0  0
  6  7  1  0  0  0  0
  6 25  1  0  0  0  0
  6 37  1  0  0  0  0
  7  8  1  0  0  0  0
  7  9  1  0  0  0  0
  8 38  1  0  0  0  0
  8 39  1  0  0  0  0
  8 40  1  0  0  0  0
  9 14  1  0  0  0  0
  9 10  2  0  0  0  0
 10 11  1  0  0  0  0
 11 12  2  0  0  0  0
 11 41  1  0  0  0  0
 12 13  1  0  0  0  0
 13 17  1  0  0  0  0
 13 14  2  0  0  0  0
 14 15  1  0  0  0  0
 15 16  2  0  0  0  0
 16 17  1  0  0  0  0
 16 42  1  0  0  0  0
 17 18  1  0  0  0  0
 18 19  1  0  0  0  0
 18 43  1  0  0  0  0
 18 44  1  0  0  0  0
 19 24  1  0  0  0  0
 19 20  1  0  0  0  0
 19 21  1  0  0  0  0
 20 45  1  0  0  0  0
 21 22  1  0  0  0  0
 21 46  1  0  0  0  0
 21 47  1  0  0  0  0
 22 23  1  0  0  0  0
 22 48  1  0  0  0  0
 22 49  1  0  0  0  0
 23 24  1  0  0  0  0
 24 50  1  0  0  0  0
 24 51  1  0  0  0  0
 25 26  1  0  0  0  0
 25 27  1  0  0  0  0
 25 52  1  0  0  0  0
 26 53  1  0  0  0  0
 26 54  1  0  0  0  0
 26 55  1  0  0  0  0
 27 56  1  0  0  0  0
 27 57  1  0  0  0  0
M  CHG  1   3   1
M  END
> <s_m_source_file>
AV-unprocessed.smi

> <i_m_source_file_index>
243

> <i_lp_mmshare_version>
43012

> <i_f3d_flags>
0

> <s_epik_input>
W0NIM11bQ0gyXU4xW0NIMl1bQ0gyXVtDQEhdKFtDQEBIXShbQ0gzXSlbQ0gyXTEpTihbQ0gzXSljKG5bY0hdbjIpYyhjMjMpbltjSF1uM1tDSDJdW0NAQF00KFtPSF0pW0NIMl1bQ0gyXU9bQ0gyXTQ=

> <s_epik_cmdline>
J2VwaWtfcHl0aG9uJywgJy1waCcsICc3LjAnLCAnLXRuJywgJzgnLCAnLW1hJywgJzIwMCcsICctbWV0YWxfYmluZGluZycsICctaW1hZScsICc8aW5maWxlLm1hZT4nLCAnLW9tYWUnLCAnPG91dGZpbGUubWFlPic=

> <r_lp_tautomer_probability>
1

> <r_epik_Ionization_Penalty>
0.00253099

> <r_epik_Ionization_Penalty_Charging>
0.00137877

> <r_epik_Ionization_Penalty_Neutral>
0.00115221

> <r_epik_State_Penalty>
-0

> <r_epik_Charging_Adjusted_Penalty>
0.00137877

> <i_epik_Tot_Q>
1

> <i_epik_Tot_abs_Q>
1

> <r_epik_Metal_State_Penalty>
-0

> <b_epik_Metal_Only>
0

> <s_lp_Force_Field>
OPLS_2005

> <r_lp_Energy>
51.4738

> <b_lp_Chiralities_Consistent>
1

> <s_lp_Variant>
AV-unprocessed.smi:243-6

> <Gold.Version>
5.8.1

> <Gold.Id.Protein>
6NUR|6NUR_protein|mol2

> <Gold.PLP.Fitness>
42.2165

> <Gold.PLP.PLP>
-33.2350

> <Gold.PLP.part.hbond>
-2.6497

> <Gold.PLP.part.metal>
0.0000

> <Gold.PLP.part.buried>
-2.9412

> <Gold.PLP.part.nonpolar>
-29.2638

> <Gold.PLP.part.repulsive>
2.6187

> <Gold.PLP.ligand.clash>
0.0041

> <Gold.PLP.ligand.torsion>
0.6673

> <Gold.PLP.Chemscore.Hbond>
2.5525

> <Gold.PLP.Chemscore.CHOScore>
0.7758

> <Gold.PLP.Chemscore.Metal>
0.0000

> <Gold.Chemscore.Hbonds>
donor molecule, donor type, donor heavy atom, donor atom, acceptor molecule, acceptor atom, score
      L1  H     3    58       P1  8028  2.00
      L1  H    20    45       P1  7948  0.47
      L1  C    11    41       P1  7957  0.81

> <Gold.PLP.Chemscore.Internal.Correction>
0.3354

> <Gold.Rescore>
     Score         DG    S(hbond)    S(metal)    S(lipo)     H(rot)  DE(clash)    DE(int)     intcor
      8.68     -13.45       1.81        0.00      65.31       2.24       0.82       3.95       ----

> <Gold.Chemscore.Fitness>
8.6750

> <Gold.Chemscore.DG>
-13.4489

> <Gold.Chemscore.ZeroCoef>
-5.4800

> <Gold.Chemscore.Hbond>
1.8133

> <Gold.Chemscore.Metal>
0.0000

> <Gold.Chemscore.Lipo>
65.3112

> <Gold.Chemscore.Internal_Hbond>
0.0000

> <Gold.Chemscore.DEClash>
0.8212

> <Gold.Chemscore.DEInternal>
3.9527

> <Gold.Chemscore.Rot>
2.2379

> <Gold.Chemscore.Internal.Correction>
   9.000000E+99

> <Gold.Chemscore.Hbonds>
donor molecule, donor type, donor heavy atom, donor atom, acceptor molecule, acceptor atom, score
      L1  H     3    58       P1  8028  0.99
      L1  H    20    45       P1  7948  0.42

> <Gold.Chemscore.Hbond.Weighted>
-6.0566

> <Gold.Chemscore.Metal.Weighted>
-0.0000

> <Gold.Chemscore.Lipo.Weighted>
-7.6414

> <Gold.Chemscore.Internal_Hbond.Weighted>
0.0000

> <Gold.Chemscore.DEClash.Weighted>
0.8212

> <Gold.Chemscore.DEInternal.Weighted>
3.9527

> <Gold.Chemscore.Rot.Weighted>
5.7291

> <Gold.Chemscore.Internal.Correction.Weighted>
   9.000000E+99

> <Gold.Protein.RotatedTorsions>
[ 6907 6896 6895 6894 ] final  -14.09 input  -60.11 | X-H torsion
[ 7974 7965 7964 7962 ] final  -28.81 input  175.53 | X-H torsion
[ 8008 7997 7996 7995 ] final -106.22 input   59.86 | X-H torsion
[ 10167 10162 10161 10158 ] final  -93.02 input  -65.29 | X-H torsion
[ 10718 10713 10712 10709 ] final  -69.07 input   66.30 | X-H torsion
[ 10763 10752 10751 10750 ] final  128.70 input  -60.55 | X-H torsion
[ 11005 11000 10999 10996 ] final  -62.39 input  -57.11 | X-H torsion

> <Gold.Protein.ActiveResidues>
 VAL166  LYS551  ARG553  GLY616  TRP617  ASP618  TYR619  PRO620  LYS621  CYS622 
 ASP623  PHE694  ASN695  SER759  ASP760  ASP761  ALA762  ILE779  LEU786  VAL792 
 PHE793  MET794  SER795  GLU796  ALA797  LYS798  CYS799  TRP800  GLU811  SER814 

> <Gold.Protein.RotatedAtoms>
  151.3447  135.0871  159.9382 H   0  0  0  0  0  0  0  0  0  0  0  0  # atno 6907 bound_to 6896
  152.5202  133.9412  159.7637 H   0  0  0  0  0  0  0  0  0  0  0  0  # atno 6908 bound_to 6896
  150.9775  133.6226  159.2757 H   0  0  0  0  0  0  0  0  0  0  0  0  # atno 6909 bound_to 6896
  146.1261  140.5331  142.8714 H   0  0  0  0  0  0  0  0  0  0  0  0  # atno 7974 bound_to 7965
  154.9113  140.0410  157.1947 H   0  0  0  0  0  0  0  0  0  0  0  0  # atno 8008 bound_to 7997
  154.8346  140.2904  155.5678 H   0  0  0  0  0  0  0  0  0  0  0  0  # atno 8009 bound_to 7997
  156.2989  140.2494  156.3277 H   0  0  0  0  0  0  0  0  0  0  0  0  # atno 8010 bound_to 7997
  140.3289  143.3006  151.9964 H   0  0  0  0  0  0  0  0  0  0  0  0  # atno 10167 bound_to 10162
  156.0473  130.4306  150.2093 H   0  0  0  0  0  0  0  0  0  0  0  0  # atno 10718 bound_to 10713
  153.7298  135.3240  155.3283 H   0  0  0  0  0  0  0  0  0  0  0  0  # atno 10763 bound_to 10752
  154.8329  135.4519  154.1133 H   0  0  0  0  0  0  0  0  0  0  0  0  # atno 10764 bound_to 10752
  153.2277  135.6956  153.8006 H   0  0  0  0  0  0  0  0  0  0  0  0  # atno 10765 bound_to 10752
  141.1358  133.6639  156.5520 H   0  0  0  0  0  0  0  0  0  0  0  0  # atno 11005 bound_to 11000
  144.7644  140.5496  143.6713 LP  0  0  0  0  0  0  0  0  0  0  0  0  # atno 17320 bound_to 7965
  145.5361  139.1475  143.3472 LP  0  0  0  0  0  0  0  0  0  0  0  0  # atno 17321 bound_to 7965
  139.4860  144.6251  151.7180 LP  0  0  0  0  0  0  0  0  0  0  0  0  # atno 17342 bound_to 10162
  140.5415  144.0571  150.6090 LP  0  0  0  0  0  0  0  0  0  0  0  0  # atno 17343 bound_to 10162
  157.0181  130.9971  151.3347 LP  0  0  0  0  0  0  0  0  0  0  0  0  # atno 17370 bound_to 10713
  157.5363  130.8091  149.7976 LP  0  0  0  0  0  0  0  0  0  0  0  0  # atno 17371 bound_to 10713
  140.4056  134.7318  157.4806 LP  0  0  0  0  0  0  0  0  0  0  0  0  # atno 17394 bound_to 11000
  140.0464  134.6193  155.8916 LP  0  0  0  0  0  0  0  0  0  0  0  0  # atno 17395 bound_to 11000

$$$$
