#       Name:                AV-unprocessed.smi:2673
#       Creating user name   scv26
#       Creation time:       Fri Mar 27 14:38:13 2020


#       File generated by GOLD software.
#

@<TRIPOS>MOLECULE
AV-unprocessed.smi:2673
    36    37     1
SMALL
NO_CHARGES


@<TRIPOS>ATOM
      1 ****        -0.5183   2.0861  -0.3650 O.2            1 S1                 0.0000
      2 ****        -0.9347   0.9355  -0.4912 C.2            1 S1                 0.0000
      3 ****        -2.2325   0.5870  -0.5411 N.am           1 S1                 0.0000
      4 ****        -3.3746   1.4294  -0.4870 C.2            1 S1                 0.0000
      5 ****        -3.3114   2.7639  -0.3565 N.2            1 S1                 0.0000
      6 ****        -4.5731   3.3441  -0.3347 N.2            1 S1                 0.0000
      7 ****        -5.5368   2.4259  -0.4491 C.2            1 S1                 0.0000
      8 ****        -4.9973   0.7620  -0.5935 S.3            1 S1                 0.0000
      9 ****        -0.1473  -0.1482  -0.5946 N.am           1 S1                 0.0000
     10 ****         1.3232  -0.2409  -0.6096 C.3            1 S1                 0.0000
     11 ****         1.8779   0.3434  -1.9411 C.3            1 S1                 0.0000
     12 ****         3.1933   0.1403  -2.0279 F              1 S1                 0.0000
     13 ****         1.2965  -0.2508  -2.9848 F              1 S1                 0.0000
     14 ****         1.6663   1.6556  -2.0362 F              1 S1                 0.0000
     15 ****         1.9693   0.4652   0.6177 C.3            1 S1                 0.0000
     16 ****         1.5527  -0.1590   1.9621 C.3            1 S1                 0.0000
     17 ****         1.8882  -1.6566   2.0027 C.3            1 S1                 0.0000
     18 ****         1.2621  -2.3970   0.8125 C.3            1 S1                 0.0000
     19 ****         1.6711  -1.7522  -0.5265 C.3            1 S1                 0.0000
     20 ****        -2.4277  -0.3982  -0.6408 H              1 S1                 0.0000
     21 ****        -6.5727   2.7307  -0.4487 H              1 S1                 0.0000
     22 ****        -0.6236  -1.0326  -0.6918 H              1 S1                 0.0000
     23 ****         3.0548   0.4030   0.5339 H              1 S1                 0.0000
     24 ****         1.7473   1.5316   0.6249 H              1 S1                 0.0000
     25 ****         2.0605   0.3538   2.7794 H              1 S1                 0.0000
     26 ****         0.4847  -0.0140   2.1279 H              1 S1                 0.0000
     27 ****         2.9708  -1.7877   1.9841 H              1 S1                 0.0000
     28 ****         1.5399  -2.0924   2.9395 H              1 S1                 0.0000
     29 ****         1.5715  -3.4424   0.8268 H              1 S1                 0.0000
     30 ****         0.1761  -2.4004   0.9122 H              1 S1                 0.0000
     31 ****         1.1994  -2.2942  -1.3471 H              1 S1                 0.0000
     32 ****         2.7448  -1.8911  -0.6576 H              1 S1                 0.0000
     33 ****        -1.1639   2.8462  -0.2908 LP             1 S1                 0.0000
     34 ****         0.4658   2.2614  -0.3366 LP             1 S1                 0.0000
     35 ****        -2.4574   3.2791  -0.2836 LP             1 S1                 0.0000
     36 ****        -4.7394   4.3261  -0.2446 LP             1 S1                 0.0000
@<TRIPOS>BOND
    1    1    2 2     
    2    2    3 am    
    3    2    9 am    
    4    3    4 1     
    5    3   20 1     
    6    4    8 1     
    7    4    5 2     
    8    5    6 1     
    9    6    7 2     
   10    7    8 1     
   11    7   21 1     
   12    9   10 1     
   13    9   22 1     
   14   10   19 1     
   15   10   11 1     
   16   10   15 1     
   17   11   12 1     
   18   11   13 1     
   19   11   14 1     
   20   15   16 1     
   21   15   23 1     
   22   15   24 1     
   23   16   17 1     
   24   16   25 1     
   25   16   26 1     
   26   17   18 1     
   27   17   27 1     
   28   17   28 1     
   29   18   19 1     
   30   18   29 1     
   31   18   30 1     
   32   19   31 1     
   33   19   32 1     
   34    1   33 1     
   35    1   34 1     
   36    5   35 1     
   37    6   36 1     
@<TRIPOS>SUBSTRUCTURE
      1 S1             1
@<TRIPOS>SET
LONE_PAIRS      STATIC     ATOMS    <user>   **** ""
4 33 34 35 36
DONOR_HYDROGENS      STATIC     ATOMS    <user>   **** ""
2 20 22
ATOM$BLUE        STATIC     ATOMS    COLORGROUP SYSTEM
4 33 34 35 36
ATOM$RED        STATIC     ATOMS    COLORGROUP SYSTEM
2 20 22
