#       Name:                AV-unprocessed.smi:213
#       Creating user name   scv26
#       Creation time:       Thu Mar 26 19:59:31 2020


#       File generated by GOLD software.
#

@<TRIPOS>MOLECULE
AV-unprocessed.smi:213
    68    71     1
SMALL
NO_CHARGES


@<TRIPOS>ATOM
      1 ****        -4.8479   0.8931  -0.9894 C.3            1 S1                 0.0000
      2 ****        -3.6456   0.7600  -0.0409 C.3            1 S1                 0.0000
      3 ****        -4.1026   0.5288   1.4198 C.3            1 S1                 0.0000
      4 ****        -2.9679   0.3433   2.3595 N.4            1 S1                 1.0000
      5 ****        -3.3245   0.6308   3.7675 C.3            1 S1                 0.0000
      6 ****        -2.0793   0.5122   4.6629 C.3            1 S1                 0.0000
      7 ****        -1.5114  -0.7848   4.5250 O.3            1 S1                 0.0000
      8 ****        -1.0937  -1.0461   3.1906 C.3            1 S1                 0.0000
      9 ****        -2.3080  -0.9807   2.2500 C.3            1 S1                 0.0000
     10 ****        -2.7280   1.9020  -0.1716 N.pl3          1 S1                 0.0000
     11 ****        -3.1867   3.2426   0.1916 C.3            1 S1                 0.0000
     12 ****        -1.4047   1.6402  -0.0035 C.ar           1 S1                 0.0000
     13 ****        -0.7167   2.2863   0.9766 N.ar           1 S1                 0.0000
     14 ****         0.5745   2.0159   1.1879 C.ar           1 S1                 0.0000
     15 ****         1.3583   1.1455   0.5501 N.ar           1 S1                 0.0000
     16 ****         0.6790   0.5008  -0.4405 C.ar           1 S1                 0.0000
     17 ****        -0.6903   0.6863  -0.7831 C.ar           1 S1                 0.0000
     18 ****        -1.0254  -0.1414  -1.8485 N.2            1 S1                 0.0000
     19 ****         0.0797  -0.7813  -2.1178 C.2            1 S1                 0.0000
     20 ****         1.1531  -0.4551  -1.3212 N.pl3          1 S1                 0.0000
     21 ****         2.4941  -1.0058  -1.4081 C.3            1 S1                 0.0000
     22 ****         3.3408  -0.3107  -2.4955 C.3            1 S1                 0.0000
     23 ****         3.4676   1.0700  -2.2184 O.3            1 S1                 0.0000
     24 ****         4.7503  -0.9086  -2.6874 C.3            1 S1                 0.0000
     25 ****         4.7769  -2.2295  -3.4588 C.3            1 S1                 0.0000
     26 ****         6.0601  -2.8968  -2.9868 C.3            1 S1                 0.0000
     27 ****         6.4686  -2.0936  -1.7488 C.3            1 S1                 0.0000
     28 ****         5.3472  -1.2740  -1.4520 O.3            1 S1                 0.0000
     29 ****        -5.4569  -0.0111  -0.9711 H              1 S1                 0.0000
     30 ****        -4.5195   1.0441  -2.0183 H              1 S1                 0.0000
     31 ****        -5.4961   1.7258  -0.7171 H              1 S1                 0.0000
     32 ****        -3.1305  -0.1433  -0.3606 H              1 S1                 0.0000
     33 ****        -4.6954   1.3874   1.7388 H              1 S1                 0.0000
     34 ****        -4.7672  -0.3344   1.4813 H              1 S1                 0.0000
     35 ****        -3.7375   1.6370   3.8479 H              1 S1                 0.0000
     36 ****        -4.0976  -0.0635   4.1005 H              1 S1                 0.0000
     37 ****        -1.3411   1.2738   4.4056 H              1 S1                 0.0000
     38 ****        -2.3506   0.6705   5.7069 H              1 S1                 0.0000
     39 ****        -0.3276  -0.3303   2.8883 H              1 S1                 0.0000
     40 ****        -0.6384  -2.0355   3.1487 H              1 S1                 0.0000
     41 ****        -3.0198  -1.7683   2.5021 H              1 S1                 0.0000
     42 ****        -1.9788  -1.1629   1.2276 H              1 S1                 0.0000
     43 ****        -2.4923   4.0011  -0.1722 H              1 S1                 0.0000
     44 ****        -3.2709   3.3465   1.2737 H              1 S1                 0.0000
     45 ****        -4.1596   3.4600  -0.2467 H              1 S1                 0.0000
     46 ****         1.0459   2.5726   1.9846 H              1 S1                 0.0000
     47 ****         0.1447  -1.5102  -2.9127 H              1 S1                 0.0000
     48 ****         2.9712  -0.9169  -0.4313 H              1 S1                 0.0000
     49 ****         2.4065  -2.0726  -1.6136 H              1 S1                 0.0000
     50 ****         2.8139  -0.3765  -3.4483 H              1 S1                 0.0000
     51 ****         2.6025   1.4406  -2.1339 H              1 S1                 0.0000
     52 ****         5.3989  -0.1945  -3.1997 H              1 S1                 0.0000
     53 ****         3.9254  -2.8539  -3.1877 H              1 S1                 0.0000
     54 ****         4.7499  -2.0823  -4.5390 H              1 S1                 0.0000
     55 ****         5.8851  -3.9456  -2.7453 H              1 S1                 0.0000
     56 ****         6.8397  -2.8536  -3.7481 H              1 S1                 0.0000
     57 ****         6.7258  -2.7300  -0.9018 H              1 S1                 0.0000
     58 ****         7.3278  -1.4590  -1.9705 H              1 S1                 0.0000
     59 ****        -2.2773   1.0353   2.1033 H              1 S1                 0.0000
     60 ****        -2.1947  -1.4658   4.7883 LP             1 S1                 0.0000
     61 ****        -0.7190  -0.8561   5.1309 LP             1 S1                 0.0000
     62 ****        -1.1805   2.9680   1.5424 LP             1 S1                 0.0000
     63 ****         2.3207   0.9863   0.7702 LP             1 S1                 0.0000
     64 ****        -1.9112  -0.2270  -2.3046 LP             1 S1                 0.0000
     65 ****         3.9557   1.5204  -2.9660 LP             1 S1                 0.0000
     66 ****         3.9737   1.1975  -1.3654 LP             1 S1                 0.0000
     67 ****         4.6918  -1.7810  -0.8923 LP             1 S1                 0.0000
     68 ****         5.6428  -0.4553  -0.9597 LP             1 S1                 0.0000
@<TRIPOS>BOND
    1    1    2 1     
    2    1   29 1     
    3    1   30 1     
    4    1   31 1     
    5    2    3 1     
    6    2   10 1     
    7    2   32 1     
    8    3    4 1     
    9    3   33 1     
   10    3   34 1     
   11    4    9 1     
   12    4    5 1     
   13    4   59 1     
   14    5    6 1     
   15    5   35 1     
   16    5   36 1     
   17    6    7 1     
   18    6   37 1     
   19    6   38 1     
   20    7    8 1     
   21    8    9 1     
   22    8   39 1     
   23    8   40 1     
   24    9   41 1     
   25    9   42 1     
   26   10   11 1     
   27   10   12 1     
   28   11   43 1     
   29   11   44 1     
   30   11   45 1     
   31   12   17 ar    
   32   12   13 ar    
   33   13   14 ar    
   34   14   15 ar    
   35   14   46 1     
   36   15   16 ar    
   37   16   20 1     
   38   16   17 ar    
   39   17   18 1     
   40   18   19 2     
   41   19   20 1     
   42   19   47 1     
   43   20   21 1     
   44   21   22 1     
   45   21   48 1     
   46   21   49 1     
   47   22   23 1     
   48   22   24 1     
   49   22   50 1     
   50   23   51 1     
   51   24   28 1     
   52   24   25 1     
   53   24   52 1     
   54   25   26 1     
   55   25   53 1     
   56   25   54 1     
   57   26   27 1     
   58   26   55 1     
   59   26   56 1     
   60   27   28 1     
   61   27   57 1     
   62   27   58 1     
   63    7   60 1     
   64    7   61 1     
   65   13   62 1     
   66   15   63 1     
   67   18   64 1     
   68   23   65 1     
   69   23   66 1     
   70   28   67 1     
   71   28   68 1     
@<TRIPOS>SUBSTRUCTURE
      1 S1             1
@<TRIPOS>SET
LONE_PAIRS      STATIC     ATOMS    <user>   **** ""
9 60 61 62 63 64 65 66 67 68
DONOR_HYDROGENS      STATIC     ATOMS    <user>   **** ""
2 59 51
ATOM$BLUE        STATIC     ATOMS    COLORGROUP SYSTEM
9 60 61 62 63 64 65 66 67 68
ATOM$RED        STATIC     ATOMS    COLORGROUP SYSTEM
2 59 51
