#       Name:                AV-unprocessed.smi:1434
#       Creating user name   scv26
#       Creation time:       Fri Mar 27 05:52:44 2020


#       File generated by GOLD software.
#

@<TRIPOS>MOLECULE
AV-unprocessed.smi:1434
    47    48     1
SMALL
NO_CHARGES


@<TRIPOS>ATOM
      1 ****        -4.9017   5.1883  -1.7072 C.3            1 S1                 0.0000
      2 ****        -4.3418   3.4587  -1.9675 S.o2           1 S1                 0.0000
      3 ****        -5.5667   2.6448  -2.0247 O.2            1 S1                 0.0000
      4 ****        -3.4985   3.4907  -3.1734 O.2            1 S1                 0.0000
      5 ****        -3.4902   3.2146  -0.6087 N.pl3          1 S1                -1.0000
      6 ****        -2.7464   1.9758  -0.4298 C.3            1 S1                 0.0000
      7 ****        -3.6871   0.8134  -0.0134 C.3            1 S1                 0.0000
      8 ****        -2.9298  -0.4632   0.4409 C.3            1 S1                 0.0000
      9 ****        -1.8462  -0.1647   1.5016 C.3            1 S1                 0.0000
     10 ****        -0.9619   0.8862   0.9491 N.am           1 S1                 0.0000
     11 ****         0.3681   0.7512   0.7009 C.2            1 S1                 0.0000
     12 ****         1.0944   1.6879   0.3654 O.2            1 S1                 0.0000
     13 ****         0.8364  -0.5039   0.7998 N.am           1 S1                 0.0000
     14 ****         2.2146  -0.8939   0.5357 C.3            1 S1                 0.0000
     15 ****         2.3548  -2.4218   0.5241 C.3            1 S1                 0.0000
     16 ****         3.7775  -2.8627   0.2386 C.ar           1 S1                 0.0000
     17 ****         4.1917  -3.2774  -1.0459 C.ar           1 S1                 0.0000
     18 ****         5.5330  -3.6655  -1.2454 C.ar           1 S1                 0.0000
     19 ****         6.4310  -3.6298  -0.1585 C.ar           1 S1                 0.0000
     20 ****         5.9644  -3.2057   1.1024 C.ar           1 S1                 0.0000
     21 ****         4.6719  -2.8418   1.2536 N.pl3          1 S1                 1.0000
     22 ****        -1.6802   2.1551   0.6864 C.3            1 S1                 0.0000
     23 ****        -5.5037   5.5039  -2.5585 H              1 S1                 0.0000
     24 ****        -4.0336   5.8405  -1.6144 H              1 S1                 0.0000
     25 ****        -5.4995   5.2444  -0.7980 H              1 S1                 0.0000
     26 ****        -2.2240   1.6875  -1.3431 H              1 S1                 0.0000
     27 ****        -4.3232   1.1442   0.8091 H              1 S1                 0.0000
     28 ****        -4.3595   0.5598  -0.8330 H              1 S1                 0.0000
     29 ****        -3.6429  -1.1853   0.8393 H              1 S1                 0.0000
     30 ****        -2.4661  -0.9463  -0.4215 H              1 S1                 0.0000
     31 ****        -2.3117   0.2093   2.4146 H              1 S1                 0.0000
     32 ****        -1.3392  -1.0862   1.7865 H              1 S1                 0.0000
     33 ****         0.1883  -1.2329   1.0604 H              1 S1                 0.0000
     34 ****         2.5317  -0.4870  -0.4260 H              1 S1                 0.0000
     35 ****         2.8603  -0.4588   1.2999 H              1 S1                 0.0000
     36 ****         2.0418  -2.8351   1.4839 H              1 S1                 0.0000
     37 ****         1.6914  -2.8514  -0.2281 H              1 S1                 0.0000
     38 ****         3.4931  -3.2957  -1.8700 H              1 S1                 0.0000
     39 ****         5.8693  -3.9853  -2.2209 H              1 S1                 0.0000
     40 ****         7.4627  -3.9220  -0.2906 H              1 S1                 0.0000
     41 ****         6.5809  -3.1458   1.9874 H              1 S1                 0.0000
     42 ****        -1.0031   2.9654   0.4113 H              1 S1                 0.0000
     43 ****        -2.1576   2.4781   1.6132 H              1 S1                 0.0000
     44 ****         4.3568  -2.5362   2.1747 H              1 S1                 0.0000
     45 ****        -3.4762   3.9143   0.1055 LP             1 S1                 0.0000
     46 ****         0.7113   2.6058   0.2629 LP             1 S1                 0.0000
     47 ****         2.0672   1.5303   0.1955 LP             1 S1                 0.0000
@<TRIPOS>BOND
    1    1    2 1     
    2    1   23 1     
    3    1   24 1     
    4    1   25 1     
    5    2    3 2     
    6    2    4 2     
    7    2    5 1     
    8    5    6 1     
    9    6   22 1     
   10    6    7 1     
   11    6   26 1     
   12    7    8 1     
   13    7   27 1     
   14    7   28 1     
   15    8    9 1     
   16    8   29 1     
   17    8   30 1     
   18    9   10 1     
   19    9   31 1     
   20    9   32 1     
   21   10   11 am    
   22   10   22 1     
   23   11   12 2     
   24   11   13 am    
   25   13   14 1     
   26   13   33 1     
   27   14   15 1     
   28   14   34 1     
   29   14   35 1     
   30   15   16 1     
   31   15   36 1     
   32   15   37 1     
   33   16   21 ar    
   34   16   17 ar    
   35   17   18 ar    
   36   17   38 1     
   37   18   19 ar    
   38   18   39 1     
   39   19   20 ar    
   40   19   40 1     
   41   20   21 ar    
   42   20   41 1     
   43   21   44 1     
   44   22   42 1     
   45   22   43 1     
   46    5   45 1     
   47   12   46 1     
   48   12   47 1     
@<TRIPOS>SUBSTRUCTURE
      1 S1             1
@<TRIPOS>SET
LONE_PAIRS      STATIC     ATOMS    <user>   **** ""
5 3 4 45 46 47
DONOR_HYDROGENS      STATIC     ATOMS    <user>   **** ""
2 33 44
ATOM$BLUE        STATIC     ATOMS    COLORGROUP SYSTEM
5 3 4 45 46 47
ATOM$RED        STATIC     ATOMS    COLORGROUP SYSTEM
2 33 44
