AV-unprocessed.smi:3301|AV-procd|sdf|12654|dock7
  -GOLD-   2272018593D 1   1.00000     0.00000
 Structure written by MMmdl.
 36 37  0  0  0  0  0  0  0  0  1 V2000
  145.6224  129.4994  151.7025 C   0  0  0  0  0  0  0  0  0  0  0  0
  145.4479  131.0007  151.9678 C   0  0  2  0  0  0  0  0  0  0  0  0
  144.6181  131.6751  150.8540 C   0  0  0  0  0  0  0  0  0  0  0  0
  144.3560  133.0782  151.1191 N   0  0  0  0  0  0  0  0  0  0  0  0
  144.7801  134.1666  150.3682 C   0  0  0  0  0  0  0  0  0  0  0  0
  144.3114  135.2920  151.0070 C   0  0  0  0  0  0  0  0  0  0  0  0
  143.5898  134.9221  152.1395 N   0  0  0  0  0  0  0  0  0  0  0  0
  143.6573  133.5969  152.1383 C   0  0  0  0  0  0  0  0  0  0  0  0
  146.7680  131.6205  152.0813 N   0  0  0  0  0  0  0  0  0  0  0  0
  147.1777  132.4086  153.0878 C   0  0  0  0  0  0  0  0  0  0  0  0
  146.4836  132.6672  154.0718 O   0  0  0  0  0  0  0  0  0  0  0  0
  148.5929  132.9842  152.9660 C   0  0  0  0  0  0  0  0  0  0  0  0
  149.4055  132.7055  154.1499 N   0  0  0  0  0  0  0  0  0  0  0  0
  149.8842  133.7859  154.9963 C   0  0  0  0  0  0  0  0  0  0  0  0
  150.8967  133.1283  155.9447 C   0  0  0  0  0  0  0  0  0  0  0  0
  150.6667  131.6183  155.8179 C   0  0  0  0  0  0  0  0  0  0  0  0
  149.8010  131.4992  154.5755 C   0  0  0  0  0  0  0  0  0  0  0  0
  149.5220  130.4193  154.0566 O   0  0  0  0  0  0  0  0  0  0  0  0
  144.6564  128.9968  151.6467 H   0  0  0  0  0  0  0  0  0  0  0  0
  146.1940  129.0232  152.4999 H   0  0  0  0  0  0  0  0  0  0  0  0
  146.1457  129.3191  150.7629 H   0  0  0  0  0  0  0  0  0  0  0  0
  144.9100  131.0983  152.9126 H   0  0  0  0  0  0  0  0  0  0  0  0
  145.1258  131.5885  149.8922 H   0  0  0  0  0  0  0  0  0  0  0  0
  143.6567  131.1717  150.7452 H   0  0  0  0  0  0  0  0  0  0  0  0
  145.3747  134.0552  149.4735 H   0  0  0  0  0  0  0  0  0  0  0  0
  144.4369  136.3310  150.7403 H   0  0  0  0  0  0  0  0  0  0  0  0
  143.1949  132.9891  152.9019 H   0  0  0  0  0  0  0  0  0  0  0  0
  147.4107  131.4590  151.3193 H   0  0  0  0  0  0  0  0  0  0  0  0
  149.0698  132.5546  152.0841 H   0  0  0  0  0  0  0  0  0  0  0  0
  148.5485  134.0623  152.8010 H   0  0  0  0  0  0  0  0  0  0  0  0
  150.3404  134.5827  154.4073 H   0  0  0  0  0  0  0  0  0  0  0  0
  149.0445  134.2073  155.5505 H   0  0  0  0  0  0  0  0  0  0  0  0
  151.9133  133.3740  155.6343 H   0  0  0  0  0  0  0  0  0  0  0  0
  150.7741  133.4764  156.9708 H   0  0  0  0  0  0  0  0  0  0  0  0
  151.6006  131.0663  155.7072 H   0  0  0  0  0  0  0  0  0  0  0  0
  150.1241  131.2238  156.6776 H   0  0  0  0  0  0  0  0  0  0  0  0
  1  2  1  0  0  0  0
  1 19  1  0  0  0  0
  1 20  1  0  0  0  0
  1 21  1  0  0  0  0
  2  3  1  0  0  0  0
  2  9  1  0  0  0  0
  2 22  1  0  0  0  0
  3  4  1  0  0  0  0
  3 23  1  0  0  0  0
  3 24  1  0  0  0  0
  4  8  1  0  0  0  0
  4  5  1  0  0  0  0
  5  6  2  0  0  0  0
  5 25  1  0  0  0  0
  6  7  1  0  0  0  0
  6 26  1  0  0  0  0
  7  8  2  0  0  0  0
  8 27  1  0  0  0  0
  9 10  1  0  0  0  0
  9 28  1  0  0  0  0
 10 11  2  0  0  0  0
 10 12  1  0  0  0  0
 12 13  1  0  0  0  0
 12 29  1  0  0  0  0
 12 30  1  0  0  0  0
 13 17  1  0  0  0  0
 13 14  1  0  0  0  0
 14 15  1  0  0  0  0
 14 31  1  0  0  0  0
 14 32  1  0  0  0  0
 15 16  1  0  0  0  0
 15 33  1  0  0  0  0
 15 34  1  0  0  0  0
 16 17  1  0  0  0  0
 16 35  1  0  0  0  0
 16 36  1  0  0  0  0
 17 18  2  0  0  0  0
M  END
> <s_m_source_file>
AV-unprocessed.smi

> <i_m_source_file_index>
3301

> <i_lp_mmshare_version>
43012

> <i_f3d_flags>
0

> <s_epik_input>
W2NIXTFuW2NIXVtjSF1uMVtDSDJdW0NAQEhdKFtDSDNdKVtOSF1DKD1PKVtDSDJdTjJbQ0gyXVtDSDJdW0NIMl1DMj1P

> <s_epik_cmdline>
J2VwaWtfcHl0aG9uJywgJy1waCcsICc3LjAnLCAnLXRuJywgJzgnLCAnLW1hJywgJzIwMCcsICctbWV0YWxfYmluZGluZycsICctaW1hZScsICc8aW5maWxlLm1hZT4nLCAnLW9tYWUnLCAnPG91dGZpbGUubWFlPic=

> <r_lp_tautomer_probability>
1

> <r_epik_Ionization_Penalty>
0.623868

> <r_epik_Ionization_Penalty_Charging>
0.623868

> <r_epik_Ionization_Penalty_Neutral>
4.45089e-08

> <r_epik_State_Penalty>
0.640129

> <r_epik_Charging_Adjusted_Penalty>
1.264

> <i_epik_Tot_Q>
0

> <i_epik_Tot_abs_Q>
0

> <r_epik_Metal_State_Penalty>
0.307431

> <b_epik_Metal_Only>
0

> <s_lp_Force_Field>
OPLS_2005

> <r_lp_Energy>
13.1823

> <b_lp_Chiralities_Consistent>
1

> <s_lp_Variant>
AV-unprocessed.smi:3301-3

> <Gold.Version>
5.8.1

> <Gold.Id.Protein>
6NUR|6NUR_protein|mol2

> <Gold.PLP.Fitness>
47.4910

> <Gold.PLP.PLP>
-35.8147

> <Gold.PLP.part.hbond>
-1.0000

> <Gold.PLP.part.metal>
0.0000

> <Gold.PLP.part.buried>
-4.4339

> <Gold.PLP.part.nonpolar>
-30.7344

> <Gold.PLP.part.repulsive>
0.3515

> <Gold.PLP.ligand.clash>
0.0000

> <Gold.PLP.ligand.torsion>
0.1804

> <Gold.PLP.Chemscore.Hbond>
1.0000

> <Gold.PLP.Chemscore.CHOScore>
3.0000

> <Gold.PLP.Chemscore.Metal>
0.0000

> <Gold.Chemscore.Hbonds>
donor molecule, donor type, donor heavy atom, donor atom, acceptor molecule, acceptor atom, score
      L1  H     9    28       P1 10747  1.00
      L1  C     5    25       P1  7921  1.00
      L1  C     6    26       P1 10171  1.00
      L1  C     8    27       P1 10957  1.00

> <Gold.PLP.Chemscore.Internal.Correction>
0.0372

> <Gold.Rescore>
     Score         DG    S(hbond)    S(metal)    S(lipo)     H(rot)  DE(clash)    DE(int)     intcor
     10.52     -10.83       1.00        0.00      66.76       2.26       0.02       0.29       ----

> <Gold.Chemscore.Fitness>
10.5249

> <Gold.Chemscore.DG>
-10.8327

> <Gold.Chemscore.ZeroCoef>
-5.4800

> <Gold.Chemscore.Hbond>
0.9998

> <Gold.Chemscore.Metal>
0.0000

> <Gold.Chemscore.Lipo>
66.7598

> <Gold.Chemscore.Internal_Hbond>
0.0000

> <Gold.Chemscore.DEClash>
0.0214

> <Gold.Chemscore.DEInternal>
0.2863

> <Gold.Chemscore.Rot>
2.2647

> <Gold.Chemscore.Internal.Correction>
   9.000000E+99

> <Gold.Chemscore.Hbonds>
donor molecule, donor type, donor heavy atom, donor atom, acceptor molecule, acceptor atom, score
      L1  H     9    28       P1 10747  0.98

> <Gold.Chemscore.Hbond.Weighted>
-3.3393

> <Gold.Chemscore.Metal.Weighted>
-0.0000

> <Gold.Chemscore.Lipo.Weighted>
-7.8109

> <Gold.Chemscore.Internal_Hbond.Weighted>
0.0000

> <Gold.Chemscore.DEClash.Weighted>
0.0214

> <Gold.Chemscore.DEInternal.Weighted>
0.2863

> <Gold.Chemscore.Rot.Weighted>
5.7975

> <Gold.Chemscore.Internal.Correction.Weighted>
   9.000000E+99

> <Gold.Protein.RotatedTorsions>
[ 6907 6896 6895 6894 ] final  -56.19 input  -60.11 | X-H torsion
[ 7974 7965 7964 7962 ] final -136.11 input  175.53 | X-H torsion
[ 8008 7997 7996 7995 ] final   -8.05 input   59.86 | X-H torsion
[ 10167 10162 10161 10158 ] final   -7.31 input  -65.29 | X-H torsion
[ 10718 10713 10712 10709 ] final  -73.58 input   66.30 | X-H torsion
[ 10763 10752 10751 10750 ] final   15.41 input  -60.55 | X-H torsion
[ 11005 11000 10999 10996 ] final   71.91 input  -57.11 | X-H torsion

> <Gold.Protein.ActiveResidues>
 VAL166  LYS551  ARG553  GLY616  TRP617  ASP618  TYR619  PRO620  LYS621  CYS622 
 ASP623  PHE694  ASN695  SER759  ASP760  ASP761  ALA762  ILE779  LEU786  VAL792 
 PHE793  MET794  SER795  GLU796  ALA797  LYS798  CYS799  TRP800  GLU811  SER814 

> <Gold.Protein.RotatedAtoms>
  150.8188  134.7385  159.6753 H   0  0  0  0  0  0  0  0  0  0  0  0  # atno 6907 bound_to 6896
  152.4305  134.5783  159.9950 H   0  0  0  0  0  0  0  0  0  0  0  0  # atno 6908 bound_to 6896
  151.5973  133.3323  159.3076 H   0  0  0  0  0  0  0  0  0  0  0  0  # atno 6909 bound_to 6896
  144.8955  140.6701  143.5118 H   0  0  0  0  0  0  0  0  0  0  0  0  # atno 7974 bound_to 7965
  154.5779  140.2391  155.8096 H   0  0  0  0  0  0  0  0  0  0  0  0  # atno 8008 bound_to 7997
  156.2157  140.3013  155.9791 H   0  0  0  0  0  0  0  0  0  0  0  0  # atno 8009 bound_to 7997
  155.2594  140.0414  157.2986 H   0  0  0  0  0  0  0  0  0  0  0  0  # atno 8010 bound_to 7997
  140.7025  143.6095  150.8718 H   0  0  0  0  0  0  0  0  0  0  0  0  # atno 10167 bound_to 10162
  156.0275  130.4397  150.2763 H   0  0  0  0  0  0  0  0  0  0  0  0  # atno 10718 bound_to 10713
  153.1528  135.6781  153.8857 H   0  0  0  0  0  0  0  0  0  0  0  0  # atno 10763 bound_to 10752
  153.8278  135.3121  155.3417 H   0  0  0  0  0  0  0  0  0  0  0  0  # atno 10764 bound_to 10752
  154.7875  135.4854  154.0065 H   0  0  0  0  0  0  0  0  0  0  0  0  # atno 10765 bound_to 10752
  139.9518  134.7213  156.0844 H   0  0  0  0  0  0  0  0  0  0  0  0  # atno 11005 bound_to 11000
  145.3707  139.1659  143.4333 LP  0  0  0  0  0  0  0  0  0  0  0  0  # atno 17320 bound_to 7965
  146.3079  140.3779  142.8681 LP  0  0  0  0  0  0  0  0  0  0  0  0  # atno 17321 bound_to 7965
  139.9818  143.5942  152.2940 LP  0  0  0  0  0  0  0  0  0  0  0  0  # atno 17342 bound_to 10162
  139.6566  144.7662  151.2043 LP  0  0  0  0  0  0  0  0  0  0  0  0  # atno 17343 bound_to 10162
  157.0866  131.0158  151.3137 LP  0  0  0  0  0  0  0  0  0  0  0  0  # atno 17370 bound_to 10713
  157.4886  130.7808  149.7485 LP  0  0  0  0  0  0  0  0  0  0  0  0  # atno 17371 bound_to 10713
  141.1182  133.6621  156.3148 LP  0  0  0  0  0  0  0  0  0  0  0  0  # atno 17394 bound_to 11000
  140.5701  134.5849  157.5455 LP  0  0  0  0  0  0  0  0  0  0  0  0  # atno 17395 bound_to 11000

$$$$
