#       Name:                AV-unprocessed.smi:1897
#       Creating user name   scv26
#       Creation time:       Fri Mar 27 09:42:45 2020


#       File generated by GOLD software.
#

@<TRIPOS>MOLECULE
AV-unprocessed.smi:1897
    43    45     1
SMALL
NO_CHARGES


@<TRIPOS>ATOM
      1 ****         0.1526   7.5013   3.6030 C.3            1 S1                 0.0000
      2 ****         0.4526   6.2287   2.8873 C.2            1 S1                 0.0000
      3 ****         1.6534   5.6401   2.9333 N.2            1 S1                 0.0000
      4 ****         1.6933   4.4687   2.1912 N.2            1 S1                 0.0000
      5 ****         0.5157   4.2004   1.6083 C.2            1 S1                 0.0000
      6 ****         0.2600   3.0693   0.7783 N.am           1 S1                 0.0000
      7 ****         1.0354   2.0238   0.4191 C.2            1 S1                 0.0000
      8 ****         2.1929   1.9257   0.8224 O.2            1 S1                 0.0000
      9 ****         0.4729   1.1137  -0.3927 N.am           1 S1                 0.0000
     10 ****         1.1188  -0.0952  -0.8932 C.3            1 S1                 0.0000
     11 ****         0.5588  -0.5512  -2.2523 C.3            1 S1                 0.0000
     12 ****         0.5258  -2.0909  -2.1853 C.3            1 S1                 0.0000
     13 ****         1.1388  -2.4394  -0.8893 N.4            1 S1                 1.0000
     14 ****         0.7714  -3.7449  -0.2987 C.3            1 S1                 0.0000
     15 ****         1.5743  -3.9597   1.0000 C.3            1 S1                 0.0000
     16 ****         1.4134  -2.7745   1.9737 C.3            1 S1                 0.0000
     17 ****         1.7191  -1.4348   1.2763 C.3            1 S1                 0.0000
     18 ****         0.8604  -1.3065   0.0065 C.3            1 S1                 0.0000
     19 ****        -0.7470   5.3803   1.9197 S.3            1 S1                 0.0000
     20 ****         1.0079   8.1757   3.5523 H              1 S1                 0.0000
     21 ****        -0.0717   7.2963   4.6498 H              1 S1                 0.0000
     22 ****        -0.7070   7.9966   3.1508 H              1 S1                 0.0000
     23 ****        -0.6619   3.0613   0.3661 H              1 S1                 0.0000
     24 ****        -0.4829   1.2721  -0.6797 H              1 S1                 0.0000
     25 ****         2.1949   0.0586  -0.9992 H              1 S1                 0.0000
     26 ****        -0.4501  -0.1689  -2.4164 H              1 S1                 0.0000
     27 ****         1.1812  -0.1936  -3.0734 H              1 S1                 0.0000
     28 ****        -0.5061  -2.4440  -2.2204 H              1 S1                 0.0000
     29 ****         1.0708  -2.5547  -3.0078 H              1 S1                 0.0000
     30 ****        -0.3001  -3.7729  -0.0945 H              1 S1                 0.0000
     31 ****         0.9866  -4.5426  -1.0104 H              1 S1                 0.0000
     32 ****         1.2625  -4.8858   1.4840 H              1 S1                 0.0000
     33 ****         2.6303  -4.0817   0.7547 H              1 S1                 0.0000
     34 ****         0.3926  -2.7580   2.3579 H              1 S1                 0.0000
     35 ****         2.0661  -2.9062   2.8373 H              1 S1                 0.0000
     36 ****         1.5169  -0.6085   1.9579 H              1 S1                 0.0000
     37 ****         2.7784  -1.3804   1.0220 H              1 S1                 0.0000
     38 ****        -0.1975  -1.3309   0.2795 H              1 S1                 0.0000
     39 ****         2.1380  -2.4460  -1.0370 H              1 S1                 0.0000
     40 ****         2.4328   6.0030   3.4441 LP             1 S1                 0.0000
     41 ****         2.5052   3.8919   2.1013 LP             1 S1                 0.0000
     42 ****         2.5733   2.6266   1.4258 LP             1 S1                 0.0000
     43 ****         2.7539   1.1451   0.5470 LP             1 S1                 0.0000
@<TRIPOS>BOND
    1    1    2 1     
    2    1   20 1     
    3    1   21 1     
    4    1   22 1     
    5    2   19 1     
    6    2    3 2     
    7    3    4 1     
    8    4    5 2     
    9    5    6 1     
   10    5   19 1     
   11    6    7 am    
   12    6   23 1     
   13    7    8 2     
   14    7    9 am    
   15    9   10 1     
   16    9   24 1     
   17   10   18 1     
   18   10   11 1     
   19   10   25 1     
   20   11   12 1     
   21   11   26 1     
   22   11   27 1     
   23   12   13 1     
   24   12   28 1     
   25   12   29 1     
   26   13   18 1     
   27   13   14 1     
   28   13   39 1     
   29   14   15 1     
   30   14   30 1     
   31   14   31 1     
   32   15   16 1     
   33   15   32 1     
   34   15   33 1     
   35   16   17 1     
   36   16   34 1     
   37   16   35 1     
   38   17   18 1     
   39   17   36 1     
   40   17   37 1     
   41   18   38 1     
   42    3   40 1     
   43    4   41 1     
   44    8   42 1     
   45    8   43 1     
@<TRIPOS>SUBSTRUCTURE
      1 S1             1
@<TRIPOS>SET
LONE_PAIRS      STATIC     ATOMS    <user>   **** ""
4 40 41 42 43
DONOR_HYDROGENS      STATIC     ATOMS    <user>   **** ""
3 23 24 39
ATOM$BLUE        STATIC     ATOMS    COLORGROUP SYSTEM
4 40 41 42 43
ATOM$RED        STATIC     ATOMS    COLORGROUP SYSTEM
3 23 24 39
