AV-unprocessed.smi:398|AV-procd|sdf|2489|dock7
  -GOLD-   2262022433D 1   1.00000     0.00000
 Structure written by MMmdl.
 34 36  0  0  0  0  0  0  0  0  1 V2000
  151.5274  136.3719  154.8912 N   0  0  0  0  0  0  0  0  0  0  0  0
  150.8639  137.3168  154.8111 C   0  0  0  0  0  0  0  0  0  0  0  0
  150.0419  138.4744  154.6841 C   0  0  0  0  0  0  0  0  0  0  0  0
  148.8254  138.4229  154.1034 C   0  0  0  0  0  0  0  0  0  0  0  0
  148.0149  139.5306  153.9813 N   0  0  0  0  0  0  0  0  0  0  0  0
  146.7974  139.4897  153.2214 C   0  0  0  0  0  0  0  0  0  0  0  0
  146.2187  138.1582  152.7838 C   0  0  0  0  0  0  0  0  0  0  0  0
  146.8500  139.0764  151.7665 C   0  0  0  0  0  0  0  0  0  0  0  0
  148.4769  140.7977  154.3992 C   0  0  0  0  0  0  0  0  0  0  0  0
  147.8068  141.8157  154.2085 O   0  0  0  0  0  0  0  0  0  0  0  0
  149.7412  140.8660  155.0334 N   0  0  0  0  0  0  0  0  0  0  0  0
  150.2359  142.1824  155.4933 C   0  0  0  0  0  0  0  0  0  0  0  0
  150.6148  142.2108  156.9825 C   0  0  0  0  0  0  0  0  0  0  0  0
  150.4946  141.2071  157.6872 O   0  0  0  0  0  0  0  0  0  0  0  0
  151.0796  143.3815  157.4420 N   0  0  0  0  0  0  0  0  0  0  0  0
  151.4890  143.6417  158.7842 C   0  0  0  0  0  0  0  0  0  0  0  0
  152.0662  145.0070  159.0895 C   0  0  0  0  0  0  0  0  0  0  0  0
  152.9702  143.8061  159.0488 C   0  0  0  0  0  0  0  0  0  0  0  0
  150.5743  139.7311  155.2055 C   0  0  0  0  0  0  0  0  0  0  0  0
  151.6754  139.8289  155.7502 O   0  0  0  0  0  0  0  0  0  0  0  0
  148.4679  137.4765  153.7233 H   0  0  0  0  0  0  0  0  0  0  0  0
  146.0718  140.2632  153.4666 H   0  0  0  0  0  0  0  0  0  0  0  0
  146.7635  137.2509  153.0382 H   0  0  0  0  0  0  0  0  0  0  0  0
  145.1349  138.0624  152.7727 H   0  0  0  0  0  0  0  0  0  0  0  0
  146.1860  139.5910  151.0749 H   0  0  0  0  0  0  0  0  0  0  0  0
  147.8102  138.7747  151.3523 H   0  0  0  0  0  0  0  0  0  0  0  0
  151.1035  142.5014  154.9136 H   0  0  0  0  0  0  0  0  0  0  0  0
  149.4933  142.9601  155.3056 H   0  0  0  0  0  0  0  0  0  0  0  0
  151.1464  144.1502  156.7907 H   0  0  0  0  0  0  0  0  0  0  0  0
  150.9103  143.1786  159.5824 H   0  0  0  0  0  0  0  0  0  0  0  0
  152.1454  145.7219  158.2726 H   0  0  0  0  0  0  0  0  0  0  0  0
  151.8468  145.4378  160.0645 H   0  0  0  0  0  0  0  0  0  0  0  0
  153.3541  143.4348  159.9968 H   0  0  0  0  0  0  0  0  0  0  0  0
  153.6520  143.7199  158.2047 H   0  0  0  0  0  0  0  0  0  0  0  0
  1  2  3  0  0  0  0
  2  3  1  0  0  0  0
  3 19  1  0  0  0  0
  3  4  2  0  0  0  0
  4  5  1  0  0  0  0
  4 21  1  0  0  0  0
  5  6  1  0  0  0  0
  5  9  1  0  0  0  0
  6  8  1  0  0  0  0
  6  7  1  0  0  0  0
  6 22  1  0  0  0  0
  7  8  1  0  0  0  0
  7 23  1  0  0  0  0
  7 24  1  0  0  0  0
  8 25  1  0  0  0  0
  8 26  1  0  0  0  0
  9 10  2  0  0  0  0
  9 11  1  0  0  0  0
 11 12  1  0  0  0  0
 11 19  1  0  0  0  0
 12 13  1  0  0  0  0
 12 27  1  0  0  0  0
 12 28  1  0  0  0  0
 13 14  2  0  0  0  0
 13 15  1  0  0  0  0
 15 16  1  0  0  0  0
 15 29  1  0  0  0  0
 16 18  1  0  0  0  0
 16 17  1  0  0  0  0
 16 30  1  0  0  0  0
 17 18  1  0  0  0  0
 17 31  1  0  0  0  0
 17 32  1  0  0  0  0
 18 33  1  0  0  0  0
 18 34  1  0  0  0  0
 19 20  2  0  0  0  0
M  END
> <s_m_source_file>
AV-unprocessed.smi

> <i_m_source_file_index>
398

> <i_lp_mmshare_version>
43012

> <i_f3d_flags>
0

> <s_epik_input>
TiNDYzFbY0hdbihbQ0hdMltDSDJdW0NIMl0yKWMoPU8pbihjMT1PKVtDSDJdQyg9TylbTkhdW0NIXTNbQ0gyXVtDSDJdMw==

> <s_epik_cmdline>
J2VwaWtfcHl0aG9uJywgJy1waCcsICc3LjAnLCAnLXRuJywgJzgnLCAnLW1hJywgJzIwMCcsICctbWV0YWxfYmluZGluZycsICctaW1hZScsICc8aW5maWxlLm1hZT4nLCAnLW9tYWUnLCAnPG91dGZpbGUubWFlPic=

> <r_lp_tautomer_probability>
1

> <r_epik_Ionization_Penalty>
2.07526e-08

> <r_epik_Ionization_Penalty_Charging>
8.22213e-11

> <r_epik_Ionization_Penalty_Neutral>
2.06703e-08

> <r_epik_State_Penalty>
-0

> <r_epik_Charging_Adjusted_Penalty>
8.22213e-11

> <i_epik_Tot_Q>
0

> <i_epik_Tot_abs_Q>
0

> <r_epik_Metal_State_Penalty>
-0

> <b_epik_Metal_Only>
0

> <s_lp_Force_Field>
OPLS_2005

> <r_lp_Energy>
41.1586

> <b_lp_Chiralities_Consistent>
1

> <s_lp_Variant>
AV-unprocessed.smi:398-1

> <Gold.Version>
5.8.1

> <Gold.Id.Protein>
6NUR|6NUR_protein|mol2

> <Gold.PLP.Fitness>
45.1827

> <Gold.PLP.PLP>
-39.3266

> <Gold.PLP.part.hbond>
-1.8215

> <Gold.PLP.part.metal>
0.0000

> <Gold.PLP.part.buried>
-0.2250

> <Gold.PLP.part.nonpolar>
-38.0404

> <Gold.PLP.part.repulsive>
0.3330

> <Gold.PLP.ligand.clash>
0.0000

> <Gold.PLP.ligand.torsion>
0.2023

> <Gold.PLP.Chemscore.Hbond>
1.0000

> <Gold.PLP.Chemscore.CHOScore>
1.0000

> <Gold.PLP.Chemscore.Metal>
0.0000

> <Gold.Chemscore.Hbonds>
donor molecule, donor type, donor heavy atom, donor atom, acceptor molecule, acceptor atom, score
      P1  H 10752 10765       L1     1  1.00
      L1  C     4    21       P1  7948  1.00

> <Gold.PLP.Chemscore.Internal.Correction>
0.2607

> <Gold.Rescore>
     Score         DG    S(hbond)    S(metal)    S(lipo)     H(rot)  DE(clash)    DE(int)     intcor
     12.38     -12.81       1.00        0.00      74.95       1.87       0.19       0.25       ----

> <Gold.Chemscore.Fitness>
12.3830

> <Gold.Chemscore.DG>
-12.8134

> <Gold.Chemscore.ZeroCoef>
-5.4800

> <Gold.Chemscore.Hbond>
0.9999

> <Gold.Chemscore.Metal>
0.0000

> <Gold.Chemscore.Lipo>
74.9512

> <Gold.Chemscore.Internal_Hbond>
0.0000

> <Gold.Chemscore.DEClash>
0.1851

> <Gold.Chemscore.DEInternal>
0.2453

> <Gold.Chemscore.Rot>
1.8654

> <Gold.Chemscore.Internal.Correction>
   9.000000E+99

> <Gold.Chemscore.Hbonds>
donor molecule, donor type, donor heavy atom, donor atom, acceptor molecule, acceptor atom, score
      P1  H 10752 10765       L1     1  1.00

> <Gold.Chemscore.Hbond.Weighted>
-3.3396

> <Gold.Chemscore.Metal.Weighted>
-0.0000

> <Gold.Chemscore.Lipo.Weighted>
-8.7693

> <Gold.Chemscore.Internal_Hbond.Weighted>
0.0000

> <Gold.Chemscore.DEClash.Weighted>
0.1851

> <Gold.Chemscore.DEInternal.Weighted>
0.2453

> <Gold.Chemscore.Rot.Weighted>
4.7755

> <Gold.Chemscore.Internal.Correction.Weighted>
   9.000000E+99

> <Gold.Protein.RotatedTorsions>
[ 6907 6896 6895 6894 ] final  114.23 input  -60.11 | X-H torsion
[ 7974 7965 7964 7962 ] final   23.21 input  175.53 | X-H torsion
[ 8008 7997 7996 7995 ] final -160.82 input   59.86 | X-H torsion
[ 10167 10162 10161 10158 ] final  150.36 input  -65.29 | X-H torsion
[ 10718 10713 10712 10709 ] final  169.53 input   66.30 | X-H torsion
[ 10763 10752 10751 10750 ] final  177.71 input  -60.55 | X-H torsion
[ 11005 11000 10999 10996 ] final  132.64 input  -57.11 | X-H torsion

> <Gold.Protein.ActiveResidues>
 VAL166  LYS551  ARG553  GLY616  TRP617  ASP618  TYR619  PRO620  LYS621  CYS622 
 ASP623  PHE694  ASN695  SER759  ASP760  ASP761  ALA762  ILE779  LEU786  VAL792 
 PHE793  MET794  SER795  GLU796  ALA797  LYS798  CYS799  TRP800  GLU811  SER814 

> <Gold.Protein.RotatedAtoms>
  152.4814  133.8264  159.7080 H   0  0  0  0  0  0  0  0  0  0  0  0  # atno 6907 bound_to 6896
  150.8867  133.7288  159.2923 H   0  0  0  0  0  0  0  0  0  0  0  0  # atno 6908 bound_to 6896
  151.4775  135.1053  159.9820 H   0  0  0  0  0  0  0  0  0  0  0  0  # atno 6909 bound_to 6896
  146.1995  139.7777  142.8772 H   0  0  0  0  0  0  0  0  0  0  0  0  # atno 7974 bound_to 7965
  155.7832  140.0868  157.2048 H   0  0  0  0  0  0  0  0  0  0  0  0  # atno 8008 bound_to 7997
  154.3989  140.1504  156.3134 H   0  0  0  0  0  0  0  0  0  0  0  0  # atno 8009 bound_to 7997
  155.8633  140.3429  155.5774 H   0  0  0  0  0  0  0  0  0  0  0  0  # atno 8010 bound_to 7997
  139.4851  144.5528  151.7371 H   0  0  0  0  0  0  0  0  0  0  0  0  # atno 10167 bound_to 10162
  157.0214  131.0233  151.2773 H   0  0  0  0  0  0  0  0  0  0  0  0  # atno 10718 bound_to 10713
  154.4981  135.2782  155.1443 H   0  0  0  0  0  0  0  0  0  0  0  0  # atno 10763 bound_to 10752
  154.3088  135.6233  153.5460 H   0  0  0  0  0  0  0  0  0  0  0  0  # atno 10764 bound_to 10752
  152.9898  135.5714  154.5417 H   0  0  0  0  0  0  0  0  0  0  0  0  # atno 10765 bound_to 10752
  139.9803  134.9550  156.9611 H   0  0  0  0  0  0  0  0  0  0  0  0  # atno 11005 bound_to 11000
  145.3533  141.0312  143.3326 LP  0  0  0  0  0  0  0  0  0  0  0  0  # atno 17320 bound_to 7965
  144.8651  139.5119  143.6794 LP  0  0  0  0  0  0  0  0  0  0  0  0  # atno 17321 bound_to 7965
  140.5085  144.1062  150.5989 LP  0  0  0  0  0  0  0  0  0  0  0  0  # atno 17342 bound_to 10162
  140.3979  143.2719  151.9983 LP  0  0  0  0  0  0  0  0  0  0  0  0  # atno 17343 bound_to 10162
  157.5247  130.8020  149.7848 LP  0  0  0  0  0  0  0  0  0  0  0  0  # atno 17370 bound_to 10713
  156.0101  130.3837  150.2294 LP  0  0  0  0  0  0  0  0  0  0  0  0  # atno 17371 bound_to 10713
  140.5111  134.1001  155.7270 LP  0  0  0  0  0  0  0  0  0  0  0  0  # atno 17394 bound_to 11000
  141.1475  133.9028  157.2179 LP  0  0  0  0  0  0  0  0  0  0  0  0  # atno 17395 bound_to 11000

$$$$
