AV-unprocessed.smi:153|AV-procd|sdf|1252|dock6
  -GOLD-   2262018483D 1   1.00000     0.00000
 Structure written by MMmdl.
 60 63  0  0  0  0  0  0  0  0  2 V2000
  152.9360  143.2942  160.9004 C   0  0  0  0  0  0  0  0  0  0  0  0
  152.9435  142.9135  159.4095 C   0  0  2  0  0  0  0  0  0  0  0  0
  152.4370  143.9926  158.6262 O   0  0  0  0  0  0  0  0  0  0  0  0
  151.2548  143.5867  157.9541 C   0  0  0  0  0  0  0  0  0  0  0  0
  151.4605  142.0961  157.7213 C   0  0  0  0  0  0  0  0  0  0  0  0
  152.1369  141.6502  159.0096 C   0  0  2  0  0  0  0  0  0  0  0  0
  151.1231  141.3767  159.9643 O   0  0  0  0  0  0  0  0  0  0  0  0
  152.9941  140.3744  158.8188 C   0  0  0  0  0  0  0  0  0  0  0  0
  152.2177  139.2158  158.4069 N   0  0  0  0  0  0  0  0  0  0  0  0
  151.3884  138.4560  159.1995 C   0  0  0  0  0  0  0  0  0  0  0  0
  150.7653  137.4898  158.5837 N   0  0  0  0  0  0  0  0  0  0  0  0
  151.2183  137.5684  157.2713 C   0  0  0  0  0  0  0  0  0  0  0  0
  150.9303  136.8573  156.0684 C   0  0  0  0  0  0  0  0  0  0  0  0
  150.0274  135.8498  155.9626 N   0  0  0  0  0  0  0  0  0  0  0  0
  148.6070  136.1647  156.0467 C   0  0  0  0  0  0  0  0  0  0  0  0
  150.4407  134.6302  155.2654 C   0  0  0  0  0  0  0  0  0  0  0  0
  149.5583  133.4057  155.5967 C   0  0  2  0  0  0  0  0  0  0  0  0
  150.3884  132.4586  156.2384 O   0  0  0  0  0  0  0  0  0  0  0  0
  148.9392  132.7350  154.3472 C   0  0  0  0  0  0  0  0  0  0  0  0
  147.8139  133.5024  153.7550 N   0  3  0  0  0  0  0  0  0  0  0  0
  147.0692  132.7513  152.7110 C   0  0  0  0  0  0  0  0  0  0  0  0
  145.9053  133.5912  152.1581 C   0  0  0  0  0  0  0  0  0  0  0  0
  145.0522  133.9895  153.2225 O   0  0  0  0  0  0  0  0  0  0  0  0
  145.7340  134.8040  154.1669 C   0  0  0  0  0  0  0  0  0  0  0  0
  146.8847  134.0027  154.7972 C   0  0  0  0  0  0  0  0  0  0  0  0
  151.5675  137.2581  154.9380 N   0  0  0  0  0  0  0  0  0  0  0  0
  152.4331  138.2747  154.9726 C   0  0  0  0  0  0  0  0  0  0  0  0
  152.7873  139.0320  156.0113 N   0  0  0  0  0  0  0  0  0  0  0  0
  152.1429  138.6450  157.1487 C   0  0  0  0  0  0  0  0  0  0  0  0
  153.2733  142.4634  161.5192 H   0  0  0  0  0  0  0  0  0  0  0  0
  151.9385  143.5788  161.2362 H   0  0  0  0  0  0  0  0  0  0  0  0
  153.5979  144.1397  161.0889 H   0  0  0  0  0  0  0  0  0  0  0  0
  153.9794  142.7902  159.0927 H   0  0  0  0  0  0  0  0  0  0  0  0
  150.3942  143.7634  158.6008 H   0  0  0  0  0  0  0  0  0  0  0  0
  151.1080  144.1433  157.0285 H   0  0  0  0  0  0  0  0  0  0  0  0
  150.5333  141.5642  157.5033 H   0  0  0  0  0  0  0  0  0  0  0  0
  152.1310  141.9577  156.8720 H   0  0  0  0  0  0  0  0  0  0  0  0
  150.2868  141.3775  159.5240 H   0  0  0  0  0  0  0  0  0  0  0  0
  153.7770  140.5477  158.0793 H   0  0  0  0  0  0  0  0  0  0  0  0
  153.5045  140.1219  159.7492 H   0  0  0  0  0  0  0  0  0  0  0  0
  151.2425  138.6548  160.2512 H   0  0  0  0  0  0  0  0  0  0  0  0
  148.4176  136.9174  156.8129 H   0  0  0  0  0  0  0  0  0  0  0  0
  148.0369  135.2734  156.3100 H   0  0  0  0  0  0  0  0  0  0  0  0
  148.2317  136.5358  155.0929 H   0  0  0  0  0  0  0  0  0  0  0  0
  150.4866  134.7832  154.1867 H   0  0  0  0  0  0  0  0  0  0  0  0
  151.4669  134.4240  155.5726 H   0  0  0  0  0  0  0  0  0  0  0  0
  148.7935  133.7096  156.3093 H   0  0  0  0  0  0  0  0  0  0  0  0
  150.0666  131.5906  156.0509 H   0  0  0  0  0  0  0  0  0  0  0  0
  149.6791  132.5961  153.5620 H   0  0  0  0  0  0  0  0  0  0  0  0
  148.6029  131.7330  154.6195 H   0  0  0  0  0  0  0  0  0  0  0  0
  147.7281  132.4785  151.8881 H   0  0  0  0  0  0  0  0  0  0  0  0
  146.6860  131.8199  153.1287 H   0  0  0  0  0  0  0  0  0  0  0  0
  146.2762  134.4680  151.6244 H   0  0  0  0  0  0  0  0  0  0  0  0
  145.3268  133.0056  151.4433 H   0  0  0  0  0  0  0  0  0  0  0  0
  146.1052  135.7107  153.6862 H   0  0  0  0  0  0  0  0  0  0  0  0
  145.0291  135.1176  154.9371 H   0  0  0  0  0  0  0  0  0  0  0  0
  146.4835  133.1616  155.3647 H   0  0  0  0  0  0  0  0  0  0  0  0
  147.4264  134.6339  155.5027 H   0  0  0  0  0  0  0  0  0  0  0  0
  152.9012  138.5228  154.0313 H   0  0  0  0  0  0  0  0  0  0  0  0
  148.2127  134.3181  153.3123 H   0  0  0  0  0  0  0  0  0  0  0  0
  1  2  1  0  0  0  0
  1 30  1  0  0  0  0
  1 31  1  0  0  0  0
  1 32  1  0  0  0  0
  2  6  1  0  0  0  0
  2  3  1  0  0  0  0
  2 33  1  0  0  0  0
  3  4  1  0  0  0  0
  4  5  1  0  0  0  0
  4 34  1  0  0  0  0
  4 35  1  0  0  0  0
  5  6  1  0  0  0  0
  5 36  1  0  0  0  0
  5 37  1  0  0  0  0
  6  7  1  0  0  0  0
  6  8  1  0  0  0  0
  7 38  1  0  0  0  0
  8  9  1  0  0  0  0
  8 39  1  0  0  0  0
  8 40  1  0  0  0  0
  9 29  1  0  0  0  0
  9 10  1  0  0  0  0
 10 11  2  0  0  0  0
 10 41  1  0  0  0  0
 11 12  1  0  0  0  0
 12 29  2  0  0  0  0
 12 13  1  0  0  0  0
 13 14  1  0  0  0  0
 13 26  2  0  0  0  0
 14 15  1  0  0  0  0
 14 16  1  0  0  0  0
 15 42  1  0  0  0  0
 15 43  1  0  0  0  0
 15 44  1  0  0  0  0
 16 17  1  0  0  0  0
 16 45  1  0  0  0  0
 16 46  1  0  0  0  0
 17 18  1  0  0  0  0
 17 19  1  0  0  0  0
 17 47  1  0  0  0  0
 18 48  1  0  0  0  0
 19 20  1  0  0  0  0
 19 49  1  0  0  0  0
 19 50  1  0  0  0  0
 20 25  1  0  0  0  0
 20 21  1  0  0  0  0
 20 60  1  0  0  0  0
 21 22  1  0  0  0  0
 21 51  1  0  0  0  0
 21 52  1  0  0  0  0
 22 23  1  0  0  0  0
 22 53  1  0  0  0  0
 22 54  1  0  0  0  0
 23 24  1  0  0  0  0
 24 25  1  0  0  0  0
 24 55  1  0  0  0  0
 24 56  1  0  0  0  0
 25 57  1  0  0  0  0
 25 58  1  0  0  0  0
 26 27  1  0  0  0  0
 27 28  2  0  0  0  0
 27 59  1  0  0  0  0
 28 29  1  0  0  0  0
M  CHG  1  20   1
M  END
> <s_m_source_file>
AV-unprocessed.smi

> <i_m_source_file_index>
153

> <i_lp_mmshare_version>
43012

> <i_f3d_flags>
0

> <s_epik_input>
W0NIMl0xW0NIMl1PW0NAQEhdKFtDSDNdKVtDQEBdMShbT0hdKVtDSDJdbihbY0hdbjIpYyhjMjMpbltjSF1uYzNOKFtDSDNdKVtDSDJdW0NASF0oW09IXSlbQ0gyXU40W0NIMl1bQ0gyXU9bQ0gyXVtDSDJdNA==

> <s_epik_cmdline>
J2VwaWtfcHl0aG9uJywgJy1waCcsICc3LjAnLCAnLXRuJywgJzgnLCAnLW1hJywgJzIwMCcsICctbWV0YWxfYmluZGluZycsICctaW1hZScsICc8aW5maWxlLm1hZT4nLCAnLW9tYWUnLCAnPG91dGZpbGUubWFlPic=

> <r_lp_tautomer_probability>
1

> <r_epik_Ionization_Penalty>
0.403509

> <r_epik_Ionization_Penalty_Charging>
0.40072

> <r_epik_Ionization_Penalty_Neutral>
0.00278876

> <r_epik_State_Penalty>
0.400058

> <r_epik_Charging_Adjusted_Penalty>
0.800778

> <i_epik_Tot_Q>
1

> <i_epik_Tot_abs_Q>
1

> <r_epik_Metal_State_Penalty>
0.400321

> <b_epik_Metal_Only>
0

> <s_lp_Force_Field>
OPLS_2005

> <r_lp_Energy>
42.6993

> <b_lp_Chiralities_Consistent>
1

> <s_lp_Variant>
AV-unprocessed.smi:153-3

> <Gold.Version>
5.8.1

> <Gold.Id.Protein>
6NUR|6NUR_protein|mol2

> <Gold.PLP.Fitness>
52.0907

> <Gold.PLP.PLP>
-45.4209

> <Gold.PLP.part.hbond>
-3.8454

> <Gold.PLP.part.metal>
0.0000

> <Gold.PLP.part.buried>
-7.4144

> <Gold.PLP.part.nonpolar>
-34.2431

> <Gold.PLP.part.repulsive>
0.2553

> <Gold.PLP.ligand.clash>
0.0000

> <Gold.PLP.ligand.torsion>
2.4773

> <Gold.PLP.Chemscore.Hbond>
3.6825

> <Gold.PLP.Chemscore.CHOScore>
0.0000

> <Gold.PLP.Chemscore.Metal>
0.0000

> <Gold.Chemscore.Hbonds>
donor molecule, donor type, donor heavy atom, donor atom, acceptor molecule, acceptor atom, score
      P1  H  7997  8008       L1    28  1.00
      P1  H 10752 10763       L1    26  0.56

> <Gold.PLP.Chemscore.Internal.Correction>
0.5770

> <Gold.Rescore>
     Score         DG    S(hbond)    S(metal)    S(lipo)     H(rot)  DE(clash)    DE(int)     intcor
     11.21     -13.92       1.84        0.00      98.86       3.62       0.08       2.63       ----

> <Gold.Chemscore.Fitness>
11.2099

> <Gold.Chemscore.DG>
-13.9214

> <Gold.Chemscore.ZeroCoef>
-5.4800

> <Gold.Chemscore.Hbond>
1.8375

> <Gold.Chemscore.Metal>
0.0000

> <Gold.Chemscore.Lipo>
98.8591

> <Gold.Chemscore.Internal_Hbond>
0.0000

> <Gold.Chemscore.DEClash>
0.0770

> <Gold.Chemscore.DEInternal>
2.6344

> <Gold.Chemscore.Rot>
3.6182

> <Gold.Chemscore.Internal.Correction>
   9.000000E+99

> <Gold.Chemscore.Hbonds>
donor molecule, donor type, donor heavy atom, donor atom, acceptor molecule, acceptor atom, score
      L1  H    20    60       P1  7948  0.01
      P1  H  7997  8008       L1    28  0.78
      P1  H 10752 10763       L1    26  0.08

> <Gold.Chemscore.Hbond.Weighted>
-6.1373

> <Gold.Chemscore.Metal.Weighted>
-0.0000

> <Gold.Chemscore.Lipo.Weighted>
-11.5665

> <Gold.Chemscore.Internal_Hbond.Weighted>
0.0000

> <Gold.Chemscore.DEClash.Weighted>
0.0770

> <Gold.Chemscore.DEInternal.Weighted>
2.6344

> <Gold.Chemscore.Rot.Weighted>
9.2625

> <Gold.Chemscore.Internal.Correction.Weighted>
   9.000000E+99

> <Gold.Protein.RotatedTorsions>
[ 6907 6896 6895 6894 ] final  -82.94 input  -60.11 | X-H torsion
[ 7974 7965 7964 7962 ] final    8.88 input  175.53 | X-H torsion
[ 8008 7997 7996 7995 ] final  -48.84 input   59.86 | X-H torsion
[ 10167 10162 10161 10158 ] final -105.27 input  -65.29 | X-H torsion
[ 10718 10713 10712 10709 ] final -127.32 input   66.30 | X-H torsion
[ 10763 10752 10751 10750 ] final   42.53 input  -60.55 | X-H torsion
[ 11005 11000 10999 10996 ] final   74.32 input  -57.11 | X-H torsion

> <Gold.Protein.ActiveResidues>
 VAL166  LYS551  ARG553  GLY616  TRP617  ASP618  TYR619  PRO620  LYS621  CYS622 
 ASP623  PHE694  ASN695  SER759  ASP760  ASP761  ALA762  ILE779  LEU786  VAL792 
 PHE793  MET794  SER795  GLU796  ALA797  LYS798  CYS799  TRP800  GLU811  SER814 

> <Gold.Protein.RotatedAtoms>
  150.6891  134.3587  159.4940 H   0  0  0  0  0  0  0  0  0  0  0  0  # atno 6907 bound_to 6896
  152.1419  134.9053  160.0562 H   0  0  0  0  0  0  0  0  0  0  0  0  # atno 6908 bound_to 6896
  152.0183  133.3854  159.4285 H   0  0  0  0  0  0  0  0  0  0  0  0  # atno 6909 bound_to 6896
  146.2411  139.9867  142.8430 H   0  0  0  0  0  0  0  0  0  0  0  0  # atno 7974 bound_to 7965
  154.4035  140.1311  156.4405 H   0  0  0  0  0  0  0  0  0  0  0  0  # atno 8008 bound_to 7997
  155.7463  140.3489  155.5109 H   0  0  0  0  0  0  0  0  0  0  0  0  # atno 8009 bound_to 7997
  155.8991  140.1016  157.1353 H   0  0  0  0  0  0  0  0  0  0  0  0  # atno 8010 bound_to 7997
  140.2004  143.3823  152.1134 H   0  0  0  0  0  0  0  0  0  0  0  0  # atno 10167 bound_to 10162
  156.1846  130.6755  151.0348 H   0  0  0  0  0  0  0  0  0  0  0  0  # atno 10718 bound_to 10713
  152.9881  135.6129  154.2964 H   0  0  0  0  0  0  0  0  0  0  0  0  # atno 10763 bound_to 10752
  154.2686  135.2780  155.2749 H   0  0  0  0  0  0  0  0  0  0  0  0  # atno 10764 bound_to 10752
  154.5142  135.5832  153.6686 H   0  0  0  0  0  0  0  0  0  0  0  0  # atno 10765 bound_to 10752
  139.9396  134.7423  156.1134 H   0  0  0  0  0  0  0  0  0  0  0  0  # atno 11005 bound_to 11000
  145.1541  140.9639  143.4415 LP  0  0  0  0  0  0  0  0  0  0  0  0  # atno 17320 bound_to 7965
  145.0177  139.3452  143.6088 LP  0  0  0  0  0  0  0  0  0  0  0  0  # atno 17321 bound_to 7965
  139.5219  144.7053  151.5374 LP  0  0  0  0  0  0  0  0  0  0  0  0  # atno 17342 bound_to 10162
  140.6394  143.8918  150.6678 LP  0  0  0  0  0  0  0  0  0  0  0  0  # atno 17343 bound_to 10162
  157.6890  131.0816  150.7160 LP  0  0  0  0  0  0  0  0  0  0  0  0  # atno 17370 bound_to 10713
  156.7217  130.4682  149.5521 LP  0  0  0  0  0  0  0  0  0  0  0  0  # atno 17371 bound_to 10713
  141.1026  133.6672  156.2788 LP  0  0  0  0  0  0  0  0  0  0  0  0  # atno 17394 bound_to 11000
  140.5985  134.5579  157.5513 LP  0  0  0  0  0  0  0  0  0  0  0  0  # atno 17395 bound_to 11000

$$$$
