AV-unprocessed.smi:1010|AV-procd|sdf|4418|dock8
  -GOLD-   22720 2363D 1   1.00000     0.00000
 Structure written by MMmdl.
 55 57  0  0  0  0  0  0  0  0  4 V2000
  145.2248  136.8611  160.0729 C   0  0  0  0  0  0  0  0  0  0  0  0
  145.3911  135.9098  161.2081 N   0  3  0  0  0  0  0  0  0  0  0  0
  144.7646  136.4624  162.4444 C   0  0  0  0  0  0  0  0  0  0  0  0
  146.7272  135.1894  161.3500 C   0  0  0  0  0  0  0  0  0  0  0  0
  147.9332  136.1362  161.7365 C   0  0  0  0  0  0  0  0  0  0  0  0
  148.2817  137.0661  160.6599 N   0  5  0  0  0  0  0  0  0  0  0  0
  149.0992  136.7776  159.6133 C   0  0  0  0  0  0  0  0  0  0  0  0
  149.3591  135.6670  159.1372 O   0  0  0  0  0  0  0  0  0  0  0  0
  149.6482  137.8844  159.0867 N   0  0  0  0  0  0  0  0  0  0  0  0
  150.4258  137.9944  157.9023 C   0  0  0  0  0  0  0  0  0  0  0  0
  150.3917  136.9896  156.9040 C   0  0  0  0  0  0  0  0  0  0  0  0
  151.2053  137.1121  155.7607 C   0  0  0  0  0  0  0  0  0  0  0  0
  152.0488  138.2318  155.6394 C   0  0  0  0  0  0  0  0  0  0  0  0
  152.0697  139.1642  156.6151 N   0  3  0  0  0  0  0  0  0  0  0  0
  151.3077  139.0979  157.7302 C   0  0  0  0  0  0  0  0  0  0  0  0
  151.4621  140.1603  158.6370 N   0  0  0  0  0  0  0  0  0  0  0  0
  152.7523  140.2690  159.3116 C   0  0  0  0  0  0  0  0  0  0  0  0
  153.2306  141.7095  159.1063 C   0  0  0  0  0  0  0  0  0  0  0  0
  151.9345  142.4803  158.8810 C   0  0  0  0  0  0  0  0  0  0  0  0
  151.0621  141.4700  158.1377 C   0  0  0  0  0  0  0  0  0  0  0  0
  146.5864  134.0888  162.4524 C   0  0  0  0  0  0  0  0  0  0  0  0
  145.5549  133.0088  162.0746 C   0  0  0  0  0  0  0  0  0  0  0  0
  145.9464  132.3723  160.8661 O   0  0  0  0  0  0  0  0  0  0  0  0
  146.0295  133.2701  159.7680 C   0  0  0  0  0  0  0  0  0  0  0  0
  147.0701  134.3690  160.0615 C   0  0  0  0  0  0  0  0  0  0  0  0
  145.7913  137.7794  160.2156 H   0  0  0  0  0  0  0  0  0  0  0  0
  144.1766  137.1488  159.9861 H   0  0  0  0  0  0  0  0  0  0  0  0
  145.4949  136.4324  159.1104 H   0  0  0  0  0  0  0  0  0  0  0  0
  145.2727  137.3642  162.7879 H   0  0  0  0  0  0  0  0  0  0  0  0
  144.7417  135.7482  163.2645 H   0  0  0  0  0  0  0  0  0  0  0  0
  143.7278  136.7350  162.2456 H   0  0  0  0  0  0  0  0  0  0  0  0
  147.6860  136.6488  162.6670 H   0  0  0  0  0  0  0  0  0  0  0  0
  148.7953  135.5172  161.9859 H   0  0  0  0  0  0  0  0  0  0  0  0
  149.3191  138.7551  159.4778 H   0  0  0  0  0  0  0  0  0  0  0  0
  149.7603  136.1200  157.0098 H   0  0  0  0  0  0  0  0  0  0  0  0
  151.1862  136.3540  154.9916 H   0  0  0  0  0  0  0  0  0  0  0  0
  152.7070  138.4064  154.8006 H   0  0  0  0  0  0  0  0  0  0  0  0
  152.5932  140.0750  160.3725 H   0  0  0  0  0  0  0  0  0  0  0  0
  153.4866  139.5452  158.9561 H   0  0  0  0  0  0  0  0  0  0  0  0
  153.8114  142.0870  159.9479 H   0  0  0  0  0  0  0  0  0  0  0  0
  153.8552  141.7728  158.2146 H   0  0  0  0  0  0  0  0  0  0  0  0
  151.4807  142.7272  159.8417 H   0  0  0  0  0  0  0  0  0  0  0  0
  152.0788  143.4074  158.3256 H   0  0  0  0  0  0  0  0  0  0  0  0
  151.2296  141.5431  157.0625 H   0  0  0  0  0  0  0  0  0  0  0  0
  150.0025  141.6485  158.3217 H   0  0  0  0  0  0  0  0  0  0  0  0
  147.5348  133.5672  162.6076 H   0  0  0  0  0  0  0  0  0  0  0  0
  146.3326  134.5004  163.4295 H   0  0  0  0  0  0  0  0  0  0  0  0
  145.5029  132.2547  162.8601 H   0  0  0  0  0  0  0  0  0  0  0  0
  144.5527  133.4275  161.9753 H   0  0  0  0  0  0  0  0  0  0  0  0
  146.3249  132.7067  158.8827 H   0  0  0  0  0  0  0  0  0  0  0  0
  145.0465  133.6921  159.5565 H   0  0  0  0  0  0  0  0  0  0  0  0
  147.1908  135.0022  159.1815 H   0  0  0  0  0  0  0  0  0  0  0  0
  148.0336  133.8647  160.1721 H   0  0  0  0  0  0  0  0  0  0  0  0
  144.7725  135.1537  160.9533 H   0  0  0  0  0  0  0  0  0  0  0  0
  152.6923  139.9647  156.5047 H   0  0  0  0  0  0  0  0  0  0  0  0
  1  2  1  0  0  0  0
  1 26  1  0  0  0  0
  1 27  1  0  0  0  0
  1 28  1  0  0  0  0
  2  3  1  0  0  0  0
  2  4  1  0  0  0  0
  2 54  1  0  0  0  0
  3 29  1  0  0  0  0
  3 30  1  0  0  0  0
  3 31  1  0  0  0  0
  4 25  1  0  0  0  0
  4  5  1  0  0  0  0
  4 21  1  0  0  0  0
  5  6  1  0  0  0  0
  5 32  1  0  0  0  0
  5 33  1  0  0  0  0
  6  7  1  0  0  0  0
  7  8  2  0  0  0  0
  7  9  1  0  0  0  0
  9 10  1  0  0  0  0
  9 34  1  0  0  0  0
 10 15  1  0  0  0  0
 10 11  2  0  0  0  0
 11 12  1  0  0  0  0
 11 35  1  0  0  0  0
 12 13  2  0  0  0  0
 12 36  1  0  0  0  0
 13 14  1  0  0  0  0
 13 37  1  0  0  0  0
 14 15  2  0  0  0  0
 14 55  1  0  0  0  0
 15 16  1  0  0  0  0
 16 20  1  0  0  0  0
 16 17  1  0  0  0  0
 17 18  1  0  0  0  0
 17 38  1  0  0  0  0
 17 39  1  0  0  0  0
 18 19  1  0  0  0  0
 18 40  1  0  0  0  0
 18 41  1  0  0  0  0
 19 20  1  0  0  0  0
 19 42  1  0  0  0  0
 19 43  1  0  0  0  0
 20 44  1  0  0  0  0
 20 45  1  0  0  0  0
 21 22  1  0  0  0  0
 21 46  1  0  0  0  0
 21 47  1  0  0  0  0
 22 23  1  0  0  0  0
 22 48  1  0  0  0  0
 22 49  1  0  0  0  0
 23 24  1  0  0  0  0
 24 25  1  0  0  0  0
 24 50  1  0  0  0  0
 24 51  1  0  0  0  0
 25 52  1  0  0  0  0
 25 53  1  0  0  0  0
M  CHG  1   2   1
M  CHG  1   6  -1
M  CHG  1  14   1
M  END
> <s_m_source_file>
AV-unprocessed.smi

> <i_m_source_file_index>
1010

> <i_lp_mmshare_version>
43012

> <i_f3d_flags>
0

> <s_epik_input>
W0NIMl0xW0NIMl1PW0NIMl1bQ0gyXUMxKE4oW0NIM10pW0NIM10pW0NIMl1bTkhdQyg9TylbTkhdYzJbY0hdW2NIXVtjSF1uYzJOM1tDSDJdW0NIMl1bQ0gyXVtDSDJdMw==

> <s_epik_cmdline>
J2VwaWtfcHl0aG9uJywgJy1waCcsICc3LjAnLCAnLXRuJywgJzgnLCAnLW1hJywgJzIwMCcsICctbWV0YWxfYmluZGluZycsICctaW1hZScsICc8aW5maWxlLm1hZT4nLCAnLW9tYWUnLCAnPG91dGZpbGUubWFlPic=

> <r_lp_tautomer_probability>
0.999994

> <r_epik_Ionization_Penalty>
8.43521

> <r_epik_Ionization_Penalty_Charging>
8.43521

> <r_epik_Ionization_Penalty_Neutral>
3.38325e-06

> <r_epik_State_Penalty>
7.95094

> <r_epik_Charging_Adjusted_Penalty>
16.3861

> <i_epik_Tot_Q>
1

> <i_epik_Tot_abs_Q>
3

> <r_epik_Metal_State_Penalty>
3.94206

> <b_epik_Metal_Only>
1

> <s_lp_Force_Field>
OPLS_2005

> <r_lp_Energy>
62.009

> <b_lp_Chiralities_Consistent>
1

> <s_lp_Variant>
AV-unprocessed.smi:1010-4

> <Gold.Version>
5.8.1

> <Gold.Id.Protein>
6NUR|6NUR_protein|mol2

> <Gold.PLP.Fitness>
42.2689

> <Gold.PLP.PLP>
-33.4587

> <Gold.PLP.part.hbond>
-3.0000

> <Gold.PLP.part.metal>
0.0000

> <Gold.PLP.part.buried>
-4.9955

> <Gold.PLP.part.nonpolar>
-28.4259

> <Gold.PLP.part.repulsive>
1.7660

> <Gold.PLP.ligand.clash>
0.0000

> <Gold.PLP.ligand.torsion>
0.6082

> <Gold.PLP.Chemscore.Hbond>
3.1581

> <Gold.PLP.Chemscore.CHOScore>
0.0000

> <Gold.PLP.Chemscore.Metal>
0.0000

> <Gold.Chemscore.Hbonds>
donor molecule, donor type, donor heavy atom, donor atom, acceptor molecule, acceptor atom, score
      P1  H  6896  6909       L1     8  1.00
      P1  H  6931  6943       L1     6  0.95
      P1  H  6934  6947       L1     6  0.60

> <Gold.PLP.Chemscore.Internal.Correction>
0.5523

> <Gold.Rescore>
     Score         DG    S(hbond)    S(metal)    S(lipo)     H(rot)  DE(clash)    DE(int)     intcor
     14.11     -17.09       1.33        0.00      96.28       1.60       0.08       2.90       ----

> <Gold.Chemscore.Fitness>
14.1126

> <Gold.Chemscore.DG>
-17.0935

> <Gold.Chemscore.ZeroCoef>
-5.4800

> <Gold.Chemscore.Hbond>
1.3334

> <Gold.Chemscore.Metal>
0.0000

> <Gold.Chemscore.Lipo>
96.2782

> <Gold.Chemscore.Internal_Hbond>
0.0000

> <Gold.Chemscore.DEClash>
0.0843

> <Gold.Chemscore.DEInternal>
2.8967

> <Gold.Chemscore.Rot>
1.6033

> <Gold.Chemscore.Internal.Correction>
   9.000000E+99

> <Gold.Chemscore.Hbonds>
donor molecule, donor type, donor heavy atom, donor atom, acceptor molecule, acceptor atom, score
      P1  H  6896  6909       L1     8  0.99
      P1  H  6931  6943       L1     6  0.02
      P1  H  6934  6947       L1     6  0.24

> <Gold.Chemscore.Hbond.Weighted>
-4.4535

> <Gold.Chemscore.Metal.Weighted>
-0.0000

> <Gold.Chemscore.Lipo.Weighted>
-11.2645

> <Gold.Chemscore.Internal_Hbond.Weighted>
0.0000

> <Gold.Chemscore.DEClash.Weighted>
0.0843

> <Gold.Chemscore.DEInternal.Weighted>
2.8967

> <Gold.Chemscore.Rot.Weighted>
4.1046

> <Gold.Chemscore.Internal.Correction.Weighted>
   9.000000E+99

> <Gold.Protein.RotatedTorsions>
[ 6907 6896 6895 6894 ] final   59.15 input  -60.11 | X-H torsion
[ 7974 7965 7964 7962 ] final -110.97 input  175.53 | X-H torsion
[ 8008 7997 7996 7995 ] final  133.08 input   59.86 | X-H torsion
[ 10167 10162 10161 10158 ] final   92.13 input  -65.29 | X-H torsion
[ 10718 10713 10712 10709 ] final  139.27 input   66.30 | X-H torsion
[ 10763 10752 10751 10750 ] final   91.51 input  -60.55 | X-H torsion
[ 11005 11000 10999 10996 ] final -134.21 input  -57.11 | X-H torsion

> <Gold.Protein.ActiveResidues>
 VAL166  LYS551  ARG553  GLY616  TRP617  ASP618  TYR619  PRO620  LYS621  CYS622 
 ASP623  PHE694  ASN695  SER759  ASP760  ASP761  ALA762  ILE779  LEU786  VAL792 
 PHE793  MET794  SER795  GLU796  ALA797  LYS798  CYS799  TRP800  GLU811  SER814 

> <Gold.Protein.RotatedAtoms>
  152.3888  134.6474  160.0115 H   0  0  0  0  0  0  0  0  0  0  0  0  # atno 6907 bound_to 6896
  151.6714  133.3308  159.3205 H   0  0  0  0  0  0  0  0  0  0  0  0  # atno 6908 bound_to 6896
  150.7809  134.6796  159.6481 H   0  0  0  0  0  0  0  0  0  0  0  0  # atno 6909 bound_to 6896
  145.1617  140.8882  143.3587 H   0  0  0  0  0  0  0  0  0  0  0  0  # atno 7974 bound_to 7965
  156.2989  140.2530  156.3194 H   0  0  0  0  0  0  0  0  0  0  0  0  # atno 8008 bound_to 7997
  154.9249  140.0400  157.2036 H   0  0  0  0  0  0  0  0  0  0  0  0  # atno 8009 bound_to 7997
  154.8274  140.2870  155.5749 H   0  0  0  0  0  0  0  0  0  0  0  0  # atno 8010 bound_to 7997
  139.8307  144.6688  150.9403 H   0  0  0  0  0  0  0  0  0  0  0  0  # atno 10167 bound_to 10162
  157.4162  131.1033  151.0402 H   0  0  0  0  0  0  0  0  0  0  0  0  # atno 10718 bound_to 10713
  153.2090  135.4395  155.0357 H   0  0  0  0  0  0  0  0  0  0  0  0  # atno 10763 bound_to 10752
  154.8190  135.3328  154.7097 H   0  0  0  0  0  0  0  0  0  0  0  0  # atno 10764 bound_to 10752
  153.7536  135.6996  153.4996 H   0  0  0  0  0  0  0  0  0  0  0  0  # atno 10765 bound_to 10752
  140.9010  134.1690  157.4460 H   0  0  0  0  0  0  0  0  0  0  0  0  # atno 11005 bound_to 11000
  145.0324  139.3330  143.6018 LP  0  0  0  0  0  0  0  0  0  0  0  0  # atno 17320 bound_to 7965
  146.3481  139.9666  142.8711 LP  0  0  0  0  0  0  0  0  0  0  0  0  # atno 17321 bound_to 7965
  140.7807  143.4003  151.1159 LP  0  0  0  0  0  0  0  0  0  0  0  0  # atno 17342 bound_to 10162
  139.7657  143.8568  152.3110 LP  0  0  0  0  0  0  0  0  0  0  0  0  # atno 17343 bound_to 10162
  157.1348  130.6118  149.5539 LP  0  0  0  0  0  0  0  0  0  0  0  0  # atno 17370 bound_to 10713
  155.9866  130.4901  150.7086 LP  0  0  0  0  0  0  0  0  0  0  0  0  # atno 17371 bound_to 10713
  139.8742  134.9898  156.5473 LP  0  0  0  0  0  0  0  0  0  0  0  0  # atno 17394 bound_to 11000
  140.8229  133.8339  155.8913 LP  0  0  0  0  0  0  0  0  0  0  0  0  # atno 17395 bound_to 11000

$$$$
