#       Name:                AV-unprocessed.smi:926
#       Creating user name   scv26
#       Creation time:       Fri Mar 27 02:09:05 2020


#       File generated by GOLD software.
#

@<TRIPOS>MOLECULE
AV-unprocessed.smi:926
    42    44     1
SMALL
NO_CHARGES


@<TRIPOS>ATOM
      1 ****        -1.9417   2.7564  -0.3761 O.2            1 S1                 0.0000
      2 ****        -2.4966   1.8077  -0.9303 C.2            1 S1                 0.0000
      3 ****        -4.0220   1.7650  -1.0230 C.3            1 S1                 0.0000
      4 ****        -4.6076   1.3947   0.2509 N.pl3          1 S1                 0.0000
      5 ****        -4.9172   2.1299   1.3211 C.2            1 S1                 0.0000
      6 ****        -5.4354   1.3895   2.2893 N.2            1 S1                 0.0000
      7 ****        -5.4298   0.1148   1.7478 N.2            1 S1                 0.0000
      8 ****        -4.9387   0.1113   0.5389 N.2            1 S1                 0.0000
      9 ****        -1.8330   0.7742  -1.4711 N.am           1 S1                 0.0000
     10 ****        -0.3825   0.6261  -1.4872 C.3            1 S1                 0.0000
     11 ****         0.1393   0.0280  -0.1691 C.3            1 S1                 0.0000
     12 ****         1.6720  -0.1351  -0.1482 C.3            1 S1                 0.0000
     13 ****         2.1986  -1.2232  -1.1135 C.3            1 S1                 0.0000
     14 ****         3.0254  -2.1386  -0.1926 C.3            1 S1                 0.0000
     15 ****         4.2931  -1.3967   0.2702 C.3            1 S1                 0.0000
     16 ****         3.7355  -0.3642   1.2682 C.3            1 S1                 0.0000
     17 ****         2.2178  -0.6247   1.2135 C.3            1 S1                 0.0000
     18 ****         2.1789  -2.1437   1.0735 C.3            1 S1                 0.0000
     19 ****        -4.3987   2.7477  -1.3101 H              1 S1                 0.0000
     20 ****        -4.3464   1.0594  -1.7899 H              1 S1                 0.0000
     21 ****        -4.7626   3.1967   1.3901 H              1 S1                 0.0000
     22 ****        -2.3714   0.0366  -1.9022 H              1 S1                 0.0000
     23 ****        -0.1237  -0.0225  -2.3241 H              1 S1                 0.0000
     24 ****         0.0924   1.5885  -1.6854 H              1 S1                 0.0000
     25 ****        -0.1539   0.6787   0.6558 H              1 S1                 0.0000
     26 ****        -0.3449  -0.9312   0.0165 H              1 S1                 0.0000
     27 ****         2.1183   0.8305  -0.3911 H              1 S1                 0.0000
     28 ****         1.3809  -1.7883  -1.5627 H              1 S1                 0.0000
     29 ****         2.7944  -0.8039  -1.9250 H              1 S1                 0.0000
     30 ****         3.2242  -3.1224  -0.6184 H              1 S1                 0.0000
     31 ****         4.9839  -2.0779   0.7686 H              1 S1                 0.0000
     32 ****         4.8230  -0.9292  -0.5605 H              1 S1                 0.0000
     33 ****         4.1233  -0.5530   2.2700 H              1 S1                 0.0000
     34 ****         3.9953   0.6604   0.9994 H              1 S1                 0.0000
     35 ****         1.6822  -0.2271   2.0764 H              1 S1                 0.0000
     36 ****         1.1758  -2.5452   0.9230 H              1 S1                 0.0000
     37 ****         2.6508  -2.6679   1.9065 H              1 S1                 0.0000
     38 ****        -2.4885   3.4978   0.0128 LP             1 S1                 0.0000
     39 ****        -0.9440   2.7857  -0.3147 LP             1 S1                 0.0000
     40 ****        -5.7533   1.6801   3.1918 LP             1 S1                 0.0000
     41 ****        -5.7605  -0.7004   2.2234 LP             1 S1                 0.0000
     42 ****        -4.8280  -0.6828  -0.0587 LP             1 S1                 0.0000
@<TRIPOS>BOND
    1    1    2 2     
    2    2    3 1     
    3    2    9 am    
    4    3    4 1     
    5    3   19 1     
    6    3   20 1     
    7    4    8 1     
    8    4    5 1     
    9    5    6 2     
   10    5   21 1     
   11    6    7 1     
   12    7    8 2     
   13    9   10 1     
   14    9   22 1     
   15   10   11 1     
   16   10   23 1     
   17   10   24 1     
   18   11   12 1     
   19   11   25 1     
   20   11   26 1     
   21   12   17 1     
   22   12   13 1     
   23   12   27 1     
   24   13   14 1     
   25   13   28 1     
   26   13   29 1     
   27   14   18 1     
   28   14   15 1     
   29   14   30 1     
   30   15   16 1     
   31   15   31 1     
   32   15   32 1     
   33   16   17 1     
   34   16   33 1     
   35   16   34 1     
   36   17   18 1     
   37   17   35 1     
   38   18   36 1     
   39   18   37 1     
   40    1   38 1     
   41    1   39 1     
   42    6   40 1     
   43    7   41 1     
   44    8   42 1     
@<TRIPOS>SUBSTRUCTURE
      1 S1             1
@<TRIPOS>SET
LONE_PAIRS      STATIC     ATOMS    <user>   **** ""
5 38 39 40 41 42
DONOR_HYDROGENS      STATIC     ATOMS    <user>   **** ""
1 22
ATOM$BLUE        STATIC     ATOMS    COLORGROUP SYSTEM
5 38 39 40 41 42
ATOM$RED        STATIC     ATOMS    COLORGROUP SYSTEM
1 22
