AV-unprocessed.smi:867|AV-procd|sdf|4001|dock7
  -GOLD-   22720 1483D 1   1.00000     0.00000
 Structure written by MMmdl.
 54 57  0  0  0  0  0  0  0  0  3 V2000
  150.2662  140.4822  156.1904 O   0  0  0  0  0  0  0  0  0  0  0  0
  150.8302  139.4059  155.9892 C   0  0  0  0  0  0  0  0  0  0  0  0
  151.8656  138.9872  156.7378 N   0  0  0  0  0  0  0  0  0  0  0  0
  152.4294  139.6861  157.8902 C   0  0  0  0  0  0  0  0  0  0  0  0
  151.3578  140.4255  158.7142 C   0  0  0  0  0  0  0  0  0  0  0  0
  151.5015  141.9372  158.6844 C   0  0  0  0  0  0  0  0  0  0  0  0
  152.4932  142.5859  159.4539 C   0  0  0  0  0  0  0  0  0  0  0  0
  152.6137  143.9895  159.3848 C   0  0  0  0  0  0  0  0  0  0  0  0
  151.7384  144.7134  158.5495 C   0  0  0  0  0  0  0  0  0  0  0  0
  150.7998  144.0591  157.8311 N   0  3  0  0  0  0  0  0  0  0  0  0
  150.6518  142.7169  157.8700 C   0  0  0  0  0  0  0  0  0  0  0  0
  150.5054  138.5804  154.9630 N   0  0  0  0  0  0  0  0  0  0  0  0
  151.2339  137.3691  154.5643 C   0  0  0  0  0  0  0  0  0  0  0  0
  150.4473  136.1343  155.0419 C   0  0  0  0  0  0  0  0  0  0  0  0
  149.0476  136.1351  154.5253 N   0  3  0  0  0  0  0  0  0  0  0  0
  148.2476  134.9643  154.9869 C   0  0  1  0  0  0  0  0  0  0  0  0
  146.9648  134.7043  154.1596 C   0  0  0  0  0  0  0  0  0  0  0  0
  147.0541  133.1999  153.8399 C   0  0  1  0  0  0  0  0  0  0  0  0
  148.1010  132.9909  152.7324 C   0  0  0  0  0  0  0  0  0  0  0  0
  149.4234  133.2749  153.4662 C   0  0  0  0  0  0  0  0  0  0  0  0
  148.9618  133.5918  154.9057 C   0  0  2  0  0  0  0  0  0  0  0  0
  147.7778  132.6430  155.0603 C   0  0  0  0  0  0  0  0  0  0  0  0
  148.3539  137.4312  154.7777 C   0  0  0  0  0  0  0  0  0  0  0  0
  149.1965  138.6312  154.3081 C   0  0  0  0  0  0  0  0  0  0  0  0
  152.2922  138.1047  156.4948 H   0  0  0  0  0  0  0  0  0  0  0  0
  152.9897  138.9969  158.5243 H   0  0  0  0  0  0  0  0  0  0  0  0
  153.1558  140.4075  157.5157 H   0  0  0  0  0  0  0  0  0  0  0  0
  150.3679  140.1675  158.3361 H   0  0  0  0  0  0  0  0  0  0  0  0
  151.3846  140.0793  159.7482 H   0  0  0  0  0  0  0  0  0  0  0  0
  153.1606  142.0165  160.0844 H   0  0  0  0  0  0  0  0  0  0  0  0
  153.3679  144.5030  159.9630 H   0  0  0  0  0  0  0  0  0  0  0  0
  151.7601  145.7873  158.4351 H   0  0  0  0  0  0  0  0  0  0  0  0
  149.8702  142.3099  157.2449 H   0  0  0  0  0  0  0  0  0  0  0  0
  151.3291  137.3517  153.4775 H   0  0  0  0  0  0  0  0  0  0  0  0
  152.2547  137.3214  154.9433 H   0  0  0  0  0  0  0  0  0  0  0  0
  150.9754  135.2407  154.7113 H   0  0  0  0  0  0  0  0  0  0  0  0
  150.4293  136.1066  156.1326 H   0  0  0  0  0  0  0  0  0  0  0  0
  147.9682  135.1406  156.0276 H   0  0  0  0  0  0  0  0  0  0  0  0
  146.0766  134.9287  154.7516 H   0  0  0  0  0  0  0  0  0  0  0  0
  146.9102  135.2939  153.2437 H   0  0  0  0  0  0  0  0  0  0  0  0
  146.0904  132.7385  153.6220 H   0  0  0  0  0  0  0  0  0  0  0  0
  148.0790  131.9639  152.3652 H   0  0  0  0  0  0  0  0  0  0  0  0
  147.9455  133.6531  151.8799 H   0  0  0  0  0  0  0  0  0  0  0  0
  150.0607  132.3898  153.4537 H   0  0  0  0  0  0  0  0  0  0  0  0
  149.9845  134.0895  153.0080 H   0  0  0  0  0  0  0  0  0  0  0  0
  149.7396  133.4533  155.6574 H   0  0  0  0  0  0  0  0  0  0  0  0
  147.2261  132.7821  155.9917 H   0  0  0  0  0  0  0  0  0  0  0  0
  148.0494  131.5906  154.9600 H   0  0  0  0  0  0  0  0  0  0  0  0
  147.3906  137.4549  154.2691 H   0  0  0  0  0  0  0  0  0  0  0  0
  148.1462  137.5264  155.8448 H   0  0  0  0  0  0  0  0  0  0  0  0
  148.6642  139.5629  154.5052 H   0  0  0  0  0  0  0  0  0  0  0  0
  149.3320  138.5941  153.2262 H   0  0  0  0  0  0  0  0  0  0  0  0
  149.1248  136.0472  153.5219 H   0  0  0  0  0  0  0  0  0  0  0  0
  150.1776  144.6012  157.2313 H   0  0  0  0  0  0  0  0  0  0  0  0
  1  2  2  0  0  0  0
  2  3  1  0  0  0  0
  2 12  1  0  0  0  0
  3  4  1  0  0  0  0
  3 25  1  0  0  0  0
  4  5  1  0  0  0  0
  4 26  1  0  0  0  0
  4 27  1  0  0  0  0
  5  6  1  0  0  0  0
  5 28  1  0  0  0  0
  5 29  1  0  0  0  0
  6 11  1  0  0  0  0
  6  7  2  0  0  0  0
  7  8  1  0  0  0  0
  7 30  1  0  0  0  0
  8  9  2  0  0  0  0
  8 31  1  0  0  0  0
  9 10  1  0  0  0  0
  9 32  1  0  0  0  0
 10 11  2  0  0  0  0
 10 54  1  0  0  0  0
 11 33  1  0  0  0  0
 12 24  1  0  0  0  0
 12 13  1  0  0  0  0
 13 14  1  0  0  0  0
 13 34  1  0  0  0  0
 13 35  1  0  0  0  0
 14 15  1  0  0  0  0
 14 36  1  0  0  0  0
 14 37  1  0  0  0  0
 15 16  1  0  0  0  0
 15 23  1  0  0  0  0
 15 53  1  0  0  0  0
 16 21  1  0  0  0  0
 16 17  1  0  0  0  0
 16 38  1  0  0  0  0
 17 18  1  0  0  0  0
 17 39  1  0  0  0  0
 17 40  1  0  0  0  0
 18 22  1  0  0  0  0
 18 19  1  0  0  0  0
 18 41  1  0  0  0  0
 19 20  1  0  0  0  0
 19 42  1  0  0  0  0
 19 43  1  0  0  0  0
 20 21  1  0  0  0  0
 20 44  1  0  0  0  0
 20 45  1  0  0  0  0
 21 22  1  0  0  0  0
 21 46  1  0  0  0  0
 22 47  1  0  0  0  0
 22 48  1  0  0  0  0
 23 24  1  0  0  0  0
 23 49  1  0  0  0  0
 23 50  1  0  0  0  0
 24 51  1  0  0  0  0
 24 52  1  0  0  0  0
M  CHG  1  10   1
M  CHG  1  15   1
M  END
> <s_m_source_file>
AV-unprocessed.smi

> <i_m_source_file_index>
867

> <i_lp_mmshare_version>
43012

> <i_f3d_flags>
0

> <s_epik_input>
W0NIMl0xW0NIMl1bQ0BASF0oW0NIMl0yKVtDQEBIXShbQ0gyXVtDQEhdMTIpTihbQ0gyXVtDSDJdMylbQ0gyXVtDSDJdTjNDKD1PKVtOSF1bQ0gyXVtDSDJdYzRbY0hdW2NIXVtjSF1uW2NIXTQ=

> <s_epik_cmdline>
J2VwaWtfcHl0aG9uJywgJy1waCcsICc3LjAnLCAnLXRuJywgJzgnLCAnLW1hJywgJzIwMCcsICctbWV0YWxfYmluZGluZycsICctaW1hZScsICc8aW5maWxlLm1hZT4nLCAnLW9tYWUnLCAnPG91dGZpbGUubWFlPic=

> <r_epik_Ionization_Penalty>
2.25108

> <r_epik_Ionization_Penalty_Charging>
2.25105

> <r_epik_Ionization_Penalty_Neutral>
2.64641e-05

> <r_epik_State_Penalty>
2.39519

> <r_epik_Charging_Adjusted_Penalty>
4.64625

> <i_epik_Tot_Q>
2

> <i_epik_Tot_abs_Q>
2

> <r_epik_Metal_State_Penalty>
2.40865

> <b_epik_Metal_Only>
0

> <s_lp_Force_Field>
OPLS_2005

> <r_lp_Energy>
106.845

> <b_lp_Chiralities_Consistent>
1

> <s_lp_Variant>
AV-unprocessed.smi:867-8

> <Gold.Version>
5.8.1

> <Gold.Id.Protein>
6NUR|6NUR_protein|mol2

> <Gold.PLP.Fitness>
52.9382

> <Gold.PLP.PLP>
-42.8806

> <Gold.PLP.part.hbond>
-2.0000

> <Gold.PLP.part.metal>
0.0000

> <Gold.PLP.part.buried>
-4.8192

> <Gold.PLP.part.nonpolar>
-37.5023

> <Gold.PLP.part.repulsive>
0.1520

> <Gold.PLP.ligand.clash>
0.0000

> <Gold.PLP.ligand.torsion>
1.0264

> <Gold.PLP.Chemscore.Hbond>
4.0000

> <Gold.PLP.Chemscore.CHOScore>
0.0000

> <Gold.PLP.Chemscore.Metal>
0.0000

> <Gold.Chemscore.Hbonds>
donor molecule, donor type, donor heavy atom, donor atom, acceptor molecule, acceptor atom, score
      L1  H    10    54       P1  8028  2.00
      L1  H    15    53       P1  7948  2.00

> <Gold.PLP.Chemscore.Internal.Correction>
0.1104

> <Gold.Rescore>
     Score         DG    S(hbond)    S(metal)    S(lipo)     H(rot)  DE(clash)    DE(int)     intcor
     17.20     -21.28       1.83        0.00     114.59       1.46       0.08       4.00       ----

> <Gold.Chemscore.Fitness>
17.1998

> <Gold.Chemscore.DG>
-21.2784

> <Gold.Chemscore.ZeroCoef>
-5.4800

> <Gold.Chemscore.Hbond>
1.8329

> <Gold.Chemscore.Metal>
0.0000

> <Gold.Chemscore.Lipo>
114.5901

> <Gold.Chemscore.Internal_Hbond>
0.0000

> <Gold.Chemscore.DEClash>
0.0823

> <Gold.Chemscore.DEInternal>
3.9963

> <Gold.Chemscore.Rot>
1.4572

> <Gold.Chemscore.Internal.Correction>
   9.000000E+99

> <Gold.Chemscore.Hbonds>
donor molecule, donor type, donor heavy atom, donor atom, acceptor molecule, acceptor atom, score
      L1  H    10    54       P1  8028  0.37
      L1  H    15    53       P1  7948  0.90

> <Gold.Chemscore.Hbond.Weighted>
-6.1219

> <Gold.Chemscore.Metal.Weighted>
-0.0000

> <Gold.Chemscore.Lipo.Weighted>
-13.4070

> <Gold.Chemscore.Internal_Hbond.Weighted>
0.0000

> <Gold.Chemscore.DEClash.Weighted>
0.0823

> <Gold.Chemscore.DEInternal.Weighted>
3.9963

> <Gold.Chemscore.Rot.Weighted>
3.7305

> <Gold.Chemscore.Internal.Correction.Weighted>
   9.000000E+99

> <Gold.Protein.RotatedTorsions>
[ 6907 6896 6895 6894 ] final   53.57 input  -60.11 | X-H torsion
[ 7974 7965 7964 7962 ] final -110.63 input  175.53 | X-H torsion
[ 8008 7997 7996 7995 ] final   29.30 input   59.86 | X-H torsion
[ 10167 10162 10161 10158 ] final  167.19 input  -65.29 | X-H torsion
[ 10718 10713 10712 10709 ] final   52.48 input   66.30 | X-H torsion
[ 10763 10752 10751 10750 ] final  126.57 input  -60.55 | X-H torsion
[ 11005 11000 10999 10996 ] final -147.72 input  -57.11 | X-H torsion

> <Gold.Protein.ActiveResidues>
 VAL166  LYS551  ARG553  GLY616  TRP617  ASP618  TYR619  PRO620  LYS621  CYS622 
 ASP623  PHE694  ASN695  SER759  ASP760  ASP761  ALA762  ILE779  LEU786  VAL792 
 PHE793  MET794  SER795  GLU796  ALA797  LYS798  CYS799  TRP800  GLU811  SER814 

> <Gold.Protein.RotatedAtoms>
  152.3350  134.7209  160.0279 H   0  0  0  0  0  0  0  0  0  0  0  0  # atno 6907 bound_to 6896
  151.7613  133.3328  159.3426 H   0  0  0  0  0  0  0  0  0  0  0  0  # atno 6908 bound_to 6896
  150.7445  134.6035  159.6093 H   0  0  0  0  0  0  0  0  0  0  0  0  # atno 6909 bound_to 6896
  145.1659  140.8902  143.3563 H   0  0  0  0  0  0  0  0  0  0  0  0  # atno 7974 bound_to 7965
  155.0723  140.3201  155.4627 H   0  0  0  0  0  0  0  0  0  0  0  0  # atno 8008 bound_to 7997
  156.2787  140.2109  156.5795 H   0  0  0  0  0  0  0  0  0  0  0  0  # atno 8009 bound_to 7997
  154.7045  140.0504  157.0478 H   0  0  0  0  0  0  0  0  0  0  0  0  # atno 8010 bound_to 7997
  139.4940  144.3948  151.9477 H   0  0  0  0  0  0  0  0  0  0  0  0  # atno 10167 bound_to 10162
  157.5079  130.8481  149.8397 H   0  0  0  0  0  0  0  0  0  0  0  0  # atno 10718 bound_to 10713
  153.6954  135.3292  155.3212 H   0  0  0  0  0  0  0  0  0  0  0  0  # atno 10763 bound_to 10752
  154.8428  135.4441  154.1465 H   0  0  0  0  0  0  0  0  0  0  0  0  # atno 10764 bound_to 10752
  153.2518  135.6982  153.7749 H   0  0  0  0  0  0  0  0  0  0  0  0  # atno 10765 bound_to 10752
  140.7687  134.3214  157.5081 H   0  0  0  0  0  0  0  0  0  0  0  0  # atno 11005 bound_to 11000
  145.0282  139.3364  143.6038 LP  0  0  0  0  0  0  0  0  0  0  0  0  # atno 17320 bound_to 7965
  146.3476  139.9610  142.8717 LP  0  0  0  0  0  0  0  0  0  0  0  0  # atno 17321 bound_to 7965
  140.3386  144.3231  150.5972 LP  0  0  0  0  0  0  0  0  0  0  0  0  # atno 17342 bound_to 10162
  140.5585  143.2195  151.7806 LP  0  0  0  0  0  0  0  0  0  0  0  0  # atno 17343 bound_to 10162
  156.0270  130.3776  150.1795 LP  0  0  0  0  0  0  0  0  0  0  0  0  # atno 17370 bound_to 10713
  156.9985  130.9915  151.3397 LP  0  0  0  0  0  0  0  0  0  0  0  0  # atno 17371 bound_to 10713
  139.8759  134.9247  156.3357 LP  0  0  0  0  0  0  0  0  0  0  0  0  # atno 17394 bound_to 11000
  140.9594  133.7398  156.0381 LP  0  0  0  0  0  0  0  0  0  0  0  0  # atno 17395 bound_to 11000

$$$$
