#       Name:                AV-unprocessed.smi:2304
#       Creating user name   scv26
#       Creation time:       Fri Mar 27 12:46:24 2020


#       File generated by GOLD software.
#

@<TRIPOS>MOLECULE
AV-unprocessed.smi:2304
    42    43     1
SMALL
NO_CHARGES


@<TRIPOS>ATOM
      1 ****        -4.3756  -0.3968  -1.0358 C.3            1 S1                 0.0000
      2 ****        -2.9650  -0.5095  -1.0994 O.3            1 S1                 0.0000
      3 ****        -2.5155  -1.8381  -0.8875 C.3            1 S1                 0.0000
      4 ****        -0.9832  -1.8891  -1.0092 C.3            1 S1                 0.0000
      5 ****        -0.3810  -1.1636   0.1068 N.am           1 S1                 0.0000
      6 ****         0.1908   0.0480   0.0388 C.2            1 S1                 0.0000
      7 ****         0.2636   0.7116  -0.9959 O.2            1 S1                 0.0000
      8 ****         0.6650   0.4264   1.2389 N.am           1 S1                 0.0000
      9 ****         1.3674   1.6156   1.5705 C.ar           1 S1                 0.0000
     10 ****         1.7396   1.7331   2.9287 C.ar           1 S1                 0.0000
     11 ****         2.4449   2.8740   3.3577 C.ar           1 S1                 0.0000
     12 ****         2.7616   3.8702   2.4170 C.ar           1 S1                 0.0000
     13 ****         2.3548   3.6759   1.0824 C.ar           1 S1                 0.0000
     14 ****         2.6609   4.7062   0.0157 C.3            1 S1                 0.0000
     15 ****         1.6775   2.5824   0.6710 N.ar           1 S1                 0.0000
     16 ****        -0.4936  -3.3227  -1.0908 C.3            1 S1                 0.0000
     17 ****         0.7796  -3.6700  -1.8239 C.3            1 S1                 0.0000
     18 ****        -0.5581  -4.0967  -2.3859 C.3            1 S1                 0.0000
     19 ****        -4.6677   0.6417  -1.1910 H              1 S1                 0.0000
     20 ****        -4.7537  -0.7113  -0.0622 H              1 S1                 0.0000
     21 ****        -4.8537  -0.9997  -1.8089 H              1 S1                 0.0000
     22 ****        -2.8358  -2.2003   0.0910 H              1 S1                 0.0000
     23 ****        -2.9668  -2.4893  -1.6379 H              1 S1                 0.0000
     24 ****        -0.7116  -1.4111  -1.9524 H              1 S1                 0.0000
     25 ****        -0.3968  -1.6268   1.0032 H              1 S1                 0.0000
     26 ****         0.5205  -0.2184   2.0013 H              1 S1                 0.0000
     27 ****         1.4895   0.9583   3.6388 H              1 S1                 0.0000
     28 ****         2.7376   2.9819   4.3917 H              1 S1                 0.0000
     29 ****         3.3016   4.7571   2.7147 H              1 S1                 0.0000
     30 ****         3.3226   5.4849   0.3960 H              1 S1                 0.0000
     31 ****         1.7398   5.1776  -0.3276 H              1 S1                 0.0000
     32 ****         3.1472   4.2365  -0.8399 H              1 S1                 0.0000
     33 ****        -0.6921  -3.9009  -0.1901 H              1 S1                 0.0000
     34 ****         1.3063  -2.8654  -2.3337 H              1 S1                 0.0000
     35 ****         1.4130  -4.4420  -1.3920 H              1 S1                 0.0000
     36 ****        -0.8149  -5.1522  -2.3278 H              1 S1                 0.0000
     37 ****        -0.9186  -3.5766  -3.2713 H              1 S1                 0.0000
     38 ****        -2.5643   0.0801  -0.3982 LP             1 S1                 0.0000
     39 ****        -2.6597  -0.2080  -2.0027 LP             1 S1                 0.0000
     40 ****        -0.1163   0.3521  -1.8482 LP             1 S1                 0.0000
     41 ****         0.7026   1.6100  -0.9839 LP             1 S1                 0.0000
     42 ****         1.4073   2.4864  -0.2870 LP             1 S1                 0.0000
@<TRIPOS>BOND
    1    1    2 1     
    2    1   19 1     
    3    1   20 1     
    4    1   21 1     
    5    2    3 1     
    6    3    4 1     
    7    3   22 1     
    8    3   23 1     
    9    4    5 1     
   10    4   16 1     
   11    4   24 1     
   12    5    6 am    
   13    5   25 1     
   14    6    7 2     
   15    6    8 am    
   16    8    9 1     
   17    8   26 1     
   18    9   15 ar    
   19    9   10 ar    
   20   10   11 ar    
   21   10   27 1     
   22   11   12 ar    
   23   11   28 1     
   24   12   13 ar    
   25   12   29 1     
   26   13   14 1     
   27   13   15 ar    
   28   14   30 1     
   29   14   31 1     
   30   14   32 1     
   31   16   18 1     
   32   16   17 1     
   33   16   33 1     
   34   17   18 1     
   35   17   34 1     
   36   17   35 1     
   37   18   36 1     
   38   18   37 1     
   39    2   38 1     
   40    2   39 1     
   41    7   40 1     
   42    7   41 1     
   43   15   42 1     
@<TRIPOS>SUBSTRUCTURE
      1 S1             1
@<TRIPOS>SET
LONE_PAIRS      STATIC     ATOMS    <user>   **** ""
5 38 39 40 41 42
DONOR_HYDROGENS      STATIC     ATOMS    <user>   **** ""
2 25 26
ATOM$BLUE        STATIC     ATOMS    COLORGROUP SYSTEM
5 38 39 40 41 42
ATOM$RED        STATIC     ATOMS    COLORGROUP SYSTEM
2 25 26
