AV-unprocessed.smi:3321|AV-procd|sdf|12771|dock2
  -GOLD-   2272019113D 1   1.00000     0.00000
 Structure written by MMmdl.
 40 41  0  0  0  0  0  0  0  0  1 V2000
  152.1165  137.5386  158.6136 C   0  0  0  0  0  0  0  0  0  0  0  0
  151.6122  138.9594  158.3161 C   0  0  2  0  0  0  0  0  0  0  0  0
  151.9209  139.3077  156.9162 N   0  0  0  0  0  0  0  0  0  0  0  0
  150.7890  139.1447  156.0098 C   0  0  0  0  0  0  0  0  0  0  0  0
  150.1270  140.5085  155.7704 C   0  0  0  0  0  0  0  0  0  0  0  0
  149.0177  140.4037  154.8425 N   0  0  0  0  0  0  0  0  0  0  0  0
  148.4777  141.3849  154.0382 C   0  0  0  0  0  0  0  0  0  0  0  0
  147.4444  140.8199  153.3470 C   0  0  0  0  0  0  0  0  0  0  0  0
  147.4294  139.4720  153.8037 C   0  0  0  0  0  0  0  0  0  0  0  0
  148.3718  139.2261  154.6995 N   0  0  0  0  0  0  0  0  0  0  0  0
  152.2024  139.9549  159.3432 C   0  0  0  0  0  0  0  0  0  0  0  0
  153.0605  139.5383  160.1243 O   0  0  0  0  0  0  0  0  0  0  0  0
  151.7815  141.2450  159.3653 N   0  0  0  0  0  0  0  0  0  0  0  0
  152.4364  142.2713  160.1874 C   0  0  0  0  0  0  0  0  0  0  0  0
  153.2247  143.2101  159.2538 C   0  0  0  0  0  0  0  0  0  0  0  0
  152.3088  143.8166  158.1712 C   0  0  0  0  0  0  0  0  0  0  0  0
  151.4602  142.7400  157.4652 C   0  0  0  0  0  0  0  0  0  0  0  0
  150.7569  141.8431  158.4992 C   0  0  0  0  0  0  0  0  0  0  0  0
  151.8691  137.2304  159.6301 H   0  0  0  0  0  0  0  0  0  0  0  0
  153.1991  137.4668  158.5000 H   0  0  0  0  0  0  0  0  0  0  0  0
  151.6644  136.8137  157.9359 H   0  0  0  0  0  0  0  0  0  0  0  0
  150.5259  138.9575  158.3875 H   0  0  0  0  0  0  0  0  0  0  0  0
  152.2945  140.2432  156.8403 H   0  0  0  0  0  0  0  0  0  0  0  0
  151.1332  138.7252  155.0632 H   0  0  0  0  0  0  0  0  0  0  0  0
  150.0544  138.4541  156.4242 H   0  0  0  0  0  0  0  0  0  0  0  0
  149.7534  140.9214  156.7087 H   0  0  0  0  0  0  0  0  0  0  0  0
  150.8491  141.2242  155.3737 H   0  0  0  0  0  0  0  0  0  0  0  0
  148.8682  142.3920  154.0260 H   0  0  0  0  0  0  0  0  0  0  0  0
  146.7970  141.2967  152.6261 H   0  0  0  0  0  0  0  0  0  0  0  0
  146.7657  138.6706  153.5135 H   0  0  0  0  0  0  0  0  0  0  0  0
  151.6831  142.8341  160.7405 H   0  0  0  0  0  0  0  0  0  0  0  0
  153.1039  141.8534  160.9419 H   0  0  0  0  0  0  0  0  0  0  0  0
  153.6980  144.0047  159.8312 H   0  0  0  0  0  0  0  0  0  0  0  0
  154.0316  142.6515  158.7770 H   0  0  0  0  0  0  0  0  0  0  0  0
  151.6420  144.5421  158.6388 H   0  0  0  0  0  0  0  0  0  0  0  0
  152.9011  144.3692  157.4415 H   0  0  0  0  0  0  0  0  0  0  0  0
  150.7250  143.2125  156.8132 H   0  0  0  0  0  0  0  0  0  0  0  0
  152.0977  142.1290  156.8245 H   0  0  0  0  0  0  0  0  0  0  0  0
  150.1092  141.1180  158.0108 H   0  0  0  0  0  0  0  0  0  0  0  0
  150.0821  142.4463  159.1083 H   0  0  0  0  0  0  0  0  0  0  0  0
  1  2  1  0  0  0  0
  1 19  1  0  0  0  0
  1 20  1  0  0  0  0
  1 21  1  0  0  0  0
  2  3  1  0  0  0  0
  2 11  1  0  0  0  0
  2 22  1  0  0  0  0
  3  4  1  0  0  0  0
  3 23  1  0  0  0  0
  4  5  1  0  0  0  0
  4 24  1  0  0  0  0
  4 25  1  0  0  0  0
  5  6  1  0  0  0  0
  5 26  1  0  0  0  0
  5 27  1  0  0  0  0
  6 10  1  0  0  0  0
  6  7  1  0  0  0  0
  7  8  2  0  0  0  0
  7 28  1  0  0  0  0
  8  9  1  0  0  0  0
  8 29  1  0  0  0  0
  9 10  2  0  0  0  0
  9 30  1  0  0  0  0
 11 12  2  0  0  0  0
 11 13  1  0  0  0  0
 13 18  1  0  0  0  0
 13 14  1  0  0  0  0
 14 15  1  0  0  0  0
 14 31  1  0  0  0  0
 14 32  1  0  0  0  0
 15 16  1  0  0  0  0
 15 33  1  0  0  0  0
 15 34  1  0  0  0  0
 16 17  1  0  0  0  0
 16 35  1  0  0  0  0
 16 36  1  0  0  0  0
 17 18  1  0  0  0  0
 17 37  1  0  0  0  0
 17 38  1  0  0  0  0
 18 39  1  0  0  0  0
 18 40  1  0  0  0  0
M  END
> <s_m_source_file>
AV-unprocessed.smi

> <i_m_source_file_index>
3321

> <i_lp_mmshare_version>
43012

> <i_f3d_flags>
0

> <s_epik_input>
W0NIMl0xW0NIMl1bQ0gyXVtDSDJdW0NIMl1OMUMoPU8pW0NASF0oW0NIM10pW05IXVtDSDJdW0NIMl1uMltjSF1bY0hdW2NIXW4y

> <s_epik_cmdline>
J2VwaWtfcHl0aG9uJywgJy1waCcsICc3LjAnLCAnLXRuJywgJzgnLCAnLW1hJywgJzIwMCcsICctbWV0YWxfYmluZGluZycsICctaW1hZScsICc8aW5maWxlLm1hZT4nLCAnLW9tYWUnLCAnPG91dGZpbGUubWFlPic=

> <r_lp_tautomer_probability>
1

> <r_epik_Ionization_Penalty>
0.736446

> <r_epik_Ionization_Penalty_Charging>
0

> <r_epik_Ionization_Penalty_Neutral>
0.736446

> <r_epik_State_Penalty>
0.761204

> <r_epik_Charging_Adjusted_Penalty>
0.761204

> <i_epik_Tot_Q>
0

> <i_epik_Tot_abs_Q>
0

> <r_epik_Metal_State_Penalty>
0.760551

> <b_epik_Metal_Only>
0

> <s_lp_Force_Field>
OPLS_2005

> <r_lp_Energy>
27.234

> <b_lp_Chiralities_Consistent>
1

> <s_lp_Variant>
AV-unprocessed.smi:3321-3

> <Gold.Version>
5.8.1

> <Gold.Id.Protein>
6NUR|6NUR_protein|mol2

> <Gold.PLP.Fitness>
42.2126

> <Gold.PLP.PLP>
-38.8293

> <Gold.PLP.part.hbond>
-1.5826

> <Gold.PLP.part.metal>
0.0000

> <Gold.PLP.part.buried>
-0.7300

> <Gold.PLP.part.nonpolar>
-35.2845

> <Gold.PLP.part.repulsive>
0.1378

> <Gold.PLP.ligand.clash>
0.0000

> <Gold.PLP.ligand.torsion>
1.2782

> <Gold.PLP.Chemscore.Hbond>
0.9424

> <Gold.PLP.Chemscore.CHOScore>
1.0000

> <Gold.PLP.Chemscore.Metal>
0.0000

> <Gold.Chemscore.Hbonds>
donor molecule, donor type, donor heavy atom, donor atom, acceptor molecule, acceptor atom, score
      L1  C     7    28       P1  8028  0.28

> <Gold.PLP.Chemscore.Internal.Correction>
0.1124

> <Gold.Rescore>
     Score         DG    S(hbond)    S(metal)    S(lipo)     H(rot)  DE(clash)    DE(int)     intcor
     12.91     -14.71       0.72        0.00      96.04       1.73       0.26       1.54       ----

> <Gold.Chemscore.Fitness>
12.9149

> <Gold.Chemscore.DG>
-14.7077

> <Gold.Chemscore.ZeroCoef>
-5.4800

> <Gold.Chemscore.Hbond>
0.7228

> <Gold.Chemscore.Metal>
0.0000

> <Gold.Chemscore.Lipo>
96.0365

> <Gold.Chemscore.Internal_Hbond>
0.0000

> <Gold.Chemscore.DEClash>
0.2577

> <Gold.Chemscore.DEInternal>
1.5351

> <Gold.Chemscore.Rot>
1.7277

> <Gold.Chemscore.Internal.Correction>
   9.000000E+99

> <Gold.Chemscore.Hbond.Weighted>
-2.4142

> <Gold.Chemscore.Metal.Weighted>
-0.0000

> <Gold.Chemscore.Lipo.Weighted>
-11.2363

> <Gold.Chemscore.Internal_Hbond.Weighted>
0.0000

> <Gold.Chemscore.DEClash.Weighted>
0.2577

> <Gold.Chemscore.DEInternal.Weighted>
1.5351

> <Gold.Chemscore.Rot.Weighted>
4.4228

> <Gold.Chemscore.Internal.Correction.Weighted>
   9.000000E+99

> <Gold.Protein.RotatedTorsions>
[ 6907 6896 6895 6894 ] final  -88.90 input  -60.11 | X-H torsion
[ 7974 7965 7964 7962 ] final -119.01 input  175.53 | X-H torsion
[ 8008 7997 7996 7995 ] final   -0.09 input   59.86 | X-H torsion
[ 10167 10162 10161 10158 ] final -124.86 input  -65.29 | X-H torsion
[ 10718 10713 10712 10709 ] final -179.18 input   66.30 | X-H torsion
[ 10763 10752 10751 10750 ] final  -22.41 input  -60.55 | X-H torsion
[ 11005 11000 10999 10996 ] final   75.78 input  -57.11 | X-H torsion

> <Gold.Protein.ActiveResidues>
 VAL166  LYS551  ARG553  GLY616  TRP617  ASP618  TYR619  PRO620  LYS621  CYS622 
 ASP623  PHE694  ASN695  SER759  ASP760  ASP761  ALA762  ILE779  LEU786  VAL792 
 PHE793  MET794  SER795  GLU796  ALA797  LYS798  CYS799  TRP800  GLU811  SER814 

> <Gold.Protein.RotatedAtoms>
  150.6871  134.2670  159.4572 H   0  0  0  0  0  0  0  0  0  0  0  0  # atno 6907 bound_to 6896
  152.0596  134.9600  160.0584 H   0  0  0  0  0  0  0  0  0  0  0  0  # atno 6908 bound_to 6896
  152.1032  133.4226  159.4634 H   0  0  0  0  0  0  0  0  0  0  0  0  # atno 6909 bound_to 6896
  145.0674  140.8334  143.4116 H   0  0  0  0  0  0  0  0  0  0  0  0  # atno 7974 bound_to 7965
  154.6620  140.2593  155.7098 H   0  0  0  0  0  0  0  0  0  0  0  0  # atno 8008 bound_to 7997
  156.2622  140.2846  156.1018 H   0  0  0  0  0  0  0  0  0  0  0  0  # atno 8009 bound_to 7997
  155.1294  140.0378  157.2761 H   0  0  0  0  0  0  0  0  0  0  0  0  # atno 8010 bound_to 7997
  139.9883  143.5668  152.2352 H   0  0  0  0  0  0  0  0  0  0  0  0  # atno 10167 bound_to 10162
  156.8553  130.9733  151.3088 H   0  0  0  0  0  0  0  0  0  0  0  0  # atno 10718 bound_to 10713
  153.6514  135.6980  153.5207 H   0  0  0  0  0  0  0  0  0  0  0  0  # atno 10763 bound_to 10752
  153.2703  135.4217  155.0980 H   0  0  0  0  0  0  0  0  0  0  0  0  # atno 10764 bound_to 10752
  154.8475  135.3577  154.6059 H   0  0  0  0  0  0  0  0  0  0  0  0  # atno 10765 bound_to 10752
  139.9328  134.7546  156.1313 H   0  0  0  0  0  0  0  0  0  0  0  0  # atno 11005 bound_to 11000
  145.1334  139.2617  143.5527 LP  0  0  0  0  0  0  0  0  0  0  0  0  # atno 17320 bound_to 7965
  146.3527  140.0992  142.8609 LP  0  0  0  0  0  0  0  0  0  0  0  0  # atno 17321 bound_to 7965
  139.6358  144.7650  151.2440 LP  0  0  0  0  0  0  0  0  0  0  0  0  # atno 17342 bound_to 10162
  140.7464  143.6400  150.8344 LP  0  0  0  0  0  0  0  0  0  0  0  0  # atno 17343 bound_to 10162
  157.6280  130.8707  149.9224 LP  0  0  0  0  0  0  0  0  0  0  0  0  # atno 17370 bound_to 10713
  156.0806  130.3673  150.0589 LP  0  0  0  0  0  0  0  0  0  0  0  0  # atno 17371 bound_to 10713
  141.0926  133.6708  156.2574 LP  0  0  0  0  0  0  0  0  0  0  0  0  # atno 17394 bound_to 11000
  140.6155  134.5414  157.5540 LP  0  0  0  0  0  0  0  0  0  0  0  0  # atno 17395 bound_to 11000

$$$$
