AV-unprocessed.smi:1492|AV-procd|sdf|6037|dock9
  -GOLD-   22720 6143D 1   1.00000     0.00000
 Structure written by MMmdl.
 52 53  0  0  0  0  0  0  0  0  1 V2000
  147.0464  142.1283  154.2905 C   0  0  0  0  0  0  0  0  0  0  0  0
  148.3942  141.4305  154.5540 C   0  0  0  0  0  0  0  0  0  0  0  0
  148.3756  139.8957  154.8688 C   0  0  2  0  0  0  0  0  0  0  0  0
  147.8087  139.1541  153.6320 C   0  0  0  0  0  0  0  0  0  0  0  0
  147.3906  139.6447  156.0538 C   0  0  0  0  0  0  0  0  0  0  0  0
  147.5245  138.2864  156.5715 N   0  0  0  0  0  0  0  0  0  0  0  0
  146.9585  137.8113  157.6897 C   0  0  0  0  0  0  0  0  0  0  0  0
  146.4199  138.5171  158.5413 O   0  0  0  0  0  0  0  0  0  0  0  0
  146.9545  136.2904  157.8324 C   0  0  0  0  0  0  0  0  0  0  0  0
  146.1562  135.7809  159.0319 C   0  0  0  0  0  0  0  0  0  0  0  0
  145.0279  135.0225  158.9066 C   0  0  0  0  0  0  0  0  0  0  0  0
  144.4438  134.6287  157.5610 C   0  0  0  0  0  0  0  0  0  0  0  0
  144.3388  134.5390  160.0274 N   0  0  0  0  0  0  0  0  0  0  0  0
  144.7964  134.8131  161.2043 C   0  0  0  0  0  0  0  0  0  0  0  0
  144.1547  134.3391  162.4908 C   0  0  0  0  0  0  0  0  0  0  0  0
  145.9443  135.5778  161.4021 N   0  0  0  0  0  0  0  0  0  0  0  0
  146.6655  136.0931  160.3817 C   0  0  0  0  0  0  0  0  0  0  0  0
  147.6750  136.7584  160.6085 O   0  0  0  0  0  0  0  0  0  0  0  0
  149.7541  139.4329  155.2213 N   0  0  0  0  0  0  0  0  0  0  0  0
  150.5493  138.9136  154.1001 C   0  0  0  0  0  0  0  0  0  0  0  0
  151.8908  138.3237  154.5641 C   0  0  0  0  0  0  0  0  0  0  0  0
  152.6280  139.3126  155.2708 O   0  0  0  0  0  0  0  0  0  0  0  0
  151.9220  139.8060  156.4014 C   0  0  0  0  0  0  0  0  0  0  0  0
  150.5746  140.4021  155.9588 C   0  0  0  0  0  0  0  0  0  0  0  0
  146.2555  135.7594  162.3451 H   0  0  0  0  0  0  0  0  0  0  0  0
  147.2127  143.1597  153.9796 H   0  0  0  0  0  0  0  0  0  0  0  0
  146.4242  142.1682  155.1841 H   0  0  0  0  0  0  0  0  0  0  0  0
  146.4790  141.6418  153.4981 H   0  0  0  0  0  0  0  0  0  0  0  0
  149.0022  141.6117  153.6680 H   0  0  0  0  0  0  0  0  0  0  0  0
  148.8922  141.9626  155.3658 H   0  0  0  0  0  0  0  0  0  0  0  0
  146.7932  139.4745  153.4025 H   0  0  0  0  0  0  0  0  0  0  0  0
  147.7576  138.0769  153.7872 H   0  0  0  0  0  0  0  0  0  0  0  0
  148.4059  139.3306  152.7377 H   0  0  0  0  0  0  0  0  0  0  0  0
  147.5729  140.3381  156.8737 H   0  0  0  0  0  0  0  0  0  0  0  0
  146.3627  139.8612  155.7634 H   0  0  0  0  0  0  0  0  0  0  0  0
  147.9580  137.6166  155.9523 H   0  0  0  0  0  0  0  0  0  0  0  0
  146.5818  135.8466  156.9084 H   0  0  0  0  0  0  0  0  0  0  0  0
  147.9857  135.9458  157.9095 H   0  0  0  0  0  0  0  0  0  0  0  0
  145.1735  134.0713  156.9739 H   0  0  0  0  0  0  0  0  0  0  0  0
  144.1444  135.5131  156.9985 H   0  0  0  0  0  0  0  0  0  0  0  0
  143.5633  133.9961  157.6815 H   0  0  0  0  0  0  0  0  0  0  0  0
  143.1287  134.7019  162.5545 H   0  0  0  0  0  0  0  0  0  0  0  0
  144.6977  134.6948  163.3672 H   0  0  0  0  0  0  0  0  0  0  0  0
  144.1359  133.2494  162.5201 H   0  0  0  0  0  0  0  0  0  0  0  0
  150.0180  138.1292  153.5670 H   0  0  0  0  0  0  0  0  0  0  0  0
  150.7485  139.7064  153.3792 H   0  0  0  0  0  0  0  0  0  0  0  0
  151.7309  137.4532  155.2007 H   0  0  0  0  0  0  0  0  0  0  0  0
  152.4742  137.9895  153.7063 H   0  0  0  0  0  0  0  0  0  0  0  0
  151.7682  139.0020  157.1218 H   0  0  0  0  0  0  0  0  0  0  0  0
  152.5282  140.5651  156.8955 H   0  0  0  0  0  0  0  0  0  0  0  0
  150.7610  141.2828  155.3441 H   0  0  0  0  0  0  0  0  0  0  0  0
  150.0670  140.7431  156.8586 H   0  0  0  0  0  0  0  0  0  0  0  0
  1  2  1  0  0  0  0
  1 26  1  0  0  0  0
  1 27  1  0  0  0  0
  1 28  1  0  0  0  0
  2  3  1  0  0  0  0
  2 29  1  0  0  0  0
  2 30  1  0  0  0  0
  3  4  1  0  0  0  0
  3  5  1  0  0  0  0
  3 19  1  0  0  0  0
  4 31  1  0  0  0  0
  4 32  1  0  0  0  0
  4 33  1  0  0  0  0
  5  6  1  0  0  0  0
  5 34  1  0  0  0  0
  5 35  1  0  0  0  0
  6  7  1  0  0  0  0
  6 36  1  0  0  0  0
  7  8  2  0  0  0  0
  7  9  1  0  0  0  0
  9 10  1  0  0  0  0
  9 37  1  0  0  0  0
  9 38  1  0  0  0  0
 10 17  1  0  0  0  0
 10 11  2  0  0  0  0
 11 12  1  0  0  0  0
 11 13  1  0  0  0  0
 12 39  1  0  0  0  0
 12 40  1  0  0  0  0
 12 41  1  0  0  0  0
 13 14  2  0  0  0  0
 14 15  1  0  0  0  0
 14 16  1  0  0  0  0
 15 42  1  0  0  0  0
 15 43  1  0  0  0  0
 15 44  1  0  0  0  0
 16 25  1  0  0  0  0
 16 17  1  0  0  0  0
 17 18  2  0  0  0  0
 19 24  1  0  0  0  0
 19 20  1  0  0  0  0
 20 21  1  0  0  0  0
 20 45  1  0  0  0  0
 20 46  1  0  0  0  0
 21 22  1  0  0  0  0
 21 47  1  0  0  0  0
 21 48  1  0  0  0  0
 22 23  1  0  0  0  0
 23 24  1  0  0  0  0
 23 49  1  0  0  0  0
 23 50  1  0  0  0  0
 24 51  1  0  0  0  0
 24 52  1  0  0  0  0
M  END
> <s_m_source_file>
AV-unprocessed.smi

> <i_m_source_file_index>
1492

> <i_lp_mmshare_version>
43012

> <i_f3d_flags>
0

> <s_epik_input>
W0NIMl0xW0NIMl1PW0NIMl1bQ0gyXU4xW0NAQF0oW0NIM10pKFtDSDJdW0NIM10pW0NIMl1bTkhdQyg9TylbQ0gyXWMyYyhbQ0gzXSluYyhbQ0gzXSlbbkhdYzI9Tw==

> <s_epik_cmdline>
J2VwaWtfcHl0aG9uJywgJy1waCcsICc3LjAnLCAnLXRuJywgJzgnLCAnLW1hJywgJzIwMCcsICctbWV0YWxfYmluZGluZycsICctaW1hZScsICc8aW5maWxlLm1hZT4nLCAnLW9tYWUnLCAnPG91dGZpbGUubWFlPic=

> <r_lp_tautomer_probability>
0.839158

> <r_epik_Ionization_Penalty>
0.328652

> <r_epik_Ionization_Penalty_Charging>
0.000364731

> <r_epik_Ionization_Penalty_Neutral>
0.328288

> <r_epik_State_Penalty>
0.414451

> <r_epik_Charging_Adjusted_Penalty>
0.414816

> <i_epik_Tot_Q>
0

> <i_epik_Tot_abs_Q>
0

> <r_epik_Metal_State_Penalty>
0.592978

> <b_epik_Metal_Only>
0

> <s_lp_Force_Field>
OPLS_2005

> <r_lp_Energy>
44.0338

> <b_lp_Chiralities_Consistent>
1

> <s_lp_Variant>
AV-unprocessed.smi:1492-2

> <Gold.Version>
5.8.1

> <Gold.Id.Protein>
6NUR|6NUR_protein|mol2

> <Gold.PLP.Fitness>
36.1507

> <Gold.PLP.PLP>
-30.4757

> <Gold.PLP.part.hbond>
-4.6646

> <Gold.PLP.part.metal>
0.0000

> <Gold.PLP.part.buried>
-4.0631

> <Gold.PLP.part.nonpolar>
-21.9274

> <Gold.PLP.part.repulsive>
0.1249

> <Gold.PLP.ligand.clash>
0.0000

> <Gold.PLP.ligand.torsion>
1.3073

> <Gold.PLP.Chemscore.Hbond>
2.7199

> <Gold.PLP.Chemscore.CHOScore>
0.0000

> <Gold.PLP.Chemscore.Metal>
0.0000

> <Gold.Chemscore.Hbonds>
donor molecule, donor type, donor heavy atom, donor atom, acceptor molecule, acceptor atom, score
      P1  H  6931  6943       L1    18  0.08
      P1  H  6934  6947       L1    18  0.23
      P1  H  7997  8009       L1    22  0.48

> <Gold.PLP.Chemscore.Internal.Correction>
0.1299

> <Gold.Rescore>
     Score         DG    S(hbond)    S(metal)    S(lipo)     H(rot)  DE(clash)    DE(int)     intcor
     14.95     -16.22       2.64        0.00      62.74       2.12       0.07       1.21       ----

> <Gold.Chemscore.Fitness>
14.9455

> <Gold.Chemscore.DG>
-16.2249

> <Gold.Chemscore.ZeroCoef>
-5.4800

> <Gold.Chemscore.Hbond>
2.6408

> <Gold.Chemscore.Metal>
0.0000

> <Gold.Chemscore.Lipo>
62.7386

> <Gold.Chemscore.Internal_Hbond>
0.0000

> <Gold.Chemscore.DEClash>
0.0664

> <Gold.Chemscore.DEInternal>
1.2130

> <Gold.Chemscore.Rot>
2.1155

> <Gold.Chemscore.Internal.Correction>
   9.000000E+99

> <Gold.Chemscore.Hbonds>
donor molecule, donor type, donor heavy atom, donor atom, acceptor molecule, acceptor atom, score
      P1  H  6931  6943       L1    18  0.12
      P1  H  6934  6947       L1    18  0.19
      P1  H  7997  8009       L1    22  0.03

> <Gold.Chemscore.Hbond.Weighted>
-8.8202

> <Gold.Chemscore.Metal.Weighted>
-0.0000

> <Gold.Chemscore.Lipo.Weighted>
-7.3404

> <Gold.Chemscore.Internal_Hbond.Weighted>
0.0000

> <Gold.Chemscore.DEClash.Weighted>
0.0664

> <Gold.Chemscore.DEInternal.Weighted>
1.2130

> <Gold.Chemscore.Rot.Weighted>
5.4157

> <Gold.Chemscore.Internal.Correction.Weighted>
   9.000000E+99

> <Gold.Protein.RotatedTorsions>
[ 6907 6896 6895 6894 ] final  135.81 input  -60.11 | X-H torsion
[ 7974 7965 7964 7962 ] final  115.64 input  175.53 | X-H torsion
[ 8008 7997 7996 7995 ] final -137.09 input   59.86 | X-H torsion
[ 10167 10162 10161 10158 ] final  -97.51 input  -65.29 | X-H torsion
[ 10718 10713 10712 10709 ] final -166.49 input   66.30 | X-H torsion
[ 10763 10752 10751 10750 ] final -169.84 input  -60.55 | X-H torsion
[ 11005 11000 10999 10996 ] final  -20.03 input  -57.11 | X-H torsion

> <Gold.Protein.ActiveResidues>
 VAL166  LYS551  ARG553  GLY616  TRP617  ASP618  TYR619  PRO620  LYS621  CYS622 
 ASP623  PHE694  ASN695  SER759  ASP760  ASP761  ALA762  ILE779  LEU786  VAL792 
 PHE793  MET794  SER795  GLU796  ALA797  LYS798  CYS799  TRP800  GLU811  SER814 

> <Gold.Protein.RotatedAtoms>
  152.2963  133.5611  159.5589 H   0  0  0  0  0  0  0  0  0  0  0  0  # atno 6907 bound_to 6896
  150.7257  134.0356  159.3757 H   0  0  0  0  0  0  0  0  0  0  0  0  # atno 6908 bound_to 6896
  151.8258  135.0637  160.0481 H   0  0  0  0  0  0  0  0  0  0  0  0  # atno 6909 bound_to 6896
  145.1894  139.3008  143.4376 H   0  0  0  0  0  0  0  0  0  0  0  0  # atno 7974 bound_to 7965
  155.4061  140.0509  157.3034 H   0  0  0  0  0  0  0  0  0  0  0  0  # atno 8008 bound_to 7997
  154.4968  140.2141  155.9390 H   0  0  0  0  0  0  0  0  0  0  0  0  # atno 8009 bound_to 7997
  156.1416  140.3153  155.8509 H   0  0  0  0  0  0  0  0  0  0  0  0  # atno 8010 bound_to 7997
  140.2827  143.3272  152.0425 H   0  0  0  0  0  0  0  0  0  0  0  0  # atno 10167 bound_to 10162
  156.6686  130.9075  151.3040 H   0  0  0  0  0  0  0  0  0  0  0  0  # atno 10718 bound_to 10713
  154.6480  135.2907  155.0022 H   0  0  0  0  0  0  0  0  0  0  0  0  # atno 10763 bound_to 10752
  154.1125  135.6560  153.4891 H   0  0  0  0  0  0  0  0  0  0  0  0  # atno 10764 bound_to 10752
  153.0361  135.5268  154.7375 H   0  0  0  0  0  0  0  0  0  0  0  0  # atno 10765 bound_to 10752
  140.8424  133.7916  155.9876 H   0  0  0  0  0  0  0  0  0  0  0  0  # atno 11005 bound_to 11000
  146.3439  140.2101  142.8590 LP  0  0  0  0  0  0  0  0  0  0  0  0  # atno 17320 bound_to 7965
  145.0056  140.8670  143.5255 LP  0  0  0  0  0  0  0  0  0  0  0  0  # atno 17321 bound_to 7965
  139.4958  144.6581  151.6527 LP  0  0  0  0  0  0  0  0  0  0  0  0  # atno 17342 bound_to 10162
  140.5799  143.9965  150.6262 LP  0  0  0  0  0  0  0  0  0  0  0  0  # atno 17343 bound_to 10162
  157.7085  130.9412  150.1010 LP  0  0  0  0  0  0  0  0  0  0  0  0  # atno 17370 bound_to 10713
  156.1956  130.3657  149.8854 LP  0  0  0  0  0  0  0  0  0  0  0  0  # atno 17371 bound_to 10713
  140.8880  134.2530  157.5109 LP  0  0  0  0  0  0  0  0  0  0  0  0  # atno 17394 bound_to 11000
  139.8703  134.9647  156.4506 LP  0  0  0  0  0  0  0  0  0  0  0  0  # atno 17395 bound_to 11000

$$$$
