#       Name:                AV-unprocessed.smi:1642
#       Creating user name   scv26
#       Creation time:       Fri Mar 27 07:25:42 2020


#       File generated by GOLD software.
#

@<TRIPOS>MOLECULE
AV-unprocessed.smi:1642
    39    40     1
SMALL
NO_CHARGES


@<TRIPOS>ATOM
      1 ****        -5.2482   3.7254   0.2740 C.3            1 S1                 0.0000
      2 ****        -4.1595   2.9815   0.9682 C.2            1 S1                 0.0000
      3 ****        -3.8338   3.2047   2.2436 N.2            1 S1                 0.0000
      4 ****        -2.7892   2.3955   2.6656 N.2            1 S1                 0.0000
      5 ****        -2.3332   1.5809   1.7039 C.2            1 S1                 0.0000
      6 ****        -1.3220   0.7208   1.9092 N.pl3          1 S1                -1.0000
      7 ****        -0.0722   1.0430   1.5095 C.2            1 S1                 0.0000
      8 ****         0.2684   2.0779   0.9324 O.2            1 S1                 0.0000
      9 ****         0.8386   0.0980   1.7802 N.am           1 S1                 0.0000
     10 ****         2.2516   0.1420   1.4125 C.3            1 S1                 0.0000
     11 ****         2.4764  -0.0196  -0.1053 C.3            1 S1                 0.0000
     12 ****         1.6819  -1.1288  -0.6848 N.4            1 S1                 1.0000
     13 ****         1.6195  -1.1298  -2.1572 C.3            1 S1                 0.0000
     14 ****         1.1824  -2.5443  -2.5483 C.3            1 S1                 0.0000
     15 ****         1.5111  -3.4262  -1.3371 C.3            1 S1                 0.0000
     16 ****         2.1182  -2.4829  -0.2947 C.3            1 S1                 0.0000
     17 ****        -3.2001   1.7425   0.1766 S.3            1 S1                 0.0000
     18 ****        -4.9534   4.7642   0.1247 H              1 S1                 0.0000
     19 ****        -6.1604   3.7006   0.8705 H              1 S1                 0.0000
     20 ****        -5.4547   3.2768  -0.6980 H              1 S1                 0.0000
     21 ****         0.5184  -0.7235   2.2724 H              1 S1                 0.0000
     22 ****         2.7024   1.0701   1.7675 H              1 S1                 0.0000
     23 ****         2.7541  -0.6647   1.9465 H              1 S1                 0.0000
     24 ****         2.1811   0.9041  -0.6047 H              1 S1                 0.0000
     25 ****         3.5366  -0.1573  -0.3213 H              1 S1                 0.0000
     26 ****         0.9393  -0.3632  -2.5297 H              1 S1                 0.0000
     27 ****         2.6119  -0.9273  -2.5633 H              1 S1                 0.0000
     28 ****         0.1093  -2.5682  -2.7419 H              1 S1                 0.0000
     29 ****         1.6874  -2.8832  -3.4534 H              1 S1                 0.0000
     30 ****         0.5971  -3.8791  -0.9507 H              1 S1                 0.0000
     31 ****         2.1964  -4.2357  -1.5908 H              1 S1                 0.0000
     32 ****         3.2069  -2.5424  -0.3387 H              1 S1                 0.0000
     33 ****         1.8079  -2.7308   0.7209 H              1 S1                 0.0000
     34 ****         0.7312  -1.0206  -0.3591 H              1 S1                 0.0000
     35 ****        -4.2899   3.8770   2.8268 LP             1 S1                 0.0000
     36 ****        -2.4147   2.4176   3.5926 LP             1 S1                 0.0000
     37 ****        -1.4940  -0.1566   2.3572 LP             1 S1                 0.0000
     38 ****        -0.4127   2.7778   0.7174 LP             1 S1                 0.0000
     39 ****         1.2257   2.2173   0.6793 LP             1 S1                 0.0000
@<TRIPOS>BOND
    1    1    2 1     
    2    1   18 1     
    3    1   19 1     
    4    1   20 1     
    5    2   17 1     
    6    2    3 2     
    7    3    4 1     
    8    4    5 2     
    9    5    6 1     
   10    5   17 1     
   11    6    7 1     
   12    7    8 2     
   13    7    9 am    
   14    9   10 1     
   15    9   21 1     
   16   10   11 1     
   17   10   22 1     
   18   10   23 1     
   19   11   12 1     
   20   11   24 1     
   21   11   25 1     
   22   12   16 1     
   23   12   13 1     
   24   12   34 1     
   25   13   14 1     
   26   13   26 1     
   27   13   27 1     
   28   14   15 1     
   29   14   28 1     
   30   14   29 1     
   31   15   16 1     
   32   15   30 1     
   33   15   31 1     
   34   16   32 1     
   35   16   33 1     
   36    3   35 1     
   37    4   36 1     
   38    6   37 1     
   39    8   38 1     
   40    8   39 1     
@<TRIPOS>SUBSTRUCTURE
      1 S1             1
@<TRIPOS>SET
LONE_PAIRS      STATIC     ATOMS    <user>   **** ""
5 35 36 37 38 39
DONOR_HYDROGENS      STATIC     ATOMS    <user>   **** ""
2 21 34
ATOM$BLUE        STATIC     ATOMS    COLORGROUP SYSTEM
5 35 36 37 38 39
ATOM$RED        STATIC     ATOMS    COLORGROUP SYSTEM
2 21 34
