AV-unprocessed.smi:2021|AV-procd|sdf|8179|dock1
  -GOLD-   2272010433D 1   1.00000     0.00000
 Structure written by MMmdl.
 41 42  0  0  0  0  0  0  0  0  1 V2000
  152.7626  143.4958  158.6730 C   0  0  0  0  0  0  0  0  0  0  0  0
  152.3060  142.2951  159.5190 C   0  0  0  0  0  0  0  0  0  0  0  0
  152.8897  142.3156  160.9424 C   0  0  0  0  0  0  0  0  0  0  0  0
  152.4589  140.9316  158.8003 C   0  0  0  0  0  0  0  0  0  0  0  0
  152.0187  140.8448  157.4039 N   0  0  0  0  0  0  0  0  0  0  0  0
  152.1845  139.5126  156.8291 C   0  0  0  0  0  0  0  0  0  0  0  0
  151.6656  139.4382  155.3830 C   0  0  0  0  0  0  0  0  0  0  0  0
  150.3053  139.8523  155.3396 O   0  0  0  0  0  0  0  0  0  0  0  0
  150.1160  141.1783  155.8268 C   0  0  1  0  0  0  0  0  0  0  0  0
  148.6228  141.5304  155.7173 C   0  0  0  0  0  0  0  0  0  0  0  0
  148.2229  142.4989  156.7325 N   0  0  0  0  0  0  0  0  0  0  0  0
  147.5096  142.2133  157.8306 C   0  0  0  0  0  0  0  0  0  0  0  0
  147.0861  141.0870  158.0900 O   0  0  0  0  0  0  0  0  0  0  0  0
  147.3313  143.3056  158.5911 N   0  0  0  0  0  0  0  0  0  0  0  0
  146.6467  143.4046  159.8281 C   0  0  0  0  0  0  0  0  0  0  0  0
  146.1926  142.2767  160.3871 N   0  0  0  0  0  0  0  0  0  0  0  0
  145.5424  142.5174  161.5914 N   0  0  0  0  0  0  0  0  0  0  0  0
  145.5315  143.8192  161.8938 C   0  0  0  0  0  0  0  0  0  0  0  0
  146.3155  144.8817  160.7380 S   0  0  0  0  0  0  0  0  0  0  0  0
  150.6184  141.2405  157.2822 C   0  0  0  0  0  0  0  0  0  0  0  0
  153.8416  143.4957  158.5189 H   0  0  0  0  0  0  0  0  0  0  0  0
  152.5013  144.4370  159.1575 H   0  0  0  0  0  0  0  0  0  0  0  0
  152.2856  143.4874  157.6926 H   0  0  0  0  0  0  0  0  0  0  0  0
  151.2319  142.4218  159.6604 H   0  0  0  0  0  0  0  0  0  0  0  0
  153.9769  142.2733  160.9524 H   0  0  0  0  0  0  0  0  0  0  0  0
  152.5192  141.4756  161.5307 H   0  0  0  0  0  0  0  0  0  0  0  0
  152.6003  143.2284  161.4637 H   0  0  0  0  0  0  0  0  0  0  0  0
  153.4871  140.5782  158.8897 H   0  0  0  0  0  0  0  0  0  0  0  0
  151.8649  140.2200  159.3757 H   0  0  0  0  0  0  0  0  0  0  0  0
  153.2357  139.2349  156.8200 H   0  0  0  0  0  0  0  0  0  0  0  0
  151.6634  138.7752  157.4415 H   0  0  0  0  0  0  0  0  0  0  0  0
  152.2655  140.0681  154.7244 H   0  0  0  0  0  0  0  0  0  0  0  0
  151.7402  138.4184  155.0055 H   0  0  0  0  0  0  0  0  0  0  0  0
  150.6982  141.8717  155.2169 H   0  0  0  0  0  0  0  0  0  0  0  0
  148.4091  141.9543  154.7357 H   0  0  0  0  0  0  0  0  0  0  0  0
  148.0124  140.6300  155.8044 H   0  0  0  0  0  0  0  0  0  0  0  0
  148.5348  143.4496  156.5993 H   0  0  0  0  0  0  0  0  0  0  0  0
  147.7380  144.1643  158.2507 H   0  0  0  0  0  0  0  0  0  0  0  0
  145.0584  144.1558  162.8042 H   0  0  0  0  0  0  0  0  0  0  0  0
  149.9981  140.5954  157.9068 H   0  0  0  0  0  0  0  0  0  0  0  0
  150.4900  142.2553  157.6606 H   0  0  0  0  0  0  0  0  0  0  0  0
  1  2  1  0  0  0  0
  1 21  1  0  0  0  0
  1 22  1  0  0  0  0
  1 23  1  0  0  0  0
  2  3  1  0  0  0  0
  2  4  1  0  0  0  0
  2 24  1  0  0  0  0
  3 25  1  0  0  0  0
  3 26  1  0  0  0  0
  3 27  1  0  0  0  0
  4  5  1  0  0  0  0
  4 28  1  0  0  0  0
  4 29  1  0  0  0  0
  5 20  1  0  0  0  0
  5  6  1  0  0  0  0
  6  7  1  0  0  0  0
  6 30  1  0  0  0  0
  6 31  1  0  0  0  0
  7  8  1  0  0  0  0
  7 32  1  0  0  0  0
  7 33  1  0  0  0  0
  8  9  1  0  0  0  0
  9 10  1  0  0  0  0
  9 20  1  0  0  0  0
  9 34  1  0  0  0  0
 10 11  1  0  0  0  0
 10 35  1  0  0  0  0
 10 36  1  0  0  0  0
 11 12  1  0  0  0  0
 11 37  1  0  0  0  0
 12 13  2  0  0  0  0
 12 14  1  0  0  0  0
 14 15  1  0  0  0  0
 14 38  1  0  0  0  0
 15 19  1  0  0  0  0
 15 16  2  0  0  0  0
 16 17  1  0  0  0  0
 17 18  2  0  0  0  0
 18 19  1  0  0  0  0
 18 39  1  0  0  0  0
 20 40  1  0  0  0  0
 20 41  1  0  0  0  0
M  END
> <s_m_source_file>
AV-unprocessed.smi

> <i_m_source_file_index>
2021

> <i_lp_mmshare_version>
43012

> <i_f3d_flags>
0

> <s_epik_input>
W0NIM11bQ0hdKFtDSDNdKVtDSDJdTjFbQ0gyXVtDSDJdT1tDQEhdKFtDSDJdMSlbQ0gyXVtOSF1DKD1PKVtOSF1jMm5uW2NIXXMy

> <s_epik_cmdline>
J2VwaWtfcHl0aG9uJywgJy1waCcsICc3LjAnLCAnLXRuJywgJzgnLCAnLW1hJywgJzIwMCcsICctbWV0YWxfYmluZGluZycsICctaW1hZScsICc8aW5maWxlLm1hZT4nLCAnLW9tYWUnLCAnPG91dGZpbGUubWFlPic=

> <r_lp_tautomer_probability>
1

> <r_epik_Ionization_Penalty>
1.11451

> <r_epik_Ionization_Penalty_Charging>
0

> <r_epik_Ionization_Penalty_Neutral>
1.11451

> <r_epik_State_Penalty>
1.17021

> <r_epik_Charging_Adjusted_Penalty>
1.17021

> <i_epik_Tot_Q>
0

> <i_epik_Tot_abs_Q>
0

> <r_epik_Metal_State_Penalty>
1.53642

> <b_epik_Metal_Only>
0

> <s_lp_Force_Field>
OPLS_2005

> <r_lp_Energy>
25.242

> <b_lp_Chiralities_Consistent>
1

> <s_lp_Variant>
AV-unprocessed.smi:2021-5

> <Gold.Version>
5.8.1

> <Gold.Id.Protein>
6NUR|6NUR_protein|mol2

> <Gold.PLP.Fitness>
45.4706

> <Gold.PLP.PLP>
-37.3473

> <Gold.PLP.part.hbond>
-4.7678

> <Gold.PLP.part.metal>
0.0000

> <Gold.PLP.part.buried>
-3.6970

> <Gold.PLP.part.nonpolar>
-28.5863

> <Gold.PLP.part.repulsive>
0.1625

> <Gold.PLP.ligand.clash>
0.0000

> <Gold.PLP.ligand.torsion>
0.5067

> <Gold.PLP.Chemscore.Hbond>
3.0000

> <Gold.PLP.Chemscore.CHOScore>
0.0000

> <Gold.PLP.Chemscore.Metal>
0.0000

> <Gold.Chemscore.Hbonds>
donor molecule, donor type, donor heavy atom, donor atom, acceptor molecule, acceptor atom, score
      L1  H    11    37       P1  8028  1.00
      L1  H    14    38       P1  8029  1.00
      P1  H  6934  6946       L1    16  1.00

> <Gold.PLP.Chemscore.Internal.Correction>
0.1367

> <Gold.Rescore>
     Score         DG    S(hbond)    S(metal)    S(lipo)     H(rot)  DE(clash)    DE(int)     intcor
     15.87     -17.83       2.12        0.00      85.38       1.84       0.02       1.94       ----

> <Gold.Chemscore.Fitness>
15.8748

> <Gold.Chemscore.DG>
-17.8342

> <Gold.Chemscore.ZeroCoef>
-5.4800

> <Gold.Chemscore.Hbond>
2.1194

> <Gold.Chemscore.Metal>
0.0000

> <Gold.Chemscore.Lipo>
85.3785

> <Gold.Chemscore.Internal_Hbond>
0.0000

> <Gold.Chemscore.DEClash>
0.0222

> <Gold.Chemscore.DEInternal>
1.9371

> <Gold.Chemscore.Rot>
1.8413

> <Gold.Chemscore.Internal.Correction>
   9.000000E+99

> <Gold.Chemscore.Hbonds>
donor molecule, donor type, donor heavy atom, donor atom, acceptor molecule, acceptor atom, score
      L1  H    11    37       P1  8028  0.47
      L1  H    14    38       P1  8029  0.42
      P1  H  6934  6946       L1    16  0.25

> <Gold.Chemscore.Hbond.Weighted>
-7.0788

> <Gold.Chemscore.Metal.Weighted>
-0.0000

> <Gold.Chemscore.Lipo.Weighted>
-9.9893

> <Gold.Chemscore.Internal_Hbond.Weighted>
0.0000

> <Gold.Chemscore.DEClash.Weighted>
0.0222

> <Gold.Chemscore.DEInternal.Weighted>
1.9371

> <Gold.Chemscore.Rot.Weighted>
4.7138

> <Gold.Chemscore.Internal.Correction.Weighted>
   9.000000E+99

> <Gold.Protein.RotatedTorsions>
[ 6907 6896 6895 6894 ] final   17.43 input  -60.11 | X-H torsion
[ 7974 7965 7964 7962 ] final  101.93 input  175.53 | X-H torsion
[ 8008 7997 7996 7995 ] final   85.51 input   59.86 | X-H torsion
[ 10167 10162 10161 10158 ] final  -87.91 input  -65.29 | X-H torsion
[ 10718 10713 10712 10709 ] final   27.55 input   66.30 | X-H torsion
[ 10763 10752 10751 10750 ] final   96.99 input  -60.55 | X-H torsion
[ 11005 11000 10999 10996 ] final   83.27 input  -57.11 | X-H torsion

> <Gold.Protein.ActiveResidues>
 VAL166  LYS551  ARG553  GLY616  TRP617  ASP618  TYR619  PRO620  LYS621  CYS622 
 ASP623  PHE694  ASN695  SER759  ASP760  ASP761  ALA762  ILE779  LEU786  VAL792 
 PHE793  MET794  SER795  GLU796  ALA797  LYS798  CYS799  TRP800  GLU811  SER814 

> <Gold.Protein.RotatedAtoms>
  151.8495  135.0562  160.0457 H   0  0  0  0  0  0  0  0  0  0  0  0  # atno 6907 bound_to 6896
  152.2747  133.5410  159.5469 H   0  0  0  0  0  0  0  0  0  0  0  0  # atno 6908 bound_to 6896
  150.7165  134.0564  159.3858 H   0  0  0  0  0  0  0  0  0  0  0  0  # atno 6909 bound_to 6896
  145.3658  139.2408  143.3482 H   0  0  0  0  0  0  0  0  0  0  0  0  # atno 7974 bound_to 7965
  155.9509  140.3401  155.6407 H   0  0  0  0  0  0  0  0  0  0  0  0  # atno 8008 bound_to 7997
  155.6921  140.0750  157.2462 H   0  0  0  0  0  0  0  0  0  0  0  0  # atno 8009 bound_to 7997
  154.4122  140.1655  156.2085 H   0  0  0  0  0  0  0  0  0  0  0  0  # atno 8010 bound_to 7997
  140.3798  143.2754  151.9397 H   0  0  0  0  0  0  0  0  0  0  0  0  # atno 10167 bound_to 10162
  157.2217  130.6982  149.6273 H   0  0  0  0  0  0  0  0  0  0  0  0  # atno 10718 bound_to 10713
  153.2715  135.4199  155.0992 H   0  0  0  0  0  0  0  0  0  0  0  0  # atno 10763 bound_to 10752
  154.8457  135.3473  154.6238 H   0  0  0  0  0  0  0  0  0  0  0  0  # atno 10764 bound_to 10752
  153.6658  135.7046  153.5220 H   0  0  0  0  0  0  0  0  0  0  0  0  # atno 10765 bound_to 10752
  139.9036  134.8133  156.2287 H   0  0  0  0  0  0  0  0  0  0  0  0  # atno 11005 bound_to 11000
  146.2907  140.4300  142.8740 LP  0  0  0  0  0  0  0  0  0  0  0  0  # atno 17320 bound_to 7965
  144.8612  140.7143  143.6106 LP  0  0  0  0  0  0  0  0  0  0  0  0  # atno 17321 bound_to 7965
  139.4796  144.5829  151.7902 LP  0  0  0  0  0  0  0  0  0  0  0  0  # atno 17342 bound_to 10162
  140.4949  144.1256  150.5958 LP  0  0  0  0  0  0  0  0  0  0  0  0  # atno 17343 bound_to 10162
  155.9682  130.4518  150.5748 LP  0  0  0  0  0  0  0  0  0  0  0  0  # atno 17370 bound_to 10713
  157.3569  131.0743  151.1668 LP  0  0  0  0  0  0  0  0  0  0  0  0  # atno 17371 bound_to 10713
  141.0359  133.6963  156.1512 LP  0  0  0  0  0  0  0  0  0  0  0  0  # atno 17394 bound_to 11000
  140.7027  134.4546  157.5585 LP  0  0  0  0  0  0  0  0  0  0  0  0  # atno 17395 bound_to 11000

$$$$
