AV-unprocessed.smi:2412|AV-procd|sdf|9532|dock1
  -GOLD-   2272013163D 1   1.00000     0.00000
 Structure written by MMmdl.
 37 38  0  0  0  0  0  0  0  0  1 V2000
  152.3800  143.9507  162.1142 C   0  0  0  0  0  0  0  0  0  0  0  0
  152.0774  144.0322  160.6281 C   0  0  0  0  0  0  0  0  0  0  0  0
  151.4646  145.1879  160.0976 C   0  0  0  0  0  0  0  0  0  0  0  0
  151.1662  145.3416  158.7911 N   0  0  0  0  0  0  0  0  0  0  0  0
  151.4790  144.3329  157.9525 C   0  0  0  0  0  0  0  0  0  0  0  0
  152.0918  143.1366  158.3728 C   0  0  0  0  0  0  0  0  0  0  0  0
  152.3907  142.9688  159.7467 C   0  0  0  0  0  0  0  0  0  0  0  0
  153.0281  141.8087  160.2719 N   0  0  0  0  0  0  0  0  0  0  0  0
  153.3874  140.6816  159.6334 C   0  0  0  0  0  0  0  0  0  0  0  0
  153.1872  140.4392  158.4431 O   0  0  0  0  0  0  0  0  0  0  0  0
  153.9902  139.8227  160.4693 N   0  0  0  0  0  0  0  0  0  0  0  0
  154.5249  138.5159  160.0901 C   0  0  0  0  0  0  0  0  0  0  0  0
  153.8965  137.3481  160.8735 C   0  0  0  0  0  0  0  0  0  0  0  0
  153.2551  136.4811  160.2768 O   0  0  0  0  0  0  0  0  0  0  0  0
  154.0832  137.3044  162.2091 N   0  0  0  0  0  0  0  0  0  0  0  0
  154.8385  138.2757  163.0004 C   0  0  0  0  0  0  0  0  0  0  0  0
  154.5887  137.9034  164.4626 C   0  0  0  0  0  0  0  0  0  0  0  0
  154.2404  136.4223  164.4183 C   0  0  0  0  0  0  0  0  0  0  0  0
  153.5596  136.2392  163.0620 C   0  0  0  0  0  0  0  0  0  0  0  0
  152.0402  144.8448  162.6378 H   0  0  0  0  0  0  0  0  0  0  0  0
  153.4531  143.8510  162.2793 H   0  0  0  0  0  0  0  0  0  0  0  0
  151.8791  143.0903  162.5586 H   0  0  0  0  0  0  0  0  0  0  0  0
  151.2071  146.0180  160.7390 H   0  0  0  0  0  0  0  0  0  0  0  0
  151.2403  144.4862  156.9105 H   0  0  0  0  0  0  0  0  0  0  0  0
  152.3300  142.3858  157.6356 H   0  0  0  0  0  0  0  0  0  0  0  0
  153.1851  141.8199  161.2687 H   0  0  0  0  0  0  0  0  0  0  0  0
  154.1130  140.1009  161.4318 H   0  0  0  0  0  0  0  0  0  0  0  0
  154.3339  138.3690  159.0268 H   0  0  0  0  0  0  0  0  0  0  0  0
  155.6079  138.5137  160.2207 H   0  0  0  0  0  0  0  0  0  0  0  0
  155.8986  138.1852  162.7592 H   0  0  0  0  0  0  0  0  0  0  0  0
  154.5298  139.3036  162.8059 H   0  0  0  0  0  0  0  0  0  0  0  0
  155.4425  138.1183  165.1057 H   0  0  0  0  0  0  0  0  0  0  0  0
  153.7349  138.4663  164.8422 H   0  0  0  0  0  0  0  0  0  0  0  0
  155.1570  135.8317  164.4506 H   0  0  0  0  0  0  0  0  0  0  0  0
  153.6118  136.1098  165.2526 H   0  0  0  0  0  0  0  0  0  0  0  0
  152.4794  136.3604  163.1554 H   0  0  0  0  0  0  0  0  0  0  0  0
  153.7552  135.2471  162.6517 H   0  0  0  0  0  0  0  0  0  0  0  0
  1  2  1  0  0  0  0
  1 20  1  0  0  0  0
  1 21  1  0  0  0  0
  1 22  1  0  0  0  0
  2  7  1  0  0  0  0
  2  3  2  0  0  0  0
  3  4  1  0  0  0  0
  3 23  1  0  0  0  0
  4  5  2  0  0  0  0
  5  6  1  0  0  0  0
  5 24  1  0  0  0  0
  6  7  2  0  0  0  0
  6 25  1  0  0  0  0
  7  8  1  0  0  0  0
  8  9  1  0  0  0  0
  8 26  1  0  0  0  0
  9 10  2  0  0  0  0
  9 11  1  0  0  0  0
 11 12  1  0  0  0  0
 11 27  1  0  0  0  0
 12 13  1  0  0  0  0
 12 28  1  0  0  0  0
 12 29  1  0  0  0  0
 13 14  2  0  0  0  0
 13 15  1  0  0  0  0
 15 19  1  0  0  0  0
 15 16  1  0  0  0  0
 16 17  1  0  0  0  0
 16 30  1  0  0  0  0
 16 31  1  0  0  0  0
 17 18  1  0  0  0  0
 17 32  1  0  0  0  0
 17 33  1  0  0  0  0
 18 19  1  0  0  0  0
 18 34  1  0  0  0  0
 18 35  1  0  0  0  0
 19 36  1  0  0  0  0
 19 37  1  0  0  0  0
M  END
> <s_m_source_file>
AV-unprocessed.smi

> <i_m_source_file_index>
2412

> <i_lp_mmshare_version>
43012

> <i_f3d_flags>
0

> <s_epik_input>
W0NIM11jMVtjSF1uW2NIXVtjSF1jMVtOSF1DKD1PKVtOSF1bQ0gyXUMoPU8pTjJbQ0gyXVtDSDJdW0NIMl1bQ0gyXTI=

> <s_epik_cmdline>
J2VwaWtfcHl0aG9uJywgJy1waCcsICc3LjAnLCAnLXRuJywgJzgnLCAnLW1hJywgJzIwMCcsICctbWV0YWxfYmluZGluZycsICctaW1hZScsICc8aW5maWxlLm1hZT4nLCAnLW9tYWUnLCAnPG91dGZpbGUubWFlPic=

> <r_epik_Ionization_Penalty>
0.157619

> <r_epik_Ionization_Penalty_Charging>
0

> <r_epik_Ionization_Penalty_Neutral>
0.157619

> <r_epik_State_Penalty>
0.146889

> <r_epik_Charging_Adjusted_Penalty>
0.146889

> <i_epik_Tot_Q>
0

> <i_epik_Tot_abs_Q>
0

> <r_epik_Metal_State_Penalty>
0.115729

> <b_epik_Metal_Only>
0

> <s_lp_Force_Field>
OPLS_2005

> <r_lp_Energy>
29.7149

> <b_lp_Chiralities_Consistent>
1

> <s_lp_Variant>
AV-unprocessed.smi:2412-1

> <Gold.Version>
5.8.1

> <Gold.Id.Protein>
6NUR|6NUR_protein|mol2

> <Gold.PLP.Fitness>
50.0289

> <Gold.PLP.PLP>
-41.5076

> <Gold.PLP.part.hbond>
-2.3152

> <Gold.PLP.part.metal>
0.0000

> <Gold.PLP.part.buried>
-5.1343

> <Gold.PLP.part.nonpolar>
-34.6514

> <Gold.PLP.part.repulsive>
0.2701

> <Gold.PLP.ligand.clash>
0.0000

> <Gold.PLP.ligand.torsion>
0.0120

> <Gold.PLP.Chemscore.Hbond>
1.8480

> <Gold.PLP.Chemscore.CHOScore>
1.0000

> <Gold.PLP.Chemscore.Metal>
0.0000

> <Gold.Chemscore.Hbonds>
donor molecule, donor type, donor heavy atom, donor atom, acceptor molecule, acceptor atom, score
      P1  H  6896  6908       L1    14  1.00
      P1  H  7997  8009       L1    10  0.82
      L1  C     5    24       P1  8028  0.72

> <Gold.PLP.Chemscore.Internal.Correction>
0.0014

> <Gold.Rescore>
     Score         DG    S(hbond)    S(metal)    S(lipo)     H(rot)  DE(clash)    DE(int)     intcor
     19.60     -20.88       1.96        0.00     103.21       1.26       0.03       1.26       ----

> <Gold.Chemscore.Fitness>
19.6009

> <Gold.Chemscore.DG>
-20.8841

> <Gold.Chemscore.ZeroCoef>
-5.4800

> <Gold.Chemscore.Hbond>
1.9648

> <Gold.Chemscore.Metal>
0.0000

> <Gold.Chemscore.Lipo>
103.2122

> <Gold.Chemscore.Internal_Hbond>
0.0000

> <Gold.Chemscore.DEClash>
0.0270

> <Gold.Chemscore.DEInternal>
1.2562

> <Gold.Chemscore.Rot>
1.2633

> <Gold.Chemscore.Internal.Correction>
   9.000000E+99

> <Gold.Chemscore.Hbonds>
donor molecule, donor type, donor heavy atom, donor atom, acceptor molecule, acceptor atom, score
      P1  H  6896  6908       L1    14  1.00
      P1  H  7997  8009       L1    10  0.76

> <Gold.Chemscore.Hbond.Weighted>
-6.5623

> <Gold.Chemscore.Metal.Weighted>
-0.0000

> <Gold.Chemscore.Lipo.Weighted>
-12.0758

> <Gold.Chemscore.Internal_Hbond.Weighted>
0.0000

> <Gold.Chemscore.DEClash.Weighted>
0.0270

> <Gold.Chemscore.DEInternal.Weighted>
1.2562

> <Gold.Chemscore.Rot.Weighted>
3.2341

> <Gold.Chemscore.Internal.Correction.Weighted>
   9.000000E+99

> <Gold.Protein.RotatedTorsions>
[ 6907 6896 6895 6894 ] final  -71.71 input  -60.11 | X-H torsion
[ 7974 7965 7964 7962 ] final  -49.73 input  175.53 | X-H torsion
[ 8008 7997 7996 7995 ] final  157.97 input   59.86 | X-H torsion
[ 10167 10162 10161 10158 ] final   39.37 input  -65.29 | X-H torsion
[ 10718 10713 10712 10709 ] final  128.68 input   66.30 | X-H torsion
[ 10763 10752 10751 10750 ] final  -17.41 input  -60.55 | X-H torsion
[ 11005 11000 10999 10996 ] final -101.67 input  -57.11 | X-H torsion

> <Gold.Protein.ActiveResidues>
 VAL166  LYS551  ARG553  GLY616  TRP617  ASP618  TYR619  PRO620  LYS621  CYS622 
 ASP623  PHE694  ASN695  SER759  ASP760  ASP761  ALA762  ILE779  LEU786  VAL792 
 PHE793  MET794  SER795  GLU796  ALA797  LYS798  CYS799  TRP800  GLU811  SER814 

> <Gold.Protein.RotatedAtoms>
  150.7200  134.5268  159.5680 H   0  0  0  0  0  0  0  0  0  0  0  0  # atno 6907 bound_to 6896
  152.2811  134.7825  160.0405 H   0  0  0  0  0  0  0  0  0  0  0  0  # atno 6908 bound_to 6896
  151.8471  133.3398  159.3698 H   0  0  0  0  0  0  0  0  0  0  0  0  # atno 6909 bound_to 6896
  145.9374  140.7693  142.9569 H   0  0  0  0  0  0  0  0  0  0  0  0  # atno 7974 bound_to 7965
  156.2331  140.1871  156.7190 H   0  0  0  0  0  0  0  0  0  0  0  0  # atno 8008 bound_to 7997
  154.6058  140.0629  156.9456 H   0  0  0  0  0  0  0  0  0  0  0  0  # atno 8009 bound_to 7997
  155.2098  140.3299  155.4333 H   0  0  0  0  0  0  0  0  0  0  0  0  # atno 8010 bound_to 7997
  140.3846  144.1934  150.6130 H   0  0  0  0  0  0  0  0  0  0  0  0  # atno 10167 bound_to 10162
  157.5223  131.1098  150.9135 H   0  0  0  0  0  0  0  0  0  0  0  0  # atno 10718 bound_to 10713
  153.5734  135.7007  153.5494 H   0  0  0  0  0  0  0  0  0  0  0  0  # atno 10763 bound_to 10752
  153.3324  135.4043  155.1506 H   0  0  0  0  0  0  0  0  0  0  0  0  # atno 10764 bound_to 10752
  154.8629  135.3722  154.5258 H   0  0  0  0  0  0  0  0  0  0  0  0  # atno 10765 bound_to 10752
  141.1221  133.8497  157.1262 H   0  0  0  0  0  0  0  0  0  0  0  0  # atno 11005 bound_to 11000
  144.6774  140.2225  143.7365 LP  0  0  0  0  0  0  0  0  0  0  0  0  # atno 17320 bound_to 7965
  145.8345  139.2101  143.1863 LP  0  0  0  0  0  0  0  0  0  0  0  0  # atno 17321 bound_to 7965
  140.4902  143.2350  151.8829 LP  0  0  0  0  0  0  0  0  0  0  0  0  # atno 17342 bound_to 10162
  139.4793  144.5174  151.8849 LP  0  0  0  0  0  0  0  0  0  0  0  0  # atno 17343 bound_to 10162
  156.9741  130.5502  149.5292 LP  0  0  0  0  0  0  0  0  0  0  0  0  # atno 17370 bound_to 10713
  156.0362  130.5449  150.8659 LP  0  0  0  0  0  0  0  0  0  0  0  0  # atno 17371 bound_to 10713
  140.0187  134.9956  157.0547 LP  0  0  0  0  0  0  0  0  0  0  0  0  # atno 17394 bound_to 11000
  140.4476  134.1616  155.7179 LP  0  0  0  0  0  0  0  0  0  0  0  0  # atno 17395 bound_to 11000

$$$$
