AV-unprocessed.smi:24|AV-procd|sdf|175|dock10
  -GOLD-   2262015433D 1   1.00000     0.00000
 Structure written by MMmdl.
 61 65  0  0  0  0  0  0  0  0  1 V2000
  153.6446  126.6143  155.4085 C   0  0  0  0  0  0  0  0  0  0  0  0
  153.7371  128.0049  155.6813 O   0  0  0  0  0  0  0  0  0  0  0  0
  152.5725  128.7422  155.6911 C   0  0  0  0  0  0  0  0  0  0  0  0
  152.6985  130.1386  155.8367 C   0  0  0  0  0  0  0  0  0  0  0  0
  151.5609  130.9671  155.8588 C   0  0  0  0  0  0  0  0  0  0  0  0
  150.2699  130.4077  155.7399 C   0  0  0  0  0  0  0  0  0  0  0  0
  149.0209  131.2874  155.7571 C   0  0  2  0  0  0  0  0  0  0  0  0
  148.0155  130.8773  154.6778 C   0  0  0  0  0  0  0  0  0  0  0  0
  147.8759  132.1426  153.8996 C   0  0  0  0  0  0  0  0  0  0  0  0
  147.0040  132.2297  152.7068 C   0  0  0  0  0  0  0  0  0  0  0  0
  146.1414  131.1534  152.3973 C   0  0  0  0  0  0  0  0  0  0  0  0
  145.3062  131.2377  151.2661 C   0  0  0  0  0  0  0  0  0  0  0  0
  145.3329  132.3865  150.4507 C   0  0  0  0  0  0  0  0  0  0  0  0
  146.1958  133.4561  150.7624 C   0  0  0  0  0  0  0  0  0  0  0  0
  147.0358  133.3836  151.8910 C   0  0  0  0  0  0  0  0  0  0  0  0
  148.5756  133.1132  154.3595 N   0  0  0  0  0  0  0  0  0  0  0  0
  149.2654  132.7037  155.4538 N   0  0  0  0  0  0  0  0  0  0  0  0
  150.0115  133.5344  156.2159 C   0  0  0  0  0  0  0  0  0  0  0  0
  150.5248  133.1623  157.2729 O   0  0  0  0  0  0  0  0  0  0  0  0
  150.2077  134.9894  155.7393 C   0  0  0  0  0  0  0  0  0  0  0  0
  150.2758  135.9668  156.8483 N   0  0  0  0  0  0  0  0  0  0  0  0
  149.1321  136.1398  157.6672 C   0  0  0  0  0  0  0  0  0  0  0  0
  148.1050  135.4868  157.4756 O   0  0  0  0  0  0  0  0  0  0  0  0
  149.2596  137.1351  158.7254 C   0  0  0  0  0  0  0  0  0  0  0  0
  148.2253  137.3637  159.5526 F   0  0  0  0  0  0  0  0  0  0  0  0
  150.4016  137.8342  158.8886 C   0  0  0  0  0  0  0  0  0  0  0  0
  151.5097  137.6576  158.0791 N   0  0  0  0  0  0  0  0  0  0  0  0
  152.7809  138.4571  158.2713 C   0  0  2  0  0  0  0  0  0  0  0  0
  152.9381  138.8778  159.7443 C   0  0  0  0  0  0  0  0  0  0  0  0
  153.2159  140.3639  159.6379 C   0  0  0  0  0  0  0  0  0  0  0  0
  152.4603  140.7337  158.3704 C   0  0  0  0  0  0  0  0  0  0  0  0
  152.7242  139.6316  157.5118 O   0  0  0  0  0  0  0  0  0  0  0  0
  151.4632  136.7154  157.0284 C   0  0  0  0  0  0  0  0  0  0  0  0
  152.4350  136.5549  156.2865 O   0  0  0  0  0  0  0  0  0  0  0  0
  150.1371  129.0132  155.5852 C   0  0  0  0  0  0  0  0  0  0  0  0
  151.2756  128.1846  155.5630 C   0  0  0  0  0  0  0  0  0  0  0  0
  154.6413  126.1741  155.4391 H   0  0  0  0  0  0  0  0  0  0  0  0
  153.2331  126.4290  154.4155 H   0  0  0  0  0  0  0  0  0  0  0  0
  153.0349  126.1020  156.1539 H   0  0  0  0  0  0  0  0  0  0  0  0
  153.6793  130.5809  155.9328 H   0  0  0  0  0  0  0  0  0  0  0  0
  151.6863  132.0346  155.9674 H   0  0  0  0  0  0  0  0  0  0  0  0
  148.5487  131.2234  156.7394 H   0  0  0  0  0  0  0  0  0  0  0  0
  148.3903  130.0698  154.0470 H   0  0  0  0  0  0  0  0  0  0  0  0
  147.0635  130.5702  155.1124 H   0  0  0  0  0  0  0  0  0  0  0  0
  146.1058  130.2644  153.0105 H   0  0  0  0  0  0  0  0  0  0  0  0
  144.6433  130.4199  151.0242 H   0  0  0  0  0  0  0  0  0  0  0  0
  144.6908  132.4476  149.5842 H   0  0  0  0  0  0  0  0  0  0  0  0
  146.2132  134.3345  150.1341 H   0  0  0  0  0  0  0  0  0  0  0  0
  147.6875  134.2168  152.1083 H   0  0  0  0  0  0  0  0  0  0  0  0
  151.1148  135.0504  155.1354 H   0  0  0  0  0  0  0  0  0  0  0  0
  149.4055  135.2345  155.0418 H   0  0  0  0  0  0  0  0  0  0  0  0
  150.4290  138.5582  159.6881 H   0  0  0  0  0  0  0  0  0  0  0  0
  153.5898  137.8270  157.8969 H   0  0  0  0  0  0  0  0  0  0  0  0
  152.0080  138.7034  160.2882 H   0  0  0  0  0  0  0  0  0  0  0  0
  153.7418  138.3216  160.2278 H   0  0  0  0  0  0  0  0  0  0  0  0
  152.8849  140.9253  160.5119 H   0  0  0  0  0  0  0  0  0  0  0  0
  154.2839  140.5381  159.5006 H   0  0  0  0  0  0  0  0  0  0  0  0
  151.3900  140.8115  158.5659 H   0  0  0  0  0  0  0  0  0  0  0  0
  152.8003  141.6729  157.9338 H   0  0  0  0  0  0  0  0  0  0  0  0
  149.1568  128.5704  155.4856 H   0  0  0  0  0  0  0  0  0  0  0  0
  151.1264  127.1221  155.4462 H   0  0  0  0  0  0  0  0  0  0  0  0
  1  2  1  0  0  0  0
  1 37  1  0  0  0  0
  1 38  1  0  0  0  0
  1 39  1  0  0  0  0
  2  3  1  0  0  0  0
  3 36  1  0  0  0  0
  3  4  2  0  0  0  0
  4  5  1  0  0  0  0
  4 40  1  0  0  0  0
  5  6  2  0  0  0  0
  5 41  1  0  0  0  0
  6  7  1  0  0  0  0
  6 35  1  0  0  0  0
  7 17  1  0  0  0  0
  7  8  1  0  0  0  0
  7 42  1  0  0  0  0
  8  9  1  0  0  0  0
  8 43  1  0  0  0  0
  8 44  1  0  0  0  0
  9 10  1  0  0  0  0
  9 16  2  0  0  0  0
 10 15  1  0  0  0  0
 10 11  2  0  0  0  0
 11 12  1  0  0  0  0
 11 45  1  0  0  0  0
 12 13  2  0  0  0  0
 12 46  1  0  0  0  0
 13 14  1  0  0  0  0
 13 47  1  0  0  0  0
 14 15  2  0  0  0  0
 14 48  1  0  0  0  0
 15 49  1  0  0  0  0
 16 17  1  0  0  0  0
 17 18  1  0  0  0  0
 18 19  2  0  0  0  0
 18 20  1  0  0  0  0
 20 21  1  0  0  0  0
 20 50  1  0  0  0  0
 20 51  1  0  0  0  0
 21 33  1  0  0  0  0
 21 22  1  0  0  0  0
 22 23  2  0  0  0  0
 22 24  1  0  0  0  0
 24 25  1  0  0  0  0
 24 26  2  0  0  0  0
 26 27  1  0  0  0  0
 26 52  1  0  0  0  0
 27 28  1  0  0  0  0
 27 33  1  0  0  0  0
 28 32  1  0  0  0  0
 28 29  1  0  0  0  0
 28 53  1  0  0  0  0
 29 30  1  0  0  0  0
 29 54  1  0  0  0  0
 29 55  1  0  0  0  0
 30 31  1  0  0  0  0
 30 56  1  0  0  0  0
 30 57  1  0  0  0  0
 31 32  1  0  0  0  0
 31 58  1  0  0  0  0
 31 59  1  0  0  0  0
 33 34  2  0  0  0  0
 35 36  2  0  0  0  0
 35 60  1  0  0  0  0
 36 61  1  0  0  0  0
M  END
> <s_m_source_file>
AV-unprocessed.smi

> <i_m_source_file_index>
24

> <i_lp_mmshare_version>
43012

> <i_f3d_flags>
0

> <s_epik_input>
W0NIM11PYzFbY0hdW2NIXWMoW2NIXVtjSF0xKVtDQEBIXTJbQ0gyXUMoYzNbY0hdW2NIXVtjSF1bY0hdW2NIXTMpPU5OMkMoPU8pW0NIMl1uNGMoPU8pYyhGKVtjSF1uKGM0PU8pW0NAQEhdNVtDSDJdW0NIMl1bQ0gyXU81

> <s_epik_cmdline>
J2VwaWtfcHl0aG9uJywgJy1waCcsICc3LjAnLCAnLXRuJywgJzgnLCAnLW1hJywgJzIwMCcsICctbWV0YWxfYmluZGluZycsICctaW1hZScsICc8aW5maWxlLm1hZT4nLCAnLW9tYWUnLCAnPG91dGZpbGUubWFlPic=

> <r_lp_tautomer_probability>
1

> <r_epik_Ionization_Penalty>
1.46326e-08

> <r_epik_Ionization_Penalty_Charging>
4.53232e-09

> <r_epik_Ionization_Penalty_Neutral>
1.01002e-08

> <r_epik_State_Penalty>
-0

> <r_epik_Charging_Adjusted_Penalty>
4.53232e-09

> <i_epik_Tot_Q>
0

> <i_epik_Tot_abs_Q>
0

> <r_epik_Metal_State_Penalty>
-0

> <b_epik_Metal_Only>
0

> <s_epik_Chemistry_Notes>
This compound has an imine and may undergo hydrolysis. This compound contains an acetal/aminal-like group ( X-CH(R)-Y where X, Y are N, S, or O) that may be acid/base labile, releasing an aldehyde.

> <s_lp_Force_Field>
OPLS_2005

> <r_lp_Energy>
50.6154

> <b_lp_Chiralities_Consistent>
1

> <s_lp_Variant>
AV-unprocessed.smi:24-1

> <Gold.Version>
5.8.1

> <Gold.Id.Protein>
6NUR|6NUR_protein|mol2

> <Gold.PLP.Fitness>
59.3220

> <Gold.PLP.PLP>
-54.5610

> <Gold.PLP.part.hbond>
-2.9811

> <Gold.PLP.part.metal>
0.0000

> <Gold.PLP.part.buried>
-6.5336

> <Gold.PLP.part.nonpolar>
-46.0988

> <Gold.PLP.part.repulsive>
0.1401

> <Gold.PLP.ligand.clash>
0.0000

> <Gold.PLP.ligand.torsion>
1.6880

> <Gold.PLP.Chemscore.Hbond>
2.6903

> <Gold.PLP.Chemscore.CHOScore>
0.0000

> <Gold.PLP.Chemscore.Metal>
0.0000

> <Gold.Chemscore.Hbonds>
donor molecule, donor type, donor heavy atom, donor atom, acceptor molecule, acceptor atom, score
      P1  H  6896  6908       L1    19  0.90
      P1  H  7997  8010       L1    32  1.00
      P1  H 10752 10765       L1    34  1.00

> <Gold.PLP.Chemscore.Internal.Correction>
0.0661

> <Gold.Rescore>
     Score         DG    S(hbond)    S(metal)    S(lipo)     H(rot)  DE(clash)    DE(int)     intcor
     18.52     -22.97       2.48        0.00     122.07       1.98       0.03       4.42       ----

> <Gold.Chemscore.Fitness>
18.5242

> <Gold.Chemscore.DG>
-22.9750

> <Gold.Chemscore.ZeroCoef>
-5.4800

> <Gold.Chemscore.Hbond>
2.4757

> <Gold.Chemscore.Metal>
0.0000

> <Gold.Chemscore.Lipo>
122.0685

> <Gold.Chemscore.Internal_Hbond>
0.0000

> <Gold.Chemscore.DEClash>
0.0338

> <Gold.Chemscore.DEInternal>
4.4170

> <Gold.Chemscore.Rot>
1.9750

> <Gold.Chemscore.Internal.Correction>
   9.000000E+99

> <Gold.Chemscore.Hbonds>
donor molecule, donor type, donor heavy atom, donor atom, acceptor molecule, acceptor atom, score
      P1  H  6896  6908       L1    19  0.83
      P1  H  7997  8010       L1    32  0.24
      P1  H 10752 10765       L1    34  0.96

> <Gold.Chemscore.Hbond.Weighted>
-8.2690

> <Gold.Chemscore.Metal.Weighted>
-0.0000

> <Gold.Chemscore.Lipo.Weighted>
-14.2820

> <Gold.Chemscore.Internal_Hbond.Weighted>
0.0000

> <Gold.Chemscore.DEClash.Weighted>
0.0338

> <Gold.Chemscore.DEInternal.Weighted>
4.4170

> <Gold.Chemscore.Rot.Weighted>
5.0561

> <Gold.Chemscore.Internal.Correction.Weighted>
   9.000000E+99

> <Gold.Protein.RotatedTorsions>
[ 6907 6896 6895 6894 ] final   87.98 input  -60.11 | X-H torsion
[ 7974 7965 7964 7962 ] final -144.33 input  175.53 | X-H torsion
[ 8008 7997 7996 7995 ] final   45.01 input   59.86 | X-H torsion
[ 10167 10162 10161 10158 ] final  -56.36 input  -65.29 | X-H torsion
[ 10718 10713 10712 10709 ] final   27.75 input   66.30 | X-H torsion
[ 10763 10752 10751 10750 ] final -132.55 input  -60.55 | X-H torsion
[ 11005 11000 10999 10996 ] final -144.74 input  -57.11 | X-H torsion

> <Gold.Protein.ActiveResidues>
 VAL166  LYS551  ARG553  GLY616  TRP617  ASP618  TYR619  PRO620  LYS621  CYS622 
 ASP623  PHE694  ASN695  SER759  ASP760  ASP761  ALA762  ILE779  LEU786  VAL792 
 PHE793  MET794  SER795  GLU796  ALA797  LYS798  CYS799  TRP800  GLU811  SER814 

> <Gold.Protein.RotatedAtoms>
  152.5419  134.2192  159.8780 H   0  0  0  0  0  0  0  0  0  0  0  0  # atno 6907 bound_to 6896
  151.2170  133.4517  159.2607 H   0  0  0  0  0  0  0  0  0  0  0  0  # atno 6908 bound_to 6896
  151.0842  134.9890  159.8427 H   0  0  0  0  0  0  0  0  0  0  0  0  # atno 6909 bound_to 6896
  144.8305  140.5723  143.5518 H   0  0  0  0  0  0  0  0  0  0  0  0  # atno 7974 bound_to 7965
  155.3288  140.3401  155.4240 H   0  0  0  0  0  0  0  0  0  0  0  0  # atno 8008 bound_to 7997
  156.1872  140.1684  156.8199 H   0  0  0  0  0  0  0  0  0  0  0  0  # atno 8009 bound_to 7997
  154.5400  140.0727  156.8476 H   0  0  0  0  0  0  0  0  0  0  0  0  # atno 8010 bound_to 7997
  140.6321  143.2464  151.5213 H   0  0  0  0  0  0  0  0  0  0  0  0  # atno 10167 bound_to 10162
  157.2243  130.6994  149.6284 H   0  0  0  0  0  0  0  0  0  0  0  0  # atno 10718 bound_to 10713
  154.8742  135.3794  154.4427 H   0  0  0  0  0  0  0  0  0  0  0  0  # atno 10763 bound_to 10752
  153.5111  135.7029  153.5786 H   0  0  0  0  0  0  0  0  0  0  0  0  # atno 10764 bound_to 10752
  153.4075  135.3933  155.1994 H   0  0  0  0  0  0  0  0  0  0  0  0  # atno 10765 bound_to 10752
  140.7993  134.2875  157.4984 H   0  0  0  0  0  0  0  0  0  0  0  0  # atno 11005 bound_to 11000
  145.4906  139.1489  143.3712 LP  0  0  0  0  0  0  0  0  0  0  0  0  # atno 17320 bound_to 7965
  146.2608  140.5044  142.8854 LP  0  0  0  0  0  0  0  0  0  0  0  0  # atno 17321 bound_to 7965
  139.5534  144.2336  152.1571 LP  0  0  0  0  0  0  0  0  0  0  0  0  # atno 17342 bound_to 10162
  140.1583  144.5050  150.6647 LP  0  0  0  0  0  0  0  0  0  0  0  0  # atno 17343 bound_to 10162
  155.9680  130.4509  150.5716 LP  0  0  0  0  0  0  0  0  0  0  0  0  # atno 17370 bound_to 10713
  157.3543  131.0739  151.1688 LP  0  0  0  0  0  0  0  0  0  0  0  0  # atno 17371 bound_to 10713
  139.8723  134.9420  156.3814 LP  0  0  0  0  0  0  0  0  0  0  0  0  # atno 17394 bound_to 11000
  140.9310  133.7579  156.0025 LP  0  0  0  0  0  0  0  0  0  0  0  0  # atno 17395 bound_to 11000

$$$$
