AV-unprocessed.smi:99|AV-procd|sdf|892|dock6
  -GOLD-   2262017383D 1   1.00000     0.00000
 Structure written by MMmdl.
 52 55  0  0  0  0  0  0  0  0  2 V2000
  153.7746  139.7548  158.7804 O   0  0  0  0  0  0  0  0  0  0  0  0
  152.9783  140.6818  158.9420 C   0  0  0  0  0  0  0  0  0  0  0  0
  152.0713  141.0550  158.0198 O   0  0  0  0  0  0  0  0  0  0  0  0
  151.9820  140.3595  156.7855 C   0  0  0  0  0  0  0  0  0  0  0  0
  150.5557  139.8334  156.5742 C   0  0  1  0  0  0  0  0  0  0  0  0
  149.6273  140.8815  156.8189 O   0  0  0  0  0  0  0  0  0  0  0  0
  148.8690  141.1699  155.6858 C   0  0  2  0  0  0  0  0  0  0  0  0
  147.4039  141.1175  156.0716 N   0  0  0  0  0  0  0  0  0  0  0  0
  146.5830  142.1719  155.7115 C   0  0  0  0  0  0  0  0  0  0  0  0
  145.2776  142.1990  156.0506 C   0  0  0  0  0  0  0  0  0  0  0  0
  144.7156  141.0963  156.8242 C   0  0  0  0  0  0  0  0  0  0  0  0
  143.5214  141.1201  157.1153 O   0  0  0  0  0  0  0  0  0  0  0  0
  145.5492  140.0820  157.1935 N   0  5  0  0  0  0  0  0  0  0  0  0
  146.8728  140.0563  156.8601 C   0  0  0  0  0  0  0  0  0  0  0  0
  147.6288  139.1542  157.2152 O   0  0  0  0  0  0  0  0  0  0  0  0
  149.2264  140.1787  154.5620 C   0  0  1  0  0  0  0  0  0  0  0  0
  149.7573  140.8340  153.4284 O   0  0  0  0  0  0  0  0  0  0  0  0
  150.3012  139.2773  155.1666 C   0  0  2  0  0  0  0  0  0  0  0  0
  149.8469  137.9322  155.2551 O   0  0  0  0  0  0  0  0  0  0  0  0
  150.7178  136.9020  155.2519 C   0  0  0  0  0  0  0  0  0  0  0  0
  151.9315  137.0316  155.4254 O   0  0  0  0  0  0  0  0  0  0  0  0
  150.0551  135.5880  155.0133 C   0  0  0  0  0  0  0  0  0  0  0  0
  150.8338  134.4072  155.0160 C   0  0  0  0  0  0  0  0  0  0  0  0
  150.2345  133.1525  154.7914 C   0  0  0  0  0  0  0  0  0  0  0  0
  148.8496  133.0638  154.5588 C   0  0  0  0  0  0  0  0  0  0  0  0
  148.0646  134.2316  154.5508 C   0  0  0  0  0  0  0  0  0  0  0  0
  148.6617  135.4870  154.7767 C   0  0  0  0  0  0  0  0  0  0  0  0
  152.9215  141.5119  160.1797 C   0  0  0  0  0  0  0  0  0  0  0  0
  153.6788  141.1243  161.3098 C   0  0  0  0  0  0  0  0  0  0  0  0
  153.6470  141.8900  162.4916 C   0  0  0  0  0  0  0  0  0  0  0  0
  152.8554  143.0509  162.5586 C   0  0  0  0  0  0  0  0  0  0  0  0
  152.0962  143.4461  161.4417 C   0  0  0  0  0  0  0  0  0  0  0  0
  152.1279  142.6827  160.2585 C   0  0  0  0  0  0  0  0  0  0  0  0
  152.2465  141.0311  155.9672 H   0  0  0  0  0  0  0  0  0  0  0  0
  152.6950  139.5342  156.7739 H   0  0  0  0  0  0  0  0  0  0  0  0
  150.3676  139.0618  157.3221 H   0  0  0  0  0  0  0  0  0  0  0  0
  149.0607  142.2050  155.3994 H   0  0  0  0  0  0  0  0  0  0  0  0
  146.9866  142.9959  155.1420 H   0  0  0  0  0  0  0  0  0  0  0  0
  144.6536  143.0300  155.7563 H   0  0  0  0  0  0  0  0  0  0  0  0
  148.3446  139.6192  154.2468 H   0  0  0  0  0  0  0  0  0  0  0  0
  149.6660  140.2593  152.6835 H   0  0  0  0  0  0  0  0  0  0  0  0
  151.2242  139.3122  154.5845 H   0  0  0  0  0  0  0  0  0  0  0  0
  151.8991  134.4511  155.1913 H   0  0  0  0  0  0  0  0  0  0  0  0
  150.8389  132.2573  154.7968 H   0  0  0  0  0  0  0  0  0  0  0  0
  148.3904  132.1017  154.3851 H   0  0  0  0  0  0  0  0  0  0  0  0
  147.0019  134.1664  154.3693 H   0  0  0  0  0  0  0  0  0  0  0  0
  148.0307  136.3641  154.7593 H   0  0  0  0  0  0  0  0  0  0  0  0
  154.2938  140.2364  161.2822 H   0  0  0  0  0  0  0  0  0  0  0  0
  154.2313  141.5855  163.3473 H   0  0  0  0  0  0  0  0  0  0  0  0
  152.8309  143.6373  163.4653 H   0  0  0  0  0  0  0  0  0  0  0  0
  151.4881  144.3373  161.4913 H   0  0  0  0  0  0  0  0  0  0  0  0
  151.5321  143.0132  159.4203 H   0  0  0  0  0  0  0  0  0  0  0  0
  1  2  2  0  0  0  0
  2  3  1  0  0  0  0
  2 28  1  0  0  0  0
  3  4  1  0  0  0  0
  4  5  1  0  0  0  0
  4 34  1  0  0  0  0
  4 35  1  0  0  0  0
  5 18  1  0  0  0  0
  5  6  1  0  0  0  0
  5 36  1  0  0  0  0
  6  7  1  0  0  0  0
  7  8  1  0  0  0  0
  7 16  1  0  0  0  0
  7 37  1  0  0  0  0
  8 14  1  0  0  0  0
  8  9  1  0  0  0  0
  9 10  2  0  0  0  0
  9 38  1  0  0  0  0
 10 11  1  0  0  0  0
 10 39  1  0  0  0  0
 11 12  2  0  0  0  0
 11 13  1  0  0  0  0
 13 14  1  0  0  0  0
 14 15  2  0  0  0  0
 16 17  1  0  0  0  0
 16 18  1  0  0  0  0
 16 40  1  0  0  0  0
 17 41  1  0  0  0  0
 18 19  1  0  0  0  0
 18 42  1  0  0  0  0
 19 20  1  0  0  0  0
 20 21  2  0  0  0  0
 20 22  1  0  0  0  0
 22 27  1  0  0  0  0
 22 23  2  0  0  0  0
 23 24  1  0  0  0  0
 23 43  1  0  0  0  0
 24 25  2  0  0  0  0
 24 44  1  0  0  0  0
 25 26  1  0  0  0  0
 25 45  1  0  0  0  0
 26 27  2  0  0  0  0
 26 46  1  0  0  0  0
 27 47  1  0  0  0  0
 28 33  1  0  0  0  0
 28 29  2  0  0  0  0
 29 30  1  0  0  0  0
 29 48  1  0  0  0  0
 30 31  2  0  0  0  0
 30 49  1  0  0  0  0
 31 32  1  0  0  0  0
 31 50  1  0  0  0  0
 32 33  2  0  0  0  0
 32 51  1  0  0  0  0
 33 52  1  0  0  0  0
M  CHG  1  13  -1
M  END
> <s_m_source_file>
AV-unprocessed.smi

> <i_m_source_file_index>
99

> <i_lp_mmshare_version>
43012

> <i_f3d_flags>
0

> <s_epik_input>
W2NIXTFbY0hdW2NIXVtjSF1bY0hdYzFDKD1PKU9bQ0gyXVtDQEBIXTJPW0NAQEhdKG4zW2NIXVtjSF1jKD1PKVtuSF1jMz1PKVtDQEBIXShbT0hdKVtDQEhdMk9DKD1PKWM0W2NIXVtjSF1bY0hdW2NIXVtjSF00

> <s_epik_cmdline>
J2VwaWtfcHl0aG9uJywgJy1waCcsICc3LjAnLCAnLXRuJywgJzgnLCAnLW1hJywgJzIwMCcsICctbWV0YWxfYmluZGluZycsICctaW1hZScsICc8aW5maWxlLm1hZT4nLCAnLW9tYWUnLCAnPG91dGZpbGUubWFlPic=

> <r_lp_tautomer_probability>
1

> <r_epik_Ionization_Penalty>
2.89159

> <r_epik_Ionization_Penalty_Charging>
2.1077e-08

> <r_epik_Ionization_Penalty_Neutral>
2.89159

> <r_epik_State_Penalty>
2.88671

> <r_epik_Charging_Adjusted_Penalty>
2.88671

> <i_epik_Tot_Q>
-1

> <i_epik_Tot_abs_Q>
1

> <r_epik_Metal_State_Penalty>
0.0727308

> <b_epik_Metal_Only>
1

> <s_epik_Chemistry_Notes>
This compound has an ester and may undergo hydrolysis at high or low pH. This compound contains an acetal/aminal-like group ( X-CH(R)-Y where X, Y are N, S, or O) that may be acid/base labile, releasing an aldehyde.

> <s_lp_Force_Field>
OPLS_2005

> <r_lp_Energy>
36.8261

> <b_lp_Chiralities_Consistent>
1

> <s_lp_Variant>
AV-unprocessed.smi:99-28

> <Gold.Version>
5.8.1

> <Gold.Id.Protein>
6NUR|6NUR_protein|mol2

> <Gold.PLP.Fitness>
63.1134

> <Gold.PLP.PLP>
-51.0681

> <Gold.PLP.part.hbond>
-4.0823

> <Gold.PLP.part.metal>
0.0000

> <Gold.PLP.part.buried>
-5.1600

> <Gold.PLP.part.nonpolar>
-40.0847

> <Gold.PLP.part.repulsive>
0.2027

> <Gold.PLP.ligand.clash>
0.0000

> <Gold.PLP.ligand.torsion>
1.2699

> <Gold.PLP.Chemscore.Hbond>
4.0260

> <Gold.PLP.Chemscore.CHOScore>
0.7549

> <Gold.PLP.Chemscore.Metal>
0.0000

> <Gold.Chemscore.Hbonds>
donor molecule, donor type, donor heavy atom, donor atom, acceptor molecule, acceptor atom, score
      L1  H    17    41       P1  7957  0.99
      P1  H  7989  7998       L1    17  0.26
      P1  H  7997  8008       L1     1  0.99
      P1  H  8011  8017       L1    17  0.65
      P1  H 10752 10765       L1    21  1.00
      L1  C     9    38       P1  8028  0.65

> <Gold.PLP.Chemscore.Internal.Correction>
0.2424

> <Gold.Rescore>
     Score         DG    S(hbond)    S(metal)    S(lipo)     H(rot)  DE(clash)    DE(int)     intcor
     18.36     -20.78       2.80        0.00     119.53       3.13       0.01       2.41       ----

> <Gold.Chemscore.Fitness>
18.3605

> <Gold.Chemscore.DG>
-20.7791

> <Gold.Chemscore.ZeroCoef>
-5.4800

> <Gold.Chemscore.Hbond>
2.7959

> <Gold.Chemscore.Metal>
0.0000

> <Gold.Chemscore.Lipo>
119.5328

> <Gold.Chemscore.Internal_Hbond>
0.0000

> <Gold.Chemscore.DEClash>
0.0118

> <Gold.Chemscore.DEInternal>
2.4069

> <Gold.Chemscore.Rot>
3.1346

> <Gold.Chemscore.Internal.Correction>
   9.000000E+99

> <Gold.Chemscore.Hbonds>
donor molecule, donor type, donor heavy atom, donor atom, acceptor molecule, acceptor atom, score
      L1  H    17    41       P1  7957  0.88
      P1  H  7989  7998       L1    17  0.04
      P1  H  7997  8008       L1     1  0.82
      P1  H  8011  8017       L1    17  0.06
      P1  H 10752 10765       L1    21  0.81

> <Gold.Chemscore.Hbond.Weighted>
-9.3383

> <Gold.Chemscore.Metal.Weighted>
-0.0000

> <Gold.Chemscore.Lipo.Weighted>
-13.9853

> <Gold.Chemscore.Internal_Hbond.Weighted>
0.0000

> <Gold.Chemscore.DEClash.Weighted>
0.0118

> <Gold.Chemscore.DEInternal.Weighted>
2.4069

> <Gold.Chemscore.Rot.Weighted>
8.0246

> <Gold.Chemscore.Internal.Correction.Weighted>
   9.000000E+99

> <Gold.Protein.RotatedTorsions>
[ 6907 6896 6895 6894 ] final  127.14 input  -60.11 | X-H torsion
[ 7974 7965 7964 7962 ] final  145.88 input  175.53 | X-H torsion
[ 8008 7997 7996 7995 ] final -116.76 input   59.86 | X-H torsion
[ 10167 10162 10161 10158 ] final   65.16 input  -65.29 | X-H torsion
[ 10718 10713 10712 10709 ] final -118.42 input   66.30 | X-H torsion
[ 10763 10752 10751 10750 ] final -176.49 input  -60.55 | X-H torsion
[ 11005 11000 10999 10996 ] final -177.06 input  -57.11 | X-H torsion

> <Gold.Protein.ActiveResidues>
 VAL166  LYS551  ARG553  GLY616  TRP617  ASP618  TYR619  PRO620  LYS621  CYS622 
 ASP623  PHE694  ASN695  SER759  ASP760  ASP761  ALA762  ILE779  LEU786  VAL792 
 PHE793  MET794  SER795  GLU796  ALA797  LYS798  CYS799  TRP800  GLU811  SER814 

> <Gold.Protein.RotatedAtoms>
  152.3840  133.6585  159.6183 H   0  0  0  0  0  0  0  0  0  0  0  0  # atno 6907 bound_to 6896
  150.7763  133.9067  159.3366 H   0  0  0  0  0  0  0  0  0  0  0  0  # atno 6908 bound_to 6896
  151.6867  135.0954  160.0277 H   0  0  0  0  0  0  0  0  0  0  0  0  # atno 6909 bound_to 6896
  144.8716  139.5837  143.5884 H   0  0  0  0  0  0  0  0  0  0  0  0  # atno 7974 bound_to 7965
  155.0729  140.0393  157.2614 H   0  0  0  0  0  0  0  0  0  0  0  0  # atno 8008 bound_to 7997
  154.6968  140.2665  155.6734 H   0  0  0  0  0  0  0  0  0  0  0  0  # atno 8009 bound_to 7997
  156.2747  140.2748  156.1565 H   0  0  0  0  0  0  0  0  0  0  0  0  # atno 8010 bound_to 7997
  140.1143  144.4789  150.6959 H   0  0  0  0  0  0  0  0  0  0  0  0  # atno 10167 bound_to 10162
  156.1105  130.6245  150.9289 H   0  0  0  0  0  0  0  0  0  0  0  0  # atno 10718 bound_to 10713
  154.5717  135.2828  155.0820 H   0  0  0  0  0  0  0  0  0  0  0  0  # atno 10763 bound_to 10752
  154.2190  135.6394  153.5142 H   0  0  0  0  0  0  0  0  0  0  0  0  # atno 10764 bound_to 10752
  153.0060  135.5510  154.6343 H   0  0  0  0  0  0  0  0  0  0  0  0  # atno 10765 bound_to 10752
  140.4452  134.6395  157.4776 H   0  0  0  0  0  0  0  0  0  0  0  0  # atno 11005 bound_to 11000
  146.2934  139.7206  142.9144 LP  0  0  0  0  0  0  0  0  0  0  0  0  # atno 17320 bound_to 7965
  145.4119  141.0397  143.3012 LP  0  0  0  0  0  0  0  0  0  0  0  0  # atno 17321 bound_to 7965
  140.6908  143.2375  151.5136 LP  0  0  0  0  0  0  0  0  0  0  0  0  # atno 17342 bound_to 10162
  139.5602  144.2175  152.1679 LP  0  0  0  0  0  0  0  0  0  0  0  0  # atno 17343 bound_to 10162
  157.6286  131.0923  150.8485 LP  0  0  0  0  0  0  0  0  0  0  0  0  # atno 17370 bound_to 10713
  156.8597  130.5109  149.5305 LP  0  0  0  0  0  0  0  0  0  0  0  0  # atno 17371 bound_to 10713
  140.0043  134.6787  155.9479 LP  0  0  0  0  0  0  0  0  0  0  0  0  # atno 17394 bound_to 11000
  141.1688  133.6537  156.4577 LP  0  0  0  0  0  0  0  0  0  0  0  0  # atno 17395 bound_to 11000

$$$$
