AV-unprocessed.smi:1979|AV-procd|sdf|8016|dock7
  -GOLD-   2272010213D 1   1.00000     0.00000
 Structure written by MMmdl.
 28 28  0  0  0  0  0  0  0  0  1 V2000
  153.3971  143.1294  163.6451 N   0  0  0  0  0  0  0  0  0  0  0  0
  152.9716  143.2200  162.5731 C   0  0  0  0  0  0  0  0  0  0  0  0
  152.4368  143.3339  161.2271 C   0  0  0  0  0  0  0  0  0  0  0  0
  151.9097  144.5536  160.7598 C   0  0  0  0  0  0  0  0  0  0  0  0
  151.4031  144.6162  159.4470 C   0  0  0  0  0  0  0  0  0  0  0  0
  151.4429  143.4498  158.6451 C   0  0  0  0  0  0  0  0  0  0  0  0
  150.9652  143.4217  157.3288 N   0  0  0  0  0  0  0  0  0  0  0  0
  151.3424  142.3444  156.4264 C   0  0  0  0  0  0  0  0  0  0  0  0
  150.1780  141.3787  156.1840 C   0  0  0  0  0  0  0  0  0  0  0  0
  150.3795  140.7114  154.9493 O   0  0  0  0  0  0  0  0  0  0  0  0
  149.7397  139.4468  154.8963 C   0  0  0  0  0  0  0  0  0  0  0  0
  148.4122  139.5884  154.1419 C   0  0  0  0  0  0  0  0  0  0  0  0
  148.4059  138.7474  153.0084 O   0  0  0  0  0  0  0  0  0  0  0  0
  151.9469  142.2799  159.0954 N   0  0  0  0  0  0  0  0  0  0  0  0
  152.4318  142.2270  160.3549 C   0  0  0  0  0  0  0  0  0  0  0  0
  151.8907  145.4300  161.3917 H   0  0  0  0  0  0  0  0  0  0  0  0
  150.9952  145.5467  159.0815 H   0  0  0  0  0  0  0  0  0  0  0  0
  150.1696  143.9942  157.0852 H   0  0  0  0  0  0  0  0  0  0  0  0
  151.6480  142.7814  155.4753 H   0  0  0  0  0  0  0  0  0  0  0  0
  152.2009  141.8035  156.8266 H   0  0  0  0  0  0  0  0  0  0  0  0
  150.0905  140.6645  157.0046 H   0  0  0  0  0  0  0  0  0  0  0  0
  149.2453  141.9429  156.1412 H   0  0  0  0  0  0  0  0  0  0  0  0
  150.3854  138.7528  154.3560 H   0  0  0  0  0  0  0  0  0  0  0  0
  149.5838  139.0344  155.8949 H   0  0  0  0  0  0  0  0  0  0  0  0
  147.5624  139.3666  154.7882 H   0  0  0  0  0  0  0  0  0  0  0  0
  148.2933  140.6139  153.7916 H   0  0  0  0  0  0  0  0  0  0  0  0
  148.9487  139.1385  152.3410 H   0  0  0  0  0  0  0  0  0  0  0  0
  152.8260  141.2715  160.6701 H   0  0  0  0  0  0  0  0  0  0  0  0
  1  2  3  0  0  0  0
  2  3  1  0  0  0  0
  3 15  1  0  0  0  0
  3  4  2  0  0  0  0
  4  5  1  0  0  0  0
  4 16  1  0  0  0  0
  5  6  2  0  0  0  0
  5 17  1  0  0  0  0
  6  7  1  0  0  0  0
  6 14  1  0  0  0  0
  7  8  1  0  0  0  0
  7 18  1  0  0  0  0
  8  9  1  0  0  0  0
  8 19  1  0  0  0  0
  8 20  1  0  0  0  0
  9 10  1  0  0  0  0
  9 21  1  0  0  0  0
  9 22  1  0  0  0  0
 10 11  1  0  0  0  0
 11 12  1  0  0  0  0
 11 23  1  0  0  0  0
 11 24  1  0  0  0  0
 12 13  1  0  0  0  0
 12 25  1  0  0  0  0
 12 26  1  0  0  0  0
 13 27  1  0  0  0  0
 14 15  2  0  0  0  0
 15 28  1  0  0  0  0
M  END
> <s_m_source_file>
AV-unprocessed.smi

> <i_m_source_file_index>
1979

> <i_lp_mmshare_version>
43012

> <i_f3d_flags>
0

> <s_epik_input>
TiNDYzFbY0hdW2NIXWMobltjSF0xKVtOSF1bQ0gyXVtDSDJdT1tDSDJdW0NIMl1bT0hd

> <s_epik_cmdline>
J2VwaWtfcHl0aG9uJywgJy1waCcsICc3LjAnLCAnLXRuJywgJzgnLCAnLW1hJywgJzIwMCcsICctbWV0YWxfYmluZGluZycsICctaW1hZScsICc8aW5maWxlLm1hZT4nLCAnLW9tYWUnLCAnPG91dGZpbGUubWFlPic=

> <r_lp_tautomer_probability>
1

> <r_epik_Ionization_Penalty>
1.11368e-05

> <r_epik_Ionization_Penalty_Charging>
0

> <r_epik_Ionization_Penalty_Neutral>
1.11368e-05

> <r_epik_State_Penalty>
-0

> <r_epik_Charging_Adjusted_Penalty>
0

> <i_epik_Tot_Q>
0

> <i_epik_Tot_abs_Q>
0

> <r_epik_Metal_State_Penalty>
-0

> <b_epik_Metal_Only>
0

> <s_lp_Force_Field>
OPLS_2005

> <r_lp_Energy>
5.28627

> <b_lp_Chiralities_Consistent>
1

> <s_lp_Variant>
AV-unprocessed.smi:1979-1

> <Gold.Version>
5.8.1

> <Gold.Id.Protein>
6NUR|6NUR_protein|mol2

> <Gold.PLP.Fitness>
42.3392

> <Gold.PLP.PLP>
-35.7746

> <Gold.PLP.part.hbond>
-3.9758

> <Gold.PLP.part.metal>
0.0000

> <Gold.PLP.part.buried>
-6.8329

> <Gold.PLP.part.nonpolar>
-24.5423

> <Gold.PLP.part.repulsive>
0.2071

> <Gold.PLP.ligand.clash>
0.0000

> <Gold.PLP.ligand.torsion>
1.0559

> <Gold.PLP.Chemscore.Hbond>
2.8800

> <Gold.PLP.Chemscore.CHOScore>
0.0000

> <Gold.PLP.Chemscore.Metal>
0.0000

> <Gold.Chemscore.Hbonds>
donor molecule, donor type, donor heavy atom, donor atom, acceptor molecule, acceptor atom, score
      L1  H     7    18       P1  8028  1.00
      L1  H    13    27       P1  7957  1.00
      P1  H  7989  7998       L1    10  0.88

> <Gold.PLP.Chemscore.Internal.Correction>
0.0365

> <Gold.Rescore>
     Score         DG    S(hbond)    S(metal)    S(lipo)     H(rot)  DE(clash)    DE(int)     intcor
     14.40     -15.44       2.73        0.00      70.16       2.88       0.04       1.00       ----

> <Gold.Chemscore.Fitness>
14.4002

> <Gold.Chemscore.DG>
-15.4425

> <Gold.Chemscore.ZeroCoef>
-5.4800

> <Gold.Chemscore.Hbond>
2.7317

> <Gold.Chemscore.Metal>
0.0000

> <Gold.Chemscore.Lipo>
70.1580

> <Gold.Chemscore.Internal_Hbond>
0.0000

> <Gold.Chemscore.DEClash>
0.0416

> <Gold.Chemscore.DEInternal>
1.0007

> <Gold.Chemscore.Rot>
2.8788

> <Gold.Chemscore.Internal.Correction>
   9.000000E+99

> <Gold.Chemscore.Hbonds>
donor molecule, donor type, donor heavy atom, donor atom, acceptor molecule, acceptor atom, score
      L1  H     7    18       P1  8028  0.83
      L1  H    13    27       P1  7957  0.98
      P1  H  7989  7998       L1    10  0.64

> <Gold.Chemscore.Hbond.Weighted>
-9.1239

> <Gold.Chemscore.Metal.Weighted>
-0.0000

> <Gold.Chemscore.Lipo.Weighted>
-8.2085

> <Gold.Chemscore.Internal_Hbond.Weighted>
0.0000

> <Gold.Chemscore.DEClash.Weighted>
0.0416

> <Gold.Chemscore.DEInternal.Weighted>
1.0007

> <Gold.Chemscore.Rot.Weighted>
7.3699

> <Gold.Chemscore.Internal.Correction.Weighted>
   9.000000E+99

> <Gold.Protein.RotatedTorsions>
[ 6907 6896 6895 6894 ] final  149.42 input  -60.11 | X-H torsion
[ 7974 7965 7964 7962 ] final  165.91 input  175.53 | X-H torsion
[ 8008 7997 7996 7995 ] final  -99.42 input   59.86 | X-H torsion
[ 10167 10162 10161 10158 ] final  -68.78 input  -65.29 | X-H torsion
[ 10718 10713 10712 10709 ] final -114.95 input   66.30 | X-H torsion
[ 10763 10752 10751 10750 ] final -178.86 input  -60.55 | X-H torsion
[ 11005 11000 10999 10996 ] final -173.84 input  -57.11 | X-H torsion

> <Gold.Protein.ActiveResidues>
 VAL166  LYS551  ARG553  GLY616  TRP617  ASP618  TYR619  PRO620  LYS621  CYS622 
 ASP623  PHE694  ASN695  SER759  ASP760  ASP761  ALA762  ILE779  LEU786  VAL792 
 PHE793  MET794  SER795  GLU796  ALA797  LYS798  CYS799  TRP800  GLU811  SER814 

> <Gold.Protein.RotatedAtoms>
  152.1283  133.4393  159.4708 H   0  0  0  0  0  0  0  0  0  0  0  0  # atno 6907 bound_to 6896
  150.6876  134.2452  159.4497 H   0  0  0  0  0  0  0  0  0  0  0  0  # atno 6908 bound_to 6896
  152.0334  134.9754  160.0623 H   0  0  0  0  0  0  0  0  0  0  0  0  # atno 6909 bound_to 6896
  144.7483  139.8538  143.6374 H   0  0  0  0  0  0  0  0  0  0  0  0  # atno 7974 bound_to 7965
  154.8147  140.0448  157.1367 H   0  0  0  0  0  0  0  0  0  0  0  0  # atno 8008 bound_to 7997
  154.9328  140.3042  155.5139 H   0  0  0  0  0  0  0  0  0  0  0  0  # atno 8009 bound_to 7997
  156.2975  140.2320  156.4390 H   0  0  0  0  0  0  0  0  0  0  0  0  # atno 8010 bound_to 7997
  140.5481  143.2312  151.6963 H   0  0  0  0  0  0  0  0  0  0  0  0  # atno 10167 bound_to 10162
  156.0863  130.6054  150.8842 H   0  0  0  0  0  0  0  0  0  0  0  0  # atno 10718 bound_to 10713
  154.5423  135.2807  155.1084 H   0  0  0  0  0  0  0  0  0  0  0  0  # atno 10763 bound_to 10752
  154.2562  135.6330  153.5261 H   0  0  0  0  0  0  0  0  0  0  0  0  # atno 10764 bound_to 10752
  152.9982  135.5594  154.5966 H   0  0  0  0  0  0  0  0  0  0  0  0  # atno 10765 bound_to 10752
  140.4812  134.6073  157.4920 H   0  0  0  0  0  0  0  0  0  0  0  0  # atno 11005 bound_to 11000
  146.1397  139.4450  143.0117 LP  0  0  0  0  0  0  0  0  0  0  0  0  # atno 17320 bound_to 7965
  145.7037  141.0128  143.1490 LP  0  0  0  0  0  0  0  0  0  0  0  0  # atno 17321 bound_to 7965
  139.5016  144.3862  152.0326 LP  0  0  0  0  0  0  0  0  0  0  0  0  # atno 17342 bound_to 10162
  140.2977  144.3682  150.6069 LP  0  0  0  0  0  0  0  0  0  0  0  0  # atno 17343 bound_to 10162
  157.5999  131.0941  150.8978 LP  0  0  0  0  0  0  0  0  0  0  0  0  # atno 17370 bound_to 10713
  156.9137  130.5290  149.5280 LP  0  0  0  0  0  0  0  0  0  0  0  0  # atno 17371 bound_to 10713
  139.9825  134.7114  155.9833 LP  0  0  0  0  0  0  0  0  0  0  0  0  # atno 17394 bound_to 11000
  141.1530  133.6546  156.4073 LP  0  0  0  0  0  0  0  0  0  0  0  0  # atno 17395 bound_to 11000

$$$$
