AV-unprocessed.smi:794|AV-procd|sdf|3759|dock10
  -GOLD-   22720 1193D 1   1.00000     0.00000
 Structure written by MMmdl.
 41 43  0  0  0  0  0  0  0  0  1 V2000
  146.5824  142.6162  154.0393 C   0  0  0  0  0  0  0  0  0  0  0  0
  147.3224  141.3144  153.9953 C   0  0  0  0  0  0  0  0  0  0  0  0
  146.7916  140.2419  153.2724 N   0  0  0  0  0  0  0  0  0  0  0  0
  147.5700  139.1567  153.3319 C   0  0  0  0  0  0  0  0  0  0  0  0
  147.2761  137.9232  152.6943 N   0  0  0  0  0  0  0  0  0  0  0  0
  146.0761  137.3434  152.5181 C   0  0  0  0  0  0  0  0  0  0  0  0
  144.9977  137.8125  152.8829 O   0  0  0  0  0  0  0  0  0  0  0  0
  146.1968  136.1629  151.8938 N   0  0  0  0  0  0  0  0  0  0  0  0
  145.0904  135.2698  151.5471 C   0  0  1  0  0  0  0  0  0  0  0  0
  145.5873  134.1418  150.6169 C   0  0  2  0  0  0  0  0  0  0  0  0
  144.3734  133.4607  149.9592 C   0  0  0  0  0  0  0  0  0  0  0  0
  143.7521  132.6798  151.1330 C   0  0  0  0  0  0  0  0  0  0  0  0
  144.6953  133.0144  152.3059 C   0  0  1  0  0  0  0  0  0  0  0  0
  146.0449  133.0725  151.6017 C   0  0  0  0  0  0  0  0  0  0  0  0
  144.4719  134.4833  152.7434 C   0  0  1  0  0  0  0  0  0  0  0  0
  145.0508  134.8005  154.1413 C   0  0  0  0  0  0  0  0  0  0  0  0
  144.5623  133.8844  155.0985 O   0  0  0  0  0  0  0  0  0  0  0  0
  149.0230  139.3838  154.2896 S   0  0  0  0  0  0  0  0  0  0  0  0
  148.5195  141.0251  154.6087 C   0  0  0  0  0  0  0  0  0  0  0  0
  149.3523  141.9309  155.4535 C   0  0  0  0  0  0  0  0  0  0  0  0
  147.1921  143.4276  153.6414 H   0  0  0  0  0  0  0  0  0  0  0  0
  146.3104  142.8779  155.0620 H   0  0  0  0  0  0  0  0  0  0  0  0
  145.6631  142.5788  153.4542 H   0  0  0  0  0  0  0  0  0  0  0  0
  148.0749  137.4177  152.3409 H   0  0  0  0  0  0  0  0  0  0  0  0
  147.1226  135.8564  151.6332 H   0  0  0  0  0  0  0  0  0  0  0  0
  144.3188  135.8486  151.0354 H   0  0  0  0  0  0  0  0  0  0  0  0
  146.3424  134.4594  149.8966 H   0  0  0  0  0  0  0  0  0  0  0  0
  143.6790  134.1772  149.5189 H   0  0  0  0  0  0  0  0  0  0  0  0
  144.6915  132.7772  149.1711 H   0  0  0  0  0  0  0  0  0  0  0  0
  142.7207  132.9736  151.3312 H   0  0  0  0  0  0  0  0  0  0  0  0
  143.7583  131.6092  150.9248 H   0  0  0  0  0  0  0  0  0  0  0  0
  144.6348  132.2910  153.1195 H   0  0  0  0  0  0  0  0  0  0  0  0
  146.3231  132.1331  151.1210 H   0  0  0  0  0  0  0  0  0  0  0  0
  146.8624  133.3958  152.2476 H   0  0  0  0  0  0  0  0  0  0  0  0
  143.4014  134.6917  152.7837 H   0  0  0  0  0  0  0  0  0  0  0  0
  146.1406  134.7704  154.1418 H   0  0  0  0  0  0  0  0  0  0  0  0
  144.7521  135.7991  154.4605 H   0  0  0  0  0  0  0  0  0  0  0  0
  143.9164  133.3327  154.6841 H   0  0  0  0  0  0  0  0  0  0  0  0
  148.7518  142.3863  156.2412 H   0  0  0  0  0  0  0  0  0  0  0  0
  149.7833  142.7311  154.8517 H   0  0  0  0  0  0  0  0  0  0  0  0
  150.1703  141.3883  155.9281 H   0  0  0  0  0  0  0  0  0  0  0  0
  1  2  1  0  0  0  0
  1 21  1  0  0  0  0
  1 22  1  0  0  0  0
  1 23  1  0  0  0  0
  2 19  2  0  0  0  0
  2  3  1  0  0  0  0
  3  4  2  0  0  0  0
  4  5  1  0  0  0  0
  4 18  1  0  0  0  0
  5  6  1  0  0  0  0
  5 24  1  0  0  0  0
  6  7  2  0  0  0  0
  6  8  1  0  0  0  0
  8  9  1  0  0  0  0
  8 25  1  0  0  0  0
  9 15  1  0  0  0  0
  9 10  1  0  0  0  0
  9 26  1  0  0  0  0
 10 14  1  0  0  0  0
 10 11  1  0  0  0  0
 10 27  1  0  0  0  0
 11 12  1  0  0  0  0
 11 28  1  0  0  0  0
 11 29  1  0  0  0  0
 12 13  1  0  0  0  0
 12 30  1  0  0  0  0
 12 31  1  0  0  0  0
 13 14  1  0  0  0  0
 13 15  1  0  0  0  0
 13 32  1  0  0  0  0
 14 33  1  0  0  0  0
 14 34  1  0  0  0  0
 15 16  1  0  0  0  0
 15 35  1  0  0  0  0
 16 17  1  0  0  0  0
 16 36  1  0  0  0  0
 16 37  1  0  0  0  0
 17 38  1  0  0  0  0
 18 19  1  0  0  0  0
 19 20  1  0  0  0  0
 20 39  1  0  0  0  0
 20 40  1  0  0  0  0
 20 41  1  0  0  0  0
M  END
> <s_m_source_file>
AV-unprocessed.smi

> <i_m_source_file_index>
794

> <i_lp_mmshare_version>
43012

> <i_f3d_flags>
0

> <s_epik_input>
W0NIM11jMW5jKHNjMVtDSDNdKVtOSF1DKD1PKVtOSF1bQ0BIXShbQ0BASF0yMylbQ0BIXShbQ0gyXVtPSF0pW0NAQEhdKFtDSDJdMylbQ0gyXVtDSDJdMg==

> <s_epik_cmdline>
J2VwaWtfcHl0aG9uJywgJy1waCcsICc3LjAnLCAnLXRuJywgJzgnLCAnLW1hJywgJzIwMCcsICctbWV0YWxfYmluZGluZycsICctaW1hZScsICc8aW5maWxlLm1hZT4nLCAnLW9tYWUnLCAnPG91dGZpbGUubWFlPic=

> <r_lp_tautomer_probability>
0.999

> <r_epik_Ionization_Penalty>
0.000713029

> <r_epik_Ionization_Penalty_Charging>
0

> <r_epik_Ionization_Penalty_Neutral>
0.000713029

> <r_epik_State_Penalty>
0.000177984

> <r_epik_Charging_Adjusted_Penalty>
0.000177984

> <i_epik_Tot_Q>
0

> <i_epik_Tot_abs_Q>
0

> <r_epik_Metal_State_Penalty>
-0

> <b_epik_Metal_Only>
0

> <s_lp_Force_Field>
OPLS_2005

> <r_lp_Energy>
48.0104

> <b_lp_Chiralities_Consistent>
1

> <s_lp_Variant>
AV-unprocessed.smi:794-4

> <Gold.Version>
5.8.1

> <Gold.Id.Protein>
6NUR|6NUR_protein|mol2

> <Gold.PLP.Fitness>
39.7976

> <Gold.PLP.PLP>
-31.9765

> <Gold.PLP.part.hbond>
-2.9135

> <Gold.PLP.part.metal>
0.0000

> <Gold.PLP.part.buried>
-0.6293

> <Gold.PLP.part.nonpolar>
-29.5270

> <Gold.PLP.part.repulsive>
1.4043

> <Gold.PLP.ligand.clash>
0.0000

> <Gold.PLP.ligand.torsion>
0.4279

> <Gold.PLP.Chemscore.Hbond>
2.8880

> <Gold.PLP.Chemscore.CHOScore>
0.0000

> <Gold.PLP.Chemscore.Metal>
0.0000

> <Gold.Chemscore.Hbonds>
donor molecule, donor type, donor heavy atom, donor atom, acceptor molecule, acceptor atom, score
      L1  H     5    24       P1  7948  1.00
      L1  H     8    25       P1  7948  0.90
      L1  H    17    38       P1 10957  0.98

> <Gold.PLP.Chemscore.Internal.Correction>
0.0129

> <Gold.Rescore>
     Score         DG    S(hbond)    S(metal)    S(lipo)     H(rot)  DE(clash)    DE(int)     intcor
     17.95     -18.51       2.85        0.00      68.98       1.78       0.04       0.52       ----

> <Gold.Chemscore.Fitness>
17.9494

> <Gold.Chemscore.DG>
-18.5085

> <Gold.Chemscore.ZeroCoef>
-5.4800

> <Gold.Chemscore.Hbond>
2.8487

> <Gold.Chemscore.Metal>
0.0000

> <Gold.Chemscore.Lipo>
68.9761

> <Gold.Chemscore.Internal_Hbond>
0.0000

> <Gold.Chemscore.DEClash>
0.0402

> <Gold.Chemscore.DEInternal>
0.5189

> <Gold.Chemscore.Rot>
1.7798

> <Gold.Chemscore.Internal.Correction>
   9.000000E+99

> <Gold.Chemscore.Hbonds>
donor molecule, donor type, donor heavy atom, donor atom, acceptor molecule, acceptor atom, score
      L1  H     5    24       P1  7948  0.93
      L1  H     8    25       P1  7948  0.88
      L1  H    17    38       P1 10957  0.89

> <Gold.Chemscore.Hbond.Weighted>
-9.5145

> <Gold.Chemscore.Metal.Weighted>
-0.0000

> <Gold.Chemscore.Lipo.Weighted>
-8.0702

> <Gold.Chemscore.Internal_Hbond.Weighted>
0.0000

> <Gold.Chemscore.DEClash.Weighted>
0.0402

> <Gold.Chemscore.DEInternal.Weighted>
0.5189

> <Gold.Chemscore.Rot.Weighted>
4.5562

> <Gold.Chemscore.Internal.Correction.Weighted>
   9.000000E+99

> <Gold.Protein.RotatedTorsions>
[ 6907 6896 6895 6894 ] final   15.62 input  -60.11 | X-H torsion
[ 7974 7965 7964 7962 ] final  -33.01 input  175.53 | X-H torsion
[ 8008 7997 7996 7995 ] final  166.17 input   59.86 | X-H torsion
[ 10167 10162 10161 10158 ] final   88.14 input  -65.29 | X-H torsion
[ 10718 10713 10712 10709 ] final -121.41 input   66.30 | X-H torsion
[ 10763 10752 10751 10750 ] final   56.07 input  -60.55 | X-H torsion
[ 11005 11000 10999 10996 ] final   -9.01 input  -57.11 | X-H torsion

> <Gold.Protein.ActiveResidues>
 VAL166  LYS551  ARG553  GLY616  TRP617  ASP618  TYR619  PRO620  LYS621  CYS622 
 ASP623  PHE694  ASN695  SER759  ASP760  ASP761  ALA762  ILE779  LEU786  VAL792 
 PHE793  MET794  SER795  GLU796  ALA797  LYS798  CYS799  TRP800  GLU811  SER814 

> <Gold.Protein.RotatedAtoms>
  151.8209  135.0652  160.0424 H   0  0  0  0  0  0  0  0  0  0  0  0  # atno 6907 bound_to 6896
  152.2951  133.5595  159.5591 H   0  0  0  0  0  0  0  0  0  0  0  0  # atno 6908 bound_to 6896
  150.7248  134.0288  159.3768 H   0  0  0  0  0  0  0  0  0  0  0  0  # atno 6909 bound_to 6896
  146.0945  140.5863  142.8849 H   0  0  0  0  0  0  0  0  0  0  0  0  # atno 7974 bound_to 7965
  156.1740  140.1650  156.8396 H   0  0  0  0  0  0  0  0  0  0  0  0  # atno 8008 bound_to 7997
  154.5287  140.0761  156.8340 H   0  0  0  0  0  0  0  0  0  0  0  0  # atno 8009 bound_to 7997
  155.3452  140.3387  155.4241 H   0  0  0  0  0  0  0  0  0  0  0  0  # atno 8010 bound_to 7997
  139.8703  144.6496  150.8957 H   0  0  0  0  0  0  0  0  0  0  0  0  # atno 10167 bound_to 10162
  156.1335  130.6413  150.9659 H   0  0  0  0  0  0  0  0  0  0  0  0  # atno 10718 bound_to 10713
  152.9826  135.5689  154.5169 H   0  0  0  0  0  0  0  0  0  0  0  0  # atno 10763 bound_to 10752
  154.4663  135.2783  155.1678 H   0  0  0  0  0  0  0  0  0  0  0  0  # atno 10764 bound_to 10752
  154.3244  135.6262  153.5576 H   0  0  0  0  0  0  0  0  0  0  0  0  # atno 10765 bound_to 10752
  140.7296  133.8760  155.8882 H   0  0  0  0  0  0  0  0  0  0  0  0  # atno 11005 bound_to 11000
  144.7384  140.4875  143.6886 LP  0  0  0  0  0  0  0  0  0  0  0  0  # atno 17320 bound_to 7965
  145.5976  139.1501  143.3147 LP  0  0  0  0  0  0  0  0  0  0  0  0  # atno 17321 bound_to 7965
  140.7761  143.3669  151.1721 LP  0  0  0  0  0  0  0  0  0  0  0  0  # atno 17342 bound_to 10162
  139.7290  143.9102  152.3013 LP  0  0  0  0  0  0  0  0  0  0  0  0  # atno 17343 bound_to 10162
  157.6510  131.0897  150.8050 LP  0  0  0  0  0  0  0  0  0  0  0  0  # atno 17370 bound_to 10713
  156.8132  130.4959  149.5353 LP  0  0  0  0  0  0  0  0  0  0  0  0  # atno 17371 bound_to 10713
  140.9933  134.1250  157.4388 LP  0  0  0  0  0  0  0  0  0  0  0  0  # atno 17394 bound_to 11000
  139.8829  135.0047  156.6264 LP  0  0  0  0  0  0  0  0  0  0  0  0  # atno 17395 bound_to 11000

$$$$
