AV-unprocessed.smi:3342|AV-procd|sdf|12887|dock4
  -GOLD-   2272019293D 1   1.00000     0.00000
 Structure written by MMmdl.
 42 43  0  0  0  0  0  0  0  0  2 V2000
  146.8175  138.2450  156.1932 C   0  0  0  0  0  0  0  0  0  0  0  0
  147.6132  137.7651  154.9687 C   0  0  2  0  0  0  0  0  0  0  0  0
  148.5012  138.8682  154.3524 C   0  0  0  0  0  0  0  0  0  0  0  0
  147.9440  140.2130  154.5232 N   0  0  0  0  0  0  0  0  0  0  0  0
  146.7016  140.6477  154.1394 C   0  0  0  0  0  0  0  0  0  0  0  0
  146.6168  141.9651  154.5098 C   0  0  0  0  0  0  0  0  0  0  0  0
  147.8089  142.2772  155.1069 N   0  3  0  0  0  0  0  0  0  0  0  0
  148.6137  141.2096  155.1169 C   0  0  0  0  0  0  0  0  0  0  0  0
  146.6864  137.2528  153.9639 N   0  0  0  0  0  0  0  0  0  0  0  0
  145.6918  136.3777  154.1936 C   0  0  0  0  0  0  0  0  0  0  0  0
  145.4469  135.9499  155.3228 O   0  0  0  0  0  0  0  0  0  0  0  0
  144.9902  136.0121  153.0910 N   0  0  0  0  0  0  0  0  0  0  0  0
  145.2236  136.4811  151.7151 C   0  0  0  0  0  0  0  0  0  0  0  0
  145.9477  135.3688  150.9352 C   0  0  0  0  0  0  0  0  0  0  0  0
  145.1340  134.0521  150.9576 C   0  0  0  0  0  0  0  0  0  0  0  0
  145.9218  132.9064  150.3082 C   0  0  0  0  0  0  0  0  0  0  0  0
  147.0588  132.5359  150.9020 N   0  0  0  0  0  0  0  0  0  0  0  0
  145.5109  132.3610  149.2856 O   0  0  0  0  0  0  0  0  0  0  0  0
  144.7118  133.6856  152.4006 C   0  0  0  0  0  0  0  0  0  0  0  0
  144.0525  134.8834  153.1091 C   0  0  0  0  0  0  0  0  0  0  0  0
  147.4778  138.5546  157.0034 H   0  0  0  0  0  0  0  0  0  0  0  0
  146.1811  137.4494  156.5825 H   0  0  0  0  0  0  0  0  0  0  0  0
  146.1763  139.0908  155.9430 H   0  0  0  0  0  0  0  0  0  0  0  0
  148.2529  136.9441  155.2980 H   0  0  0  0  0  0  0  0  0  0  0  0
  149.4897  138.8711  154.8136 H   0  0  0  0  0  0  0  0  0  0  0  0
  148.6524  138.6890  153.2866 H   0  0  0  0  0  0  0  0  0  0  0  0
  145.9898  140.0028  153.6440 H   0  0  0  0  0  0  0  0  0  0  0  0
  145.8184  142.6842  154.3979 H   0  0  0  0  0  0  0  0  0  0  0  0
  149.6087  141.1635  155.5229 H   0  0  0  0  0  0  0  0  0  0  0  0
  146.8229  137.5679  153.0145 H   0  0  0  0  0  0  0  0  0  0  0  0
  144.2650  136.7008  151.2430 H   0  0  0  0  0  0  0  0  0  0  0  0
  145.7906  137.4100  151.6541 H   0  0  0  0  0  0  0  0  0  0  0  0
  146.1113  135.6892  149.9054 H   0  0  0  0  0  0  0  0  0  0  0  0
  146.9362  135.2146  151.3711 H   0  0  0  0  0  0  0  0  0  0  0  0
  144.2233  134.2171  150.3789 H   0  0  0  0  0  0  0  0  0  0  0  0
  147.6111  131.7858  150.5129 H   0  0  0  0  0  0  0  0  0  0  0  0
  147.3615  133.0084  151.7414 H   0  0  0  0  0  0  0  0  0  0  0  0
  144.0202  132.8424  152.3857 H   0  0  0  0  0  0  0  0  0  0  0  0
  145.5786  133.3625  152.9798 H   0  0  0  0  0  0  0  0  0  0  0  0
  143.7512  134.6013  154.1190 H   0  0  0  0  0  0  0  0  0  0  0  0
  143.1319  135.1646  152.5957 H   0  0  0  0  0  0  0  0  0  0  0  0
  148.0482  143.1839  155.4888 H   0  0  0  0  0  0  0  0  0  0  0  0
  1  2  1  0  0  0  0
  1 21  1  0  0  0  0
  1 22  1  0  0  0  0
  1 23  1  0  0  0  0
  2  3  1  0  0  0  0
  2  9  1  0  0  0  0
  2 24  1  0  0  0  0
  3  4  1  0  0  0  0
  3 25  1  0  0  0  0
  3 26  1  0  0  0  0
  4  8  1  0  0  0  0
  4  5  1  0  0  0  0
  5  6  2  0  0  0  0
  5 27  1  0  0  0  0
  6  7  1  0  0  0  0
  6 28  1  0  0  0  0
  7  8  2  0  0  0  0
  7 42  1  0  0  0  0
  8 29  1  0  0  0  0
  9 10  1  0  0  0  0
  9 30  1  0  0  0  0
 10 11  2  0  0  0  0
 10 12  1  0  0  0  0
 12 20  1  0  0  0  0
 12 13  1  0  0  0  0
 13 14  1  0  0  0  0
 13 31  1  0  0  0  0
 13 32  1  0  0  0  0
 14 15  1  0  0  0  0
 14 33  1  0  0  0  0
 14 34  1  0  0  0  0
 15 16  1  0  0  0  0
 15 19  1  0  0  0  0
 15 35  1  0  0  0  0
 16 17  1  0  0  0  0
 16 18  2  0  0  0  0
 17 36  1  0  0  0  0
 17 37  1  0  0  0  0
 19 20  1  0  0  0  0
 19 38  1  0  0  0  0
 19 39  1  0  0  0  0
 20 40  1  0  0  0  0
 20 41  1  0  0  0  0
M  CHG  1   7   1
M  END
> <s_m_source_file>
AV-unprocessed.smi

> <i_m_source_file_index>
3342

> <i_lp_mmshare_version>
43012

> <i_f3d_flags>
0

> <s_epik_input>
W2NIXTFuW2NIXVtjSF1uMVtDSDJdW0NAQEhdKFtDSDNdKVtOSF1DKD1PKU4yW0NIMl1bQ0gyXVtDSF0oQyg9TylbTkgyXSlbQ0gyXVtDSDJdMg==

> <s_epik_cmdline>
J2VwaWtfcHl0aG9uJywgJy1waCcsICc3LjAnLCAnLXRuJywgJzgnLCAnLW1hJywgJzIwMCcsICctbWV0YWxfYmluZGluZycsICctaW1hZScsICc8aW5maWxlLm1hZT4nLCAnLW9tYWUnLCAnPG91dGZpbGUubWFlPic=

> <r_lp_tautomer_probability>
1

> <r_epik_Ionization_Penalty>
0.254015

> <r_epik_Ionization_Penalty_Charging>
0

> <r_epik_Ionization_Penalty_Neutral>
0.254015

> <r_epik_State_Penalty>
0.245417

> <r_epik_Charging_Adjusted_Penalty>
0.245417

> <i_epik_Tot_Q>
1

> <i_epik_Tot_abs_Q>
1

> <r_epik_Metal_State_Penalty>
0.535589

> <b_epik_Metal_Only>
0

> <s_lp_Force_Field>
OPLS_2005

> <r_lp_Energy>
30.9276

> <b_lp_Chiralities_Consistent>
1

> <s_lp_Variant>
AV-unprocessed.smi:3342-1

> <Gold.Version>
5.8.1

> <Gold.Id.Protein>
6NUR|6NUR_protein|mol2

> <Gold.PLP.Fitness>
39.7386

> <Gold.PLP.PLP>
-28.6878

> <Gold.PLP.part.hbond>
-2.9199

> <Gold.PLP.part.metal>
0.0000

> <Gold.PLP.part.buried>
-3.3764

> <Gold.PLP.part.nonpolar>
-22.5341

> <Gold.PLP.part.repulsive>
0.4457

> <Gold.PLP.ligand.clash>
0.0000

> <Gold.PLP.ligand.torsion>
0.5307

> <Gold.PLP.Chemscore.Hbond>
3.0000

> <Gold.PLP.Chemscore.CHOScore>
1.0000

> <Gold.PLP.Chemscore.Metal>
0.0000

> <Gold.Chemscore.Hbonds>
donor molecule, donor type, donor heavy atom, donor atom, acceptor molecule, acceptor atom, score
      L1  H     7    42       P1  8028  2.00
      L1  H    17    36       P1 10747  1.00
      L1  C     5    27       P1 10175  0.75

> <Gold.PLP.Chemscore.Internal.Correction>
0.1122

> <Gold.Rescore>
     Score         DG    S(hbond)    S(metal)    S(lipo)     H(rot)  DE(clash)    DE(int)     intcor
      9.50     -11.48       1.95        0.00      46.85       2.34       0.02       1.96       ----

> <Gold.Chemscore.Fitness>
9.5013

> <Gold.Chemscore.DG>
-11.4819

> <Gold.Chemscore.ZeroCoef>
-5.4800

> <Gold.Chemscore.Hbond>
1.9492

> <Gold.Chemscore.Metal>
0.0000

> <Gold.Chemscore.Lipo>
46.8538

> <Gold.Chemscore.Internal_Hbond>
0.0000

> <Gold.Chemscore.DEClash>
0.0162

> <Gold.Chemscore.DEInternal>
1.9644

> <Gold.Chemscore.Rot>
2.3400

> <Gold.Chemscore.Internal.Correction>
   9.000000E+99

> <Gold.Chemscore.Hbonds>
donor molecule, donor type, donor heavy atom, donor atom, acceptor molecule, acceptor atom, score
      L1  H     7    42       P1  8028  0.78
      L1  H    17    36       P1 10747  0.99

> <Gold.Chemscore.Hbond.Weighted>
-6.5103

> <Gold.Chemscore.Metal.Weighted>
-0.0000

> <Gold.Chemscore.Lipo.Weighted>
-5.4819

> <Gold.Chemscore.Internal_Hbond.Weighted>
0.0000

> <Gold.Chemscore.DEClash.Weighted>
0.0162

> <Gold.Chemscore.DEInternal.Weighted>
1.9644

> <Gold.Chemscore.Rot.Weighted>
5.9904

> <Gold.Chemscore.Internal.Correction.Weighted>
   9.000000E+99

> <Gold.Protein.RotatedTorsions>
[ 6907 6896 6895 6894 ] final  -82.90 input  -60.11 | X-H torsion
[ 7974 7965 7964 7962 ] final  -12.75 input  175.53 | X-H torsion
[ 8008 7997 7996 7995 ] final -128.50 input   59.86 | X-H torsion
[ 10167 10162 10161 10158 ] final   83.63 input  -65.29 | X-H torsion
[ 10718 10713 10712 10709 ] final  126.35 input   66.30 | X-H torsion
[ 10763 10752 10751 10750 ] final   12.71 input  -60.55 | X-H torsion
[ 11005 11000 10999 10996 ] final -115.88 input  -57.11 | X-H torsion

> <Gold.Protein.ActiveResidues>
 VAL166  LYS551  ARG553  GLY616  TRP617  ASP618  TYR619  PRO620  LYS621  CYS622 
 ASP623  PHE694  ASN695  SER759  ASP760  ASP761  ALA762  ILE779  LEU786  VAL792 
 PHE793  MET794  SER795  GLU796  ALA797  LYS798  CYS799  TRP800  GLU811  SER814 

> <Gold.Protein.RotatedAtoms>
  150.6891  134.3594  159.4943 H   0  0  0  0  0  0  0  0  0  0  0  0  # atno 6907 bound_to 6896
  152.1424  134.9049  160.0562 H   0  0  0  0  0  0  0  0  0  0  0  0  # atno 6908 bound_to 6896
  152.0177  133.3851  159.4282 H   0  0  0  0  0  0  0  0  0  0  0  0  # atno 6909 bound_to 6896
  146.2140  140.3102  142.8382 H   0  0  0  0  0  0  0  0  0  0  0  0  # atno 7974 bound_to 7965
  155.2638  140.0437  157.3000 H   0  0  0  0  0  0  0  0  0  0  0  0  # atno 8008 bound_to 7997
  154.5695  140.2369  155.8182 H   0  0  0  0  0  0  0  0  0  0  0  0  # atno 8009 bound_to 7997
  156.2111  140.2998  155.9743 H   0  0  0  0  0  0  0  0  0  0  0  0  # atno 8010 bound_to 7997
  139.9163  144.6240  150.8485 H   0  0  0  0  0  0  0  0  0  0  0  0  # atno 10167 bound_to 10162
  157.5426  131.1096  150.8834 H   0  0  0  0  0  0  0  0  0  0  0  0  # atno 10718 bound_to 10713
  153.1794  135.6825  153.8498 H   0  0  0  0  0  0  0  0  0  0  0  0  # atno 10763 bound_to 10752
  153.7835  135.3179  155.3370 H   0  0  0  0  0  0  0  0  0  0  0  0  # atno 10764 bound_to 10752
  154.8050  135.4754  154.0464 H   0  0  0  0  0  0  0  0  0  0  0  0  # atno 10765 bound_to 10752
  141.0459  133.9764  157.2919 H   0  0  0  0  0  0  0  0  0  0  0  0  # atno 11005 bound_to 11000
  144.8993  140.7623  143.5877 LP  0  0  0  0  0  0  0  0  0  0  0  0  # atno 17320 bound_to 7965
  145.3028  139.1845  143.4680 LP  0  0  0  0  0  0  0  0  0  0  0  0  # atno 17321 bound_to 7965
  140.7673  143.3329  151.2372 LP  0  0  0  0  0  0  0  0  0  0  0  0  # atno 17342 bound_to 10162
  139.6899  143.9710  152.2854 LP  0  0  0  0  0  0  0  0  0  0  0  0  # atno 17343 bound_to 10162
  156.9382  130.5375  149.5280 LP  0  0  0  0  0  0  0  0  0  0  0  0  # atno 17370 bound_to 10713
  156.0509  130.5579  150.8987 LP  0  0  0  0  0  0  0  0  0  0  0  0  # atno 17371 bound_to 10713
  139.9311  135.0200  156.8403 LP  0  0  0  0  0  0  0  0  0  0  0  0  # atno 17394 bound_to 11000
  140.6148  134.0049  155.7592 LP  0  0  0  0  0  0  0  0  0  0  0  0  # atno 17395 bound_to 11000

$$$$
