AV-unprocessed.smi:3266|AV-procd|sdf|12500|dock2
  -GOLD-   2272018403D 1   1.00000     0.00000
 Structure written by MMmdl.
 38 39  0  0  0  0  0  0  0  0  1 V2000
  149.7315  141.1176  153.9619 O   0  0  0  0  0  0  0  0  0  0  0  0
  149.0596  141.5180  154.9128 C   0  0  0  0  0  0  0  0  0  0  0  0
  147.5325  141.5324  154.8232 C   0  0  0  0  0  0  0  0  0  0  0  0
  147.0247  142.4797  153.7214 C   0  0  0  0  0  0  0  0  0  0  0  0
  145.6223  143.0315  154.0150 C   0  0  2  0  0  0  0  0  0  0  0  0
  145.3173  144.3492  153.3051 C   0  0  0  0  0  0  0  0  0  0  0  0
  144.2370  144.9263  154.1908 C   0  0  0  0  0  0  0  0  0  0  0  0
  144.7234  144.5222  155.5800 C   0  0  0  0  0  0  0  0  0  0  0  0
  145.4702  143.3207  155.4027 O   0  0  0  0  0  0  0  0  0  0  0  0
  149.5940  141.9424  156.0691 N   0  0  0  0  0  0  0  0  0  0  0  0
  151.0173  141.9368  156.3992 C   0  0  0  0  0  0  0  0  0  0  0  0
  151.2665  141.6964  157.9013 C   0  0  0  0  0  0  0  0  0  0  0  0
  151.5245  142.9696  158.6895 C   0  0  0  0  0  0  0  0  0  0  0  0
  151.8834  144.1660  158.0313 C   0  0  0  0  0  0  0  0  0  0  0  0
  152.0757  145.3260  158.8061 C   0  0  0  0  0  0  0  0  0  0  0  0
  151.9079  145.2447  160.2017 C   0  0  0  0  0  0  0  0  0  0  0  0
  151.5540  144.0014  160.7629 C   0  0  0  0  0  0  0  0  0  0  0  0
  151.3663  142.8832  160.0294 N   0  0  0  0  0  0  0  0  0  0  0  0
  147.1667  140.5217  154.6356 H   0  0  0  0  0  0  0  0  0  0  0  0
  147.1334  141.8344  155.7920 H   0  0  0  0  0  0  0  0  0  0  0  0
  147.7203  143.3103  153.5918 H   0  0  0  0  0  0  0  0  0  0  0  0
  147.0026  141.9463  152.7697 H   0  0  0  0  0  0  0  0  0  0  0  0
  144.8633  142.2974  153.7395 H   0  0  0  0  0  0  0  0  0  0  0  0
  146.1911  145.0027  153.3098 H   0  0  0  0  0  0  0  0  0  0  0  0
  144.9977  144.2120  152.2717 H   0  0  0  0  0  0  0  0  0  0  0  0
  144.1163  146.0039  154.0771 H   0  0  0  0  0  0  0  0  0  0  0  0
  143.2805  144.4489  153.9729 H   0  0  0  0  0  0  0  0  0  0  0  0
  145.3885  145.2841  155.9882 H   0  0  0  0  0  0  0  0  0  0  0  0
  143.9011  144.3801  156.2816 H   0  0  0  0  0  0  0  0  0  0  0  0
  148.9627  142.2599  156.7905 H   0  0  0  0  0  0  0  0  0  0  0  0
  151.5497  141.1910  155.8063 H   0  0  0  0  0  0  0  0  0  0  0  0
  151.4333  142.9028  156.1130 H   0  0  0  0  0  0  0  0  0  0  0  0
  150.4075  141.1834  158.3355 H   0  0  0  0  0  0  0  0  0  0  0  0
  152.1141  141.0217  158.0281 H   0  0  0  0  0  0  0  0  0  0  0  0
  151.9949  144.1986  156.9576 H   0  0  0  0  0  0  0  0  0  0  0  0
  152.3438  146.2616  158.3382 H   0  0  0  0  0  0  0  0  0  0  0  0
  152.0463  146.1140  160.8272 H   0  0  0  0  0  0  0  0  0  0  0  0
  151.4172  143.9026  161.8297 H   0  0  0  0  0  0  0  0  0  0  0  0
  1  2  2  0  0  0  0
  2  3  1  0  0  0  0
  2 10  1  0  0  0  0
  3  4  1  0  0  0  0
  3 19  1  0  0  0  0
  3 20  1  0  0  0  0
  4  5  1  0  0  0  0
  4 21  1  0  0  0  0
  4 22  1  0  0  0  0
  5  9  1  0  0  0  0
  5  6  1  0  0  0  0
  5 23  1  0  0  0  0
  6  7  1  0  0  0  0
  6 24  1  0  0  0  0
  6 25  1  0  0  0  0
  7  8  1  0  0  0  0
  7 26  1  0  0  0  0
  7 27  1  0  0  0  0
  8  9  1  0  0  0  0
  8 28  1  0  0  0  0
  8 29  1  0  0  0  0
 10 11  1  0  0  0  0
 10 30  1  0  0  0  0
 11 12  1  0  0  0  0
 11 31  1  0  0  0  0
 11 32  1  0  0  0  0
 12 13  1  0  0  0  0
 12 33  1  0  0  0  0
 12 34  1  0  0  0  0
 13 18  1  0  0  0  0
 13 14  2  0  0  0  0
 14 15  1  0  0  0  0
 14 35  1  0  0  0  0
 15 16  2  0  0  0  0
 15 36  1  0  0  0  0
 16 17  1  0  0  0  0
 16 37  1  0  0  0  0
 17 18  2  0  0  0  0
 17 38  1  0  0  0  0
M  END
> <s_m_source_file>
AV-unprocessed.smi

> <i_m_source_file_index>
3266

> <i_lp_mmshare_version>
43012

> <i_f3d_flags>
0

> <s_epik_input>
TzFbQ0gyXVtDSDJdW0NIMl1bQ0BIXTFbQ0gyXVtDSDJdQyg9TylbTkhdW0NIMl1bQ0gyXWMyW2NIXVtjSF1bY0hdW2NIXW4y

> <s_epik_cmdline>
J2VwaWtfcHl0aG9uJywgJy1waCcsICc3LjAnLCAnLXRuJywgJzgnLCAnLW1hJywgJzIwMCcsICctbWV0YWxfYmluZGluZycsICctaW1hZScsICc8aW5maWxlLm1hZT4nLCAnLW9tYWUnLCAnPG91dGZpbGUubWFlPic=

> <r_epik_Ionization_Penalty>
0.0267142

> <r_epik_Ionization_Penalty_Charging>
0

> <r_epik_Ionization_Penalty_Neutral>
0.0267142

> <r_epik_State_Penalty>
0.0218233

> <r_epik_Charging_Adjusted_Penalty>
0.0218233

> <i_epik_Tot_Q>
0

> <i_epik_Tot_abs_Q>
0

> <r_epik_Metal_State_Penalty>
0.0208786

> <b_epik_Metal_Only>
0

> <s_lp_Force_Field>
OPLS_2005

> <r_lp_Energy>
16.3587

> <b_lp_Chiralities_Consistent>
1

> <s_lp_Variant>
AV-unprocessed.smi:3266-1

> <Gold.Version>
5.8.1

> <Gold.Id.Protein>
6NUR|6NUR_protein|mol2

> <Gold.PLP.Fitness>
46.1901

> <Gold.PLP.PLP>
-44.9688

> <Gold.PLP.part.hbond>
-3.7628

> <Gold.PLP.part.metal>
0.0000

> <Gold.PLP.part.buried>
-7.3373

> <Gold.PLP.part.nonpolar>
-35.0561

> <Gold.PLP.part.repulsive>
1.2394

> <Gold.PLP.ligand.clash>
0.0000

> <Gold.PLP.ligand.torsion>
1.1000

> <Gold.PLP.Chemscore.Hbond>
1.1141

> <Gold.PLP.Chemscore.CHOScore>
0.0000

> <Gold.PLP.Chemscore.Metal>
0.0000

> <Gold.Chemscore.Hbonds>
donor molecule, donor type, donor heavy atom, donor atom, acceptor molecule, acceptor atom, score
      P1  H  7989  7998       L1     1  0.38
      P1  H  8011  8017       L1     1  0.73

> <Gold.PLP.Chemscore.Internal.Correction>
0.0792

> <Gold.Rescore>
     Score         DG    S(hbond)    S(metal)    S(lipo)     H(rot)  DE(clash)    DE(int)     intcor
     16.32     -17.99       1.10        0.00     113.04       1.71       0.63       1.04       ----

> <Gold.Chemscore.Fitness>
16.3234

> <Gold.Chemscore.DG>
-17.9920

> <Gold.Chemscore.ZeroCoef>
-5.4800

> <Gold.Chemscore.Hbond>
1.0992

> <Gold.Chemscore.Metal>
0.0000

> <Gold.Chemscore.Lipo>
113.0360

> <Gold.Chemscore.Internal_Hbond>
0.0000

> <Gold.Chemscore.DEClash>
0.6327

> <Gold.Chemscore.DEInternal>
1.0358

> <Gold.Chemscore.Rot>
1.7127

> <Gold.Chemscore.Internal.Correction>
   9.000000E+99

> <Gold.Chemscore.Hbonds>
donor molecule, donor type, donor heavy atom, donor atom, acceptor molecule, acceptor atom, score
      P1  H  7989  7998       L1     1  0.38
      P1  H  8011  8017       L1     1  0.63

> <Gold.Chemscore.Hbond.Weighted>
-3.6713

> <Gold.Chemscore.Metal.Weighted>
-0.0000

> <Gold.Chemscore.Lipo.Weighted>
-13.2252

> <Gold.Chemscore.Internal_Hbond.Weighted>
0.0000

> <Gold.Chemscore.DEClash.Weighted>
0.6327

> <Gold.Chemscore.DEInternal.Weighted>
1.0358

> <Gold.Chemscore.Rot.Weighted>
4.3846

> <Gold.Chemscore.Internal.Correction.Weighted>
   9.000000E+99

> <Gold.Protein.RotatedTorsions>
[ 6907 6896 6895 6894 ] final  149.55 input  -60.11 | X-H torsion
[ 7974 7965 7964 7962 ] final  177.01 input  175.53 | X-H torsion
[ 8008 7997 7996 7995 ] final -163.60 input   59.86 | X-H torsion
[ 10167 10162 10161 10158 ] final  -33.73 input  -65.29 | X-H torsion
[ 10718 10713 10712 10709 ] final  -32.59 input   66.30 | X-H torsion
[ 10763 10752 10751 10750 ] final -151.46 input  -60.55 | X-H torsion
[ 11005 11000 10999 10996 ] final -110.30 input  -57.11 | X-H torsion

> <Gold.Protein.ActiveResidues>
 VAL166  LYS551  ARG553  GLY616  TRP617  ASP618  TYR619  PRO620  LYS621  CYS622 
 ASP623  PHE694  ASN695  SER759  ASP760  ASP761  ALA762  ILE779  LEU786  VAL792 
 PHE793  MET794  SER795  GLU796  ALA797  LYS798  CYS799  TRP800  GLU811  SER814 

> <Gold.Protein.RotatedAtoms>
  152.1265  133.4383  159.4700 H   0  0  0  0  0  0  0  0  0  0  0  0  # atno 6907 bound_to 6896
  150.6875  134.2472  159.4505 H   0  0  0  0  0  0  0  0  0  0  0  0  # atno 6908 bound_to 6896
  152.0352  134.9743  160.0624 H   0  0  0  0  0  0  0  0  0  0  0  0  # atno 6909 bound_to 6896
  144.7175  140.0182  143.6440 H   0  0  0  0  0  0  0  0  0  0  0  0  # atno 7974 bound_to 7965
  155.8237  140.0923  157.1834 H   0  0  0  0  0  0  0  0  0  0  0  0  # atno 8008 bound_to 7997
  154.3979  140.1432  156.3590 H   0  0  0  0  0  0  0  0  0  0  0  0  # atno 8009 bound_to 7997
  155.8240  140.3445  155.5534 H   0  0  0  0  0  0  0  0  0  0  0  0  # atno 8010 bound_to 7997
  140.7199  143.3599  151.1984 H   0  0  0  0  0  0  0  0  0  0  0  0  # atno 10167 bound_to 10162
  156.3731  130.4343  149.7529 H   0  0  0  0  0  0  0  0  0  0  0  0  # atno 10718 bound_to 10713
  154.8056  135.3259  154.7438 H   0  0  0  0  0  0  0  0  0  0  0  0  # atno 10763 bound_to 10752
  153.8097  135.6896  153.4847 H   0  0  0  0  0  0  0  0  0  0  0  0  # atno 10764 bound_to 10752
  153.1800  135.4590  154.9960 H   0  0  0  0  0  0  0  0  0  0  0  0  # atno 10765 bound_to 10752
  141.0799  133.9237  157.2310 H   0  0  0  0  0  0  0  0  0  0  0  0  # atno 11005 bound_to 11000
  146.0202  139.3245  143.0817 LP  0  0  0  0  0  0  0  0  0  0  0  0  # atno 17320 bound_to 7965
  145.8577  140.9493  143.0716 LP  0  0  0  0  0  0  0  0  0  0  0  0  # atno 17321 bound_to 7965
  139.7148  143.9317  152.2962 LP  0  0  0  0  0  0  0  0  0  0  0  0  # atno 17342 bound_to 10162
  139.9055  144.6887  150.8619 LP  0  0  0  0  0  0  0  0  0  0  0  0  # atno 17343 bound_to 10162
  156.4649  130.7969  151.2989 LP  0  0  0  0  0  0  0  0  0  0  0  0  # atno 17370 bound_to 10713
  157.7486  131.0054  150.3112 LP  0  0  0  0  0  0  0  0  0  0  0  0  # atno 17371 bound_to 10713
  139.9613  135.0153  156.9267 LP  0  0  0  0  0  0  0  0  0  0  0  0  # atno 17394 bound_to 11000
  140.5491  134.0645  155.7364 LP  0  0  0  0  0  0  0  0  0  0  0  0  # atno 17395 bound_to 11000

$$$$
