AV-unprocessed.smi:2858|AV-procd|sdf|11001|dock4
  -GOLD-   2272015453D 1   1.00000     0.00000
 Structure written by MMmdl.
 39 40  0  0  0  0  0  0  0  0  1 V2000
  142.6514  145.8754  154.2166 O   0  0  0  0  0  0  0  0  0  0  0  0
  143.2534  144.9139  154.6891 C   0  0  0  0  0  0  0  0  0  0  0  0
  144.4927  144.3566  153.9672 C   0  0  0  0  0  0  0  0  0  0  0  0
  144.9530  143.0247  154.4308 N   0  0  0  0  0  0  0  0  0  0  0  0
  146.2599  142.7232  153.8400 C   0  0  0  0  0  0  0  0  0  0  0  0
  146.7907  141.3246  154.2138 C   0  0  0  0  0  0  0  0  0  0  0  0
  148.3265  141.2272  154.1762 C   0  0  0  0  0  0  0  0  0  0  0  0
  148.9460  142.1483  155.1222 N   0  0  0  0  0  0  0  0  0  0  0  0
  149.8562  141.8070  156.0461 C   0  0  0  0  0  0  0  0  0  0  0  0
  150.2784  140.6593  156.1908 O   0  0  0  0  0  0  0  0  0  0  0  0
  150.2351  142.8731  156.7734 N   0  0  0  0  0  0  0  0  0  0  0  0
  151.1589  142.9177  157.8519 C   0  0  0  0  0  0  0  0  0  0  0  0
  151.2954  144.1809  158.4712 C   0  0  0  0  0  0  0  0  0  0  0  0
  152.1851  144.3300  159.5526 C   0  0  0  0  0  0  0  0  0  0  0  0
  152.9159  143.2106  159.9885 C   0  0  0  0  0  0  0  0  0  0  0  0
  152.7215  141.9896  159.3171 C   0  0  0  0  0  0  0  0  0  0  0  0
  151.8699  141.8447  158.2799 N   0  0  0  0  0  0  0  0  0  0  0  0
  144.9591  142.9641  155.8941 C   0  0  0  0  0  0  0  0  0  0  0  0
  143.5237  143.1639  156.4147 C   0  0  0  0  0  0  0  0  0  0  0  0
  142.8808  144.3416  155.8436 N   0  0  0  0  0  0  0  0  0  0  0  0
  144.2847  144.3140  152.8972 H   0  0  0  0  0  0  0  0  0  0  0  0
  145.2922  145.0869  154.1044 H   0  0  0  0  0  0  0  0  0  0  0  0
  146.1849  142.7691  152.7522 H   0  0  0  0  0  0  0  0  0  0  0  0
  146.9822  143.4889  154.1281 H   0  0  0  0  0  0  0  0  0  0  0  0
  146.4508  141.0988  155.2252 H   0  0  0  0  0  0  0  0  0  0  0  0
  146.3500  140.5526  153.5848 H   0  0  0  0  0  0  0  0  0  0  0  0
  148.6444  140.2181  154.4386 H   0  0  0  0  0  0  0  0  0  0  0  0
  148.6984  141.4160  153.1678 H   0  0  0  0  0  0  0  0  0  0  0  0
  148.6563  143.1139  155.0720 H   0  0  0  0  0  0  0  0  0  0  0  0
  149.8069  143.7546  156.5329 H   0  0  0  0  0  0  0  0  0  0  0  0
  150.7252  145.0306  158.1244 H   0  0  0  0  0  0  0  0  0  0  0  0
  152.3035  145.2871  160.0388 H   0  0  0  0  0  0  0  0  0  0  0  0
  153.6069  143.2855  160.8150 H   0  0  0  0  0  0  0  0  0  0  0  0
  153.2632  141.1057  159.6197 H   0  0  0  0  0  0  0  0  0  0  0  0
  145.3252  142.0032  156.2518 H   0  0  0  0  0  0  0  0  0  0  0  0
  145.6234  143.7298  156.2987 H   0  0  0  0  0  0  0  0  0  0  0  0
  142.9144  142.2930  156.1699 H   0  0  0  0  0  0  0  0  0  0  0  0
  143.5261  143.2507  157.5014 H   0  0  0  0  0  0  0  0  0  0  0  0
  142.0810  144.7189  156.3312 H   0  0  0  0  0  0  0  0  0  0  0  0
  1  2  2  0  0  0  0
  2 20  1  0  0  0  0
  2  3  1  0  0  0  0
  3  4  1  0  0  0  0
  3 21  1  0  0  0  0
  3 22  1  0  0  0  0
  4  5  1  0  0  0  0
  4 18  1  0  0  0  0
  5  6  1  0  0  0  0
  5 23  1  0  0  0  0
  5 24  1  0  0  0  0
  6  7  1  0  0  0  0
  6 25  1  0  0  0  0
  6 26  1  0  0  0  0
  7  8  1  0  0  0  0
  7 27  1  0  0  0  0
  7 28  1  0  0  0  0
  8  9  1  0  0  0  0
  8 29  1  0  0  0  0
  9 10  2  0  0  0  0
  9 11  1  0  0  0  0
 11 12  1  0  0  0  0
 11 30  1  0  0  0  0
 12 17  1  0  0  0  0
 12 13  2  0  0  0  0
 13 14  1  0  0  0  0
 13 31  1  0  0  0  0
 14 15  2  0  0  0  0
 14 32  1  0  0  0  0
 15 16  1  0  0  0  0
 15 33  1  0  0  0  0
 16 17  2  0  0  0  0
 16 34  1  0  0  0  0
 18 19  1  0  0  0  0
 18 35  1  0  0  0  0
 18 36  1  0  0  0  0
 19 20  1  0  0  0  0
 19 37  1  0  0  0  0
 19 38  1  0  0  0  0
 20 39  1  0  0  0  0
M  END
> <s_m_source_file>
AV-unprocessed.smi

> <i_m_source_file_index>
2858

> <i_lp_mmshare_version>
43012

> <i_f3d_flags>
0

> <s_epik_input>
Tz1DMVtDSDJdTihbQ0gyXVtDSDJdW05IXTEpW0NIMl1bQ0gyXVtDSDJdW05IXUMoPU8pW05IXWMyW2NIXVtjSF1bY0hdW2NIXW4y

> <s_epik_cmdline>
J2VwaWtfcHl0aG9uJywgJy1waCcsICc3LjAnLCAnLXRuJywgJzgnLCAnLW1hJywgJzIwMCcsICctbWV0YWxfYmluZGluZycsICctaW1hZScsICc8aW5maWxlLm1hZT4nLCAnLW9tYWUnLCAnPG91dGZpbGUubWFlPic=

> <r_epik_Ionization_Penalty>
1.05093

> <r_epik_Ionization_Penalty_Charging>
0

> <r_epik_Ionization_Penalty_Neutral>
1.05093

> <r_epik_State_Penalty>
1.10373

> <r_epik_Charging_Adjusted_Penalty>
1.10373

> <i_epik_Tot_Q>
0

> <i_epik_Tot_abs_Q>
0

> <r_epik_Metal_State_Penalty>
1.17671

> <b_epik_Metal_Only>
0

> <s_lp_Force_Field>
OPLS_2005

> <r_lp_Energy>
22.2327

> <b_lp_Chiralities_Consistent>
1

> <s_lp_Variant>
AV-unprocessed.smi:2858-3

> <Gold.Version>
5.8.1

> <Gold.Id.Protein>
6NUR|6NUR_protein|mol2

> <Gold.PLP.Fitness>
49.5256

> <Gold.PLP.PLP>
-44.3024

> <Gold.PLP.part.hbond>
-4.0000

> <Gold.PLP.part.metal>
0.0000

> <Gold.PLP.part.buried>
-8.6298

> <Gold.PLP.part.nonpolar>
-33.2379

> <Gold.PLP.part.repulsive>
0.6202

> <Gold.PLP.ligand.clash>
0.0000

> <Gold.PLP.ligand.torsion>
0.1854

> <Gold.PLP.Chemscore.Hbond>
1.8560

> <Gold.PLP.Chemscore.CHOScore>
0.0000

> <Gold.PLP.Chemscore.Metal>
0.0000

> <Gold.Chemscore.Hbonds>
donor molecule, donor type, donor heavy atom, donor atom, acceptor molecule, acceptor atom, score
      L1  H     8    29       P1  8028  0.96
      L1  H    11    30       P1  8028  1.00

> <Gold.PLP.Chemscore.Internal.Correction>
0.0259

> <Gold.Rescore>
     Score         DG    S(hbond)    S(metal)    S(lipo)     H(rot)  DE(clash)    DE(int)     intcor
     14.29     -15.82       1.92        0.00      77.79       2.02       0.07       1.46       ----

> <Gold.Chemscore.Fitness>
14.2891

> <Gold.Chemscore.DG>
-15.8190

> <Gold.Chemscore.ZeroCoef>
-5.4800

> <Gold.Chemscore.Hbond>
1.9198

> <Gold.Chemscore.Metal>
0.0000

> <Gold.Chemscore.Lipo>
77.7889

> <Gold.Chemscore.Internal_Hbond>
0.0000

> <Gold.Chemscore.DEClash>
0.0723

> <Gold.Chemscore.DEInternal>
1.4575

> <Gold.Chemscore.Rot>
2.0213

> <Gold.Chemscore.Internal.Correction>
   9.000000E+99

> <Gold.Chemscore.Hbonds>
donor molecule, donor type, donor heavy atom, donor atom, acceptor molecule, acceptor atom, score
      L1  H     8    29       P1  8028  0.92
      L1  H    11    30       P1  8028  0.96

> <Gold.Chemscore.Hbond.Weighted>
-6.4121

> <Gold.Chemscore.Metal.Weighted>
-0.0000

> <Gold.Chemscore.Lipo.Weighted>
-9.1013

> <Gold.Chemscore.Internal_Hbond.Weighted>
0.0000

> <Gold.Chemscore.DEClash.Weighted>
0.0723

> <Gold.Chemscore.DEInternal.Weighted>
1.4575

> <Gold.Chemscore.Rot.Weighted>
5.1744

> <Gold.Chemscore.Internal.Correction.Weighted>
   9.000000E+99

> <Gold.Protein.RotatedTorsions>
[ 6907 6896 6895 6894 ] final   86.58 input  -60.11 | X-H torsion
[ 7974 7965 7964 7962 ] final   34.93 input  175.53 | X-H torsion
[ 8008 7997 7996 7995 ] final   61.24 input   59.86 | X-H torsion
[ 10167 10162 10161 10158 ] final  -75.70 input  -65.29 | X-H torsion
[ 10718 10713 10712 10709 ] final  -97.55 input   66.30 | X-H torsion
[ 10763 10752 10751 10750 ] final  132.12 input  -60.55 | X-H torsion
[ 11005 11000 10999 10996 ] final  144.30 input  -57.11 | X-H torsion

> <Gold.Protein.ActiveResidues>
 VAL166  LYS551  ARG553  GLY616  TRP617  ASP618  TYR619  PRO620  LYS621  CYS622 
 ASP623  PHE694  ASN695  SER759  ASP760  ASP761  ALA762  ILE779  LEU786  VAL792 
 PHE793  MET794  SER795  GLU796  ALA797  LYS798  CYS799  TRP800  GLU811  SER814 

> <Gold.Protein.RotatedAtoms>
  152.5397  134.2409  159.8861 H   0  0  0  0  0  0  0  0  0  0  0  0  # atno 6907 bound_to 6896
  151.2377  133.4409  159.2613 H   0  0  0  0  0  0  0  0  0  0  0  0  # atno 6908 bound_to 6896
  151.0656  134.9779  159.8339 H   0  0  0  0  0  0  0  0  0  0  0  0  # atno 6909 bound_to 6896
  146.1319  139.6207  142.9221 H   0  0  0  0  0  0  0  0  0  0  0  0  # atno 7974 bound_to 7965
  155.5952  140.3493  155.4578 H   0  0  0  0  0  0  0  0  0  0  0  0  # atno 8008 bound_to 7997
  156.0271  140.1266  157.0322 H   0  0  0  0  0  0  0  0  0  0  0  0  # atno 8009 bound_to 7997
  154.4337  140.1051  156.6032 H   0  0  0  0  0  0  0  0  0  0  0  0  # atno 8010 bound_to 7997
  140.4920  143.2378  151.7892 H   0  0  0  0  0  0  0  0  0  0  0  0  # atno 10167 bound_to 10162
  156.0086  130.5199  150.6392 H   0  0  0  0  0  0  0  0  0  0  0  0  # atno 10718 bound_to 10713
  153.7855  135.3162  155.3371 H   0  0  0  0  0  0  0  0  0  0  0  0  # atno 10763 bound_to 10752
  154.8145  135.4645  154.0609 H   0  0  0  0  0  0  0  0  0  0  0  0  # atno 10764 bound_to 10752
  153.1911  135.6908  153.8437 H   0  0  0  0  0  0  0  0  0  0  0  0  # atno 10765 bound_to 10752
  140.0621  134.9198  157.1202 H   0  0  0  0  0  0  0  0  0  0  0  0  # atno 11005 bound_to 11000
  145.5242  141.0430  143.2418 LP  0  0  0  0  0  0  0  0  0  0  0  0  # atno 17320 bound_to 7965
  144.7699  139.6759  143.7199 LP  0  0  0  0  0  0  0  0  0  0  0  0  # atno 17321 bound_to 7965
  139.4853  144.4637  151.9510 LP  0  0  0  0  0  0  0  0  0  0  0  0  # atno 17342 bound_to 10162
  140.3724  144.2839  150.5918 LP  0  0  0  0  0  0  0  0  0  0  0  0  # atno 17343 bound_to 10162
  157.4175  131.0832  151.1162 LP  0  0  0  0  0  0  0  0  0  0  0  0  # atno 17370 bound_to 10713
  157.1775  130.6294  149.5660 LP  0  0  0  0  0  0  0  0  0  0  0  0  # atno 17371 bound_to 10713
  140.3754  134.2345  155.7174 LP  0  0  0  0  0  0  0  0  0  0  0  0  # atno 17394 bound_to 11000
  141.1977  133.8051  157.0613 LP  0  0  0  0  0  0  0  0  0  0  0  0  # atno 17395 bound_to 11000

$$$$
