AV-unprocessed.smi:215|AV-procd|sdf|1657|dock9
  -GOLD-   2262020 53D 1   1.00000     0.00000
 Structure written by MMmdl.
 59 62  0  0  0  0  0  0  0  0  2 V2000
  145.2964  132.2240  152.6294 C   0  0  0  0  0  0  0  0  0  0  0  0
  146.3433  133.2949  152.2483 C   0  0  1  0  0  0  0  0  0  0  0  0
  145.9638  134.1223  151.0020 C   0  0  1  0  0  0  0  0  0  0  0  0
  145.4316  133.3330  149.8510 N   0  3  1  0  0  0  0  0  0  0  0  0
  146.1131  132.0226  149.6939 C   0  0  0  0  0  0  0  0  0  0  0  0
  143.9497  133.1866  149.8949 C   0  0  0  0  0  0  0  0  0  0  0  0
  143.3126  133.0490  148.4995 C   0  0  0  0  0  0  0  0  0  0  0  0
  143.3794  134.2767  147.8062 O   0  0  0  0  0  0  0  0  0  0  0  0
  145.0021  135.1689  151.5902 C   0  0  0  0  0  0  0  0  0  0  0  0
  145.5496  135.4261  152.9996 C   0  0  0  0  0  0  0  0  0  0  0  0
  146.4515  134.3147  153.2831 N   0  0  0  0  0  0  0  0  0  0  0  0
  146.9537  134.0913  154.5282 C   0  0  0  0  0  0  0  0  0  0  0  0
  147.9102  133.1357  154.6701 N   0  0  0  0  0  0  0  0  0  0  0  0
  148.4471  132.8790  155.8657 C   0  0  0  0  0  0  0  0  0  0  0  0
  148.1715  133.4449  157.0406 N   0  0  0  0  0  0  0  0  0  0  0  0
  147.2004  134.3935  156.9162 C   0  0  0  0  0  0  0  0  0  0  0  0
  146.5450  134.7804  155.7105 C   0  0  0  0  0  0  0  0  0  0  0  0
  145.6225  135.7838  155.9892 N   0  0  0  0  0  0  0  0  0  0  0  0
  145.7359  135.9861  157.2726 C   0  0  0  0  0  0  0  0  0  0  0  0
  146.6415  135.1734  157.9137 N   0  0  0  0  0  0  0  0  0  0  0  0
  146.9909  135.2080  159.3036 C   0  0  0  0  0  0  0  0  0  0  0  0
  145.9258  135.0565  160.3923 C   0  0  0  0  0  0  0  0  0  0  0  0
  146.7453  135.9887  161.3132 C   0  0  0  0  0  0  0  0  0  0  0  0
  145.8978  136.9847  162.1239 C   0  0  0  0  0  0  0  0  0  0  0  0
  146.5615  138.2183  162.3062 O   0  0  0  0  0  0  0  0  0  0  0  0
  147.7029  135.2409  162.2653 C   0  0  0  0  0  0  0  0  0  0  0  0
  147.0150  134.3831  163.1528 O   0  0  0  0  0  0  0  0  0  0  0  0
  147.3576  136.5216  159.9973 C   0  0  0  0  0  0  0  0  0  0  0  0
  147.3126  132.8284  152.0825 H   0  0  0  0  0  0  0  0  0  0  0  0
  146.8547  134.6527  150.6586 H   0  0  0  0  0  0  0  0  0  0  0  0
  145.2217  131.4509  151.8668 H   0  0  0  0  0  0  0  0  0  0  0  0
  144.3037  132.6527  152.7667 H   0  0  0  0  0  0  0  0  0  0  0  0
  145.5623  131.7219  153.5594 H   0  0  0  0  0  0  0  0  0  0  0  0
  146.0031  131.4171  150.5945 H   0  0  0  0  0  0  0  0  0  0  0  0
  147.1772  132.1475  149.4957 H   0  0  0  0  0  0  0  0  0  0  0  0
  145.7132  131.4538  148.8563 H   0  0  0  0  0  0  0  0  0  0  0  0
  143.6934  132.3228  150.5102 H   0  0  0  0  0  0  0  0  0  0  0  0
  143.4903  134.0451  150.3838 H   0  0  0  0  0  0  0  0  0  0  0  0
  143.7753  132.2646  147.9025 H   0  0  0  0  0  0  0  0  0  0  0  0
  142.2614  132.7791  148.6044 H   0  0  0  0  0  0  0  0  0  0  0  0
  144.1531  134.2751  147.2622 H   0  0  0  0  0  0  0  0  0  0  0  0
  144.9532  136.0832  150.9978 H   0  0  0  0  0  0  0  0  0  0  0  0
  143.9922  134.7629  151.6629 H   0  0  0  0  0  0  0  0  0  0  0  0
  146.1135  136.3590  153.0305 H   0  0  0  0  0  0  0  0  0  0  0  0
  144.7403  135.4900  153.7281 H   0  0  0  0  0  0  0  0  0  0  0  0
  149.2055  132.1100  155.8832 H   0  0  0  0  0  0  0  0  0  0  0  0
  145.1524  136.7340  157.7898 H   0  0  0  0  0  0  0  0  0  0  0  0
  147.7841  134.4697  159.4322 H   0  0  0  0  0  0  0  0  0  0  0  0
  144.9656  135.4803  160.0917 H   0  0  0  0  0  0  0  0  0  0  0  0
  145.8002  134.0380  160.7613 H   0  0  0  0  0  0  0  0  0  0  0  0
  144.9571  137.1963  161.6147 H   0  0  0  0  0  0  0  0  0  0  0  0
  145.6321  136.5772  163.0998 H   0  0  0  0  0  0  0  0  0  0  0  0
  145.9205  138.8757  162.5286 H   0  0  0  0  0  0  0  0  0  0  0  0
  148.4317  134.6529  161.7071 H   0  0  0  0  0  0  0  0  0  0  0  0
  148.2812  135.9396  162.8703 H   0  0  0  0  0  0  0  0  0  0  0  0
  146.6846  133.6457  162.6633 H   0  0  0  0  0  0  0  0  0  0  0  0
  148.4276  136.7284  160.0337 H   0  0  0  0  0  0  0  0  0  0  0  0
  146.8102  137.3760  159.5941 H   0  0  0  0  0  0  0  0  0  0  0  0
  145.6397  133.8721  149.0220 H   0  0  0  0  0  0  0  0  0  0  0  0
  1  2  1  0  0  0  0
  1 31  1  0  0  0  0
  1 32  1  0  0  0  0
  1 33  1  0  0  0  0
  2 29  1  0  0  0  0
  2 11  1  0  0  0  0
  2  3  1  0  0  0  0
  3 30  1  0  0  0  0
  3  4  1  0  0  0  0
  3  9  1  0  0  0  0
  4  5  1  0  0  0  0
  4  6  1  0  0  0  0
  4 59  1  0  0  0  0
  5 34  1  0  0  0  0
  5 35  1  0  0  0  0
  5 36  1  0  0  0  0
  6  7  1  0  0  0  0
  6 37  1  0  0  0  0
  6 38  1  0  0  0  0
  7  8  1  0  0  0  0
  7 39  1  0  0  0  0
  7 40  1  0  0  0  0
  8 41  1  0  0  0  0
  9 10  1  0  0  0  0
  9 42  1  0  0  0  0
  9 43  1  0  0  0  0
 10 11  1  0  0  0  0
 10 44  1  0  0  0  0
 10 45  1  0  0  0  0
 11 12  1  0  0  0  0
 12 17  1  0  0  0  0
 12 13  2  0  0  0  0
 13 14  1  0  0  0  0
 14 15  2  0  0  0  0
 14 46  1  0  0  0  0
 15 16  1  0  0  0  0
 16 20  1  0  0  0  0
 16 17  2  0  0  0  0
 17 18  1  0  0  0  0
 18 19  2  0  0  0  0
 19 20  1  0  0  0  0
 19 47  1  0  0  0  0
 20 21  1  0  0  0  0
 21 28  1  0  0  0  0
 21 22  1  0  0  0  0
 21 48  1  0  0  0  0
 22 23  1  0  0  0  0
 22 49  1  0  0  0  0
 22 50  1  0  0  0  0
 23 24  1  0  0  0  0
 23 26  1  0  0  0  0
 23 28  1  0  0  0  0
 24 25  1  0  0  0  0
 24 51  1  0  0  0  0
 24 52  1  0  0  0  0
 25 53  1  0  0  0  0
 26 27  1  0  0  0  0
 26 54  1  0  0  0  0
 26 55  1  0  0  0  0
 27 56  1  0  0  0  0
 28 57  1  0  0  0  0
 28 58  1  0  0  0  0
M  CHG  1   4   1
M  END
> <s_m_source_file>
AV-unprocessed.smi

> <i_m_source_file_index>
215

> <i_lp_mmshare_version>
43012

> <i_f3d_flags>
0

> <s_epik_input>
W09IXVtDSDJdW0NIMl1OKFtDSDNdKVtDQEBIXShbQ0BIXTFbQ0gzXSlbQ0gyXVtDSDJdTjFjKG5bY0hdbjIpYyhjMjMpbltjSF1uM1tDSF0oW0NIMl00KVtDSDJdQzQoW0NIMl1bT0hdKVtDSDJdW09IXQ==

> <s_epik_cmdline>
J2VwaWtfcHl0aG9uJywgJy1waCcsICc3LjAnLCAnLXRuJywgJzgnLCAnLW1hJywgJzIwMCcsICctbWV0YWxfYmluZGluZycsICctaW1hZScsICc8aW5maWxlLm1hZT4nLCAnLW9tYWUnLCAnPG91dGZpbGUubWFlPic=

> <r_lp_tautomer_probability>
1

> <r_epik_Ionization_Penalty>
0.0036237

> <r_epik_Ionization_Penalty_Charging>
0.0032725

> <r_epik_Ionization_Penalty_Neutral>
0.000351196

> <r_epik_State_Penalty>
-0

> <r_epik_Charging_Adjusted_Penalty>
0.0032725

> <i_epik_Tot_Q>
1

> <i_epik_Tot_abs_Q>
1

> <r_epik_Metal_State_Penalty>
-0

> <b_epik_Metal_Only>
0

> <s_lp_Force_Field>
OPLS_2005

> <r_lp_Energy>
65.1718

> <b_lp_Chiralities_Consistent>
1

> <s_lp_Variant>
AV-unprocessed.smi:215-8

> <Gold.Version>
5.8.1

> <Gold.Id.Protein>
6NUR|6NUR_protein|mol2

> <Gold.PLP.Fitness>
44.5924

> <Gold.PLP.PLP>
-38.0615

> <Gold.PLP.part.hbond>
-6.8132

> <Gold.PLP.part.metal>
0.0000

> <Gold.PLP.part.buried>
-4.3449

> <Gold.PLP.part.nonpolar>
-26.9663

> <Gold.PLP.part.repulsive>
0.1911

> <Gold.PLP.ligand.clash>
0.0000

> <Gold.PLP.ligand.torsion>
1.7950

> <Gold.PLP.Chemscore.Hbond>
3.1360

> <Gold.PLP.Chemscore.CHOScore>
0.0000

> <Gold.PLP.Chemscore.Metal>
0.0000

> <Gold.Chemscore.Hbonds>
donor molecule, donor type, donor heavy atom, donor atom, acceptor molecule, acceptor atom, score
      L1  H     4    59       P1  7921  1.00
      L1  H     8    41       P1  7921  0.67
      P1  H  6934  6947       L1    25  0.26
      P1  H 10192 10197       L1     8  1.00

> <Gold.PLP.Chemscore.Internal.Correction>
0.7129

> <Gold.Rescore>
     Score         DG    S(hbond)    S(metal)    S(lipo)     H(rot)  DE(clash)    DE(int)     intcor
      8.45     -12.88       2.51        0.00      89.57       4.48       0.68       3.74       ----

> <Gold.Chemscore.Fitness>
8.4490

> <Gold.Chemscore.DG>
-12.8768

> <Gold.Chemscore.ZeroCoef>
-5.4800

> <Gold.Chemscore.Hbond>
2.5096

> <Gold.Chemscore.Metal>
0.0000

> <Gold.Chemscore.Lipo>
89.5739

> <Gold.Chemscore.Internal_Hbond>
0.0000

> <Gold.Chemscore.DEClash>
0.6835

> <Gold.Chemscore.DEInternal>
3.7443

> <Gold.Chemscore.Rot>
4.4787

> <Gold.Chemscore.Internal.Correction>
   9.000000E+99

> <Gold.Chemscore.Hbonds>
donor molecule, donor type, donor heavy atom, donor atom, acceptor molecule, acceptor atom, score
      L1  H     4    59       P1  7921  0.45
      L1  H     8    41       P1  7921  0.62
      P1  H  6931  6943       L1    25  0.01
      P1  H  6934  6947       L1    25  0.03
      P1  H 10192 10197       L1     8  0.90

> <Gold.Chemscore.Hbond.Weighted>
-8.3822

> <Gold.Chemscore.Metal.Weighted>
-0.0000

> <Gold.Chemscore.Lipo.Weighted>
-10.4801

> <Gold.Chemscore.Internal_Hbond.Weighted>
0.0000

> <Gold.Chemscore.DEClash.Weighted>
0.6835

> <Gold.Chemscore.DEInternal.Weighted>
3.7443

> <Gold.Chemscore.Rot.Weighted>
11.4655

> <Gold.Chemscore.Internal.Correction.Weighted>
   9.000000E+99

> <Gold.Protein.RotatedTorsions>
[ 6907 6896 6895 6894 ] final -145.54 input  -60.11 | X-H torsion
[ 7974 7965 7964 7962 ] final   57.85 input  175.53 | X-H torsion
[ 8008 7997 7996 7995 ] final    1.89 input   59.86 | X-H torsion
[ 10167 10162 10161 10158 ] final  167.52 input  -65.29 | X-H torsion
[ 10718 10713 10712 10709 ] final  -79.95 input   66.30 | X-H torsion
[ 10763 10752 10751 10750 ] final  -44.46 input  -60.55 | X-H torsion
[ 11005 11000 10999 10996 ] final  -96.78 input  -57.11 | X-H torsion

> <Gold.Protein.ActiveResidues>
 VAL166  LYS551  ARG553  GLY616  TRP617  ASP618  TYR619  PRO620  LYS621  CYS622 
 ASP623  PHE694  ASN695  SER759  ASP760  ASP761  ALA762  ILE779  LEU786  VAL792 
 PHE793  MET794  SER795  GLU796  ALA797  LYS798  CYS799  TRP800  GLU811  SER814 

> <Gold.Protein.RotatedAtoms>
  151.1291  133.5049  159.2599 H   0  0  0  0  0  0  0  0  0  0  0  0  # atno 6907 bound_to 6896
  151.1777  135.0346  159.8789 H   0  0  0  0  0  0  0  0  0  0  0  0  # atno 6908 bound_to 6896
  152.5459  134.1147  159.8427 H   0  0  0  0  0  0  0  0  0  0  0  0  # atno 6909 bound_to 6896
  145.9245  139.3757  143.0458 H   0  0  0  0  0  0  0  0  0  0  0  0  # atno 7974 bound_to 7965
  154.6851  140.2641  155.6869 H   0  0  0  0  0  0  0  0  0  0  0  0  # atno 8008 bound_to 7997
  156.2711  140.2802  156.1332 H   0  0  0  0  0  0  0  0  0  0  0  0  # atno 8009 bound_to 7997
  155.0976  140.0374  157.2677 H   0  0  0  0  0  0  0  0  0  0  0  0  # atno 8010 bound_to 7997
  139.4947  144.3913  151.9514 H   0  0  0  0  0  0  0  0  0  0  0  0  # atno 10167 bound_to 10162
  156.0081  130.4560  150.3726 H   0  0  0  0  0  0  0  0  0  0  0  0  # atno 10718 bound_to 10713
  154.0125  135.6679  153.4766 H   0  0  0  0  0  0  0  0  0  0  0  0  # atno 10763 bound_to 10752
  153.0615  135.5025  154.8099 H   0  0  0  0  0  0  0  0  0  0  0  0  # atno 10764 bound_to 10752
  154.6987  135.3074  154.9337 H   0  0  0  0  0  0  0  0  0  0  0  0  # atno 10765 bound_to 10752
  141.1400  133.8122  157.0617 H   0  0  0  0  0  0  0  0  0  0  0  0  # atno 11005 bound_to 11000
  145.8506  140.9531  143.0751 LP  0  0  0  0  0  0  0  0  0  0  0  0  # atno 17320 bound_to 7965
  144.6757  140.0402  143.7481 LP  0  0  0  0  0  0  0  0  0  0  0  0  # atno 17321 bound_to 7965
  140.3351  144.3270  150.5979 LP  0  0  0  0  0  0  0  0  0  0  0  0  # atno 17342 bound_to 10162
  140.5613  143.2192  151.7760 LP  0  0  0  0  0  0  0  0  0  0  0  0  # atno 17343 bound_to 10162
  157.1810  131.0392  151.2748 LP  0  0  0  0  0  0  0  0  0  0  0  0  # atno 17370 bound_to 10713
  157.4146  130.7404  149.6865 LP  0  0  0  0  0  0  0  0  0  0  0  0  # atno 17371 bound_to 10713
  140.0567  134.9777  157.1233 LP  0  0  0  0  0  0  0  0  0  0  0  0  # atno 17394 bound_to 11000
  140.3909  134.2186  155.7166 LP  0  0  0  0  0  0  0  0  0  0  0  0  # atno 17395 bound_to 11000

$$$$
