#       Name:                AV-unprocessed.smi:3255
#       Creating user name   scv26
#       Creation time:       Fri Mar 27 18:35:59 2020


#       File generated by GOLD software.
#

@<TRIPOS>MOLECULE
AV-unprocessed.smi:3255
    43    44     1
SMALL
NO_CHARGES


@<TRIPOS>ATOM
      1 ****        -3.2980  -0.3951   2.7422 C.3            1 S1                 0.0000
      2 ****        -2.6135   0.0500   1.4418 C.3            1 S1                 0.0000
      3 ****        -1.1630  -0.0018   1.6194 N.am           1 S1                 0.0000
      4 ****        -0.2750   0.7929   1.0059 C.2            1 S1                 0.0000
      5 ****        -0.5771   1.7033   0.2342 O.2            1 S1                 0.0000
      6 ****         0.9857   0.4654   1.3204 N.am           1 S1                 0.0000
      7 ****         2.1717   1.1140   0.7745 C.3            1 S1                 0.0000
      8 ****         2.5108   0.5773  -0.6257 C.3            1 S1                 0.0000
      9 ****         3.6661   1.2490  -1.1841 N.pl3          1 S1                 0.0000
     10 ****         3.6680   2.3860  -1.9810 C.2            1 S1                 0.0000
     11 ****         4.9859   2.6621  -2.2678 C.2            1 S1                 0.0000
     12 ****         5.8066   1.7144  -1.6603 N.2            1 S1                 0.0000
     13 ****         4.9541   0.9111  -1.0368 C.2            1 S1                 0.0000
     14 ****        -3.0758  -0.7943   0.2307 C.3            1 S1                 0.0000
     15 ****        -2.6225  -2.2613   0.2108 C.3            1 S1                 0.0000
     16 ****        -2.5588  -2.5492  -1.2719 C.3            1 S1                 0.0000
     17 ****        -2.0190  -1.2298  -1.8095 C.3            1 S1                 0.0000
     18 ****        -2.6160  -0.2266  -0.9957 O.3            1 S1                 0.0000
     19 ****        -4.3831  -0.3359   2.6538 H              1 S1                 0.0000
     20 ****        -3.0025   0.2398   3.5780 H              1 S1                 0.0000
     21 ****        -3.0410  -1.4234   2.9987 H              1 S1                 0.0000
     22 ****        -2.9109   1.0855   1.2656 H              1 S1                 0.0000
     23 ****        -0.8093  -0.7193   2.2349 H              1 S1                 0.0000
     24 ****         1.1359  -0.2970   1.9649 H              1 S1                 0.0000
     25 ****         2.0257   2.1953   0.7460 H              1 S1                 0.0000
     26 ****         3.0036   0.9313   1.4551 H              1 S1                 0.0000
     27 ****         2.7139  -0.4939  -0.5864 H              1 S1                 0.0000
     28 ****         1.6710   0.7159  -1.3083 H              1 S1                 0.0000
     29 ****         2.7571   2.8906  -2.2680 H              1 S1                 0.0000
     30 ****         5.4032   3.4642  -2.8587 H              1 S1                 0.0000
     31 ****         5.2748   0.0579  -0.4571 H              1 S1                 0.0000
     32 ****        -4.1653  -0.7708   0.1773 H              1 S1                 0.0000
     33 ****        -1.6300  -2.3849   0.6445 H              1 S1                 0.0000
     34 ****        -3.3067  -2.9221   0.7436 H              1 S1                 0.0000
     35 ****        -1.9268  -3.4026  -1.5185 H              1 S1                 0.0000
     36 ****        -3.5594  -2.7359  -1.6641 H              1 S1                 0.0000
     37 ****        -0.9363  -1.1817  -1.6829 H              1 S1                 0.0000
     38 ****        -2.2457  -1.0790  -2.8650 H              1 S1                 0.0000
     39 ****        -1.5386   1.8879   0.0307 LP             1 S1                 0.0000
     40 ****         0.1391   2.2582  -0.1892 LP             1 S1                 0.0000
     41 ****         6.8044   1.6537  -1.6877 LP             1 S1                 0.0000
     42 ****        -1.9401   0.4834  -0.7979 LP             1 S1                 0.0000
     43 ****        -3.3901   0.1767  -1.4835 LP             1 S1                 0.0000
@<TRIPOS>BOND
    1    1    2 1     
    2    1   19 1     
    3    1   20 1     
    4    1   21 1     
    5    2    3 1     
    6    2   14 1     
    7    2   22 1     
    8    3    4 am    
    9    3   23 1     
   10    4    5 2     
   11    4    6 am    
   12    6    7 1     
   13    6   24 1     
   14    7    8 1     
   15    7   25 1     
   16    7   26 1     
   17    8    9 1     
   18    8   27 1     
   19    8   28 1     
   20    9   13 1     
   21    9   10 1     
   22   10   11 2     
   23   10   29 1     
   24   11   12 1     
   25   11   30 1     
   26   12   13 2     
   27   13   31 1     
   28   14   18 1     
   29   14   15 1     
   30   14   32 1     
   31   15   16 1     
   32   15   33 1     
   33   15   34 1     
   34   16   17 1     
   35   16   35 1     
   36   16   36 1     
   37   17   18 1     
   38   17   37 1     
   39   17   38 1     
   40    5   39 1     
   41    5   40 1     
   42   12   41 1     
   43   18   42 1     
   44   18   43 1     
@<TRIPOS>SUBSTRUCTURE
      1 S1             1
@<TRIPOS>SET
LONE_PAIRS      STATIC     ATOMS    <user>   **** ""
5 39 40 41 42 43
DONOR_HYDROGENS      STATIC     ATOMS    <user>   **** ""
2 23 24
ATOM$BLUE        STATIC     ATOMS    COLORGROUP SYSTEM
5 39 40 41 42 43
ATOM$RED        STATIC     ATOMS    COLORGROUP SYSTEM
2 23 24
