AV-unprocessed.smi:2037|AV-procd|sdf|8279|dock1
  -GOLD-   2272010543D 1   1.00000     0.00000
 Structure written by MMmdl.
 38 39  0  0  0  0  0  0  0  0  3 V2000
  152.8177  142.6051  161.3732 C   0  0  0  0  0  0  0  0  0  0  0  0
  153.4106  142.4043  159.9677 C   0  0  2  0  0  0  0  0  0  0  0  0
  152.3310  142.2655  158.8794 C   0  0  0  0  0  0  0  0  0  0  0  0
  151.6280  140.8970  158.9266 C   0  0  0  0  0  0  0  0  0  0  0  0
  152.6064  139.7825  158.8344 N   0  3  2  0  0  0  0  0  0  0  0  0
  151.9377  138.4602  158.7442 C   0  0  0  0  0  0  0  0  0  0  0  0
  150.6381  138.5132  157.9194 C   0  0  0  0  0  0  0  0  0  0  0  0
  149.4680  138.2866  158.7590 N   0  0  0  0  0  0  0  0  0  0  0  0
  149.2482  137.2039  159.5181 C   0  0  0  0  0  0  0  0  0  0  0  0
  150.0757  136.2895  159.5380 O   0  0  0  0  0  0  0  0  0  0  0  0
  148.0839  137.2484  160.2032 N   0  5  0  0  0  0  0  0  0  0  0  0
  147.6903  136.1893  160.9293 C   0  0  0  0  0  0  0  0  0  0  0  0
  147.6412  134.9463  160.4367 N   0  0  0  0  0  0  0  0  0  0  0  0
  147.2099  133.9975  161.3653 C   0  0  0  0  0  0  0  0  0  0  0  0
  146.9328  134.5293  162.5968 C   0  0  0  0  0  0  0  0  0  0  0  0
  147.2069  136.2479  162.6268 S   0  0  0  0  0  0  0  0  0  0  0  0
  153.6228  139.8563  159.9176 C   0  0  0  0  0  0  0  0  0  0  0  0
  154.3694  141.2025  159.8921 C   0  0  0  0  0  0  0  0  0  0  0  0
  152.2218  141.7515  161.6956 H   0  0  0  0  0  0  0  0  0  0  0  0
  152.1747  143.4852  161.4036 H   0  0  0  0  0  0  0  0  0  0  0  0
  153.6065  142.7534  162.1110 H   0  0  0  0  0  0  0  0  0  0  0  0
  153.9886  143.3026  159.7463 H   0  0  0  0  0  0  0  0  0  0  0  0
  151.5971  143.0670  158.9699 H   0  0  0  0  0  0  0  0  0  0  0  0
  152.7940  142.3906  157.8996 H   0  0  0  0  0  0  0  0  0  0  0  0
  151.0430  140.7968  159.8417 H   0  0  0  0  0  0  0  0  0  0  0  0
  150.9230  140.8353  158.0966 H   0  0  0  0  0  0  0  0  0  0  0  0
  152.6283  137.7218  158.3339 H   0  0  0  0  0  0  0  0  0  0  0  0
  151.6902  138.1221  159.7515 H   0  0  0  0  0  0  0  0  0  0  0  0
  150.5489  139.4702  157.4028 H   0  0  0  0  0  0  0  0  0  0  0  0
  150.6321  137.7428  157.1497 H   0  0  0  0  0  0  0  0  0  0  0  0
  148.7666  139.0128  158.7756 H   0  0  0  0  0  0  0  0  0  0  0  0
  147.1308  132.9639  161.0631 H   0  0  0  0  0  0  0  0  0  0  0  0
  146.5875  134.0188  163.4831 H   0  0  0  0  0  0  0  0  0  0  0  0
  153.1408  139.7050  160.8843 H   0  0  0  0  0  0  0  0  0  0  0  0
  154.3530  139.0560  159.8071 H   0  0  0  0  0  0  0  0  0  0  0  0
  154.9493  141.2657  158.9702 H   0  0  0  0  0  0  0  0  0  0  0  0
  155.0934  141.2449  160.7066 H   0  0  0  0  0  0  0  0  0  0  0  0
  153.0959  139.9111  157.9603 H   0  0  0  0  0  0  0  0  0  0  0  0
  1  2  1  0  0  0  0
  1 19  1  0  0  0  0
  1 20  1  0  0  0  0
  1 21  1  0  0  0  0
  2 18  1  0  0  0  0
  2  3  1  0  0  0  0
  2 22  1  0  0  0  0
  3  4  1  0  0  0  0
  3 23  1  0  0  0  0
  3 24  1  0  0  0  0
  4  5  1  0  0  0  0
  4 25  1  0  0  0  0
  4 26  1  0  0  0  0
  5  6  1  0  0  0  0
  5 17  1  0  0  0  0
  5 38  1  0  0  0  0
  6  7  1  0  0  0  0
  6 27  1  0  0  0  0
  6 28  1  0  0  0  0
  7  8  1  0  0  0  0
  7 29  1  0  0  0  0
  7 30  1  0  0  0  0
  8  9  1  0  0  0  0
  8 31  1  0  0  0  0
  9 10  2  0  0  0  0
  9 11  1  0  0  0  0
 11 12  1  0  0  0  0
 12 16  1  0  0  0  0
 12 13  2  0  0  0  0
 13 14  1  0  0  0  0
 14 15  2  0  0  0  0
 14 32  1  0  0  0  0
 15 16  1  0  0  0  0
 15 33  1  0  0  0  0
 17 18  1  0  0  0  0
 17 34  1  0  0  0  0
 17 35  1  0  0  0  0
 18 36  1  0  0  0  0
 18 37  1  0  0  0  0
M  CHG  1   5   1
M  CHG  1  11  -1
M  END
> <s_m_source_file>
AV-unprocessed.smi

> <i_m_source_file_index>
2037

> <i_lp_mmshare_version>
43012

> <i_f3d_flags>
0

> <s_epik_input>
W0NIM11bQ0hdMVtDSDJdW0NIMl1OKFtDSDJdW0NIMl0xKVtDSDJdW0NIMl1bTkhdQyg9TylbTkhdYzJuW2NIXVtjSF1zMg==

> <s_epik_cmdline>
J2VwaWtfcHl0aG9uJywgJy1waCcsICc3LjAnLCAnLXRuJywgJzgnLCAnLW1hJywgJzIwMCcsICctbWV0YWxfYmluZGluZycsICctaW1hZScsICc8aW5maWxlLm1hZT4nLCAnLW9tYWUnLCAnPG91dGZpbGUubWFlPic=

> <r_lp_tautomer_probability>
0.999

> <r_epik_Ionization_Penalty>
6.22113

> <r_epik_Ionization_Penalty_Charging>
5.39005

> <r_epik_Ionization_Penalty_Neutral>
0.831074

> <r_epik_State_Penalty>
5.38997

> <r_epik_Charging_Adjusted_Penalty>
10.78

> <i_epik_Tot_Q>
0

> <i_epik_Tot_abs_Q>
2

> <r_epik_Metal_State_Penalty>
1.41601

> <b_epik_Metal_Only>
1

> <s_lp_Force_Field>
OPLS_2005

> <r_lp_Energy>
7.28937

> <b_lp_Chiralities_Consistent>
1

> <s_lp_Variant>
AV-unprocessed.smi:2037-4

> <Gold.Version>
5.8.1

> <Gold.Id.Protein>
6NUR|6NUR_protein|mol2

> <Gold.PLP.Fitness>
44.6824

> <Gold.PLP.PLP>
-36.9259

> <Gold.PLP.part.hbond>
-3.0000

> <Gold.PLP.part.metal>
0.0000

> <Gold.PLP.part.buried>
-3.5373

> <Gold.PLP.part.nonpolar>
-31.5291

> <Gold.PLP.part.repulsive>
0.3418

> <Gold.PLP.ligand.clash>
0.0000

> <Gold.PLP.ligand.torsion>
1.0184

> <Gold.PLP.Chemscore.Hbond>
3.2505

> <Gold.PLP.Chemscore.CHOScore>
0.0000

> <Gold.PLP.Chemscore.Metal>
0.0000

> <Gold.Chemscore.Hbonds>
donor molecule, donor type, donor heavy atom, donor atom, acceptor molecule, acceptor atom, score
      P1  H  6896  6907       L1    10  1.00
      P1  H  6931  6943       L1    11  0.33
      P1  H  6934  6947       L1    11  1.12

> <Gold.PLP.Chemscore.Internal.Correction>
0.0419

> <Gold.Rescore>
     Score         DG    S(hbond)    S(metal)    S(lipo)     H(rot)  DE(clash)    DE(int)     intcor
     14.63     -17.28       1.61        0.00      89.23       1.57       0.06       2.59       ----

> <Gold.Chemscore.Fitness>
14.6312

> <Gold.Chemscore.DG>
-17.2821

> <Gold.Chemscore.ZeroCoef>
-5.4800

> <Gold.Chemscore.Hbond>
1.6093

> <Gold.Chemscore.Metal>
0.0000

> <Gold.Chemscore.Lipo>
89.2306

> <Gold.Chemscore.Internal_Hbond>
0.0000

> <Gold.Chemscore.DEClash>
0.0601

> <Gold.Chemscore.DEInternal>
2.5908

> <Gold.Chemscore.Rot>
1.5676

> <Gold.Chemscore.Internal.Correction>
   9.000000E+99

> <Gold.Chemscore.Hbonds>
donor molecule, donor type, donor heavy atom, donor atom, acceptor molecule, acceptor atom, score
      P1  H  6896  6907       L1    10  0.98
      P1  H  6934  6947       L1    11  0.43

> <Gold.Chemscore.Hbond.Weighted>
-5.3752

> <Gold.Chemscore.Metal.Weighted>
-0.0000

> <Gold.Chemscore.Lipo.Weighted>
-10.4400

> <Gold.Chemscore.Internal_Hbond.Weighted>
0.0000

> <Gold.Chemscore.DEClash.Weighted>
0.0601

> <Gold.Chemscore.DEInternal.Weighted>
2.5908

> <Gold.Chemscore.Rot.Weighted>
4.0130

> <Gold.Chemscore.Internal.Correction.Weighted>
   9.000000E+99

> <Gold.Protein.RotatedTorsions>
[ 6907 6896 6895 6894 ] final  -55.23 input  -60.11 | X-H torsion
[ 7974 7965 7964 7962 ] final   77.03 input  175.53 | X-H torsion
[ 8008 7997 7996 7995 ] final -123.62 input   59.86 | X-H torsion
[ 10167 10162 10161 10158 ] final  132.76 input  -65.29 | X-H torsion
[ 10718 10713 10712 10709 ] final  -47.72 input   66.30 | X-H torsion
[ 10763 10752 10751 10750 ] final   -2.34 input  -60.55 | X-H torsion
[ 11005 11000 10999 10996 ] final -100.83 input  -57.11 | X-H torsion

> <Gold.Protein.ActiveResidues>
 VAL166  LYS551  ARG553  GLY616  TRP617  ASP618  TYR619  PRO620  LYS621  CYS622 
 ASP623  PHE694  ASN695  SER759  ASP760  ASP761  ALA762  ILE779  LEU786  VAL792 
 PHE793  MET794  SER795  GLU796  ALA797  LYS798  CYS799  TRP800  GLU811  SER814 

> <Gold.Protein.RotatedAtoms>
  150.8269  134.7505  159.6820 H   0  0  0  0  0  0  0  0  0  0  0  0  # atno 6907 bound_to 6896
  152.4379  134.5646  159.9914 H   0  0  0  0  0  0  0  0  0  0  0  0  # atno 6908 bound_to 6896
  151.5817  133.3339  159.3045 H   0  0  0  0  0  0  0  0  0  0  0  0  # atno 6909 bound_to 6896
  145.6953  139.2565  143.1736 H   0  0  0  0  0  0  0  0  0  0  0  0  # atno 7974 bound_to 7965
  155.1836  140.0411  157.2887 H   0  0  0  0  0  0  0  0  0  0  0  0  # atno 8008 bound_to 7997
  154.6187  140.2495  155.7549 H   0  0  0  0  0  0  0  0  0  0  0  0  # atno 8009 bound_to 7997
  156.2421  140.2899  156.0484 H   0  0  0  0  0  0  0  0  0  0  0  0  # atno 8010 bound_to 7997
  139.5325  144.6647  151.4899 H   0  0  0  0  0  0  0  0  0  0  0  0  # atno 10167 bound_to 10162
  156.2057  130.4158  149.9181 H   0  0  0  0  0  0  0  0  0  0  0  0  # atno 10718 bound_to 10713
  153.3568  135.6988  153.6744 H   0  0  0  0  0  0  0  0  0  0  0  0  # atno 10763 bound_to 10752
  153.5449  135.3565  155.2735 H   0  0  0  0  0  0  0  0  0  0  0  0  # atno 10764 bound_to 10752
  154.8662  135.4212  154.2816 H   0  0  0  0  0  0  0  0  0  0  0  0  # atno 10765 bound_to 10752
  141.1255  133.8430  157.1154 H   0  0  0  0  0  0  0  0  0  0  0  0  # atno 11005 bound_to 11000
  146.0846  140.7725  142.9625 LP  0  0  0  0  0  0  0  0  0  0  0  0  # atno 17320 bound_to 7965
  144.6984  140.3542  143.7176 LP  0  0  0  0  0  0  0  0  0  0  0  0  # atno 17321 bound_to 7965
  140.6513  143.8691  150.6788 LP  0  0  0  0  0  0  0  0  0  0  0  0  # atno 17342 bound_to 10162
  140.2057  143.3924  152.1757 LP  0  0  0  0  0  0  0  0  0  0  0  0  # atno 17343 bound_to 10162
  156.6875  130.8883  151.3584 LP  0  0  0  0  0  0  0  0  0  0  0  0  # atno 17370 bound_to 10713
  157.7011  130.9334  150.0788 LP  0  0  0  0  0  0  0  0  0  0  0  0  # atno 17371 bound_to 10713
  140.0249  134.9928  157.0667 LP  0  0  0  0  0  0  0  0  0  0  0  0  # atno 17394 bound_to 11000
  140.4378  134.1713  155.7172 LP  0  0  0  0  0  0  0  0  0  0  0  0  # atno 17395 bound_to 11000

$$$$
