AV-unprocessed.smi:21|AV-procd|sdf|155|dock5
  -GOLD-   2262015383D 1   1.00000     0.00000
 Structure written by MMmdl.
 61 64  0  0  0  0  0  0  0  0  1 V2000
  146.4010  143.8790  154.4904 C   0  0  0  0  0  0  0  0  0  0  0  0
  146.7899  142.6572  153.8838 O   0  0  0  0  0  0  0  0  0  0  0  0
  147.2151  141.6743  154.8171 C   0  0  1  0  0  0  0  0  0  0  0  0
  147.8275  140.4691  154.0864 C   0  0  0  0  0  0  0  0  0  0  0  0
  149.2850  140.4162  154.5726 C   0  0  2  0  0  0  0  0  0  0  0  0
  149.8915  138.9960  154.5596 C   0  0  0  0  0  0  0  0  0  0  0  0
  151.0457  138.8697  155.4548 N   0  0  0  0  0  0  0  0  0  0  0  0
  152.3642  139.1443  154.8964 C   0  0  0  0  0  0  0  0  0  0  0  0
  150.9286  138.2559  156.6695 C   0  0  0  0  0  0  0  0  0  0  0  0
  152.0331  137.6678  157.2026 N   0  0  0  0  0  0  0  0  0  0  0  0
  151.9870  137.0602  158.3897 C   0  0  0  0  0  0  0  0  0  0  0  0
  150.9479  136.9177  159.2103 N   0  0  0  0  0  0  0  0  0  0  0  0
  149.8267  137.4902  158.6899 C   0  0  0  0  0  0  0  0  0  0  0  0
  149.7257  138.1733  157.4408 C   0  0  0  0  0  0  0  0  0  0  0  0
  148.4194  138.6242  157.2728 N   0  0  0  0  0  0  0  0  0  0  0  0
  147.7922  138.2296  158.3455 C   0  0  0  0  0  0  0  0  0  0  0  0
  148.5611  137.5358  159.2491 N   0  0  0  0  0  0  0  0  0  0  0  0
  148.1145  136.9889  160.5196 C   0  0  0  0  0  0  0  0  0  0  0  0
  147.7820  135.4748  160.4255 C   0  0  2  0  0  0  0  0  0  0  0  0
  147.7716  135.0039  158.9537 C   0  0  0  0  0  0  0  0  0  0  0  0
  148.1067  133.6347  158.8584 O   0  0  0  0  0  0  0  0  0  0  0  0
  146.4418  135.1340  161.1266 C   0  0  2  0  0  0  0  0  0  0  0  0
  146.3807  135.4923  162.6013 C   0  0  0  0  0  0  0  0  0  0  0  0
  145.2230  134.6359  163.0999 C   0  0  0  0  0  0  0  0  0  0  0  0
  145.2479  133.4564  162.3058 O   0  0  0  0  0  0  0  0  0  0  0  0
  146.1203  133.6359  161.1950 C   0  0  0  0  0  0  0  0  0  0  0  0
  149.2567  141.0507  155.8811 N   0  0  0  0  0  0  0  0  0  0  0  0
  150.5675  141.4609  156.3667 C   0  0  0  0  0  0  0  0  0  0  0  0
  148.3643  142.1785  155.7001 C   0  0  0  0  0  0  0  0  0  0  0  0
  146.3773  141.3322  155.4278 H   0  0  0  0  0  0  0  0  0  0  0  0
  149.8729  141.0481  153.9044 H   0  0  0  0  0  0  0  0  0  0  0  0
  146.0762  144.5798  153.7216 H   0  0  0  0  0  0  0  0  0  0  0  0
  147.2268  144.3386  155.0343 H   0  0  0  0  0  0  0  0  0  0  0  0
  145.5690  143.7289  155.1794 H   0  0  0  0  0  0  0  0  0  0  0  0
  147.2895  139.5656  154.3748 H   0  0  0  0  0  0  0  0  0  0  0  0
  147.7685  140.5561  153.0008 H   0  0  0  0  0  0  0  0  0  0  0  0
  149.1462  138.2788  154.9026 H   0  0  0  0  0  0  0  0  0  0  0  0
  150.1191  138.6919  153.5382 H   0  0  0  0  0  0  0  0  0  0  0  0
  152.9704  139.7202  155.5960 H   0  0  0  0  0  0  0  0  0  0  0  0
  152.2844  139.7249  153.9769 H   0  0  0  0  0  0  0  0  0  0  0  0
  152.8823  138.2153  154.6569 H   0  0  0  0  0  0  0  0  0  0  0  0
  152.9158  136.6267  158.7297 H   0  0  0  0  0  0  0  0  0  0  0  0
  146.7442  138.4350  158.5068 H   0  0  0  0  0  0  0  0  0  0  0  0
  148.8735  137.1875  161.2764 H   0  0  0  0  0  0  0  0  0  0  0  0
  147.2445  137.5659  160.8356 H   0  0  0  0  0  0  0  0  0  0  0  0
  148.5632  134.9087  160.9369 H   0  0  0  0  0  0  0  0  0  0  0  0
  146.7845  135.1242  158.5085 H   0  0  0  0  0  0  0  0  0  0  0  0
  148.4671  135.5904  158.3528 H   0  0  0  0  0  0  0  0  0  0  0  0
  147.7655  133.2978  158.0439 H   0  0  0  0  0  0  0  0  0  0  0  0
  145.6227  135.6424  160.6149 H   0  0  0  0  0  0  0  0  0  0  0  0
  147.3053  135.2059  163.1048 H   0  0  0  0  0  0  0  0  0  0  0  0
  146.2063  136.5527  162.7808 H   0  0  0  0  0  0  0  0  0  0  0  0
  145.3020  134.4054  164.1623 H   0  0  0  0  0  0  0  0  0  0  0  0
  144.2738  135.1463  162.9330 H   0  0  0  0  0  0  0  0  0  0  0  0
  145.6601  133.2648  160.2791 H   0  0  0  0  0  0  0  0  0  0  0  0
  147.0246  133.0536  161.3771 H   0  0  0  0  0  0  0  0  0  0  0  0
  150.4758  141.9815  157.3202 H   0  0  0  0  0  0  0  0  0  0  0  0
  151.0602  142.1309  155.6612 H   0  0  0  0  0  0  0  0  0  0  0  0
  151.2140  140.5983  156.5257 H   0  0  0  0  0  0  0  0  0  0  0  0
  148.8892  142.9845  155.1838 H   0  0  0  0  0  0  0  0  0  0  0  0
  148.0133  142.5711  156.6549 H   0  0  0  0  0  0  0  0  0  0  0  0
  1  2  1  0  0  0  0
  1 32  1  0  0  0  0
  1 33  1  0  0  0  0
  1 34  1  0  0  0  0
  2  3  1  0  0  0  0
  3 30  1  0  0  0  0
  3 29  1  0  0  0  0
  3  4  1  0  0  0  0
  4  5  1  0  0  0  0
  4 35  1  0  0  0  0
  4 36  1  0  0  0  0
  5 31  1  0  0  0  0
  5  6  1  0  0  0  0
  5 27  1  0  0  0  0
  6  7  1  0  0  0  0
  6 37  1  0  0  0  0
  6 38  1  0  0  0  0
  7  8  1  0  0  0  0
  7  9  1  0  0  0  0
  8 39  1  0  0  0  0
  8 40  1  0  0  0  0
  8 41  1  0  0  0  0
  9 14  1  0  0  0  0
  9 10  2  0  0  0  0
 10 11  1  0  0  0  0
 11 12  2  0  0  0  0
 11 42  1  0  0  0  0
 12 13  1  0  0  0  0
 13 17  1  0  0  0  0
 13 14  2  0  0  0  0
 14 15  1  0  0  0  0
 15 16  2  0  0  0  0
 16 17  1  0  0  0  0
 16 43  1  0  0  0  0
 17 18  1  0  0  0  0
 18 19  1  0  0  0  0
 18 44  1  0  0  0  0
 18 45  1  0  0  0  0
 19 20  1  0  0  0  0
 19 22  1  0  0  0  0
 19 46  1  0  0  0  0
 20 21  1  0  0  0  0
 20 47  1  0  0  0  0
 20 48  1  0  0  0  0
 21 49  1  0  0  0  0
 22 26  1  0  0  0  0
 22 23  1  0  0  0  0
 22 50  1  0  0  0  0
 23 24  1  0  0  0  0
 23 51  1  0  0  0  0
 23 52  1  0  0  0  0
 24 25  1  0  0  0  0
 24 53  1  0  0  0  0
 24 54  1  0  0  0  0
 25 26  1  0  0  0  0
 26 55  1  0  0  0  0
 26 56  1  0  0  0  0
 27 28  1  0  0  0  0
 27 29  1  0  0  0  0
 28 57  1  0  0  0  0
 28 58  1  0  0  0  0
 28 59  1  0  0  0  0
 29 60  1  0  0  0  0
 29 61  1  0  0  0  0
M  END
> <s_m_source_file>
AV-unprocessed.smi

> <i_m_source_file_index>
21

> <i_lp_mmshare_version>
43012

> <i_f3d_flags>
0

> <s_epik_input>
W0NIM11PW0NASF0xW0NIMl1bQ0BIXShOKFtDSDNdKVtDSDJdMSlbQ0gyXU4oW0NIM10pYyhuW2NIXW4yKWMoYzIzKW5bY0hdbjNbQ0gyXVtDQEhdKFtDSDJdW09IXSlbQ0BASF00W0NIMl1bQ0gyXU9bQ0gyXTQ=

> <s_epik_cmdline>
J2VwaWtfcHl0aG9uJywgJy1waCcsICc3LjAnLCAnLXRuJywgJzgnLCAnLW1hJywgJzIwMCcsICctbWV0YWxfYmluZGluZycsICctaW1hZScsICc8aW5maWxlLm1hZT4nLCAnLW9tYWUnLCAnPG91dGZpbGUubWFlPic=

> <r_lp_tautomer_probability>
1

> <r_epik_Ionization_Penalty>
2.17574

> <r_epik_Ionization_Penalty_Charging>
0

> <r_epik_Ionization_Penalty_Neutral>
2.17574

> <r_epik_State_Penalty>
2.31336

> <r_epik_Charging_Adjusted_Penalty>
2.31336

> <i_epik_Tot_Q>
0

> <i_epik_Tot_abs_Q>
0

> <r_epik_Metal_State_Penalty>
2.31025

> <b_epik_Metal_Only>
0

> <s_lp_Force_Field>
OPLS_2005

> <r_lp_Energy>
70.8096

> <b_lp_Chiralities_Consistent>
1

> <s_lp_Variant>
AV-unprocessed.smi:21-35

> <Gold.Version>
5.8.1

> <Gold.Id.Protein>
6NUR|6NUR_protein|mol2

> <Gold.PLP.Fitness>
44.5758

> <Gold.PLP.PLP>
-41.6560

> <Gold.PLP.part.hbond>
-2.0000

> <Gold.PLP.part.metal>
0.0000

> <Gold.PLP.part.buried>
-1.6026

> <Gold.PLP.part.nonpolar>
-38.3939

> <Gold.PLP.part.repulsive>
0.3367

> <Gold.PLP.ligand.clash>
0.0000

> <Gold.PLP.ligand.torsion>
2.0191

> <Gold.PLP.Chemscore.Hbond>
2.0000

> <Gold.PLP.Chemscore.CHOScore>
0.0000

> <Gold.PLP.Chemscore.Metal>
0.0000

> <Gold.Chemscore.Hbonds>
donor molecule, donor type, donor heavy atom, donor atom, acceptor molecule, acceptor atom, score
      P1  H  6896  6907       L1    12  0.90

> <Gold.PLP.Chemscore.Internal.Correction>
0.9580

> <Gold.Rescore>
     Score         DG    S(hbond)    S(metal)    S(lipo)     H(rot)  DE(clash)    DE(int)     intcor
      8.02     -13.23       1.48        0.00      89.57       3.00       0.57       4.63       ----

> <Gold.Chemscore.Fitness>
8.0194

> <Gold.Chemscore.DG>
-13.2259

> <Gold.Chemscore.ZeroCoef>
-5.4800

> <Gold.Chemscore.Hbond>
1.4832

> <Gold.Chemscore.Metal>
0.0000

> <Gold.Chemscore.Lipo>
89.5741

> <Gold.Chemscore.Internal_Hbond>
0.0000

> <Gold.Chemscore.DEClash>
0.5745

> <Gold.Chemscore.DEInternal>
4.6321

> <Gold.Chemscore.Rot>
3.0031

> <Gold.Chemscore.Internal.Correction>
   9.000000E+99

> <Gold.Chemscore.Hbonds>
donor molecule, donor type, donor heavy atom, donor atom, acceptor molecule, acceptor atom, score
      P1  H  6896  6907       L1    12  0.17

> <Gold.Chemscore.Hbond.Weighted>
-4.9537

> <Gold.Chemscore.Metal.Weighted>
-0.0000

> <Gold.Chemscore.Lipo.Weighted>
-10.4802

> <Gold.Chemscore.Internal_Hbond.Weighted>
0.0000

> <Gold.Chemscore.DEClash.Weighted>
0.5745

> <Gold.Chemscore.DEInternal.Weighted>
4.6321

> <Gold.Chemscore.Rot.Weighted>
7.6880

> <Gold.Chemscore.Internal.Correction.Weighted>
   9.000000E+99

> <Gold.Protein.RotatedTorsions>
[ 6907 6896 6895 6894 ] final   -7.64 input  -60.11 | X-H torsion
[ 7974 7965 7964 7962 ] final  -29.07 input  175.53 | X-H torsion
[ 8008 7997 7996 7995 ] final  -40.96 input   59.86 | X-H torsion
[ 10167 10162 10161 10158 ] final -156.33 input  -65.29 | X-H torsion
[ 10718 10713 10712 10709 ] final  -72.62 input   66.30 | X-H torsion
[ 10763 10752 10751 10750 ] final   76.87 input  -60.55 | X-H torsion
[ 11005 11000 10999 10996 ] final -153.14 input  -57.11 | X-H torsion

> <Gold.Protein.ActiveResidues>
 VAL166  LYS551  ARG553  GLY616  TRP617  ASP618  TYR619  PRO620  LYS621  CYS622 
 ASP623  PHE694  ASN695  SER759  ASP760  ASP761  ALA762  ILE779  LEU786  VAL792 
 PHE793  MET794  SER795  GLU796  ALA797  LYS798  CYS799  TRP800  GLU811  SER814 

> <Gold.Protein.RotatedAtoms>
  151.4464  135.1025  159.9684 H   0  0  0  0  0  0  0  0  0  0  0  0  # atno 6907 bound_to 6896
  152.4904  133.8481  159.7198 H   0  0  0  0  0  0  0  0  0  0  0  0  # atno 6908 bound_to 6896
  150.9052  133.7007  159.2896 H   0  0  0  0  0  0  0  0  0  0  0  0  # atno 6909 bound_to 6896
  146.1243  140.5365  142.8721 H   0  0  0  0  0  0  0  0  0  0  0  0  # atno 7974 bound_to 7965
  154.4008  140.1512  156.3112 H   0  0  0  0  0  0  0  0  0  0  0  0  # atno 8008 bound_to 7997
  155.8614  140.3453  155.5737 H   0  0  0  0  0  0  0  0  0  0  0  0  # atno 8009 bound_to 7997
  155.7876  140.0852  157.2016 H   0  0  0  0  0  0  0  0  0  0  0  0  # atno 8010 bound_to 7997
  139.6859  143.9502  152.2361 H   0  0  0  0  0  0  0  0  0  0  0  0  # atno 10167 bound_to 10162
  156.0313  130.4376  150.2620 H   0  0  0  0  0  0  0  0  0  0  0  0  # atno 10718 bound_to 10713
  153.0756  135.4935  154.8398 H   0  0  0  0  0  0  0  0  0  0  0  0  # atno 10763 bound_to 10752
  154.7083  135.3015  154.9238 H   0  0  0  0  0  0  0  0  0  0  0  0  # atno 10764 bound_to 10752
  153.9940  135.6774  153.4808 H   0  0  0  0  0  0  0  0  0  0  0  0  # atno 10765 bound_to 10752
  140.7113  134.3829  157.5197 H   0  0  0  0  0  0  0  0  0  0  0  0  # atno 11005 bound_to 11000
  144.7627  140.5459  143.6724 LP  0  0  0  0  0  0  0  0  0  0  0  0  # atno 17320 bound_to 7965
  145.5399  139.1475  143.3452 LP  0  0  0  0  0  0  0  0  0  0  0  0  # atno 17321 bound_to 7965
  139.9305  144.6744  150.8368 LP  0  0  0  0  0  0  0  0  0  0  0  0  # atno 17342 bound_to 10162
  140.7667  143.3312  151.2406 LP  0  0  0  0  0  0  0  0  0  0  0  0  # atno 17343 bound_to 10162
  157.0722  131.0120  151.3186 LP  0  0  0  0  0  0  0  0  0  0  0  0  # atno 17370 bound_to 10713
  157.4991  130.7869  149.7586 LP  0  0  0  0  0  0  0  0  0  0  0  0  # atno 17371 bound_to 10713
  139.8871  134.8892  156.2549 LP  0  0  0  0  0  0  0  0  0  0  0  0  # atno 17394 bound_to 11000
  141.0081  133.7111  156.1068 LP  0  0  0  0  0  0  0  0  0  0  0  0  # atno 17395 bound_to 11000

$$$$
