AV-unprocessed.smi:2232|AV-procd|sdf|9039|dock8
  -GOLD-   2272012243D 1   1.00000     0.00000
 Structure written by MMmdl.
 43 44  0  0  0  0  0  0  0  0  2 V2000
  153.4339  140.8551  159.7452 C   0  0  0  0  0  0  0  0  0  0  0  0
  152.5422  141.9826  159.2693 C   0  0  0  0  0  0  0  0  0  0  0  0
  152.6533  143.2731  159.8212 C   0  0  0  0  0  0  0  0  0  0  0  0
  151.7936  144.2790  159.3381 C   0  0  0  0  0  0  0  0  0  0  0  0
  151.8600  145.6897  159.8841 C   0  0  0  0  0  0  0  0  0  0  0  0
  150.8718  144.0608  158.3762 N   0  0  0  0  0  0  0  0  0  0  0  0
  150.7546  142.8213  157.8386 C   0  0  0  0  0  0  0  0  0  0  0  0
  149.8145  142.4880  156.8276 N   0  0  0  0  0  0  0  0  0  0  0  0
  149.9199  141.5437  155.8762 C   0  0  0  0  0  0  0  0  0  0  0  0
  150.8694  140.7715  155.7383 O   0  0  0  0  0  0  0  0  0  0  0  0
  148.8479  141.5391  155.0703 N   0  0  0  0  0  0  0  0  0  0  0  0
  148.6649  140.6361  153.9397 C   0  0  0  0  0  0  0  0  0  0  0  0
  147.3001  140.8539  153.2577 C   0  0  0  0  0  0  0  0  0  0  0  0
  146.4498  139.6382  153.2867 N   0  3  0  0  0  0  0  0  0  0  0  0
  146.8132  138.6719  152.2225 C   0  0  0  0  0  0  0  0  0  0  0  0
  145.8806  137.4496  152.2606 C   0  0  0  0  0  0  0  0  0  0  0  0
  145.9414  136.8437  153.5455 O   0  0  0  0  0  0  0  0  0  0  0  0
  145.5106  137.7294  154.5710 C   0  0  0  0  0  0  0  0  0  0  0  0
  146.4271  138.9642  154.6093 C   0  0  0  0  0  0  0  0  0  0  0  0
  151.5793  141.7563  158.2651 C   0  0  0  0  0  0  0  0  0  0  0  0
  154.2745  141.2353  160.3266 H   0  0  0  0  0  0  0  0  0  0  0  0
  153.8325  140.2997  158.8957 H   0  0  0  0  0  0  0  0  0  0  0  0
  152.8671  140.1662  160.3720 H   0  0  0  0  0  0  0  0  0  0  0  0
  153.3775  143.4863  160.5940 H   0  0  0  0  0  0  0  0  0  0  0  0
  152.6028  145.7726  160.6779 H   0  0  0  0  0  0  0  0  0  0  0  0
  150.8926  145.9855  160.2910 H   0  0  0  0  0  0  0  0  0  0  0  0
  152.1284  146.3895  159.0920 H   0  0  0  0  0  0  0  0  0  0  0  0
  148.9711  143.0422  156.8215 H   0  0  0  0  0  0  0  0  0  0  0  0
  148.1087  142.2025  155.2530 H   0  0  0  0  0  0  0  0  0  0  0  0
  149.4894  140.7734  153.2398 H   0  0  0  0  0  0  0  0  0  0  0  0
  148.7373  139.6122  154.3075 H   0  0  0  0  0  0  0  0  0  0  0  0
  146.7862  141.6615  153.7815 H   0  0  0  0  0  0  0  0  0  0  0  0
  147.4218  141.1865  152.2256 H   0  0  0  0  0  0  0  0  0  0  0  0
  146.7461  139.1522  151.2456 H   0  0  0  0  0  0  0  0  0  0  0  0
  147.8491  138.3548  152.3542 H   0  0  0  0  0  0  0  0  0  0  0  0
  144.8537  137.7344  152.0263 H   0  0  0  0  0  0  0  0  0  0  0  0
  146.1875  136.7197  151.5113 H   0  0  0  0  0  0  0  0  0  0  0  0
  144.4718  138.0196  154.4058 H   0  0  0  0  0  0  0  0  0  0  0  0
  145.5464  137.2061  155.5268 H   0  0  0  0  0  0  0  0  0  0  0  0
  147.4396  138.6653  154.8857 H   0  0  0  0  0  0  0  0  0  0  0  0
  146.0748  139.6466  155.3817 H   0  0  0  0  0  0  0  0  0  0  0  0
  151.4758  140.7730  157.8292 H   0  0  0  0  0  0  0  0  0  0  0  0
  145.5059  139.9375  153.0881 H   0  0  0  0  0  0  0  0  0  0  0  0
  1  2  1  0  0  0  0
  1 21  1  0  0  0  0
  1 22  1  0  0  0  0
  1 23  1  0  0  0  0
  2 20  1  0  0  0  0
  2  3  2  0  0  0  0
  3  4  1  0  0  0  0
  3 24  1  0  0  0  0
  4  5  1  0  0  0  0
  4  6  2  0  0  0  0
  5 25  1  0  0  0  0
  5 26  1  0  0  0  0
  5 27  1  0  0  0  0
  6  7  1  0  0  0  0
  7  8  1  0  0  0  0
  7 20  2  0  0  0  0
  8  9  1  0  0  0  0
  8 28  1  0  0  0  0
  9 10  2  0  0  0  0
  9 11  1  0  0  0  0
 11 12  1  0  0  0  0
 11 29  1  0  0  0  0
 12 13  1  0  0  0  0
 12 30  1  0  0  0  0
 12 31  1  0  0  0  0
 13 14  1  0  0  0  0
 13 32  1  0  0  0  0
 13 33  1  0  0  0  0
 14 19  1  0  0  0  0
 14 15  1  0  0  0  0
 14 43  1  0  0  0  0
 15 16  1  0  0  0  0
 15 34  1  0  0  0  0
 15 35  1  0  0  0  0
 16 17  1  0  0  0  0
 16 36  1  0  0  0  0
 16 37  1  0  0  0  0
 17 18  1  0  0  0  0
 18 19  1  0  0  0  0
 18 38  1  0  0  0  0
 18 39  1  0  0  0  0
 19 40  1  0  0  0  0
 19 41  1  0  0  0  0
 20 42  1  0  0  0  0
M  CHG  1  14   1
M  END
> <s_m_source_file>
AV-unprocessed.smi

> <i_m_source_file_index>
2232

> <i_lp_mmshare_version>
43012

> <i_f3d_flags>
0

> <s_epik_input>
W0NIM11jMVtjSF1jKFtDSDNdKW5jKFtjSF0xKVtOSF1DKD1PKVtOSF1bQ0gyXVtDSDJdTjJbQ0gyXVtDSDJdT1tDSDJdW0NIMl0y

> <s_epik_cmdline>
J2VwaWtfcHl0aG9uJywgJy1waCcsICc3LjAnLCAnLXRuJywgJzgnLCAnLW1hJywgJzIwMCcsICctbWV0YWxfYmluZGluZycsICctaW1hZScsICc8aW5maWxlLm1hZT4nLCAnLW9tYWUnLCAnPG91dGZpbGUubWFlPic=

> <r_epik_Ionization_Penalty>
0.602717

> <r_epik_Ionization_Penalty_Charging>
0.602531

> <r_epik_Ionization_Penalty_Neutral>
0.000186219

> <r_epik_State_Penalty>
0.617039

> <r_epik_Charging_Adjusted_Penalty>
1.21957

> <i_epik_Tot_Q>
1

> <i_epik_Tot_abs_Q>
1

> <r_epik_Metal_State_Penalty>
0.617067

> <b_epik_Metal_Only>
0

> <s_lp_Force_Field>
OPLS_2005

> <r_lp_Energy>
15.6528

> <b_lp_Chiralities_Consistent>
1

> <s_lp_Variant>
AV-unprocessed.smi:2232-2

> <Gold.Version>
5.8.1

> <Gold.Id.Protein>
6NUR|6NUR_protein|mol2

> <Gold.PLP.Fitness>
47.8124

> <Gold.PLP.PLP>
-41.1888

> <Gold.PLP.part.hbond>
-3.9153

> <Gold.PLP.part.metal>
0.0000

> <Gold.PLP.part.buried>
-2.6747

> <Gold.PLP.part.nonpolar>
-34.7130

> <Gold.PLP.part.repulsive>
0.5311

> <Gold.PLP.ligand.clash>
0.0000

> <Gold.PLP.ligand.torsion>
0.7088

> <Gold.PLP.Chemscore.Hbond>
2.6739

> <Gold.PLP.Chemscore.CHOScore>
0.0000

> <Gold.PLP.Chemscore.Metal>
0.0000

> <Gold.Chemscore.Hbonds>
donor molecule, donor type, donor heavy atom, donor atom, acceptor molecule, acceptor atom, score
      L1  H     8    28       P1  8028  0.40
      L1  H    14    43       P1 10175  2.00
      P1  H  7989  7998       L1    10  0.14

> <Gold.PLP.Chemscore.Internal.Correction>
0.0193

> <Gold.Rescore>
     Score         DG    S(hbond)    S(metal)    S(lipo)     H(rot)  DE(clash)    DE(int)     intcor
     17.37     -19.42       1.83        0.00      99.60       1.49       0.08       1.97       ----

> <Gold.Chemscore.Fitness>
17.3738

> <Gold.Chemscore.DG>
-19.4225

> <Gold.Chemscore.ZeroCoef>
-5.4800

> <Gold.Chemscore.Hbond>
1.8296

> <Gold.Chemscore.Metal>
0.0000

> <Gold.Chemscore.Lipo>
99.6041

> <Gold.Chemscore.Internal_Hbond>
0.0000

> <Gold.Chemscore.DEClash>
0.0757

> <Gold.Chemscore.DEInternal>
1.9730

> <Gold.Chemscore.Rot>
1.4930

> <Gold.Chemscore.Internal.Correction>
   9.000000E+99

> <Gold.Chemscore.Hbonds>
donor molecule, donor type, donor heavy atom, donor atom, acceptor molecule, acceptor atom, score
      L1  H     8    28       P1  8028  0.34
      L1  H    14    43       P1 10175  0.96
      P1  H  7989  7998       L1    10  0.11

> <Gold.Chemscore.Hbond.Weighted>
-6.1108

> <Gold.Chemscore.Metal.Weighted>
-0.0000

> <Gold.Chemscore.Lipo.Weighted>
-11.6537

> <Gold.Chemscore.Internal_Hbond.Weighted>
0.0000

> <Gold.Chemscore.DEClash.Weighted>
0.0757

> <Gold.Chemscore.DEInternal.Weighted>
1.9730

> <Gold.Chemscore.Rot.Weighted>
3.8220

> <Gold.Chemscore.Internal.Correction.Weighted>
   9.000000E+99

> <Gold.Protein.RotatedTorsions>
[ 6907 6896 6895 6894 ] final  -87.71 input  -60.11 | X-H torsion
[ 7974 7965 7964 7962 ] final  153.55 input  175.53 | X-H torsion
[ 8008 7997 7996 7995 ] final   52.84 input   59.86 | X-H torsion
[ 10167 10162 10161 10158 ] final -128.55 input  -65.29 | X-H torsion
[ 10718 10713 10712 10709 ] final  -54.23 input   66.30 | X-H torsion
[ 10763 10752 10751 10750 ] final   -9.24 input  -60.55 | X-H torsion
[ 11005 11000 10999 10996 ] final   51.80 input  -57.11 | X-H torsion

> <Gold.Protein.ActiveResidues>
 VAL166  LYS551  ARG553  GLY616  TRP617  ASP618  TYR619  PRO620  LYS621  CYS622 
 ASP623  PHE694  ASN695  SER759  ASP760  ASP761  ALA762  ILE779  LEU786  VAL792 
 PHE793  MET794  SER795  GLU796  ALA797  LYS798  CYS799  TRP800  GLU811  SER814 

> <Gold.Protein.RotatedAtoms>
  150.6867  134.2854  159.4644 H   0  0  0  0  0  0  0  0  0  0  0  0  # atno 6907 bound_to 6896
  152.0764  134.9497  160.0583 H   0  0  0  0  0  0  0  0  0  0  0  0  # atno 6908 bound_to 6896
  152.0867  133.4145  159.4562 H   0  0  0  0  0  0  0  0  0  0  0  0  # atno 6909 bound_to 6896
  144.8147  139.6816  143.6126 H   0  0  0  0  0  0  0  0  0  0  0  0  # atno 7974 bound_to 7965
  155.4584  140.3461  155.4309 H   0  0  0  0  0  0  0  0  0  0  0  0  # atno 8008 bound_to 7997
  156.1176  140.1478  156.9279 H   0  0  0  0  0  0  0  0  0  0  0  0  # atno 8009 bound_to 7997
  154.4800  140.0872  156.7334 H   0  0  0  0  0  0  0  0  0  0  0  0  # atno 8010 bound_to 7997
  139.9491  143.6076  152.2481 H   0  0  0  0  0  0  0  0  0  0  0  0  # atno 10167 bound_to 10162
  156.1468  130.4152  150.0010 H   0  0  0  0  0  0  0  0  0  0  0  0  # atno 10718 bound_to 10713
  153.4519  135.7015  153.6104 H   0  0  0  0  0  0  0  0  0  0  0  0  # atno 10763 bound_to 10752
  153.4435  135.3774  155.2242 H   0  0  0  0  0  0  0  0  0  0  0  0  # atno 10764 bound_to 10752
  154.8728  135.3979  154.3932 H   0  0  0  0  0  0  0  0  0  0  0  0  # atno 10765 bound_to 10752
  140.0902  134.5219  155.8859 H   0  0  0  0  0  0  0  0  0  0  0  0  # atno 11005 bound_to 11000
  146.2449  139.6077  142.9466 LP  0  0  0  0  0  0  0  0  0  0  0  0  # atno 17320 bound_to 7965
  145.5242  141.0430  143.2418 LP  0  0  0  0  0  0  0  0  0  0  0  0  # atno 17321 bound_to 7965
  139.6643  144.7662  151.1904 LP  0  0  0  0  0  0  0  0  0  0  0  0  # atno 17342 bound_to 10162
  140.7588  143.5962  150.8745 LP  0  0  0  0  0  0  0  0  0  0  0  0  # atno 17343 bound_to 10162
  156.7879  130.9245  151.3646 LP  0  0  0  0  0  0  0  0  0  0  0  0  # atno 17370 bound_to 10713
  157.6624  130.8977  149.9858 LP  0  0  0  0  0  0  0  0  0  0  0  0  # atno 17371 bound_to 10713
  141.2075  133.6665  156.6312 LP  0  0  0  0  0  0  0  0  0  0  0  0  # atno 17394 bound_to 11000
  140.3363  134.7887  157.4364 LP  0  0  0  0  0  0  0  0  0  0  0  0  # atno 17395 bound_to 11000

$$$$
