AV-unprocessed.smi:2137|AV-procd|sdf|8708|dock2
  -GOLD-   2272011473D 1   1.00000     0.00000
 Structure written by MMmdl.
 50 51  0  0  0  0  0  0  0  0  2 V2000
  148.2274  133.3212  153.0921 C   0  0  0  0  0  0  0  0  0  0  0  0
  146.6917  133.3448  153.1901 C   0  0  2  0  0  0  0  0  0  0  0  0
  146.0022  132.9330  151.8761 C   0  0  0  0  0  0  0  0  0  0  0  0
  146.0952  134.0476  150.8246 C   0  0  0  0  0  0  0  0  0  0  0  0
  145.5694  135.3788  151.3841 C   0  0  0  0  0  0  0  0  0  0  0  0
  146.2898  135.7584  152.6269 N   0  3  1  0  0  0  0  0  0  0  0  0
  145.9134  137.1122  153.1066 C   0  0  0  0  0  0  0  0  0  0  0  0
  147.0601  137.8040  153.8638 C   0  0  0  0  0  0  0  0  0  0  0  0
  147.3504  139.2100  153.3221 C   0  0  0  0  0  0  0  0  0  0  0  0
  148.7071  139.6183  153.6624 N   0  0  0  0  0  0  0  0  0  0  0  0
  149.1630  139.7921  154.9113 C   0  0  0  0  0  0  0  0  0  0  0  0
  148.4610  139.6468  155.9128 O   0  0  0  0  0  0  0  0  0  0  0  0
  150.6313  140.2169  155.0434 C   0  0  0  0  0  0  0  0  0  0  0  0
  150.9317  140.8099  156.3528 N   0  0  0  0  0  0  0  0  0  0  0  0
  150.2302  141.9224  156.7800 C   0  0  0  0  0  0  0  0  0  0  0  0
  150.4440  142.5259  157.9696 C   0  0  0  0  0  0  0  0  0  0  0  0
  151.4508  142.0207  158.8949 C   0  0  0  0  0  0  0  0  0  0  0  0
  151.6965  142.5534  159.9780 O   0  0  0  0  0  0  0  0  0  0  0  0
  152.1405  140.8709  158.4421 N   0  0  0  0  0  0  0  0  0  0  0  0
  153.1709  140.3152  159.2951 C   0  0  0  0  0  0  0  0  0  0  0  0
  151.9257  140.2554  157.1882 C   0  0  0  0  0  0  0  0  0  0  0  0
  152.5770  139.2746  156.8198 O   0  0  0  0  0  0  0  0  0  0  0  0
  146.1600  134.7093  153.6753 C   0  0  0  0  0  0  0  0  0  0  0  0
  148.6028  134.0632  152.3875 H   0  0  0  0  0  0  0  0  0  0  0  0
  148.5843  132.3437  152.7661 H   0  0  0  0  0  0  0  0  0  0  0  0
  148.6838  133.5281  154.0607 H   0  0  0  0  0  0  0  0  0  0  0  0
  146.4220  132.6025  153.9427 H   0  0  0  0  0  0  0  0  0  0  0  0
  146.4332  132.0090  151.4890 H   0  0  0  0  0  0  0  0  0  0  0  0
  144.9510  132.7194  152.0746 H   0  0  0  0  0  0  0  0  0  0  0  0
  147.1287  134.1677  150.4979 H   0  0  0  0  0  0  0  0  0  0  0  0
  145.5260  133.7673  149.9377 H   0  0  0  0  0  0  0  0  0  0  0  0
  145.6979  136.1552  150.6288 H   0  0  0  0  0  0  0  0  0  0  0  0
  144.4998  135.3081  151.5882 H   0  0  0  0  0  0  0  0  0  0  0  0
  145.6534  137.7381  152.2518 H   0  0  0  0  0  0  0  0  0  0  0  0
  145.0172  137.0510  153.7260 H   0  0  0  0  0  0  0  0  0  0  0  0
  146.8229  137.8812  154.9247 H   0  0  0  0  0  0  0  0  0  0  0  0
  147.9615  137.1934  153.7925 H   0  0  0  0  0  0  0  0  0  0  0  0
  147.2377  139.2318  152.2374 H   0  0  0  0  0  0  0  0  0  0  0  0
  146.6277  139.9159  153.7353 H   0  0  0  0  0  0  0  0  0  0  0  0
  149.3487  139.7690  152.8974 H   0  0  0  0  0  0  0  0  0  0  0  0
  151.2884  139.3648  154.8599 H   0  0  0  0  0  0  0  0  0  0  0  0
  150.8493  140.9327  154.2498 H   0  0  0  0  0  0  0  0  0  0  0  0
  149.4709  142.3338  156.1308 H   0  0  0  0  0  0  0  0  0  0  0  0
  149.8629  143.3954  158.2398 H   0  0  0  0  0  0  0  0  0  0  0  0
  153.1997  139.2319  159.1675 H   0  0  0  0  0  0  0  0  0  0  0  0
  152.9382  140.5228  160.3404 H   0  0  0  0  0  0  0  0  0  0  0  0
  154.1123  140.7786  158.9969 H   0  0  0  0  0  0  0  0  0  0  0  0
  145.1092  134.6156  153.9544 H   0  0  0  0  0  0  0  0  0  0  0  0
  146.6927  135.0002  154.5801 H   0  0  0  0  0  0  0  0  0  0  0  0
  147.2674  135.8066  152.3777 H   0  0  0  0  0  0  0  0  0  0  0  0
  1  2  1  0  0  0  0
  1 24  1  0  0  0  0
  1 25  1  0  0  0  0
  1 26  1  0  0  0  0
  2 23  1  0  0  0  0
  2  3  1  0  0  0  0
  2 27  1  0  0  0  0
  3  4  1  0  0  0  0
  3 28  1  0  0  0  0
  3 29  1  0  0  0  0
  4  5  1  0  0  0  0
  4 30  1  0  0  0  0
  4 31  1  0  0  0  0
  5  6  1  0  0  0  0
  5 32  1  0  0  0  0
  5 33  1  0  0  0  0
  6  7  1  0  0  0  0
  6 23  1  0  0  0  0
  6 50  1  0  0  0  0
  7  8  1  0  0  0  0
  7 34  1  0  0  0  0
  7 35  1  0  0  0  0
  8  9  1  0  0  0  0
  8 36  1  0  0  0  0
  8 37  1  0  0  0  0
  9 10  1  0  0  0  0
  9 38  1  0  0  0  0
  9 39  1  0  0  0  0
 10 11  1  0  0  0  0
 10 40  1  0  0  0  0
 11 12  2  0  0  0  0
 11 13  1  0  0  0  0
 13 14  1  0  0  0  0
 13 41  1  0  0  0  0
 13 42  1  0  0  0  0
 14 21  1  0  0  0  0
 14 15  1  0  0  0  0
 15 16  2  0  0  0  0
 15 43  1  0  0  0  0
 16 17  1  0  0  0  0
 16 44  1  0  0  0  0
 17 18  2  0  0  0  0
 17 19  1  0  0  0  0
 19 20  1  0  0  0  0
 19 21  1  0  0  0  0
 20 45  1  0  0  0  0
 20 46  1  0  0  0  0
 20 47  1  0  0  0  0
 21 22  2  0  0  0  0
 23 48  1  0  0  0  0
 23 49  1  0  0  0  0
M  CHG  1   6   1
M  END
> <s_m_source_file>
AV-unprocessed.smi

> <i_m_source_file_index>
2137

> <i_lp_mmshare_version>
43012

> <i_f3d_flags>
0

> <s_epik_input>
W0NIM11bQ0BASF0xW0NIMl1bQ0gyXVtDSDJdTihbQ0gyXTEpW0NIMl1bQ0gyXVtDSDJdW05IXUMoPU8pW0NIMl1uMltjSF1bY0hdYyg9TyluKFtDSDNdKWMyPU8=

> <s_epik_cmdline>
J2VwaWtfcHl0aG9uJywgJy1waCcsICc3LjAnLCAnLXRuJywgJzgnLCAnLW1hJywgJzIwMCcsICctbWV0YWxfYmluZGluZycsICctaW1hZScsICc8aW5maWxlLm1hZT4nLCAnLW9tYWUnLCAnPG91dGZpbGUubWFlPic=

> <r_lp_tautomer_probability>
1

> <r_epik_Ionization_Penalty>
0.000384839

> <r_epik_Ionization_Penalty_Charging>
0.000384812

> <r_epik_Ionization_Penalty_Neutral>
2.6907e-08

> <r_epik_State_Penalty>
0.000235226

> <r_epik_Charging_Adjusted_Penalty>
0.000620038

> <i_epik_Tot_Q>
1

> <i_epik_Tot_abs_Q>
1

> <r_epik_Metal_State_Penalty>
-0

> <b_epik_Metal_Only>
0

> <s_lp_Force_Field>
OPLS_2005

> <r_lp_Energy>
28.7219

> <b_lp_Chiralities_Consistent>
1

> <s_lp_Variant>
AV-unprocessed.smi:2137-3

> <Gold.Version>
5.8.1

> <Gold.Id.Protein>
6NUR|6NUR_protein|mol2

> <Gold.PLP.Fitness>
48.8886

> <Gold.PLP.PLP>
-35.9925

> <Gold.PLP.part.hbond>
-3.2867

> <Gold.PLP.part.metal>
0.0000

> <Gold.PLP.part.buried>
-2.1653

> <Gold.PLP.part.nonpolar>
-30.2368

> <Gold.PLP.part.repulsive>
0.1162

> <Gold.PLP.ligand.clash>
0.0000

> <Gold.PLP.ligand.torsion>
1.0376

> <Gold.PLP.Chemscore.Hbond>
3.9760

> <Gold.PLP.Chemscore.CHOScore>
1.0000

> <Gold.PLP.Chemscore.Metal>
0.0000

> <Gold.Chemscore.Hbonds>
donor molecule, donor type, donor heavy atom, donor atom, acceptor molecule, acceptor atom, score
      L1  H     6    50       P1  7948  2.00
      L1  H    10    40       P1  7957  0.98
      P1  H  7997  8010       L1    22  1.00
      L1  C    15    43       P1  8028  1.00

> <Gold.PLP.Chemscore.Internal.Correction>
0.0435

> <Gold.Rescore>
     Score         DG    S(hbond)    S(metal)    S(lipo)     H(rot)  DE(clash)    DE(int)     intcor
     14.98     -17.58       2.95        0.00      69.07       2.27       0.29       2.31       ----

> <Gold.Chemscore.Fitness>
14.9844

> <Gold.Chemscore.DG>
-17.5807

> <Gold.Chemscore.ZeroCoef>
-5.4800

> <Gold.Chemscore.Hbond>
2.9471

> <Gold.Chemscore.Metal>
0.0000

> <Gold.Chemscore.Lipo>
69.0661

> <Gold.Chemscore.Internal_Hbond>
0.0000

> <Gold.Chemscore.DEClash>
0.2908

> <Gold.Chemscore.DEInternal>
2.3054

> <Gold.Chemscore.Rot>
2.2748

> <Gold.Chemscore.Internal.Correction>
   9.000000E+99

> <Gold.Chemscore.Hbonds>
donor molecule, donor type, donor heavy atom, donor atom, acceptor molecule, acceptor atom, score
      L1  H     6    50       P1  7948  1.00
      L1  H    10    40       P1  7957  0.93
      P1  H  7997  8010       L1    22  0.29

> <Gold.Chemscore.Hbond.Weighted>
-9.8433

> <Gold.Chemscore.Metal.Weighted>
-0.0000

> <Gold.Chemscore.Lipo.Weighted>
-8.0807

> <Gold.Chemscore.Internal_Hbond.Weighted>
0.0000

> <Gold.Chemscore.DEClash.Weighted>
0.2908

> <Gold.Chemscore.DEInternal.Weighted>
2.3054

> <Gold.Chemscore.Rot.Weighted>
5.8234

> <Gold.Chemscore.Internal.Correction.Weighted>
   9.000000E+99

> <Gold.Protein.RotatedTorsions>
[ 6907 6896 6895 6894 ] final  -55.05 input  -60.11 | X-H torsion
[ 7974 7965 7964 7962 ] final   57.72 input  175.53 | X-H torsion
[ 8008 7997 7996 7995 ] final   51.88 input   59.86 | X-H torsion
[ 10167 10162 10161 10158 ] final  105.89 input  -65.29 | X-H torsion
[ 10718 10713 10712 10709 ] final   92.52 input   66.30 | X-H torsion
[ 10763 10752 10751 10750 ] final  -98.49 input  -60.55 | X-H torsion
[ 11005 11000 10999 10996 ] final  -71.66 input  -57.11 | X-H torsion

> <Gold.Protein.ActiveResidues>
 VAL166  LYS551  ARG553  GLY616  TRP617  ASP618  TYR619  PRO620  LYS621  CYS622 
 ASP623  PHE694  ASN695  SER759  ASP760  ASP761  ALA762  ILE779  LEU786  VAL792 
 PHE793  MET794  SER795  GLU796  ALA797  LYS798  CYS799  TRP800  GLU811  SER814 

> <Gold.Protein.RotatedAtoms>
  150.8285  134.7527  159.6833 H   0  0  0  0  0  0  0  0  0  0  0  0  # atno 6907 bound_to 6896
  152.4393  134.5621  159.9907 H   0  0  0  0  0  0  0  0  0  0  0  0  # atno 6908 bound_to 6896
  151.5787  133.3343  159.3040 H   0  0  0  0  0  0  0  0  0  0  0  0  # atno 6909 bound_to 6896
  145.9259  139.3768  143.0450 H   0  0  0  0  0  0  0  0  0  0  0  0  # atno 7974 bound_to 7965
  155.4425  140.3455  155.4291 H   0  0  0  0  0  0  0  0  0  0  0  0  # atno 8008 bound_to 7997
  156.1270  140.1503  156.9152 H   0  0  0  0  0  0  0  0  0  0  0  0  # atno 8009 bound_to 7997
  154.4865  140.0853  156.7479 H   0  0  0  0  0  0  0  0  0  0  0  0  # atno 8010 bound_to 7997
  139.7055  144.7087  151.1114 H   0  0  0  0  0  0  0  0  0  0  0  0  # atno 10167 bound_to 10162
  157.6958  131.0446  150.3895 H   0  0  0  0  0  0  0  0  0  0  0  0  # atno 10718 bound_to 10713
  154.7418  135.5007  153.9136 H   0  0  0  0  0  0  0  0  0  0  0  0  # atno 10763 bound_to 10752
  153.1051  135.6695  153.9609 H   0  0  0  0  0  0  0  0  0  0  0  0  # atno 10764 bound_to 10752
  153.9384  135.3070  155.3422 H   0  0  0  0  0  0  0  0  0  0  0  0  # atno 10765 bound_to 10752
  141.1596  133.6824  156.6939 H   0  0  0  0  0  0  0  0  0  0  0  0  # atno 11005 bound_to 11000
  145.8489  140.9540  143.0760 LP  0  0  0  0  0  0  0  0  0  0  0  0  # atno 17320 bound_to 7965
  144.6758  140.0381  143.7481 LP  0  0  0  0  0  0  0  0  0  0  0  0  # atno 17321 bound_to 7965
  140.7720  143.5365  150.9362 LP  0  0  0  0  0  0  0  0  0  0  0  0  # atno 17342 bound_to 10162
  139.9048  143.6791  152.3125 LP  0  0  0  0  0  0  0  0  0  0  0  0  # atno 17343 bound_to 10162
  156.4300  130.3970  149.6767 LP  0  0  0  0  0  0  0  0  0  0  0  0  # atno 17370 bound_to 10713
  156.3988  130.7664  151.2670 LP  0  0  0  0  0  0  0  0  0  0  0  0  # atno 17371 bound_to 10713
  140.3009  134.8164  157.4097 LP  0  0  0  0  0  0  0  0  0  0  0  0  # atno 17394 bound_to 11000
  140.1262  134.5154  155.8142 LP  0  0  0  0  0  0  0  0  0  0  0  0  # atno 17395 bound_to 11000

$$$$
