AV-unprocessed.smi:1254|AV-procd|sdf|5277|dock5
  -GOLD-   22720 4393D 1   1.00000     0.00000
 Structure written by MMmdl.
 45 46  0  0  0  0  0  0  0  0  3 V2000
  150.1108  142.3602  157.6251 C   0  0  0  0  0  0  0  0  0  0  0  0
  150.0905  141.3586  156.5219 C   0  0  0  0  0  0  0  0  0  0  0  0
  149.0945  140.6033  155.9707 C   0  0  0  0  0  0  0  0  0  0  0  0
  149.7665  139.8723  154.9532 C   0  0  0  0  0  0  0  0  0  0  0  0
  149.2087  138.9722  154.1288 N   0  5  0  0  0  0  0  0  0  0  0  0
  147.9194  139.1093  153.7437 C   0  0  0  0  0  0  0  0  0  0  0  0
  147.0873  139.8815  154.2252 O   0  0  0  0  0  0  0  0  0  0  0  0
  147.5717  138.3002  152.7355 N   0  0  0  0  0  0  0  0  0  0  0  0
  146.2520  138.2455  152.1218 C   0  0  0  0  0  0  0  0  0  0  0  0
  145.7675  136.7938  152.0135 C   0  0  2  0  0  0  0  0  0  0  0  0
  145.9002  136.2496  150.5760 C   0  0  0  0  0  0  0  0  0  0  0  0
  145.3671  134.8692  150.4702 N   0  3  1  0  0  0  0  0  0  0  0  0
  146.2842  133.8320  151.0161 C   0  0  0  0  0  0  0  0  0  0  0  0
  145.8025  132.3932  150.7304 C   0  0  0  0  0  0  0  0  0  0  0  0
  145.3181  132.2649  149.2784 C   0  0  0  0  0  0  0  0  0  0  0  0
  144.6967  131.9543  151.7052 C   0  0  0  0  0  0  0  0  0  0  0  0
  143.9780  134.8079  150.9926 C   0  0  0  0  0  0  0  0  0  0  0  0
  143.8759  135.4242  152.4012 C   0  0  0  0  0  0  0  0  0  0  0  0
  144.3927  136.7484  152.3846 O   0  0  0  0  0  0  0  0  0  0  0  0
  151.0593  140.1468  154.9035 N   0  0  0  0  0  0  0  0  0  0  0  0
  151.2737  141.1050  155.9015 O   0  0  0  0  0  0  0  0  0  0  0  0
  149.2966  142.1803  158.3272 H   0  0  0  0  0  0  0  0  0  0  0  0
  150.0006  143.3701  157.2296 H   0  0  0  0  0  0  0  0  0  0  0  0
  151.0498  142.3127  158.1775 H   0  0  0  0  0  0  0  0  0  0  0  0
  148.0510  140.5798  156.2464 H   0  0  0  0  0  0  0  0  0  0  0  0
  148.2782  137.6783  152.3704 H   0  0  0  0  0  0  0  0  0  0  0  0
  145.5502  138.8411  152.7078 H   0  0  0  0  0  0  0  0  0  0  0  0
  146.3039  138.6924  151.1275 H   0  0  0  0  0  0  0  0  0  0  0  0
  146.3532  136.1774  152.6983 H   0  0  0  0  0  0  0  0  0  0  0  0
  145.3365  136.8869  149.8930 H   0  0  0  0  0  0  0  0  0  0  0  0
  146.9369  136.2850  150.2386 H   0  0  0  0  0  0  0  0  0  0  0  0
  147.2737  133.9513  150.5722 H   0  0  0  0  0  0  0  0  0  0  0  0
  146.4190  133.9821  152.0873 H   0  0  0  0  0  0  0  0  0  0  0  0
  146.6398  131.7053  150.8431 H   0  0  0  0  0  0  0  0  0  0  0  0
  144.4701  132.9220  149.0826 H   0  0  0  0  0  0  0  0  0  0  0  0
  145.0056  131.2441  149.0563 H   0  0  0  0  0  0  0  0  0  0  0  0
  146.1096  132.5242  148.5745 H   0  0  0  0  0  0  0  0  0  0  0  0
  143.8265  132.6082  151.6393 H   0  0  0  0  0  0  0  0  0  0  0  0
  145.0453  131.9663  152.7380 H   0  0  0  0  0  0  0  0  0  0  0  0
  144.3641  130.9388  151.4884 H   0  0  0  0  0  0  0  0  0  0  0  0
  143.3371  135.3698  150.3119 H   0  0  0  0  0  0  0  0  0  0  0  0
  143.5980  133.7871  150.9926 H   0  0  0  0  0  0  0  0  0  0  0  0
  142.8329  135.4603  152.7164 H   0  0  0  0  0  0  0  0  0  0  0  0
  144.4048  134.8234  153.1420 H   0  0  0  0  0  0  0  0  0  0  0  0
  145.3131  134.6732  149.4807 H   0  0  0  0  0  0  0  0  0  0  0  0
  1  2  1  0  0  0  0
  1 22  1  0  0  0  0
  1 23  1  0  0  0  0
  1 24  1  0  0  0  0
  2 21  1  0  0  0  0
  2  3  2  0  0  0  0
  3  4  1  0  0  0  0
  3 25  1  0  0  0  0
  4  5  1  0  0  0  0
  4 20  2  0  0  0  0
  5  6  1  0  0  0  0
  6  7  2  0  0  0  0
  6  8  1  0  0  0  0
  8  9  1  0  0  0  0
  8 26  1  0  0  0  0
  9 10  1  0  0  0  0
  9 27  1  0  0  0  0
  9 28  1  0  0  0  0
 10 19  1  0  0  0  0
 10 11  1  0  0  0  0
 10 29  1  0  0  0  0
 11 12  1  0  0  0  0
 11 30  1  0  0  0  0
 11 31  1  0  0  0  0
 12 13  1  0  0  0  0
 12 17  1  0  0  0  0
 12 45  1  0  0  0  0
 13 14  1  0  0  0  0
 13 32  1  0  0  0  0
 13 33  1  0  0  0  0
 14 15  1  0  0  0  0
 14 16  1  0  0  0  0
 14 34  1  0  0  0  0
 15 35  1  0  0  0  0
 15 36  1  0  0  0  0
 15 37  1  0  0  0  0
 16 38  1  0  0  0  0
 16 39  1  0  0  0  0
 16 40  1  0  0  0  0
 17 18  1  0  0  0  0
 17 41  1  0  0  0  0
 17 42  1  0  0  0  0
 18 19  1  0  0  0  0
 18 43  1  0  0  0  0
 18 44  1  0  0  0  0
 20 21  1  0  0  0  0
M  CHG  1   5  -1
M  CHG  1  12   1
M  END
> <s_m_source_file>
AV-unprocessed.smi

> <i_m_source_file_index>
1254

> <i_lp_mmshare_version>
43012

> <i_f3d_flags>
0

> <s_epik_input>
W0NIM11jMVtjSF1jKG5vMSlbTkhdQyg9TylbTkhdW0NIMl1bQ0BASF0yW0NIMl1OKFtDSDJdW0NIMl1PMilbQ0gyXVtDSF0oW0NIM10pW0NIM10=

> <s_epik_cmdline>
J2VwaWtfcHl0aG9uJywgJy1waCcsICc3LjAnLCAnLXRuJywgJzgnLCAnLW1hJywgJzIwMCcsICctbWV0YWxfYmluZGluZycsICctaW1hZScsICc8aW5maWxlLm1hZT4nLCAnLW9tYWUnLCAnPG91dGZpbGUubWFlPic=

> <r_epik_Ionization_Penalty>
6.33139

> <r_epik_Ionization_Penalty_Charging>
6.33128

> <r_epik_Ionization_Penalty_Neutral>
0.000104968

> <r_epik_State_Penalty>
6.32522

> <r_epik_Charging_Adjusted_Penalty>
12.6565

> <i_epik_Tot_Q>
0

> <i_epik_Tot_abs_Q>
2

> <r_epik_Metal_State_Penalty>
2.26285

> <b_epik_Metal_Only>
1

> <s_lp_Force_Field>
OPLS_2005

> <r_lp_Energy>
8.92976

> <b_lp_Chiralities_Consistent>
1

> <s_lp_Variant>
AV-unprocessed.smi:1254-9

> <Gold.Version>
5.8.1

> <Gold.Id.Protein>
6NUR|6NUR_protein|mol2

> <Gold.PLP.Fitness>
40.7334

> <Gold.PLP.PLP>
-33.7349

> <Gold.PLP.part.hbond>
-4.6151

> <Gold.PLP.part.metal>
0.0000

> <Gold.PLP.part.buried>
-3.3931

> <Gold.PLP.part.nonpolar>
-27.2002

> <Gold.PLP.part.repulsive>
0.7348

> <Gold.PLP.ligand.clash>
0.0000

> <Gold.PLP.ligand.torsion>
1.0618

> <Gold.PLP.Chemscore.Hbond>
2.9760

> <Gold.PLP.Chemscore.CHOScore>
0.0000

> <Gold.PLP.Chemscore.Metal>
0.0000

> <Gold.Chemscore.Hbonds>
donor molecule, donor type, donor heavy atom, donor atom, acceptor molecule, acceptor atom, score
      L1  H     8    26       P1  7948  1.00
      L1  H    12    45       P1  7921  0.98
      P1  H  7989  7998       L1    20  1.00

> <Gold.PLP.Chemscore.Internal.Correction>
0.1942

> <Gold.Rescore>
     Score         DG    S(hbond)    S(metal)    S(lipo)     H(rot)  DE(clash)    DE(int)     intcor
     15.86     -19.96       2.78        0.00      81.37       1.69       0.49       3.61       ----

> <Gold.Chemscore.Fitness>
15.8550

> <Gold.Chemscore.DG>
-19.9553

> <Gold.Chemscore.ZeroCoef>
-5.4800

> <Gold.Chemscore.Hbond>
2.7807

> <Gold.Chemscore.Metal>
0.0000

> <Gold.Chemscore.Lipo>
81.3749

> <Gold.Chemscore.Internal_Hbond>
0.0000

> <Gold.Chemscore.DEClash>
0.4861

> <Gold.Chemscore.DEInternal>
3.6142

> <Gold.Chemscore.Rot>
1.6926

> <Gold.Chemscore.Internal.Correction>
   9.000000E+99

> <Gold.Chemscore.Hbonds>
donor molecule, donor type, donor heavy atom, donor atom, acceptor molecule, acceptor atom, score
      L1  H     8    26       P1  7948  0.99
      L1  H    12    45       P1  7921  0.87
      P1  H  7989  7998       L1    20  0.42

> <Gold.Chemscore.Hbond.Weighted>
-9.2875

> <Gold.Chemscore.Metal.Weighted>
-0.0000

> <Gold.Chemscore.Lipo.Weighted>
-9.5209

> <Gold.Chemscore.Internal_Hbond.Weighted>
0.0000

> <Gold.Chemscore.DEClash.Weighted>
0.4861

> <Gold.Chemscore.DEInternal.Weighted>
3.6142

> <Gold.Chemscore.Rot.Weighted>
4.3330

> <Gold.Chemscore.Internal.Correction.Weighted>
   9.000000E+99

> <Gold.Protein.RotatedTorsions>
[ 6907 6896 6895 6894 ] final -105.97 input  -60.11 | X-H torsion
[ 7974 7965 7964 7962 ] final -131.69 input  175.53 | X-H torsion
[ 8008 7997 7996 7995 ] final  -76.13 input   59.86 | X-H torsion
[ 10167 10162 10161 10158 ] final -134.03 input  -65.29 | X-H torsion
[ 10718 10713 10712 10709 ] final  142.26 input   66.30 | X-H torsion
[ 10763 10752 10751 10750 ] final  -89.08 input  -60.55 | X-H torsion
[ 11005 11000 10999 10996 ] final  100.61 input  -57.11 | X-H torsion

> <Gold.Protein.ActiveResidues>
 VAL166  LYS551  ARG553  GLY616  TRP617  ASP618  TYR619  PRO620  LYS621  CYS622 
 ASP623  PHE694  ASN695  SER759  ASP760  ASP761  ALA762  ILE779  LEU786  VAL792 
 PHE793  MET794  SER795  GLU796  ALA797  LYS798  CYS799  TRP800  GLU811  SER814 

> <Gold.Protein.RotatedAtoms>
  150.7364  134.0046  159.3649 H   0  0  0  0  0  0  0  0  0  0  0  0  # atno 6907 bound_to 6896
  151.8002  135.0709  160.0408 H   0  0  0  0  0  0  0  0  0  0  0  0  # atno 6908 bound_to 6896
  152.3146  133.5752  159.5740 H   0  0  0  0  0  0  0  0  0  0  0  0  # atno 6909 bound_to 6896
  144.9355  140.7178  143.4879 H   0  0  0  0  0  0  0  0  0  0  0  0  # atno 7974 bound_to 7965
  154.5478  140.0732  156.8618 H   0  0  0  0  0  0  0  0  0  0  0  0  # atno 8008 bound_to 7997
  155.3053  140.3387  155.4228 H   0  0  0  0  0  0  0  0  0  0  0  0  # atno 8009 bound_to 7997
  156.1934  140.1694  156.8033 H   0  0  0  0  0  0  0  0  0  0  0  0  # atno 8010 bound_to 7997
  139.8922  143.6708  152.2610 H   0  0  0  0  0  0  0  0  0  0  0  0  # atno 10167 bound_to 10162
  157.3826  131.0994  151.0724 H   0  0  0  0  0  0  0  0  0  0  0  0  # atno 10718 bound_to 10713
  154.6514  135.5354  153.7907 H   0  0  0  0  0  0  0  0  0  0  0  0  # atno 10763 bound_to 10752
  153.0388  135.6483  154.1010 H   0  0  0  0  0  0  0  0  0  0  0  0  # atno 10764 bound_to 10752
  154.0927  135.2939  155.3248 H   0  0  0  0  0  0  0  0  0  0  0  0  # atno 10765 bound_to 10752
  139.8771  134.9147  156.4782 H   0  0  0  0  0  0  0  0  0  0  0  0  # atno 11005 bound_to 11000
  145.3074  139.1830  143.4657 LP  0  0  0  0  0  0  0  0  0  0  0  0  # atno 17320 bound_to 7965
  146.3265  140.3073  142.8624 LP  0  0  0  0  0  0  0  0  0  0  0  0  # atno 17321 bound_to 7965
  139.7099  144.7622  151.1129 LP  0  0  0  0  0  0  0  0  0  0  0  0  # atno 17342 bound_to 10162
  140.7724  143.5344  150.9385 LP  0  0  0  0  0  0  0  0  0  0  0  0  # atno 17343 bound_to 10162
  157.1787  130.6299  149.5664 LP  0  0  0  0  0  0  0  0  0  0  0  0  # atno 17370 bound_to 10713
  155.9779  130.4761  150.6624 LP  0  0  0  0  0  0  0  0  0  0  0  0  # atno 17371 bound_to 10713
  140.8747  133.7962  155.9401 LP  0  0  0  0  0  0  0  0  0  0  0  0  # atno 17394 bound_to 11000
  140.8917  134.2487  157.5091 LP  0  0  0  0  0  0  0  0  0  0  0  0  # atno 17395 bound_to 11000

$$$$
