AV-unprocessed.smi:2355|AV-procd|sdf|9388|dock4
  -GOLD-   2272013 23D 1   1.00000     0.00000
 Structure written by MMmdl.
 48 49  0  0  0  0  0  0  0  0  1 V2000
  144.0827  133.0329  149.3860 C   0  0  0  0  0  0  0  0  0  0  0  0
  145.0074  132.4805  150.4503 C   0  0  0  0  0  0  0  0  0  0  0  0
  145.0338  131.1032  150.7422 C   0  0  0  0  0  0  0  0  0  0  0  0
  145.9167  130.6530  151.7432 C   0  0  0  0  0  0  0  0  0  0  0  0
  146.0002  129.1853  152.1061 C   0  0  0  0  0  0  0  0  0  0  0  0
  146.7337  131.4791  152.4312 N   0  0  0  0  0  0  0  0  0  0  0  0
  146.7160  132.8077  152.1594 C   0  0  0  0  0  0  0  0  0  0  0  0
  147.5304  133.7598  152.8279 N   0  0  0  0  0  0  0  0  0  0  0  0
  148.0090  133.7085  154.0835 C   0  0  0  0  0  0  0  0  0  0  0  0
  147.8312  132.7826  154.8757 O   0  0  0  0  0  0  0  0  0  0  0  0
  148.7152  134.8105  154.3755 N   0  0  0  0  0  0  0  0  0  0  0  0
  149.3455  135.1079  155.6619 C   0  0  1  0  0  0  0  0  0  0  0  0
  150.8379  134.7345  155.6074 C   0  0  0  0  0  0  0  0  0  0  0  0
  149.0586  136.5823  156.0881 C   0  0  1  0  0  0  0  0  0  0  0  0
  149.4454  136.7852  157.5763 C   0  0  0  0  0  0  0  0  0  0  0  0
  149.6792  137.5940  155.1954 N   0  0  0  0  0  0  0  0  0  0  0  0
  149.0697  138.9243  155.3182 C   0  0  0  0  0  0  0  0  0  0  0  0
  149.7329  139.9721  154.4080 C   0  0  0  0  0  0  0  0  0  0  0  0
  151.1222  140.0454  154.6953 O   0  0  0  0  0  0  0  0  0  0  0  0
  151.7699  138.7947  154.5105 C   0  0  0  0  0  0  0  0  0  0  0  0
  151.1227  137.7353  155.4194 C   0  0  0  0  0  0  0  0  0  0  0  0
  145.8607  133.3414  151.1695 C   0  0  0  0  0  0  0  0  0  0  0  0
  143.4706  132.2463  148.9437 H   0  0  0  0  0  0  0  0  0  0  0  0
  144.6615  133.5032  148.5909 H   0  0  0  0  0  0  0  0  0  0  0  0
  143.4168  133.7816  149.8159 H   0  0  0  0  0  0  0  0  0  0  0  0
  144.3952  130.4107  150.2134 H   0  0  0  0  0  0  0  0  0  0  0  0
  145.2342  128.6061  151.5899 H   0  0  0  0  0  0  0  0  0  0  0  0
  145.8630  129.0498  153.1794 H   0  0  0  0  0  0  0  0  0  0  0  0
  146.9754  128.7836  151.8304 H   0  0  0  0  0  0  0  0  0  0  0  0
  147.7642  134.5827  152.2925 H   0  0  0  0  0  0  0  0  0  0  0  0
  148.8036  135.5172  153.6604 H   0  0  0  0  0  0  0  0  0  0  0  0
  148.9469  134.4490  156.4318 H   0  0  0  0  0  0  0  0  0  0  0  0
  151.3522  135.0325  156.5214 H   0  0  0  0  0  0  0  0  0  0  0  0
  151.3523  135.1930  154.7633 H   0  0  0  0  0  0  0  0  0  0  0  0
  150.9587  133.6557  155.5025 H   0  0  0  0  0  0  0  0  0  0  0  0
  147.9769  136.7133  156.0289 H   0  0  0  0  0  0  0  0  0  0  0  0
  149.0161  136.0236  158.2241 H   0  0  0  0  0  0  0  0  0  0  0  0
  149.0721  137.7275  157.9741 H   0  0  0  0  0  0  0  0  0  0  0  0
  150.5267  136.7678  157.7161 H   0  0  0  0  0  0  0  0  0  0  0  0
  148.0184  138.8951  155.0395 H   0  0  0  0  0  0  0  0  0  0  0  0
  149.1169  139.2600  156.3551 H   0  0  0  0  0  0  0  0  0  0  0  0
  149.5824  139.7208  153.3569 H   0  0  0  0  0  0  0  0  0  0  0  0
  149.2838  140.9520  154.5695 H   0  0  0  0  0  0  0  0  0  0  0  0
  151.7094  138.4949  153.4631 H   0  0  0  0  0  0  0  0  0  0  0  0
  152.8275  138.9043  154.7511 H   0  0  0  0  0  0  0  0  0  0  0  0
  151.3114  137.9904  156.4634 H   0  0  0  0  0  0  0  0  0  0  0  0
  151.6361  136.7957  155.2249 H   0  0  0  0  0  0  0  0  0  0  0  0
  145.8561  134.4019  150.9620 H   0  0  0  0  0  0  0  0  0  0  0  0
  1  2  1  0  0  0  0
  1 23  1  0  0  0  0
  1 24  1  0  0  0  0
  1 25  1  0  0  0  0
  2 22  1  0  0  0  0
  2  3  2  0  0  0  0
  3  4  1  0  0  0  0
  3 26  1  0  0  0  0
  4  5  1  0  0  0  0
  4  6  2  0  0  0  0
  5 27  1  0  0  0  0
  5 28  1  0  0  0  0
  5 29  1  0  0  0  0
  6  7  1  0  0  0  0
  7  8  1  0  0  0  0
  7 22  2  0  0  0  0
  8  9  1  0  0  0  0
  8 30  1  0  0  0  0
  9 10  2  0  0  0  0
  9 11  1  0  0  0  0
 11 12  1  0  0  0  0
 11 31  1  0  0  0  0
 12 13  1  0  0  0  0
 12 14  1  0  0  0  0
 12 32  1  0  0  0  0
 13 33  1  0  0  0  0
 13 34  1  0  0  0  0
 13 35  1  0  0  0  0
 14 15  1  0  0  0  0
 14 16  1  0  0  0  0
 14 36  1  0  0  0  0
 15 37  1  0  0  0  0
 15 38  1  0  0  0  0
 15 39  1  0  0  0  0
 16 21  1  0  0  0  0
 16 17  1  0  0  0  0
 17 18  1  0  0  0  0
 17 40  1  0  0  0  0
 17 41  1  0  0  0  0
 18 19  1  0  0  0  0
 18 42  1  0  0  0  0
 18 43  1  0  0  0  0
 19 20  1  0  0  0  0
 20 21  1  0  0  0  0
 20 44  1  0  0  0  0
 20 45  1  0  0  0  0
 21 46  1  0  0  0  0
 21 47  1  0  0  0  0
 22 48  1  0  0  0  0
M  END
> <s_m_source_file>
AV-unprocessed.smi

> <i_m_source_file_index>
2355

> <i_lp_mmshare_version>
43012

> <i_f3d_flags>
0

> <s_epik_input>
W0NIM11jMVtjSF1jKFtDSDNdKW5jKFtjSF0xKVtOSF1DKD1PKVtOSF1bQ0BIXShbQ0gzXSlbQ0BIXShbQ0gzXSlOMltDSDJdW0NIMl1PW0NIMl1bQ0gyXTI=

> <s_epik_cmdline>
J2VwaWtfcHl0aG9uJywgJy1waCcsICc3LjAnLCAnLXRuJywgJzgnLCAnLW1hJywgJzIwMCcsICctbWV0YWxfYmluZGluZycsICctaW1hZScsICc8aW5maWxlLm1hZT4nLCAnLW9tYWUnLCAnPG91dGZpbGUubWFlPic=

> <r_epik_Ionization_Penalty>
0.266238

> <r_epik_Ionization_Penalty_Charging>
0

> <r_epik_Ionization_Penalty_Neutral>
0.266238

> <r_epik_State_Penalty>
0.257924

> <r_epik_Charging_Adjusted_Penalty>
0.257924

> <i_epik_Tot_Q>
0

> <i_epik_Tot_abs_Q>
0

> <r_epik_Metal_State_Penalty>
0.257904

> <b_epik_Metal_Only>
0

> <s_lp_Force_Field>
OPLS_2005

> <r_lp_Energy>
36.8304

> <b_lp_Chiralities_Consistent>
1

> <s_lp_Variant>
AV-unprocessed.smi:2355-4

> <Gold.Version>
5.8.1

> <Gold.Id.Protein>
6NUR|6NUR_protein|mol2

> <Gold.PLP.Fitness>
42.9164

> <Gold.PLP.PLP>
-35.2394

> <Gold.PLP.part.hbond>
-3.0000

> <Gold.PLP.part.metal>
0.0000

> <Gold.PLP.part.buried>
-5.1353

> <Gold.PLP.part.nonpolar>
-26.5110

> <Gold.PLP.part.repulsive>
0.3390

> <Gold.PLP.ligand.clash>
0.0000

> <Gold.PLP.ligand.torsion>
0.7078

> <Gold.PLP.Chemscore.Hbond>
3.0000

> <Gold.PLP.Chemscore.CHOScore>
0.0000

> <Gold.PLP.Chemscore.Metal>
0.0000

> <Gold.Chemscore.Hbonds>
donor molecule, donor type, donor heavy atom, donor atom, acceptor molecule, acceptor atom, score
      L1  H     8    30       P1  7948  0.99
      L1  H    11    31       P1  7948  1.00
      P1  H  7989  7998       L1    19  1.00

> <Gold.PLP.Chemscore.Internal.Correction>
0.0926

> <Gold.Rescore>
     Score         DG    S(hbond)    S(metal)    S(lipo)     H(rot)  DE(clash)    DE(int)     intcor
     15.90     -18.51       1.75        0.00      92.05       1.40       0.03       2.58       ----

> <Gold.Chemscore.Fitness>
15.8963

> <Gold.Chemscore.DG>
-18.5055

> <Gold.Chemscore.ZeroCoef>
-5.4800

> <Gold.Chemscore.Hbond>
1.7496

> <Gold.Chemscore.Metal>
0.0000

> <Gold.Chemscore.Lipo>
92.0482

> <Gold.Chemscore.Internal_Hbond>
0.0000

> <Gold.Chemscore.DEClash>
0.0336

> <Gold.Chemscore.DEInternal>
2.5756

> <Gold.Chemscore.Rot>
1.4015

> <Gold.Chemscore.Internal.Correction>
   9.000000E+99

> <Gold.Chemscore.Hbonds>
donor molecule, donor type, donor heavy atom, donor atom, acceptor molecule, acceptor atom, score
      L1  H     8    30       P1  7948  0.54
      L1  H    11    31       P1  7948  0.89
      P1  H  7989  7998       L1    19  0.11

> <Gold.Chemscore.Hbond.Weighted>
-5.8436

> <Gold.Chemscore.Metal.Weighted>
-0.0000

> <Gold.Chemscore.Lipo.Weighted>
-10.7696

> <Gold.Chemscore.Internal_Hbond.Weighted>
0.0000

> <Gold.Chemscore.DEClash.Weighted>
0.0336

> <Gold.Chemscore.DEInternal.Weighted>
2.5756

> <Gold.Chemscore.Rot.Weighted>
3.5878

> <Gold.Chemscore.Internal.Correction.Weighted>
   9.000000E+99

> <Gold.Protein.RotatedTorsions>
[ 6907 6896 6895 6894 ] final -103.00 input  -60.11 | X-H torsion
[ 7974 7965 7964 7962 ] final   90.99 input  175.53 | X-H torsion
[ 8008 7997 7996 7995 ] final  -82.18 input   59.86 | X-H torsion
[ 10167 10162 10161 10158 ] final  157.41 input  -65.29 | X-H torsion
[ 10718 10713 10712 10709 ] final -140.89 input   66.30 | X-H torsion
[ 10763 10752 10751 10750 ] final  -46.33 input  -60.55 | X-H torsion
[ 11005 11000 10999 10996 ] final  144.03 input  -57.11 | X-H torsion

> <Gold.Protein.ActiveResidues>
 VAL166  LYS551  ARG553  GLY616  TRP617  ASP618  TYR619  PRO620  LYS621  CYS622 
 ASP623  PHE694  ASN695  SER759  ASP760  ASP761  ALA762  ILE779  LEU786  VAL792 
 PHE793  MET794  SER795  GLU796  ALA797  LYS798  CYS799  TRP800  GLU811  SER814 

> <Gold.Protein.RotatedAtoms>
  150.7221  134.0495  159.3793 H   0  0  0  0  0  0  0  0  0  0  0  0  # atno 6907 bound_to 6896
  151.8472  135.0568  160.0464 H   0  0  0  0  0  0  0  0  0  0  0  0  # atno 6908 bound_to 6896
  152.2818  133.5441  159.5539 H   0  0  0  0  0  0  0  0  0  0  0  0  # atno 6909 bound_to 6896
  145.5117  139.2277  143.2721 H   0  0  0  0  0  0  0  0  0  0  0  0  # atno 7974 bound_to 7965
  154.6060  140.0637  156.9431 H   0  0  0  0  0  0  0  0  0  0  0  0  # atno 8008 bound_to 7997
  155.2052  140.3318  155.4318 H   0  0  0  0  0  0  0  0  0  0  0  0  # atno 8009 bound_to 7997
  156.2348  140.1857  156.7133 H   0  0  0  0  0  0  0  0  0  0  0  0  # atno 8010 bound_to 7997
  139.4823  144.4919  151.8295 H   0  0  0  0  0  0  0  0  0  0  0  0  # atno 10167 bound_to 10162
  156.3276  130.7568  151.1679 H   0  0  0  0  0  0  0  0  0  0  0  0  # atno 10718 bound_to 10713
  154.0432  135.6641  153.4792 H   0  0  0  0  0  0  0  0  0  0  0  0  # atno 10763 bound_to 10752
  153.0493  135.5094  154.7822 H   0  0  0  0  0  0  0  0  0  0  0  0  # atno 10764 bound_to 10752
  154.6805  135.3044  154.9586 H   0  0  0  0  0  0  0  0  0  0  0  0  # atno 10765 bound_to 10752
  140.0600  134.9210  157.1167 H   0  0  0  0  0  0  0  0  0  0  0  0  # atno 11005 bound_to 11000
  146.2162  140.5924  142.9037 LP  0  0  0  0  0  0  0  0  0  0  0  0  # atno 17320 bound_to 7965
  144.7724  140.5666  143.6661 LP  0  0  0  0  0  0  0  0  0  0  0  0  # atno 17321 bound_to 7965
  140.4404  144.1994  150.5891 LP  0  0  0  0  0  0  0  0  0  0  0  0  # atno 17342 bound_to 10162
  140.4688  143.2420  151.9117 LP  0  0  0  0  0  0  0  0  0  0  0  0  # atno 17343 bound_to 10162
  157.7424  131.0490  150.5025 LP  0  0  0  0  0  0  0  0  0  0  0  0  # atno 17370 bound_to 10713
  156.5187  130.4156  149.6262 LP  0  0  0  0  0  0  0  0  0  0  0  0  # atno 17371 bound_to 10713
  140.3785  134.2313  155.7172 LP  0  0  0  0  0  0  0  0  0  0  0  0  # atno 17394 bound_to 11000
  141.1969  133.8072  157.0652 LP  0  0  0  0  0  0  0  0  0  0  0  0  # atno 17395 bound_to 11000

$$$$
