AV-unprocessed.smi:809|AV-procd|sdf|3805|dock4
  -GOLD-   22720 1243D 1   1.00000     0.00000
 Structure written by MMmdl.
 40 41  0  0  0  0  0  0  0  0  2 V2000
  153.2555  141.0450  160.1960 C   0  0  0  0  0  0  0  0  0  0  0  0
  152.6038  142.0755  159.3284 C   0  0  0  0  0  0  0  0  0  0  0  0
  152.8405  143.4286  159.3322 C   0  0  0  0  0  0  0  0  0  0  0  0
  151.8658  144.2663  158.1542 S   0  0  0  0  0  0  0  0  0  0  0  0
  151.1631  142.7230  157.6964 C   0  0  0  0  0  0  0  0  0  0  0  0
  150.1842  142.6184  156.6739 N   0  0  0  0  0  0  0  0  0  0  0  0
  150.0436  141.6476  155.7548 C   0  0  0  0  0  0  0  0  0  0  0  0
  150.7464  140.6404  155.6698 O   0  0  0  0  0  0  0  0  0  0  0  0
  149.0266  141.9134  154.9229 N   0  0  0  0  0  0  0  0  0  0  0  0
  148.6229  141.0800  153.7929 C   0  0  0  0  0  0  0  0  0  0  0  0
  147.8465  139.8024  154.2079 C   0  0  1  0  0  0  0  0  0  0  0  0
  146.8905  140.1910  155.1782 O   0  0  0  0  0  0  0  0  0  0  0  0
  147.0661  139.2481  152.9951 C   0  0  0  0  0  0  0  0  0  0  0  0
  146.3512  137.9191  153.2997 C   0  0  0  0  0  0  0  0  0  0  0  0
  147.3064  136.9072  153.8110 N   0  3  2  0  0  0  0  0  0  0  0  0
  146.6791  135.5797  153.9872 C   0  0  0  0  0  0  0  0  0  0  0  0
  147.9970  137.3734  155.0376 C   0  0  0  0  0  0  0  0  0  0  0  0
  148.7546  138.6903  154.7858 C   0  0  0  0  0  0  0  0  0  0  0  0
  151.6448  141.6848  158.3894 N   0  0  0  0  0  0  0  0  0  0  0  0
  153.8458  141.5060  160.9882 H   0  0  0  0  0  0  0  0  0  0  0  0
  153.9228  140.4086  159.6145 H   0  0  0  0  0  0  0  0  0  0  0  0
  152.5141  140.4018  160.6704 H   0  0  0  0  0  0  0  0  0  0  0  0
  153.5286  143.9818  159.9540 H   0  0  0  0  0  0  0  0  0  0  0  0
  149.5212  143.3782  156.6308 H   0  0  0  0  0  0  0  0  0  0  0  0
  148.4984  142.7602  155.0743 H   0  0  0  0  0  0  0  0  0  0  0  0
  148.0644  141.6609  153.0562 H   0  0  0  0  0  0  0  0  0  0  0  0
  149.5498  140.7910  153.2968 H   0  0  0  0  0  0  0  0  0  0  0  0
  147.2636  140.8619  155.7284 H   0  0  0  0  0  0  0  0  0  0  0  0
  146.3423  139.9840  152.6410 H   0  0  0  0  0  0  0  0  0  0  0  0
  147.7563  139.0838  152.1663 H   0  0  0  0  0  0  0  0  0  0  0  0
  145.5525  138.0721  154.0274 H   0  0  0  0  0  0  0  0  0  0  0  0
  145.8793  137.5468  152.3897 H   0  0  0  0  0  0  0  0  0  0  0  0
  145.8938  135.6143  154.7434 H   0  0  0  0  0  0  0  0  0  0  0  0
  147.4196  134.8412  154.2958 H   0  0  0  0  0  0  0  0  0  0  0  0
  146.2379  135.2353  153.0514 H   0  0  0  0  0  0  0  0  0  0  0  0
  147.2700  137.5015  155.8413 H   0  0  0  0  0  0  0  0  0  0  0  0
  148.7016  136.6107  155.3711 H   0  0  0  0  0  0  0  0  0  0  0  0
  149.5730  138.4986  154.0903 H   0  0  0  0  0  0  0  0  0  0  0  0
  149.2174  139.0159  155.7182 H   0  0  0  0  0  0  0  0  0  0  0  0
  148.0177  136.7958  153.1024 H   0  0  0  0  0  0  0  0  0  0  0  0
  1  2  1  0  0  0  0
  1 20  1  0  0  0  0
  1 21  1  0  0  0  0
  1 22  1  0  0  0  0
  2 19  1  0  0  0  0
  2  3  2  0  0  0  0
  3  4  1  0  0  0  0
  3 23  1  0  0  0  0
  4  5  1  0  0  0  0
  5  6  1  0  0  0  0
  5 19  2  0  0  0  0
  6  7  1  0  0  0  0
  6 24  1  0  0  0  0
  7  8  2  0  0  0  0
  7  9  1  0  0  0  0
  9 10  1  0  0  0  0
  9 25  1  0  0  0  0
 10 11  1  0  0  0  0
 10 26  1  0  0  0  0
 10 27  1  0  0  0  0
 11 18  1  0  0  0  0
 11 12  1  0  0  0  0
 11 13  1  0  0  0  0
 12 28  1  0  0  0  0
 13 14  1  0  0  0  0
 13 29  1  0  0  0  0
 13 30  1  0  0  0  0
 14 15  1  0  0  0  0
 14 31  1  0  0  0  0
 14 32  1  0  0  0  0
 15 16  1  0  0  0  0
 15 17  1  0  0  0  0
 15 40  1  0  0  0  0
 16 33  1  0  0  0  0
 16 34  1  0  0  0  0
 16 35  1  0  0  0  0
 17 18  1  0  0  0  0
 17 36  1  0  0  0  0
 17 37  1  0  0  0  0
 18 38  1  0  0  0  0
 18 39  1  0  0  0  0
M  CHG  1  15   1
M  END
> <s_m_source_file>
AV-unprocessed.smi

> <i_m_source_file_index>
809

> <i_lp_mmshare_version>
43012

> <i_f3d_flags>
0

> <s_epik_input>
W0NIM11jMVtjSF1zYyhuMSlbTkhdQyg9TylbTkhdW0NIMl1DMihbT0hdKVtDSDJdW0NIMl1OKFtDSDNdKVtDSDJdW0NIMl0y

> <s_epik_cmdline>
J2VwaWtfcHl0aG9uJywgJy1waCcsICc3LjAnLCAnLXRuJywgJzgnLCAnLW1hJywgJzIwMCcsICctbWV0YWxfYmluZGluZycsICctaW1hZScsICc8aW5maWxlLm1hZT4nLCAnLW9tYWUnLCAnPG91dGZpbGUubWFlPic=

> <r_lp_tautomer_probability>
0.999

> <r_epik_Ionization_Penalty>
0.00116503

> <r_epik_Ionization_Penalty_Charging>
0.000767707

> <r_epik_Ionization_Penalty_Neutral>
0.00039732

> <r_epik_State_Penalty>
0.000177984

> <r_epik_Charging_Adjusted_Penalty>
0.00094569

> <i_epik_Tot_Q>
1

> <i_epik_Tot_abs_Q>
1

> <r_epik_Metal_State_Penalty>
0.00775393

> <b_epik_Metal_Only>
0

> <s_lp_Force_Field>
OPLS_2005

> <r_lp_Energy>
16.8218

> <b_lp_Chiralities_Consistent>
1

> <s_lp_Variant>
AV-unprocessed.smi:809-1

> <Gold.Version>
5.8.1

> <Gold.Id.Protein>
6NUR|6NUR_protein|mol2

> <Gold.PLP.Fitness>
46.0815

> <Gold.PLP.PLP>
-34.1852

> <Gold.PLP.part.hbond>
-3.9909

> <Gold.PLP.part.metal>
0.0000

> <Gold.PLP.part.buried>
-1.0318

> <Gold.PLP.part.nonpolar>
-28.3251

> <Gold.PLP.part.repulsive>
0.3403

> <Gold.PLP.ligand.clash>
0.0000

> <Gold.PLP.ligand.torsion>
0.5809

> <Gold.PLP.Chemscore.Hbond>
4.3512

> <Gold.PLP.Chemscore.CHOScore>
0.0000

> <Gold.PLP.Chemscore.Metal>
0.0000

> <Gold.Chemscore.Hbonds>
donor molecule, donor type, donor heavy atom, donor atom, acceptor molecule, acceptor atom, score
      L1  H     6    24       P1  8028  0.93
      L1  H     9    25       P1  8028  0.70
      L1  H    15    40       P1  7948  2.00
      P1  H  7989  7998       L1     8  0.17

> <Gold.PLP.Chemscore.Internal.Correction>
0.0045

> <Gold.Rescore>
     Score         DG    S(hbond)    S(metal)    S(lipo)     H(rot)  DE(clash)    DE(int)     intcor
     17.63     -20.50       3.13        0.00      79.47       1.85       0.17       2.70       ----

> <Gold.Chemscore.Fitness>
17.6282

> <Gold.Chemscore.DG>
-20.4960

> <Gold.Chemscore.ZeroCoef>
-5.4800

> <Gold.Chemscore.Hbond>
3.1279

> <Gold.Chemscore.Metal>
0.0000

> <Gold.Chemscore.Lipo>
79.4663

> <Gold.Chemscore.Internal_Hbond>
0.0000

> <Gold.Chemscore.DEClash>
0.1726

> <Gold.Chemscore.DEInternal>
2.6952

> <Gold.Chemscore.Rot>
1.8471

> <Gold.Chemscore.Internal.Correction>
   9.000000E+99

> <Gold.Chemscore.Hbonds>
donor molecule, donor type, donor heavy atom, donor atom, acceptor molecule, acceptor atom, score
      L1  H     6    24       P1  8028  0.89
      L1  H     9    25       P1  8028  0.67
      L1  H    15    40       P1  7948  1.00
      P1  H  7989  7998       L1     8  0.05

> <Gold.Chemscore.Hbond.Weighted>
-10.4470

> <Gold.Chemscore.Metal.Weighted>
-0.0000

> <Gold.Chemscore.Lipo.Weighted>
-9.2976

> <Gold.Chemscore.Internal_Hbond.Weighted>
0.0000

> <Gold.Chemscore.DEClash.Weighted>
0.1726

> <Gold.Chemscore.DEInternal.Weighted>
2.6952

> <Gold.Chemscore.Rot.Weighted>
4.7286

> <Gold.Chemscore.Internal.Correction.Weighted>
   9.000000E+99

> <Gold.Protein.RotatedTorsions>
[ 6907 6896 6895 6894 ] final  131.12 input  -60.11 | X-H torsion
[ 7974 7965 7964 7962 ] final   83.64 input  175.53 | X-H torsion
[ 8008 7997 7996 7995 ] final   31.22 input   59.86 | X-H torsion
[ 10167 10162 10161 10158 ] final   60.87 input  -65.29 | X-H torsion
[ 10718 10713 10712 10709 ] final   98.37 input   66.30 | X-H torsion
[ 10763 10752 10751 10750 ] final   94.12 input  -60.55 | X-H torsion
[ 11005 11000 10999 10996 ] final   -9.71 input  -57.11 | X-H torsion

> <Gold.Protein.ActiveResidues>
 VAL166  LYS551  ARG553  GLY616  TRP617  ASP618  TYR619  PRO620  LYS621  CYS622 
 ASP623  PHE694  ASN695  SER759  ASP760  ASP761  ALA762  ILE779  LEU786  VAL792 
 PHE793  MET794  SER795  GLU796  ALA797  LYS798  CYS799  TRP800  GLU811  SER814 

> <Gold.Protein.RotatedAtoms>
  152.3458  133.6120  159.5908 H   0  0  0  0  0  0  0  0  0  0  0  0  # atno 6907 bound_to 6896
  150.7506  133.9652  159.3537 H   0  0  0  0  0  0  0  0  0  0  0  0  # atno 6908 bound_to 6896
  151.7510  135.0833  160.0382 H   0  0  0  0  0  0  0  0  0  0  0  0  # atno 6909 bound_to 6896
  145.6092  139.2365  143.2201 H   0  0  0  0  0  0  0  0  0  0  0  0  # atno 7974 bound_to 7965
  155.1029  140.3231  155.4542 H   0  0  0  0  0  0  0  0  0  0  0  0  # atno 8008 bound_to 7997
  156.2712  140.2058  156.6102 H   0  0  0  0  0  0  0  0  0  0  0  0  # atno 8009 bound_to 7997
  154.6815  140.0526  157.0258 H   0  0  0  0  0  0  0  0  0  0  0  0  # atno 8010 bound_to 7997
  140.1609  144.4371  150.6710 H   0  0  0  0  0  0  0  0  0  0  0  0  # atno 10167 bound_to 10162
  157.6897  131.0638  150.4786 H   0  0  0  0  0  0  0  0  0  0  0  0  # atno 10718 bound_to 10713
  153.2380  135.4301  155.0667 H   0  0  0  0  0  0  0  0  0  0  0  0  # atno 10763 bound_to 10752
  154.8327  135.3395  154.6691 H   0  0  0  0  0  0  0  0  0  0  0  0  # atno 10764 bound_to 10752
  153.7115  135.7022  153.5092 H   0  0  0  0  0  0  0  0  0  0  0  0  # atno 10765 bound_to 10752
  140.7370  133.8701  155.8938 H   0  0  0  0  0  0  0  0  0  0  0  0  # atno 11005 bound_to 11000
  146.1517  140.6916  142.9319 LP  0  0  0  0  0  0  0  0  0  0  0  0  # atno 17320 bound_to 7965
  144.7277  140.4575  143.6961 LP  0  0  0  0  0  0  0  0  0  0  0  0  # atno 17321 bound_to 7965
  140.6643  143.2262  151.5780 LP  0  0  0  0  0  0  0  0  0  0  0  0  # atno 17342 bound_to 10162
  139.5381  144.2723  152.1295 LP  0  0  0  0  0  0  0  0  0  0  0  0  # atno 17343 bound_to 10162
  156.5119  130.4141  149.6296 LP  0  0  0  0  0  0  0  0  0  0  0  0  # atno 17370 bound_to 10713
  156.3233  130.7292  151.2208 LP  0  0  0  0  0  0  0  0  0  0  0  0  # atno 17371 bound_to 10713
  140.9870  134.1329  157.4443 LP  0  0  0  0  0  0  0  0  0  0  0  0  # atno 17394 bound_to 11000
  139.8814  135.0029  156.6152 LP  0  0  0  0  0  0  0  0  0  0  0  0  # atno 17395 bound_to 11000

$$$$
