#       Name:                AV-unprocessed.smi:259
#       Creating user name   scv26
#       Creation time:       Thu Mar 26 21:14:09 2020


#       File generated by GOLD software.
#

@<TRIPOS>MOLECULE
AV-unprocessed.smi:259
    66    69     1
SMALL
NO_CHARGES


@<TRIPOS>ATOM
      1 ****        -7.1235   2.7418   2.5378 C.3            1 S1                 0.0000
      2 ****        -5.6907   2.4996   2.4672 N.am           1 S1                 0.0000
      3 ****        -5.0772   1.8977   1.4380 C.2            1 S1                 0.0000
      4 ****        -5.6808   1.4921   0.4444 O.2            1 S1                 0.0000
      5 ****        -3.5507   1.7447   1.5475 C.3            1 S1                 0.0000
      6 ****        -2.9663   0.3699   1.1188 C.3            1 S1                 0.0000
      7 ****        -3.1409   0.2401  -0.2824 O.3            1 S1                 0.0000
      8 ****        -3.6405  -0.8166   1.8551 C.3            1 S1                 0.0000
      9 ****        -2.9255  -2.1501   1.5878 C.3            1 S1                 0.0000
     10 ****        -1.4286  -2.0458   1.9042 C.3            1 S1                 0.0000
     11 ****        -0.8311  -0.9398   1.1597 N.3            1 S1                 0.0000
     12 ****         0.5169  -0.9275   1.0048 C.ar           1 S1                 0.0000
     13 ****         1.3066  -1.5985   1.8859 N.ar           1 S1                 0.0000
     14 ****         2.6358  -1.5800   1.7511 C.ar           1 S1                 0.0000
     15 ****         3.3722  -0.9667   0.8226 N.ar           1 S1                 0.0000
     16 ****         2.5864  -0.2998  -0.0704 C.ar           1 S1                 0.0000
     17 ****         1.1647  -0.2301  -0.0542 C.ar           1 S1                 0.0000
     18 ****         0.7181   0.5287  -1.1296 N.2            1 S1                 0.0000
     19 ****         1.8118   0.8968  -1.7382 C.2            1 S1                 0.0000
     20 ****         2.9806   0.4376  -1.1742 N.pl3          1 S1                 0.0000
     21 ****         4.3346   0.6952  -1.6406 C.3            1 S1                 0.0000
     22 ****         4.7757  -0.2068  -2.8083 C.3            1 S1                 0.0000
     23 ****         4.7228  -1.6763  -2.3434 C.3            1 S1                 0.0000
     24 ****         5.2110  -2.5721  -3.3223 O.3            1 S1                 0.0000
     25 ****         4.1388   0.0914  -4.1734 C.3            1 S1                 0.0000
     26 ****         5.4270   0.2417  -4.8097 O.3            1 S1                 0.0000
     27 ****         6.0651   0.2382  -3.5135 C.3            1 S1                 0.0000
     28 ****        -1.4399   0.3742   1.3740 C.3            1 S1                 0.0000
     29 ****        -7.3704   3.2408   3.4748 H              1 S1                 0.0000
     30 ****        -7.6788   1.8040   2.4940 H              1 S1                 0.0000
     31 ****        -7.4501   3.3794   1.7153 H              1 S1                 0.0000
     32 ****        -5.1300   2.8115   3.2471 H              1 S1                 0.0000
     33 ****        -3.0928   2.5415   0.9597 H              1 S1                 0.0000
     34 ****        -3.2629   1.9389   2.5821 H              1 S1                 0.0000
     35 ****        -4.0662   0.2795  -0.4734 H              1 S1                 0.0000
     36 ****        -3.6300  -0.6242   2.9287 H              1 S1                 0.0000
     37 ****        -4.6894  -0.9090   1.5720 H              1 S1                 0.0000
     38 ****        -3.3779  -2.9428   2.1838 H              1 S1                 0.0000
     39 ****        -3.0584  -2.4351   0.5434 H              1 S1                 0.0000
     40 ****        -1.2790  -1.8865   2.9731 H              1 S1                 0.0000
     41 ****        -0.9393  -2.9855   1.6440 H              1 S1                 0.0000
     42 ****         3.1884  -2.1359   2.4942 H              1 S1                 0.0000
     43 ****         1.7925   1.5172  -2.6221 H              1 S1                 0.0000
     44 ****         4.3873   1.7458  -1.9288 H              1 S1                 0.0000
     45 ****         5.0175   0.5887  -0.7970 H              1 S1                 0.0000
     46 ****         5.3092  -1.8165  -1.4349 H              1 S1                 0.0000
     47 ****         3.7017  -1.9798  -2.1119 H              1 S1                 0.0000
     48 ****         5.1537  -3.4516  -2.9807 H              1 S1                 0.0000
     49 ****         3.5599  -0.7350  -4.5874 H              1 S1                 0.0000
     50 ****         3.5672   1.0193  -4.2066 H              1 S1                 0.0000
     51 ****         6.4040   1.2357  -3.2296 H              1 S1                 0.0000
     52 ****         6.8851  -0.4779  -3.4504 H              1 S1                 0.0000
     53 ****        -0.9677   1.1426   0.7628 H              1 S1                 0.0000
     54 ****        -1.2463   0.6536   2.4106 H              1 S1                 0.0000
     55 ****        -6.6723   1.6059   0.3806 LP             1 S1                 0.0000
     56 ****        -5.1796   1.0489  -0.2988 LP             1 S1                 0.0000
     57 ****        -2.7699  -0.6364  -0.5891 LP             1 S1                 0.0000
     58 ****        -2.6672   0.9852  -0.7521 LP             1 S1                 0.0000
     59 ****        -1.1184  -1.1947   0.2364 LP             1 S1                 0.0000
     60 ****         0.8901  -2.1084   2.6386 LP             1 S1                 0.0000
     61 ****         4.3712  -0.9927   0.7863 LP             1 S1                 0.0000
     62 ****        -0.2260   0.7435  -1.3798 LP             1 S1                 0.0000
     63 ****         6.1638  -2.3539  -3.5336 LP             1 S1                 0.0000
     64 ****         4.6597  -2.4966  -4.1532 LP             1 S1                 0.0000
     65 ****         5.5353   1.0972  -5.3161 LP             1 S1                 0.0000
     66 ****         5.6859  -0.5269  -5.3947 LP             1 S1                 0.0000
@<TRIPOS>BOND
    1    1    2 1     
    2    1   29 1     
    3    1   30 1     
    4    1   31 1     
    5    2    3 am    
    6    2   32 1     
    7    3    4 2     
    8    3    5 1     
    9    5    6 1     
   10    5   33 1     
   11    5   34 1     
   12    6   28 1     
   13    6    7 1     
   14    6    8 1     
   15    7   35 1     
   16    8    9 1     
   17    8   36 1     
   18    8   37 1     
   19    9   10 1     
   20    9   38 1     
   21    9   39 1     
   22   10   11 1     
   23   10   40 1     
   24   10   41 1     
   25   11   12 1     
   26   11   28 1     
   27   12   17 ar    
   28   12   13 ar    
   29   13   14 ar    
   30   14   15 ar    
   31   14   42 1     
   32   15   16 ar    
   33   16   20 1     
   34   16   17 ar    
   35   17   18 1     
   36   18   19 2     
   37   19   20 1     
   38   19   43 1     
   39   20   21 1     
   40   21   22 1     
   41   21   44 1     
   42   21   45 1     
   43   22   27 1     
   44   22   23 1     
   45   22   25 1     
   46   23   24 1     
   47   23   46 1     
   48   23   47 1     
   49   24   48 1     
   50   25   26 1     
   51   25   49 1     
   52   25   50 1     
   53   26   27 1     
   54   27   51 1     
   55   27   52 1     
   56   28   53 1     
   57   28   54 1     
   58    4   55 1     
   59    4   56 1     
   60    7   57 1     
   61    7   58 1     
   62   11   59 1     
   63   13   60 1     
   64   15   61 1     
   65   18   62 1     
   66   24   63 1     
   67   24   64 1     
   68   26   65 1     
   69   26   66 1     
@<TRIPOS>SUBSTRUCTURE
      1 S1             1
@<TRIPOS>SET
LONE_PAIRS      STATIC     ATOMS    <user>   **** ""
12 55 56 57 58 59 60 61 62 63 64 65 66
DONOR_HYDROGENS      STATIC     ATOMS    <user>   **** ""
3 32 35 48
ATOM$BLUE        STATIC     ATOMS    COLORGROUP SYSTEM
12 55 56 57 58 59 60 61 62 63 64 65 66
ATOM$RED        STATIC     ATOMS    COLORGROUP SYSTEM
3 32 35 48
