AV-unprocessed.smi:107|AV-procd|sdf|1020|dock3
  -GOLD-   2262018 23D 1   1.00000     0.00000
 Structure written by MMmdl.
 31 32  0  0  0  0  0  0  0  0  1 V2000
  149.0990  141.6392  154.6834 C   0  0  0  0  0  0  0  0  0  0  0  0
  150.1838  141.2801  155.6856 C   0  0  0  0  0  0  0  0  0  0  0  0
  150.4408  142.0375  156.7830 C   0  0  0  0  0  0  0  0  0  0  0  0
  151.4290  141.7365  157.7141 N   0  0  0  0  0  0  0  0  0  0  0  0
  151.6935  142.5909  158.9405 C   0  0  1  0  0  0  0  0  0  0  0  0
  152.3298  143.9381  158.5459 C   0  0  0  0  0  0  0  0  0  0  0  0
  151.3925  144.9636  159.1611 C   0  0  2  0  0  0  0  0  0  0  0  0
  151.8572  145.3627  160.4377 O   0  0  0  0  0  0  0  0  0  0  0  0
  150.0664  144.2007  159.2452 C   0  0  2  0  0  0  0  0  0  0  0  0
  149.0490  144.7423  160.2636 C   0  0  0  0  0  0  0  0  0  0  0  0
  147.9751  143.8363  160.4000 O   0  0  0  0  0  0  0  0  0  0  0  0
  150.4914  142.8864  159.5889 O   0  0  0  0  0  0  0  0  0  0  0  0
  152.2010  140.5686  157.5418 C   0  0  0  0  0  0  0  0  0  0  0  0
  153.0755  140.2263  158.3369 O   0  0  0  0  0  0  0  0  0  0  0  0
  151.9398  139.7932  156.4143 N   0  0  0  0  0  0  0  0  0  0  0  0
  150.9713  140.0676  155.4465 C   0  0  0  0  0  0  0  0  0  0  0  0
  150.8361  139.3067  154.4897 O   0  0  0  0  0  0  0  0  0  0  0  0
  152.4961  138.9604  156.2871 H   0  0  0  0  0  0  0  0  0  0  0  0
  148.5536  142.5354  154.9803 H   0  0  0  0  0  0  0  0  0  0  0  0
  148.3785  140.8257  154.5920 H   0  0  0  0  0  0  0  0  0  0  0  0
  149.5354  141.8228  153.7011 H   0  0  0  0  0  0  0  0  0  0  0  0
  149.8311  142.9168  156.9232 H   0  0  0  0  0  0  0  0  0  0  0  0
  152.3159  141.9779  159.5951 H   0  0  0  0  0  0  0  0  0  0  0  0
  153.3566  144.0081  158.9071 H   0  0  0  0  0  0  0  0  0  0  0  0
  152.3373  144.0442  157.4600 H   0  0  0  0  0  0  0  0  0  0  0  0
  151.3044  145.8534  158.5369 H   0  0  0  0  0  0  0  0  0  0  0  0
  151.7808  144.6302  161.0297 H   0  0  0  0  0  0  0  0  0  0  0  0
  149.6241  144.1854  158.2473 H   0  0  0  0  0  0  0  0  0  0  0  0
  149.5138  144.9268  161.2326 H   0  0  0  0  0  0  0  0  0  0  0  0
  148.6348  145.6884  159.9138 H   0  0  0  0  0  0  0  0  0  0  0  0
  147.1660  144.3067  160.2685 H   0  0  0  0  0  0  0  0  0  0  0  0
  1  2  1  0  0  0  0
  1 19  1  0  0  0  0
  1 20  1  0  0  0  0
  1 21  1  0  0  0  0
  2 16  1  0  0  0  0
  2  3  2  0  0  0  0
  3  4  1  0  0  0  0
  3 22  1  0  0  0  0
  4  5  1  0  0  0  0
  4 13  1  0  0  0  0
  5 12  1  0  0  0  0
  5  6  1  0  0  0  0
  5 23  1  0  0  0  0
  6  7  1  0  0  0  0
  6 24  1  0  0  0  0
  6 25  1  0  0  0  0
  7  8  1  0  0  0  0
  7  9  1  0  0  0  0
  7 26  1  0  0  0  0
  8 27  1  0  0  0  0
  9 10  1  0  0  0  0
  9 12  1  0  0  0  0
  9 28  1  0  0  0  0
 10 11  1  0  0  0  0
 10 29  1  0  0  0  0
 10 30  1  0  0  0  0
 11 31  1  0  0  0  0
 13 14  2  0  0  0  0
 13 15  1  0  0  0  0
 15 18  1  0  0  0  0
 15 16  1  0  0  0  0
 16 17  2  0  0  0  0
M  END
> <s_m_source_file>
AV-unprocessed.smi

> <i_m_source_file_index>
107

> <i_lp_mmshare_version>
43012

> <i_f3d_flags>
0

> <s_epik_input>
Tz1jMVtuSF1jKD1PKW4oW2NIXWMxW0NIM10pW0NAQEhdMltDSDJdW0NAQEhdKFtPSF0pW0NASF0oTzIpW0NIMl1bT0hd

> <s_epik_cmdline>
J2VwaWtfcHl0aG9uJywgJy1waCcsICc3LjAnLCAnLXRuJywgJzgnLCAnLW1hJywgJzIwMCcsICctbWV0YWxfYmluZGluZycsICctaW1hZScsICc8aW5maWxlLm1hZT4nLCAnLW9tYWUnLCAnPG91dGZpbGUubWFlPic=

> <r_lp_tautomer_probability>
0.999537

> <r_epik_Ionization_Penalty>
0.00121888

> <r_epik_Ionization_Penalty_Charging>
0.00121876

> <r_epik_Ionization_Penalty_Neutral>
1.19946e-07

> <r_epik_State_Penalty>
0.000805124

> <r_epik_Charging_Adjusted_Penalty>
0.00202389

> <i_epik_Tot_Q>
0

> <i_epik_Tot_abs_Q>
0

> <r_epik_Metal_State_Penalty>
0.662472

> <b_epik_Metal_Only>
0

> <s_epik_Chemistry_Notes>
This compound contains an acetal/aminal-like group ( X-CH(R)-Y where X, Y are N, S, or O) that may be acid/base labile, releasing an aldehyde.

> <s_lp_Force_Field>
OPLS_2005

> <r_lp_Energy>
28.0991

> <b_lp_Chiralities_Consistent>
1

> <s_lp_Variant>
AV-unprocessed.smi:107-8

> <Gold.Version>
5.8.1

> <Gold.Id.Protein>
6NUR|6NUR_protein|mol2

> <Gold.PLP.Fitness>
43.8348

> <Gold.PLP.PLP>
-35.0258

> <Gold.PLP.part.hbond>
-3.9957

> <Gold.PLP.part.metal>
0.0000

> <Gold.PLP.part.buried>
-3.9074

> <Gold.PLP.part.nonpolar>
-26.5779

> <Gold.PLP.part.repulsive>
0.3063

> <Gold.PLP.ligand.clash>
0.0000

> <Gold.PLP.ligand.torsion>
0.2400

> <Gold.PLP.Chemscore.Hbond>
2.0927

> <Gold.PLP.Chemscore.CHOScore>
1.0000

> <Gold.PLP.Chemscore.Metal>
0.0000

> <Gold.Chemscore.Hbonds>
donor molecule, donor type, donor heavy atom, donor atom, acceptor molecule, acceptor atom, score
      P1  H  6933  6944       L1    11  1.00
      P1  H  7989  7998       L1    17  0.15
      P1  H  7997  8008       L1    14  0.94
      L1  C     3    22       P1  8028  1.00

> <Gold.PLP.Chemscore.Internal.Correction>
0.0111

> <Gold.Rescore>
     Score         DG    S(hbond)    S(metal)    S(lipo)     H(rot)  DE(clash)    DE(int)     intcor
     11.10     -11.50       1.92        0.00      56.36       2.73       0.21       0.20       ----

> <Gold.Chemscore.Fitness>
11.0969

> <Gold.Chemscore.DG>
-11.5005

> <Gold.Chemscore.ZeroCoef>
-5.4800

> <Gold.Chemscore.Hbond>
1.9171

> <Gold.Chemscore.Metal>
0.0000

> <Gold.Chemscore.Lipo>
56.3611

> <Gold.Chemscore.Internal_Hbond>
0.0000

> <Gold.Chemscore.DEClash>
0.2052

> <Gold.Chemscore.DEInternal>
0.1985

> <Gold.Chemscore.Rot>
2.7253

> <Gold.Chemscore.Internal.Correction>
   9.000000E+99

> <Gold.Chemscore.Hbonds>
donor molecule, donor type, donor heavy atom, donor atom, acceptor molecule, acceptor atom, score
      P1  H  6933  6944       L1    11  0.74
      P1  H  7997  8008       L1    14  0.22

> <Gold.Chemscore.Hbond.Weighted>
-6.4031

> <Gold.Chemscore.Metal.Weighted>
-0.0000

> <Gold.Chemscore.Lipo.Weighted>
-6.5942

> <Gold.Chemscore.Internal_Hbond.Weighted>
0.0000

> <Gold.Chemscore.DEClash.Weighted>
0.2052

> <Gold.Chemscore.DEInternal.Weighted>
0.1985

> <Gold.Chemscore.Rot.Weighted>
6.9769

> <Gold.Chemscore.Internal.Correction.Weighted>
   9.000000E+99

> <Gold.Protein.RotatedTorsions>
[ 6907 6896 6895 6894 ] final  133.29 input  -60.11 | X-H torsion
[ 7974 7965 7964 7962 ] final  -74.98 input  175.53 | X-H torsion
[ 8008 7997 7996 7995 ] final  -90.11 input   59.86 | X-H torsion
[ 10167 10162 10161 10158 ] final   26.28 input  -65.29 | X-H torsion
[ 10718 10713 10712 10709 ] final -145.35 input   66.30 | X-H torsion
[ 10763 10752 10751 10750 ] final -137.55 input  -60.55 | X-H torsion
[ 11005 11000 10999 10996 ] final  114.30 input  -57.11 | X-H torsion

> <Gold.Protein.ActiveResidues>
 VAL166  LYS551  ARG553  GLY616  TRP617  ASP618  TYR619  PRO620  LYS621  CYS622 
 ASP623  PHE694  ASN695  SER759  ASP760  ASP761  ALA762  ILE779  LEU786  VAL792 
 PHE793  MET794  SER795  GLU796  ALA797  LYS798  CYS799  TRP800  GLU811  SER814 

> <Gold.Protein.RotatedAtoms>
  152.3235  133.5880  159.5760 H   0  0  0  0  0  0  0  0  0  0  0  0  # atno 6907 bound_to 6896
  150.7384  133.9975  159.3636 H   0  0  0  0  0  0  0  0  0  0  0  0  # atno 6908 bound_to 6896
  151.7857  135.0750  160.0431 H   0  0  0  0  0  0  0  0  0  0  0  0  # atno 6909 bound_to 6896
  145.6320  140.9335  143.1081 H   0  0  0  0  0  0  0  0  0  0  0  0  # atno 7974 bound_to 7965
  154.6946  140.0534  157.0397 H   0  0  0  0  0  0  0  0  0  0  0  0  # atno 8008 bound_to 7997
  155.0769  140.3205  155.4594 H   0  0  0  0  0  0  0  0  0  0  0  0  # atno 8009 bound_to 7997
  156.2740  140.2072  156.5897 H   0  0  0  0  0  0  0  0  0  0  0  0  # atno 8010 bound_to 7997
  140.5036  144.0276  150.6342 H   0  0  0  0  0  0  0  0  0  0  0  0  # atno 10167 bound_to 10162
  156.3814  130.7839  151.2031 H   0  0  0  0  0  0  0  0  0  0  0  0  # atno 10718 bound_to 10713
  154.8659  135.3638  154.5242 H   0  0  0  0  0  0  0  0  0  0  0  0  # atno 10763 bound_to 10752
  153.5871  135.7016  153.5444 H   0  0  0  0  0  0  0  0  0  0  0  0  # atno 10764 bound_to 10752
  153.3406  135.4099  155.1531 H   0  0  0  0  0  0  0  0  0  0  0  0  # atno 10765 bound_to 10752
  139.8976  134.9565  156.6871 H   0  0  0  0  0  0  0  0  0  0  0  0  # atno 11005 bound_to 11000
  144.7190  139.8096  143.7389 LP  0  0  0  0  0  0  0  0  0  0  0  0  # atno 17320 bound_to 7965
  146.1349  139.4392  143.0145 LP  0  0  0  0  0  0  0  0  0  0  0  0  # atno 17321 bound_to 7965
  140.3578  143.2925  152.0416 LP  0  0  0  0  0  0  0  0  0  0  0  0  # atno 17342 bound_to 10162
  139.4878  144.6325  151.7041 LP  0  0  0  0  0  0  0  0  0  0  0  0  # atno 17343 bound_to 10162
  157.7492  131.0343  150.4310 LP  0  0  0  0  0  0  0  0  0  0  0  0  # atno 17370 bound_to 10713
  156.4555  130.4020  149.6609 LP  0  0  0  0  0  0  0  0  0  0  0  0  # atno 17371 bound_to 10713
  140.7254  133.9104  155.8175 LP  0  0  0  0  0  0  0  0  0  0  0  0  # atno 17394 bound_to 11000
  141.0195  134.0909  157.4136 LP  0  0  0  0  0  0  0  0  0  0  0  0  # atno 17395 bound_to 11000

$$$$
