AV-unprocessed.smi:494|AV-procd|sdf|2713|dock6
  -GOLD-   2262023153D 1   1.00000     0.00000
 Structure written by MMmdl.
 49 50  0  0  0  0  0  0  0  0  2 V2000
  147.9616  132.6475  153.3920 C   0  0  0  0  0  0  0  0  0  0  0  0
  148.9455  132.5760  154.5244 C   0  0  0  0  0  0  0  0  0  0  0  0
  149.3667  131.3946  154.9429 N   0  0  0  0  0  0  0  0  0  0  0  0
  150.2582  131.6532  155.9884 O   0  0  0  0  0  0  0  0  0  0  0  0
  150.3421  132.9968  156.1587 C   0  0  0  0  0  0  0  0  0  0  0  0
  151.2478  133.4801  157.2410 C   0  0  0  0  0  0  0  0  0  0  0  0
  149.5339  133.6429  155.2635 C   0  0  0  0  0  0  0  0  0  0  0  0
  149.3119  135.1245  155.0947 C   0  0  0  0  0  0  0  0  0  0  0  0
  147.8155  135.4365  155.1308 C   0  0  0  0  0  0  0  0  0  0  0  0
  147.1890  135.3293  156.1838 O   0  0  0  0  0  0  0  0  0  0  0  0
  147.2547  135.8101  153.9700 N   0  0  0  0  0  0  0  0  0  0  0  0
  145.8562  136.1860  153.7666 C   0  0  0  0  0  0  0  0  0  0  0  0
  145.4314  136.2060  152.2627 C   0  0  0  0  0  0  0  0  0  0  0  0
  146.2561  137.2568  151.5543 N   0  3  0  0  0  0  0  0  0  0  0  0
  146.3281  138.5931  152.1988 C   0  0  0  0  0  0  0  0  0  0  0  0
  145.9841  137.4069  150.1003 C   0  0  0  0  0  0  0  0  0  0  0  0
  145.6598  134.8008  151.6264 C   0  0  0  0  0  0  0  0  0  0  0  0
  144.7438  133.6972  152.1925 C   0  0  0  0  0  0  0  0  0  0  0  0
  143.2606  134.0801  152.1027 C   0  0  0  0  0  0  0  0  0  0  0  0
  142.9946  135.4367  152.7678 C   0  0  0  0  0  0  0  0  0  0  0  0
  143.9014  136.5247  152.1654 C   0  0  0  0  0  0  0  0  0  0  0  0
  148.4672  132.5563  152.4306 H   0  0  0  0  0  0  0  0  0  0  0  0
  147.4216  133.5942  153.3945 H   0  0  0  0  0  0  0  0  0  0  0  0
  147.2216  131.8493  153.4576 H   0  0  0  0  0  0  0  0  0  0  0  0
  150.6738  133.7854  158.1158 H   0  0  0  0  0  0  0  0  0  0  0  0
  151.8321  134.3363  156.9037 H   0  0  0  0  0  0  0  0  0  0  0  0
  151.9438  132.6995  157.5489 H   0  0  0  0  0  0  0  0  0  0  0  0
  149.8089  135.6952  155.8800 H   0  0  0  0  0  0  0  0  0  0  0  0
  149.7305  135.4816  154.1530 H   0  0  0  0  0  0  0  0  0  0  0  0
  147.8577  135.8714  153.1623 H   0  0  0  0  0  0  0  0  0  0  0  0
  145.2045  135.5434  154.3582 H   0  0  0  0  0  0  0  0  0  0  0  0
  145.7384  137.1667  154.2225 H   0  0  0  0  0  0  0  0  0  0  0  0
  145.3347  139.0157  152.3525 H   0  0  0  0  0  0  0  0  0  0  0  0
  146.8924  139.2909  151.5793 H   0  0  0  0  0  0  0  0  0  0  0  0
  146.8492  138.5515  153.1551 H   0  0  0  0  0  0  0  0  0  0  0  0
  145.0398  137.9229  149.9232 H   0  0  0  0  0  0  0  0  0  0  0  0
  145.9549  136.4540  149.5753 H   0  0  0  0  0  0  0  0  0  0  0  0
  146.7722  137.9971  149.6320 H   0  0  0  0  0  0  0  0  0  0  0  0
  145.4988  134.8574  150.5492 H   0  0  0  0  0  0  0  0  0  0  0  0
  146.6925  134.4782  151.7606 H   0  0  0  0  0  0  0  0  0  0  0  0
  144.9127  132.7686  151.6465 H   0  0  0  0  0  0  0  0  0  0  0  0
  145.0059  133.4821  153.2283 H   0  0  0  0  0  0  0  0  0  0  0  0
  142.9598  134.1230  151.0551 H   0  0  0  0  0  0  0  0  0  0  0  0
  142.6463  133.3086  152.5682 H   0  0  0  0  0  0  0  0  0  0  0  0
  141.9496  135.7122  152.6222 H   0  0  0  0  0  0  0  0  0  0  0  0
  143.1337  135.3642  153.8460 H   0  0  0  0  0  0  0  0  0  0  0  0
  143.6729  137.4878  152.6229 H   0  0  0  0  0  0  0  0  0  0  0  0
  143.5938  136.6081  151.1234 H   0  0  0  0  0  0  0  0  0  0  0  0
  147.2013  136.9037  151.6036 H   0  0  0  0  0  0  0  0  0  0  0  0
  1  2  1  0  0  0  0
  1 22  1  0  0  0  0
  1 23  1  0  0  0  0
  1 24  1  0  0  0  0
  2  7  1  0  0  0  0
  2  3  2  0  0  0  0
  3  4  1  0  0  0  0
  4  5  1  0  0  0  0
  5  6  1  0  0  0  0
  5  7  2  0  0  0  0
  6 25  1  0  0  0  0
  6 26  1  0  0  0  0
  6 27  1  0  0  0  0
  7  8  1  0  0  0  0
  8  9  1  0  0  0  0
  8 28  1  0  0  0  0
  8 29  1  0  0  0  0
  9 10  2  0  0  0  0
  9 11  1  0  0  0  0
 11 12  1  0  0  0  0
 11 30  1  0  0  0  0
 12 13  1  0  0  0  0
 12 31  1  0  0  0  0
 12 32  1  0  0  0  0
 13 21  1  0  0  0  0
 13 14  1  0  0  0  0
 13 17  1  0  0  0  0
 14 15  1  0  0  0  0
 14 16  1  0  0  0  0
 14 49  1  0  0  0  0
 15 33  1  0  0  0  0
 15 34  1  0  0  0  0
 15 35  1  0  0  0  0
 16 36  1  0  0  0  0
 16 37  1  0  0  0  0
 16 38  1  0  0  0  0
 17 18  1  0  0  0  0
 17 39  1  0  0  0  0
 17 40  1  0  0  0  0
 18 19  1  0  0  0  0
 18 41  1  0  0  0  0
 18 42  1  0  0  0  0
 19 20  1  0  0  0  0
 19 43  1  0  0  0  0
 19 44  1  0  0  0  0
 20 21  1  0  0  0  0
 20 45  1  0  0  0  0
 20 46  1  0  0  0  0
 21 47  1  0  0  0  0
 21 48  1  0  0  0  0
M  CHG  1  14   1
M  END
> <s_m_source_file>
AV-unprocessed.smi

> <i_m_source_file_index>
494

> <i_lp_mmshare_version>
43012

> <i_f3d_flags>
0

> <s_epik_input>
W0NIM11jMW5vYyhbQ0gzXSljMVtDSDJdQyg9TylbTkhdW0NIMl1DMihOKFtDSDNdKVtDSDNdKVtDSDJdW0NIMl1bQ0gyXVtDSDJdW0NIMl0y

> <s_epik_cmdline>
J2VwaWtfcHl0aG9uJywgJy1waCcsICc3LjAnLCAnLXRuJywgJzgnLCAnLW1hJywgJzIwMCcsICctbWV0YWxfYmluZGluZycsICctaW1hZScsICc8aW5maWxlLm1hZT4nLCAnLW9tYWUnLCAnPG91dGZpbGUubWFlPic=

> <r_epik_Ionization_Penalty>
0.00230711

> <r_epik_Ionization_Penalty_Charging>
0.00230702

> <r_epik_Ionization_Penalty_Neutral>
8.72116e-08

> <r_epik_State_Penalty>
0.00159123

> <r_epik_Charging_Adjusted_Penalty>
0.00389825

> <i_epik_Tot_Q>
1

> <i_epik_Tot_abs_Q>
1

> <r_epik_Metal_State_Penalty>
-0

> <b_epik_Metal_Only>
0

> <s_lp_Force_Field>
OPLS_2005

> <r_lp_Energy>
28.1912

> <b_lp_Chiralities_Consistent>
1

> <s_lp_Variant>
AV-unprocessed.smi:494-1

> <Gold.Version>
5.8.1

> <Gold.Id.Protein>
6NUR|6NUR_protein|mol2

> <Gold.PLP.Fitness>
40.9616

> <Gold.PLP.PLP>
-32.5186

> <Gold.PLP.part.hbond>
-2.1404

> <Gold.PLP.part.metal>
0.0000

> <Gold.PLP.part.buried>
2.6368

> <Gold.PLP.part.nonpolar>
-33.0189

> <Gold.PLP.part.repulsive>
0.1591

> <Gold.PLP.ligand.clash>
0.0000

> <Gold.PLP.ligand.torsion>
0.3437

> <Gold.PLP.Chemscore.Hbond>
3.0000

> <Gold.PLP.Chemscore.CHOScore>
0.0000

> <Gold.PLP.Chemscore.Metal>
0.0000

> <Gold.Chemscore.Hbonds>
donor molecule, donor type, donor heavy atom, donor atom, acceptor molecule, acceptor atom, score
      L1  H    11    30       P1  7948  1.00
      L1  H    14    49       P1  7948  2.00

> <Gold.PLP.Chemscore.Internal.Correction>
0.1304

> <Gold.Rescore>
     Score         DG    S(hbond)    S(metal)    S(lipo)     H(rot)  DE(clash)    DE(int)     intcor
     15.53     -17.72       1.99        0.00      84.45       1.68       1.90       0.29       ----

> <Gold.Chemscore.Fitness>
15.5304

> <Gold.Chemscore.DG>
-17.7188

> <Gold.Chemscore.ZeroCoef>
-5.4800

> <Gold.Chemscore.Hbond>
1.9899

> <Gold.Chemscore.Metal>
0.0000

> <Gold.Chemscore.Lipo>
84.4541

> <Gold.Chemscore.Internal_Hbond>
0.0000

> <Gold.Chemscore.DEClash>
1.8975

> <Gold.Chemscore.DEInternal>
0.2908

> <Gold.Chemscore.Rot>
1.6752

> <Gold.Chemscore.Internal.Correction>
   9.000000E+99

> <Gold.Chemscore.Hbonds>
donor molecule, donor type, donor heavy atom, donor atom, acceptor molecule, acceptor atom, score
      L1  H    11    30       P1  7948  1.00
      L1  H    14    49       P1  7948  1.00

> <Gold.Chemscore.Hbond.Weighted>
-6.6461

> <Gold.Chemscore.Metal.Weighted>
-0.0000

> <Gold.Chemscore.Lipo.Weighted>
-9.8811

> <Gold.Chemscore.Internal_Hbond.Weighted>
0.0000

> <Gold.Chemscore.DEClash.Weighted>
1.8975

> <Gold.Chemscore.DEInternal.Weighted>
0.2908

> <Gold.Chemscore.Rot.Weighted>
4.2884

> <Gold.Chemscore.Internal.Correction.Weighted>
   9.000000E+99

> <Gold.Protein.RotatedTorsions>
[ 6907 6896 6895 6894 ] final  150.43 input  -60.11 | X-H torsion
[ 7974 7965 7964 7962 ] final  -51.00 input  175.53 | X-H torsion
[ 8008 7997 7996 7995 ] final  153.17 input   59.86 | X-H torsion
[ 10167 10162 10161 10158 ] final  121.99 input  -65.29 | X-H torsion
[ 10718 10713 10712 10709 ] final -120.16 input   66.30 | X-H torsion
[ 10763 10752 10751 10750 ] final   86.50 input  -60.55 | X-H torsion
[ 11005 11000 10999 10996 ] final  101.98 input  -57.11 | X-H torsion

> <Gold.Protein.ActiveResidues>
 VAL166  LYS551  ARG553  GLY616  TRP617  ASP618  TYR619  PRO620  LYS621  CYS622 
 ASP623  PHE694  ASN695  SER759  ASP760  ASP761  ALA762  ILE779  LEU786  VAL792 
 PHE793  MET794  SER795  GLU796  ALA797  LYS798  CYS799  TRP800  GLU811  SER814 

> <Gold.Protein.RotatedAtoms>
  152.1145  133.4319  159.4646 H   0  0  0  0  0  0  0  0  0  0  0  0  # atno 6907 bound_to 6896
  150.6869  134.2608  159.4558 H   0  0  0  0  0  0  0  0  0  0  0  0  # atno 6908 bound_to 6896
  152.0480  134.9670  160.0625 H   0  0  0  0  0  0  0  0  0  0  0  0  # atno 6909 bound_to 6896
  145.9237  140.7811  142.9634 H   0  0  0  0  0  0  0  0  0  0  0  0  # atno 7974 bound_to 7965
  156.2594  140.2001  156.6448 H   0  0  0  0  0  0  0  0  0  0  0  0  # atno 8008 bound_to 7997
  154.6581  140.0564  157.0057 H   0  0  0  0  0  0  0  0  0  0  0  0  # atno 8009 bound_to 7997
  155.1316  140.3234  155.4475 H   0  0  0  0  0  0  0  0  0  0  0  0  # atno 8010 bound_to 7997
  139.5886  144.7016  151.3347 H   0  0  0  0  0  0  0  0  0  0  0  0  # atno 10167 bound_to 10162
  156.1237  130.6342  150.9506 H   0  0  0  0  0  0  0  0  0  0  0  0  # atno 10718 bound_to 10713
  153.1576  135.4578  154.9727 H   0  0  0  0  0  0  0  0  0  0  0  0  # atno 10763 bound_to 10752
  154.7873  135.3208  154.7859 H   0  0  0  0  0  0  0  0  0  0  0  0  # atno 10764 bound_to 10752
  153.8354  135.6935  153.4864 H   0  0  0  0  0  0  0  0  0  0  0  0  # atno 10765 bound_to 10752
  139.8775  134.9205  156.4988 H   0  0  0  0  0  0  0  0  0  0  0  0  # atno 11005 bound_to 11000
  144.6756  140.2016  143.7386 LP  0  0  0  0  0  0  0  0  0  0  0  0  # atno 17320 bound_to 7965
  145.8517  139.2178  143.1768 LP  0  0  0  0  0  0  0  0  0  0  0  0  # atno 17321 bound_to 7965
  140.7153  143.7282  150.7644 LP  0  0  0  0  0  0  0  0  0  0  0  0  # atno 17342 bound_to 10162
  140.0833  143.4948  152.2518 LP  0  0  0  0  0  0  0  0  0  0  0  0  # atno 17343 bound_to 10162
  157.6419  131.0909  150.8233 LP  0  0  0  0  0  0  0  0  0  0  0  0  # atno 17370 bound_to 10713
  156.8327  130.5021  149.5330 LP  0  0  0  0  0  0  0  0  0  0  0  0  # atno 17371 bound_to 10713
  140.8605  133.8064  155.9260 LP  0  0  0  0  0  0  0  0  0  0  0  0  # atno 17394 bound_to 11000
  140.9054  134.2326  157.5017 LP  0  0  0  0  0  0  0  0  0  0  0  0  # atno 17395 bound_to 11000

$$$$
