AV-unprocessed.smi:2896|AV-procd|sdf|11138|dock8
  -GOLD-   2272016 13D 1   1.00000     0.00000
 Structure written by MMmdl.
 49 50  0  0  0  0  0  0  0  0  1 V2000
  142.8191  140.9358  156.7224 C   0  0  0  0  0  0  0  0  0  0  0  0
  142.5886  139.5870  156.0174 C   0  0  2  0  0  0  0  0  0  0  0  0
  143.9090  138.8161  155.7908 C   0  0  0  0  0  0  0  0  0  0  0  0
  144.8724  139.5837  155.0068 N   0  0  0  0  0  0  0  0  0  0  0  0
  146.1488  139.8321  155.3482 C   0  0  0  0  0  0  0  0  0  0  0  0
  146.6382  139.4254  156.4032 O   0  0  0  0  0  0  0  0  0  0  0  0
  147.0133  140.6760  154.3763 C   0  0  0  0  0  0  0  0  0  0  0  0
  146.9275  140.0235  152.9737 C   0  0  0  0  0  0  0  0  0  0  0  0
  146.4880  142.1271  154.2283 C   0  0  0  0  0  0  0  0  0  0  0  0
  148.4478  140.7045  154.9384 C   0  0  0  0  0  0  0  0  0  0  0  0
  148.7212  141.3433  156.1725 C   0  0  0  0  0  0  0  0  0  0  0  0
  150.0368  141.3601  156.6721 C   0  0  0  0  0  0  0  0  0  0  0  0
  151.0460  140.7344  155.9177 C   0  0  0  0  0  0  0  0  0  0  0  0
  150.8121  140.1200  154.7404 N   0  0  0  0  0  0  0  0  0  0  0  0
  149.5464  140.1077  154.2696 C   0  0  0  0  0  0  0  0  0  0  0  0
  141.8399  139.8191  154.6859 C   0  0  0  0  0  0  0  0  0  0  0  0
  140.9561  138.7367  154.2485 N   0  0  0  0  0  0  0  0  0  0  0  0
  141.6855  137.5450  153.8189 C   0  0  0  0  0  0  0  0  0  0  0  0
  140.7346  136.4134  153.3912 C   0  0  0  0  0  0  0  0  0  0  0  0
  139.8422  136.1066  154.4572 O   0  0  0  0  0  0  0  0  0  0  0  0
  139.0779  137.2333  154.8730 C   0  0  0  0  0  0  0  0  0  0  0  0
  140.0249  138.3644  155.3086 C   0  0  0  0  0  0  0  0  0  0  0  0
  143.4978  141.5698  156.1508 H   0  0  0  0  0  0  0  0  0  0  0  0
  143.2448  140.8036  157.7170 H   0  0  0  0  0  0  0  0  0  0  0  0
  141.8822  141.4795  156.8468 H   0  0  0  0  0  0  0  0  0  0  0  0
  141.9564  138.9970  156.6803 H   0  0  0  0  0  0  0  0  0  0  0  0
  144.3837  138.6031  156.7488 H   0  0  0  0  0  0  0  0  0  0  0  0
  143.7090  137.8453  155.3342 H   0  0  0  0  0  0  0  0  0  0  0  0
  144.5433  139.9561  154.1278 H   0  0  0  0  0  0  0  0  0  0  0  0
  147.2797  138.9910  152.9698 H   0  0  0  0  0  0  0  0  0  0  0  0
  147.5175  140.5750  152.2407 H   0  0  0  0  0  0  0  0  0  0  0  0
  145.8998  140.0095  152.6076 H   0  0  0  0  0  0  0  0  0  0  0  0
  146.4839  142.6746  155.1713 H   0  0  0  0  0  0  0  0  0  0  0  0
  145.4703  142.1464  153.8357 H   0  0  0  0  0  0  0  0  0  0  0  0
  147.1101  142.6955  153.5360 H   0  0  0  0  0  0  0  0  0  0  0  0
  147.9323  141.8152  156.7393 H   0  0  0  0  0  0  0  0  0  0  0  0
  150.2661  141.8399  157.6121 H   0  0  0  0  0  0  0  0  0  0  0  0
  152.0670  140.7266  156.2693 H   0  0  0  0  0  0  0  0  0  0  0  0
  149.4326  139.6003  153.3245 H   0  0  0  0  0  0  0  0  0  0  0  0
  141.2633  140.7428  154.7534 H   0  0  0  0  0  0  0  0  0  0  0  0
  142.5892  139.9967  153.9130 H   0  0  0  0  0  0  0  0  0  0  0  0
  142.3387  137.7801  152.9797 H   0  0  0  0  0  0  0  0  0  0  0  0
  142.3271  137.1916  154.6274 H   0  0  0  0  0  0  0  0  0  0  0  0
  140.1670  136.7011  152.5048 H   0  0  0  0  0  0  0  0  0  0  0  0
  141.3016  135.5193  153.1322 H   0  0  0  0  0  0  0  0  0  0  0  0
  138.4299  137.5632  154.0596 H   0  0  0  0  0  0  0  0  0  0  0  0
  138.4314  136.9403  155.7001 H   0  0  0  0  0  0  0  0  0  0  0  0
  140.5794  138.0476  156.1934 H   0  0  0  0  0  0  0  0  0  0  0  0
  139.4345  139.2322  155.6048 H   0  0  0  0  0  0  0  0  0  0  0  0
  1  2  1  0  0  0  0
  1 23  1  0  0  0  0
  1 24  1  0  0  0  0
  1 25  1  0  0  0  0
  2  3  1  0  0  0  0
  2 16  1  0  0  0  0
  2 26  1  0  0  0  0
  3  4  1  0  0  0  0
  3 27  1  0  0  0  0
  3 28  1  0  0  0  0
  4  5  1  0  0  0  0
  4 29  1  0  0  0  0
  5  6  2  0  0  0  0
  5  7  1  0  0  0  0
  7  8  1  0  0  0  0
  7  9  1  0  0  0  0
  7 10  1  0  0  0  0
  8 30  1  0  0  0  0
  8 31  1  0  0  0  0
  8 32  1  0  0  0  0
  9 33  1  0  0  0  0
  9 34  1  0  0  0  0
  9 35  1  0  0  0  0
 10 15  1  0  0  0  0
 10 11  2  0  0  0  0
 11 12  1  0  0  0  0
 11 36  1  0  0  0  0
 12 13  2  0  0  0  0
 12 37  1  0  0  0  0
 13 14  1  0  0  0  0
 13 38  1  0  0  0  0
 14 15  2  0  0  0  0
 15 39  1  0  0  0  0
 16 17  1  0  0  0  0
 16 40  1  0  0  0  0
 16 41  1  0  0  0  0
 17 22  1  0  0  0  0
 17 18  1  0  0  0  0
 18 19  1  0  0  0  0
 18 42  1  0  0  0  0
 18 43  1  0  0  0  0
 19 20  1  0  0  0  0
 19 44  1  0  0  0  0
 19 45  1  0  0  0  0
 20 21  1  0  0  0  0
 21 22  1  0  0  0  0
 21 46  1  0  0  0  0
 21 47  1  0  0  0  0
 22 48  1  0  0  0  0
 22 49  1  0  0  0  0
M  END
> <s_m_source_file>
AV-unprocessed.smi

> <i_m_source_file_index>
2896

> <i_lp_mmshare_version>
43012

> <i_f3d_flags>
0

> <s_epik_input>
W0NIMl0xW0NIMl1PW0NIMl1bQ0gyXU4xW0NIMl1bQ0BIXShbQ0gzXSlbQ0gyXVtOSF1DKD1PKUMoW0NIM10pKFtDSDNdKWMyW2NIXVtjSF1bY0hdbltjSF0y

> <s_epik_cmdline>
J2VwaWtfcHl0aG9uJywgJy1waCcsICc3LjAnLCAnLXRuJywgJzgnLCAnLW1hJywgJzIwMCcsICctbWV0YWxfYmluZGluZycsICctaW1hZScsICc8aW5maWxlLm1hZT4nLCAnLW9tYWUnLCAnPG91dGZpbGUubWFlPic=

> <r_epik_Ionization_Penalty>
0.458454

> <r_epik_Ionization_Penalty_Charging>
0

> <r_epik_Ionization_Penalty_Neutral>
0.458454

> <r_epik_State_Penalty>
0.453234

> <r_epik_Charging_Adjusted_Penalty>
0.453234

> <i_epik_Tot_Q>
0

> <i_epik_Tot_abs_Q>
0

> <r_epik_Metal_State_Penalty>
0.448418

> <b_epik_Metal_Only>
0

> <s_lp_Force_Field>
OPLS_2005

> <r_lp_Energy>
34.6302

> <b_lp_Chiralities_Consistent>
1

> <s_lp_Variant>
AV-unprocessed.smi:2896-3

> <Gold.Version>
5.8.1

> <Gold.Id.Protein>
6NUR|6NUR_protein|mol2

> <Gold.PLP.Fitness>
39.1230

> <Gold.PLP.PLP>
-28.1843

> <Gold.PLP.part.hbond>
-3.0000

> <Gold.PLP.part.metal>
0.0000

> <Gold.PLP.part.buried>
-1.7506

> <Gold.PLP.part.nonpolar>
-23.8165

> <Gold.PLP.part.repulsive>
0.3077

> <Gold.PLP.ligand.clash>
0.0000

> <Gold.PLP.ligand.torsion>
0.5791

> <Gold.PLP.Chemscore.Hbond>
3.0000

> <Gold.PLP.Chemscore.CHOScore>
1.0000

> <Gold.PLP.Chemscore.Metal>
0.0000

> <Gold.Chemscore.Hbonds>
donor molecule, donor type, donor heavy atom, donor atom, acceptor molecule, acceptor atom, score
      L1  H     4    29       P1 10175  1.00
      P1  H  7989  7998       L1    14  1.00
      P1  H 11000 11005       L1    20  0.89
      L1  C    15    39       P1  7957  1.00

> <Gold.PLP.Chemscore.Internal.Correction>
0.0968

> <Gold.Rescore>
     Score         DG    S(hbond)    S(metal)    S(lipo)     H(rot)  DE(clash)    DE(int)     intcor
     16.06     -18.50       2.64        0.00      72.64       1.68       0.38       2.06       ----

> <Gold.Chemscore.Fitness>
16.0590

> <Gold.Chemscore.DG>
-18.5038

> <Gold.Chemscore.ZeroCoef>
-5.4800

> <Gold.Chemscore.Hbond>
2.6447

> <Gold.Chemscore.Metal>
0.0000

> <Gold.Chemscore.Lipo>
72.6445

> <Gold.Chemscore.Internal_Hbond>
0.0000

> <Gold.Chemscore.DEClash>
0.3843

> <Gold.Chemscore.DEInternal>
2.0604

> <Gold.Chemscore.Rot>
1.6832

> <Gold.Chemscore.Internal.Correction>
   9.000000E+99

> <Gold.Chemscore.Hbonds>
donor molecule, donor type, donor heavy atom, donor atom, acceptor molecule, acceptor atom, score
      L1  H     4    29       P1 10175  1.00
      P1  H  7989  7998       L1    14  0.27
      P1  H 11000 11005       L1    20  0.56

> <Gold.Chemscore.Hbond.Weighted>
-8.8333

> <Gold.Chemscore.Metal.Weighted>
-0.0000

> <Gold.Chemscore.Lipo.Weighted>
-8.4994

> <Gold.Chemscore.Internal_Hbond.Weighted>
0.0000

> <Gold.Chemscore.DEClash.Weighted>
0.3843

> <Gold.Chemscore.DEInternal.Weighted>
2.0604

> <Gold.Chemscore.Rot.Weighted>
4.3090

> <Gold.Chemscore.Internal.Correction.Weighted>
   9.000000E+99

> <Gold.Protein.RotatedTorsions>
[ 6907 6896 6895 6894 ] final -106.34 input  -60.11 | X-H torsion
[ 7974 7965 7964 7962 ] final -151.40 input  175.53 | X-H torsion
[ 8008 7997 7996 7995 ] final   13.72 input   59.86 | X-H torsion
[ 10167 10162 10161 10158 ] final   23.99 input  -65.29 | X-H torsion
[ 10718 10713 10712 10709 ] final  101.12 input   66.30 | X-H torsion
[ 10763 10752 10751 10750 ] final   78.20 input  -60.55 | X-H torsion
[ 11005 11000 10999 10996 ] final   73.48 input  -57.11 | X-H torsion

> <Gold.Protein.ActiveResidues>
 VAL166  LYS551  ARG553  GLY616  TRP617  ASP618  TYR619  PRO620  LYS621  CYS622 
 ASP623  PHE694  ASN695  SER759  ASP760  ASP761  ALA762  ILE779  LEU786  VAL792 
 PHE793  MET794  SER795  GLU796  ALA797  LYS798  CYS799  TRP800  GLU811  SER814 

> <Gold.Protein.RotatedAtoms>
  150.7384  133.9991  159.3632 H   0  0  0  0  0  0  0  0  0  0  0  0  # atno 6907 bound_to 6896
  151.7944  135.0724  160.0401 H   0  0  0  0  0  0  0  0  0  0  0  0  # atno 6908 bound_to 6896
  152.3185  133.5791  159.5764 H   0  0  0  0  0  0  0  0  0  0  0  0  # atno 6909 bound_to 6896
  144.7852  140.4803  143.5811 H   0  0  0  0  0  0  0  0  0  0  0  0  # atno 7974 bound_to 7965
  154.8384  140.2910  155.5676 H   0  0  0  0  0  0  0  0  0  0  0  0  # atno 8008 bound_to 7997
  156.3010  140.2518  156.3253 H   0  0  0  0  0  0  0  0  0  0  0  0  # atno 8009 bound_to 7997
  154.9153  140.0387  157.1958 H   0  0  0  0  0  0  0  0  0  0  0  0  # atno 8010 bound_to 7997
  140.5224  143.9980  150.6423 H   0  0  0  0  0  0  0  0  0  0  0  0  # atno 10167 bound_to 10162
  157.6837  131.0717  150.5203 H   0  0  0  0  0  0  0  0  0  0  0  0  # atno 10718 bound_to 10713
  153.0856  135.4886  154.8590 H   0  0  0  0  0  0  0  0  0  0  0  0  # atno 10763 bound_to 10752
  154.7206  135.3038  154.9056 H   0  0  0  0  0  0  0  0  0  0  0  0  # atno 10764 bound_to 10752
  153.9721  135.6800  153.4800 H   0  0  0  0  0  0  0  0  0  0  0  0  # atno 10765 bound_to 10752
  139.9438  134.7351  156.1032 H   0  0  0  0  0  0  0  0  0  0  0  0  # atno 11005 bound_to 11000
  145.5941  139.1498  143.3166 LP  0  0  0  0  0  0  0  0  0  0  0  0  # atno 17320 bound_to 7965
  146.2080  140.6065  142.9072 LP  0  0  0  0  0  0  0  0  0  0  0  0  # atno 17321 bound_to 7965
  140.3332  143.3064  152.0665 LP  0  0  0  0  0  0  0  0  0  0  0  0  # atno 17342 bound_to 10162
  139.4927  144.6494  151.6708 LP  0  0  0  0  0  0  0  0  0  0  0  0  # atno 17343 bound_to 10162
  156.5517  130.4233  149.6104 LP  0  0  0  0  0  0  0  0  0  0  0  0  # atno 17370 bound_to 10713
  156.2897  130.7117  151.1963 LP  0  0  0  0  0  0  0  0  0  0  0  0  # atno 17371 bound_to 10713
  141.1081  133.6652  156.2913 LP  0  0  0  0  0  0  0  0  0  0  0  0  # atno 17394 bound_to 11000
  140.5886  134.5674  157.5495 LP  0  0  0  0  0  0  0  0  0  0  0  0  # atno 17395 bound_to 11000

$$$$
