AV-unprocessed.smi:3335|AV-procd|sdf|12839|dock5
  -GOLD-   2272019223D 1   1.00000     0.00000
 Structure written by MMmdl.
 47 48  0  0  0  0  0  0  0  0  2 V2000
  151.9767  144.8698  160.6118 C   0  0  0  0  0  0  0  0  0  0  0  0
  152.2631  143.5293  159.9994 C   0  0  0  0  0  0  0  0  0  0  0  0
  153.3516  142.6553  160.2780 C   0  0  0  0  0  0  0  0  0  0  0  0
  153.3167  141.5471  159.5569 N   0  0  0  0  0  0  0  0  0  0  0  0
  152.2030  141.6672  158.7996 N   0  0  0  0  0  0  0  0  0  0  0  0
  151.8465  140.6240  157.8454 C   0  0  2  0  0  0  0  0  0  0  0  0
  150.5042  140.9747  157.1724 C   0  0  0  0  0  0  0  0  0  0  0  0
  151.8587  139.2141  158.5036 C   0  0  1  0  0  0  0  0  0  0  0  0
  151.2198  138.1398  157.6072 C   0  0  0  0  0  0  0  0  0  0  0  0
  153.2445  138.7798  158.8183 N   0  3  0  0  0  0  0  0  0  0  0  0
  153.6492  138.8253  160.2446 C   0  0  2  0  0  0  0  0  0  0  0  0
  155.1092  139.2910  160.3477 C   0  0  0  0  0  0  0  0  0  0  0  0
  153.4826  137.4533  160.9269 C   0  0  0  0  0  0  0  0  0  0  0  0
  153.0835  136.5013  160.2541 O   0  0  0  0  0  0  0  0  0  0  0  0
  153.7851  137.3261  162.2370 N   0  0  0  0  0  0  0  0  0  0  0  0
  154.2767  138.3840  163.1205 C   0  0  0  0  0  0  0  0  0  0  0  0
  154.6839  137.6870  164.4183 C   0  0  0  0  0  0  0  0  0  0  0  0
  153.8301  136.4276  164.4467 C   0  0  0  0  0  0  0  0  0  0  0  0
  153.6454  136.0699  162.9721 C   0  0  0  0  0  0  0  0  0  0  0  0
  151.5488  142.8559  159.0494 C   0  0  0  0  0  0  0  0  0  0  0  0
  152.8118  145.2271  161.2149 H   0  0  0  0  0  0  0  0  0  0  0  0
  151.1025  144.8351  161.2619 H   0  0  0  0  0  0  0  0  0  0  0  0
  151.7834  145.6269  159.8516 H   0  0  0  0  0  0  0  0  0  0  0  0
  154.1646  142.7953  160.9754 H   0  0  0  0  0  0  0  0  0  0  0  0
  152.6077  140.6379  157.0636 H   0  0  0  0  0  0  0  0  0  0  0  0
  150.3062  140.3370  156.3112 H   0  0  0  0  0  0  0  0  0  0  0  0
  150.5066  142.0030  156.8088 H   0  0  0  0  0  0  0  0  0  0  0  0
  149.6682  140.8705  157.8650 H   0  0  0  0  0  0  0  0  0  0  0  0
  151.2720  139.2464  159.4228 H   0  0  0  0  0  0  0  0  0  0  0  0
  150.1568  138.3230  157.4514 H   0  0  0  0  0  0  0  0  0  0  0  0
  151.3037  137.1522  158.0623 H   0  0  0  0  0  0  0  0  0  0  0  0
  151.7015  138.0969  156.6298 H   0  0  0  0  0  0  0  0  0  0  0  0
  153.3451  137.8205  158.5179 H   0  0  0  0  0  0  0  0  0  0  0  0
  153.0334  139.5691  160.7412 H   0  0  0  0  0  0  0  0  0  0  0  0
  155.4349  139.3562  161.3865 H   0  0  0  0  0  0  0  0  0  0  0  0
  155.2337  140.2805  159.9062 H   0  0  0  0  0  0  0  0  0  0  0  0
  155.7860  138.6097  159.8300 H   0  0  0  0  0  0  0  0  0  0  0  0
  155.1179  138.9293  162.6905 H   0  0  0  0  0  0  0  0  0  0  0  0
  153.4698  139.0933  163.3102 H   0  0  0  0  0  0  0  0  0  0  0  0
  155.7384  137.4115  164.3710 H   0  0  0  0  0  0  0  0  0  0  0  0
  154.5420  138.3147  165.2984 H   0  0  0  0  0  0  0  0  0  0  0  0
  154.2830  135.6214  165.0244 H   0  0  0  0  0  0  0  0  0  0  0  0
  152.8606  136.6545  164.8924 H   0  0  0  0  0  0  0  0  0  0  0  0
  152.6779  135.5959  162.7986 H   0  0  0  0  0  0  0  0  0  0  0  0
  154.4243  135.3794  162.6451 H   0  0  0  0  0  0  0  0  0  0  0  0
  150.6401  143.1261  158.5316 H   0  0  0  0  0  0  0  0  0  0  0  0
  153.8800  139.3493  158.2788 H   0  0  0  0  0  0  0  0  0  0  0  0
  1  2  1  0  0  0  0
  1 21  1  0  0  0  0
  1 22  1  0  0  0  0
  1 23  1  0  0  0  0
  2 20  2  0  0  0  0
  2  3  1  0  0  0  0
  3  4  2  0  0  0  0
  3 24  1  0  0  0  0
  4  5  1  0  0  0  0
  5  6  1  0  0  0  0
  5 20  1  0  0  0  0
  6  7  1  0  0  0  0
  6  8  1  0  0  0  0
  6 25  1  0  0  0  0
  7 26  1  0  0  0  0
  7 27  1  0  0  0  0
  7 28  1  0  0  0  0
  8  9  1  0  0  0  0
  8 10  1  0  0  0  0
  8 29  1  0  0  0  0
  9 30  1  0  0  0  0
  9 31  1  0  0  0  0
  9 32  1  0  0  0  0
 10 11  1  0  0  0  0
 10 33  1  0  0  0  0
 10 47  1  0  0  0  0
 11 12  1  0  0  0  0
 11 13  1  0  0  0  0
 11 34  1  0  0  0  0
 12 35  1  0  0  0  0
 12 36  1  0  0  0  0
 12 37  1  0  0  0  0
 13 14  2  0  0  0  0
 13 15  1  0  0  0  0
 15 19  1  0  0  0  0
 15 16  1  0  0  0  0
 16 17  1  0  0  0  0
 16 38  1  0  0  0  0
 16 39  1  0  0  0  0
 17 18  1  0  0  0  0
 17 40  1  0  0  0  0
 17 41  1  0  0  0  0
 18 19  1  0  0  0  0
 18 42  1  0  0  0  0
 18 43  1  0  0  0  0
 19 44  1  0  0  0  0
 19 45  1  0  0  0  0
 20 46  1  0  0  0  0
M  CHG  1  10   1
M  END
> <s_m_source_file>
AV-unprocessed.smi

> <i_m_source_file_index>
3335

> <i_lp_mmshare_version>
43012

> <i_f3d_flags>
0

> <s_epik_input>
W0NIM11jMVtjSF1ubihbY0hdMSlbQ0BIXShbQ0gzXSlbQ0BIXShbQ0gzXSlbTkhdW0NASF0oW0NIM10pQyg9TylOMltDSDJdW0NIMl1bQ0gyXVtDSDJdMg==

> <s_epik_cmdline>
J2VwaWtfcHl0aG9uJywgJy1waCcsICc3LjAnLCAnLXRuJywgJzgnLCAnLW1hJywgJzIwMCcsICctbWV0YWxfYmluZGluZycsICctaW1hZScsICc8aW5maWxlLm1hZT4nLCAnLW9tYWUnLCAnPG91dGZpbGUubWFlPic=

> <r_lp_tautomer_probability>
1

> <r_epik_Ionization_Penalty>
0.14175

> <r_epik_Ionization_Penalty_Charging>
0.141731

> <r_epik_Ionization_Penalty_Neutral>
1.91261e-05

> <r_epik_State_Penalty>
0.131043

> <r_epik_Charging_Adjusted_Penalty>
0.272773

> <i_epik_Tot_Q>
1

> <i_epik_Tot_abs_Q>
1

> <r_epik_Metal_State_Penalty>
0.131408

> <b_epik_Metal_Only>
0

> <s_lp_Force_Field>
OPLS_2005

> <r_lp_Energy>
35.8146

> <b_lp_Chiralities_Consistent>
1

> <s_lp_Variant>
AV-unprocessed.smi:3335-3

> <Gold.Version>
5.8.1

> <Gold.Id.Protein>
6NUR|6NUR_protein|mol2

> <Gold.PLP.Fitness>
39.5130

> <Gold.PLP.PLP>
-39.3350

> <Gold.PLP.part.hbond>
-1.0000

> <Gold.PLP.part.metal>
0.0000

> <Gold.PLP.part.buried>
-5.6996

> <Gold.PLP.part.nonpolar>
-32.5995

> <Gold.PLP.part.repulsive>
0.0826

> <Gold.PLP.ligand.clash>
0.0000

> <Gold.PLP.ligand.torsion>
1.4641

> <Gold.PLP.Chemscore.Hbond>
1.0000

> <Gold.PLP.Chemscore.CHOScore>
0.0000

> <Gold.PLP.Chemscore.Metal>
0.0000

> <Gold.Chemscore.Hbonds>
donor molecule, donor type, donor heavy atom, donor atom, acceptor molecule, acceptor atom, score
      P1  H  6896  6908       L1    14  1.00

> <Gold.PLP.Chemscore.Internal.Correction>
0.1061

> <Gold.Rescore>
     Score         DG    S(hbond)    S(metal)    S(lipo)     H(rot)  DE(clash)    DE(int)     intcor
     14.46     -17.14       1.00        0.00     107.86       1.68       0.04       2.63       ----

> <Gold.Chemscore.Fitness>
14.4650

> <Gold.Chemscore.DG>
-17.1383

> <Gold.Chemscore.ZeroCoef>
-5.4800

> <Gold.Chemscore.Hbond>
0.9983

> <Gold.Chemscore.Metal>
0.0000

> <Gold.Chemscore.Lipo>
107.8568

> <Gold.Chemscore.Internal_Hbond>
0.0000

> <Gold.Chemscore.DEClash>
0.0411

> <Gold.Chemscore.DEInternal>
2.6322

> <Gold.Chemscore.Rot>
1.6778

> <Gold.Chemscore.Internal.Correction>
   9.000000E+99

> <Gold.Chemscore.Hbonds>
donor molecule, donor type, donor heavy atom, donor atom, acceptor molecule, acceptor atom, score
      P1  H  6896  6908       L1    14  1.00

> <Gold.Chemscore.Hbond.Weighted>
-3.3342

> <Gold.Chemscore.Metal.Weighted>
-0.0000

> <Gold.Chemscore.Lipo.Weighted>
-12.6192

> <Gold.Chemscore.Internal_Hbond.Weighted>
0.0000

> <Gold.Chemscore.DEClash.Weighted>
0.0411

> <Gold.Chemscore.DEInternal.Weighted>
2.6322

> <Gold.Chemscore.Rot.Weighted>
4.2952

> <Gold.Chemscore.Internal.Correction.Weighted>
   9.000000E+99

> <Gold.Protein.RotatedTorsions>
[ 6907 6896 6895 6894 ] final  -89.84 input  -60.11 | X-H torsion
[ 7974 7965 7964 7962 ] final -147.17 input  175.53 | X-H torsion
[ 8008 7997 7996 7995 ] final  -82.19 input   59.86 | X-H torsion
[ 10167 10162 10161 10158 ] final  131.48 input  -65.29 | X-H torsion
[ 10718 10713 10712 10709 ] final  -73.08 input   66.30 | X-H torsion
[ 10763 10752 10751 10750 ] final  -72.54 input  -60.55 | X-H torsion
[ 11005 11000 10999 10996 ] final  -83.02 input  -57.11 | X-H torsion

> <Gold.Protein.ActiveResidues>
 VAL166  LYS551  ARG553  GLY616  TRP617  ASP618  TYR619  PRO620  LYS621  CYS622 
 ASP623  PHE694  ASN695  SER759  ASP760  ASP761  ALA762  ILE779  LEU786  VAL792 
 PHE793  MET794  SER795  GLU796  ALA797  LYS798  CYS799  TRP800  GLU811  SER814 

> <Gold.Protein.RotatedAtoms>
  150.6877  134.2525  159.4516 H   0  0  0  0  0  0  0  0  0  0  0  0  # atno 6907 bound_to 6896
  152.0461  134.9679  160.0583 H   0  0  0  0  0  0  0  0  0  0  0  0  # atno 6908 bound_to 6896
  152.1162  133.4293  159.4691 H   0  0  0  0  0  0  0  0  0  0  0  0  # atno 6909 bound_to 6896
  144.8111  140.5361  143.5642 H   0  0  0  0  0  0  0  0  0  0  0  0  # atno 7974 bound_to 7965
  154.6060  140.0637  156.9432 H   0  0  0  0  0  0  0  0  0  0  0  0  # atno 8008 bound_to 7997
  155.2052  140.3318  155.4319 H   0  0  0  0  0  0  0  0  0  0  0  0  # atno 8009 bound_to 7997
  156.2348  140.1857  156.7132 H   0  0  0  0  0  0  0  0  0  0  0  0  # atno 8010 bound_to 7997
  139.5382  144.6704  151.4713 H   0  0  0  0  0  0  0  0  0  0  0  0  # atno 10167 bound_to 10162
  156.0294  130.4386  150.2689 H   0  0  0  0  0  0  0  0  0  0  0  0  # atno 10718 bound_to 10713
  154.4471  135.5926  153.6167 H   0  0  0  0  0  0  0  0  0  0  0  0  # atno 10763 bound_to 10752
  152.9810  135.6012  154.3651 H   0  0  0  0  0  0  0  0  0  0  0  0  # atno 10764 bound_to 10752
  154.3507  135.2841  155.2352 H   0  0  0  0  0  0  0  0  0  0  0  0  # atno 10765 bound_to 10752
  141.1660  133.7273  156.8658 H   0  0  0  0  0  0  0  0  0  0  0  0  # atno 11005 bound_to 11000
  145.5323  139.1475  143.3493 LP  0  0  0  0  0  0  0  0  0  0  0  0  # atno 17320 bound_to 7965
  146.2409  140.5463  142.8934 LP  0  0  0  0  0  0  0  0  0  0  0  0  # atno 17321 bound_to 7965
  140.6599  143.8520  150.6876 LP  0  0  0  0  0  0  0  0  0  0  0  0  # atno 17342 bound_to 10162
  140.1911  143.4035  152.1862 LP  0  0  0  0  0  0  0  0  0  0  0  0  # atno 17343 bound_to 10162
  157.0792  131.0138  151.3163 LP  0  0  0  0  0  0  0  0  0  0  0  0  # atno 17370 bound_to 10713
  157.4941  130.7839  149.7537 LP  0  0  0  0  0  0  0  0  0  0  0  0  # atno 17371 bound_to 10713
  140.1816  134.9029  157.2955 LP  0  0  0  0  0  0  0  0  0  0  0  0  # atno 17394 bound_to 11000
  140.2388  134.3820  155.7489 LP  0  0  0  0  0  0  0  0  0  0  0  0  # atno 17395 bound_to 11000

$$$$
