AV-unprocessed.smi:3068|AV-procd|sdf|11708|dock3
  -GOLD-   2272017113D 1   1.00000     0.00000
 Structure written by MMmdl.
 39 41  0  0  0  0  0  0  0  0  1 V2000
  153.7879  140.9453  161.7645 N   0  0  0  0  0  0  0  0  0  0  0  0
  153.1187  141.7335  161.2447 C   0  0  0  0  0  0  0  0  0  0  0  0
  152.2758  142.7264  160.5905 C   0  0  0  0  0  0  0  0  0  0  0  0
  152.0400  143.8689  161.2764 N   0  0  0  0  0  0  0  0  0  0  0  0
  151.2614  144.7976  160.6818 C   0  0  0  0  0  0  0  0  0  0  0  0
  150.7146  144.5906  159.4007 C   0  0  0  0  0  0  0  0  0  0  0  0
  150.9434  143.4538  158.7103 N   0  0  0  0  0  0  0  0  0  0  0  0
  151.7261  142.5122  159.2948 C   0  0  0  0  0  0  0  0  0  0  0  0
  151.9718  141.3197  158.5888 N   0  0  0  0  0  0  0  0  0  0  0  0
  151.0056  140.7746  157.6422 C   0  0  0  0  0  0  0  0  0  0  0  0
  151.2828  141.2242  156.1915 C   0  0  2  0  0  0  0  0  0  0  0  0
  150.0562  141.8741  155.5237 C   0  0  0  0  0  0  0  0  0  0  0  0
  149.0138  140.9095  155.1945 N   0  0  0  0  0  0  0  0  0  0  0  0
  147.8781  141.5637  154.5458 C   0  0  0  0  0  0  0  0  0  0  0  0
  146.7451  140.5806  154.2134 C   0  0  0  0  0  0  0  0  0  0  0  0
  147.2733  139.4410  153.3312 C   0  0  0  0  0  0  0  0  0  0  0  0
  148.4971  138.7888  153.9922 C   0  0  0  0  0  0  0  0  0  0  0  0
  149.5637  139.8453  154.3502 C   0  0  2  0  0  0  0  0  0  0  0  0
  150.7761  139.1757  155.0269 C   0  0  0  0  0  0  0  0  0  0  0  0
  151.7560  140.1504  155.3757 O   0  0  0  0  0  0  0  0  0  0  0  0
  151.0734  145.7089  161.2299 H   0  0  0  0  0  0  0  0  0  0  0  0
  150.0927  145.3374  158.9296 H   0  0  0  0  0  0  0  0  0  0  0  0
  152.9081  140.9409  158.5798 H   0  0  0  0  0  0  0  0  0  0  0  0
  151.0244  139.6882  157.7203 H   0  0  0  0  0  0  0  0  0  0  0  0
  149.9988  141.0693  157.9395 H   0  0  0  0  0  0  0  0  0  0  0  0
  152.0746  141.9733  156.2133 H   0  0  0  0  0  0  0  0  0  0  0  0
  149.6531  142.6500  156.1756 H   0  0  0  0  0  0  0  0  0  0  0  0
  150.3814  142.3790  154.6126 H   0  0  0  0  0  0  0  0  0  0  0  0
  147.4877  142.3481  155.1953 H   0  0  0  0  0  0  0  0  0  0  0  0
  148.2087  142.0577  153.6309 H   0  0  0  0  0  0  0  0  0  0  0  0
  146.3318  140.1724  155.1366 H   0  0  0  0  0  0  0  0  0  0  0  0
  145.9306  141.1009  153.7091 H   0  0  0  0  0  0  0  0  0  0  0  0
  146.4925  138.6990  153.1612 H   0  0  0  0  0  0  0  0  0  0  0  0
  147.5517  139.8337  152.3524 H   0  0  0  0  0  0  0  0  0  0  0  0
  148.1831  138.2611  154.8940 H   0  0  0  0  0  0  0  0  0  0  0  0
  148.9194  138.0370  153.3245 H   0  0  0  0  0  0  0  0  0  0  0  0
  149.9145  140.2914  153.4178 H   0  0  0  0  0  0  0  0  0  0  0  0
  150.4702  138.6167  155.9117 H   0  0  0  0  0  0  0  0  0  0  0  0
  151.2354  138.4551  154.3499 H   0  0  0  0  0  0  0  0  0  0  0  0
  1  2  3  0  0  0  0
  2  3  1  0  0  0  0
  3  8  1  0  0  0  0
  3  4  2  0  0  0  0
  4  5  1  0  0  0  0
  5  6  2  0  0  0  0
  5 21  1  0  0  0  0
  6  7  1  0  0  0  0
  6 22  1  0  0  0  0
  7  8  2  0  0  0  0
  8  9  1  0  0  0  0
  9 10  1  0  0  0  0
  9 23  1  0  0  0  0
 10 11  1  0  0  0  0
 10 24  1  0  0  0  0
 10 25  1  0  0  0  0
 11 20  1  0  0  0  0
 11 12  1  0  0  0  0
 11 26  1  0  0  0  0
 12 13  1  0  0  0  0
 12 27  1  0  0  0  0
 12 28  1  0  0  0  0
 13 18  1  0  0  0  0
 13 14  1  0  0  0  0
 14 15  1  0  0  0  0
 14 29  1  0  0  0  0
 14 30  1  0  0  0  0
 15 16  1  0  0  0  0
 15 31  1  0  0  0  0
 15 32  1  0  0  0  0
 16 17  1  0  0  0  0
 16 33  1  0  0  0  0
 16 34  1  0  0  0  0
 17 18  1  0  0  0  0
 17 35  1  0  0  0  0
 17 36  1  0  0  0  0
 18 19  1  0  0  0  0
 18 37  1  0  0  0  0
 19 20  1  0  0  0  0
 19 38  1  0  0  0  0
 19 39  1  0  0  0  0
M  END
> <s_m_source_file>
AV-unprocessed.smi

> <i_m_source_file_index>
3068

> <i_lp_mmshare_version>
43012

> <i_f3d_flags>
0

> <s_epik_input>
TiNDYzFuW2NIXVtjSF1uYzFbTkhdW0NIMl1bQ0BIXShbQ0gyXTIpT1tDSDJdW0NAQEhdKE4yMylbQ0gyXVtDSDJdW0NIMl1bQ0gyXTM=

> <s_epik_cmdline>
J2VwaWtfcHl0aG9uJywgJy1waCcsICc3LjAnLCAnLXRuJywgJzgnLCAnLW1hJywgJzIwMCcsICctbWV0YWxfYmluZGluZycsICctaW1hZScsICc8aW5maWxlLm1hZT4nLCAnLW9tYWUnLCAnPG91dGZpbGUubWFlPic=

> <r_epik_Ionization_Penalty>
1.22359

> <r_epik_Ionization_Penalty_Charging>
0

> <r_epik_Ionization_Penalty_Neutral>
1.22359

> <r_epik_State_Penalty>
1.29103

> <r_epik_Charging_Adjusted_Penalty>
1.29103

> <i_epik_Tot_Q>
0

> <i_epik_Tot_abs_Q>
0

> <r_epik_Metal_State_Penalty>
1.29103

> <b_epik_Metal_Only>
0

> <s_lp_Force_Field>
OPLS_2005

> <r_lp_Energy>
49.2937

> <b_lp_Chiralities_Consistent>
1

> <s_lp_Variant>
AV-unprocessed.smi:3068-11

> <Gold.Version>
5.8.1

> <Gold.Id.Protein>
6NUR|6NUR_protein|mol2

> <Gold.PLP.Fitness>
41.6317

> <Gold.PLP.PLP>
-38.7701

> <Gold.PLP.part.hbond>
-1.1379

> <Gold.PLP.part.metal>
0.0000

> <Gold.PLP.part.buried>
-5.5086

> <Gold.PLP.part.nonpolar>
-31.6698

> <Gold.PLP.part.repulsive>
0.4563

> <Gold.PLP.ligand.clash>
0.0000

> <Gold.PLP.ligand.torsion>
1.0773

> <Gold.PLP.Chemscore.Hbond>
0.6705

> <Gold.PLP.Chemscore.CHOScore>
1.0000

> <Gold.PLP.Chemscore.Metal>
0.0000

> <Gold.Chemscore.Hbonds>
donor molecule, donor type, donor heavy atom, donor atom, acceptor molecule, acceptor atom, score
      P1  H  7989  7998       L1    20  0.40
      L1  C     6    22       P1  8029  0.32

> <Gold.PLP.Chemscore.Internal.Correction>
0.0048

> <Gold.Rescore>
     Score         DG    S(hbond)    S(metal)    S(lipo)     H(rot)  DE(clash)    DE(int)     intcor
     11.38     -12.42       0.01        0.00      87.56       1.30       0.03       1.02       ----

> <Gold.Chemscore.Fitness>
11.3754

> <Gold.Chemscore.DG>
-12.4211

> <Gold.Chemscore.ZeroCoef>
-5.4800

> <Gold.Chemscore.Hbond>
0.0088

> <Gold.Chemscore.Metal>
0.0000

> <Gold.Chemscore.Lipo>
87.5592

> <Gold.Chemscore.Internal_Hbond>
0.0000

> <Gold.Chemscore.DEClash>
0.0285

> <Gold.Chemscore.DEInternal>
1.0173

> <Gold.Chemscore.Rot>
1.3019

> <Gold.Chemscore.Internal.Correction>
   9.000000E+99

> <Gold.Chemscore.Hbonds>
donor molecule, donor type, donor heavy atom, donor atom, acceptor molecule, acceptor atom, score
      P1  H  7989  7998       L1    20  0.01

> <Gold.Chemscore.Hbond.Weighted>
-0.0294

> <Gold.Chemscore.Metal.Weighted>
-0.0000

> <Gold.Chemscore.Lipo.Weighted>
-10.2444

> <Gold.Chemscore.Internal_Hbond.Weighted>
0.0000

> <Gold.Chemscore.DEClash.Weighted>
0.0285

> <Gold.Chemscore.DEInternal.Weighted>
1.0173

> <Gold.Chemscore.Rot.Weighted>
3.3327

> <Gold.Chemscore.Internal.Correction.Weighted>
   9.000000E+99

> <Gold.Protein.RotatedTorsions>
[ 6907 6896 6895 6894 ] final -105.60 input  -60.11 | X-H torsion
[ 7974 7965 7964 7962 ] final   14.38 input  175.53 | X-H torsion
[ 8008 7997 7996 7995 ] final -143.52 input   59.86 | X-H torsion
[ 10167 10162 10161 10158 ] final   -3.28 input  -65.29 | X-H torsion
[ 10718 10713 10712 10709 ] final  -57.64 input   66.30 | X-H torsion
[ 10763 10752 10751 10750 ] final  123.68 input  -60.55 | X-H torsion
[ 11005 11000 10999 10996 ] final  176.39 input  -57.11 | X-H torsion

> <Gold.Protein.ActiveResidues>
 VAL166  LYS551  ARG553  GLY616  TRP617  ASP618  TYR619  PRO620  LYS621  CYS622 
 ASP623  PHE694  ASN695  SER759  ASP760  ASP761  ALA762  ILE779  LEU786  VAL792 
 PHE793  MET794  SER795  GLU796  ALA797  LYS798  CYS799  TRP800  GLU811  SER814 

> <Gold.Protein.RotatedAtoms>
  150.7345  134.0102  159.3666 H   0  0  0  0  0  0  0  0  0  0  0  0  # atno 6907 bound_to 6896
  151.8062  135.0692  160.0416 H   0  0  0  0  0  0  0  0  0  0  0  0  # atno 6908 bound_to 6896
  152.3106  133.5712  159.5714 H   0  0  0  0  0  0  0  0  0  0  0  0  # atno 6909 bound_to 6896
  146.2306  139.9049  142.8533 H   0  0  0  0  0  0  0  0  0  0  0  0  # atno 7974 bound_to 7965
  155.5119  140.0584  157.2922 H   0  0  0  0  0  0  0  0  0  0  0  0  # atno 8008 bound_to 7997
  154.4549  140.1967  156.0358 H   0  0  0  0  0  0  0  0  0  0  0  0  # atno 8009 bound_to 7997
  156.0778  140.3251  155.7660 H   0  0  0  0  0  0  0  0  0  0  0  0  # atno 8010 bound_to 7997
  140.6884  143.6559  150.8309 H   0  0  0  0  0  0  0  0  0  0  0  0  # atno 10167 bound_to 10162
  156.1195  130.4167  150.0468 H   0  0  0  0  0  0  0  0  0  0  0  0  # atno 10718 bound_to 10713
  153.6494  135.3365  155.3095 H   0  0  0  0  0  0  0  0  0  0  0  0  # atno 10763 bound_to 10752
  154.8541  135.4337  154.1920 H   0  0  0  0  0  0  0  0  0  0  0  0  # atno 10764 bound_to 10752
  153.2859  135.7013  153.7415 H   0  0  0  0  0  0  0  0  0  0  0  0  # atno 10765 bound_to 10752
  140.3725  134.7017  157.4401 H   0  0  0  0  0  0  0  0  0  0  0  0  # atno 11005 bound_to 11000
  145.2286  140.9964  143.4004 LP  0  0  0  0  0  0  0  0  0  0  0  0  # atno 17320 bound_to 7965
  144.9549  139.4042  143.6384 LP  0  0  0  0  0  0  0  0  0  0  0  0  # atno 17321 bound_to 7965
  140.0268  143.5484  152.2777 LP  0  0  0  0  0  0  0  0  0  0  0  0  # atno 17342 bound_to 10162
  139.6263  144.7637  151.2632 LP  0  0  0  0  0  0  0  0  0  0  0  0  # atno 17343 bound_to 10162
  156.8410  130.9425  151.3632 LP  0  0  0  0  0  0  0  0  0  0  0  0  # atno 17370 bound_to 10713
  157.6379  130.8781  149.9393 LP  0  0  0  0  0  0  0  0  0  0  0  0  # atno 17371 bound_to 10713
  140.0540  134.6090  155.8827 LP  0  0  0  0  0  0  0  0  0  0  0  0  # atno 17394 bound_to 11000
  141.1950  133.6585  156.5620 LP  0  0  0  0  0  0  0  0  0  0  0  0  # atno 17395 bound_to 11000

$$$$
