AV-unprocessed.smi:72|AV-procd|sdf|701|dock2
  -GOLD-   2262017 23D 1   1.00000     0.00000
 Structure written by MMmdl.
 30 31  0  0  0  0  0  0  0  0  2 V2000
  146.3661  138.1840  151.4953 N   0  0  0  0  0  0  0  0  0  0  0  0
  147.0408  139.0330  152.3475 C   0  0  0  0  0  0  0  0  0  0  0  0
  148.2035  138.5658  152.9322 N   0  3  0  0  0  0  0  0  0  0  0  0
  148.9656  139.2547  153.7921 C   0  0  0  0  0  0  0  0  0  0  0  0
  148.5902  140.4673  154.1533 N   0  0  0  0  0  0  0  0  0  0  0  0
  149.4038  141.3039  155.1154 C   0  0  2  0  0  0  0  0  0  0  0  0
  150.6800  140.7572  155.2098 O   0  0  0  0  0  0  0  0  0  0  0  0
  150.6954  139.7961  156.2569 C   0  0  1  0  0  0  0  0  0  0  0  0
  152.1428  139.4968  156.6726 C   0  0  0  0  0  0  0  0  0  0  0  0
  152.9133  139.1929  155.5295 O   0  0  0  0  0  0  0  0  0  0  0  0
  149.8714  140.4972  157.3392 C   0  0  2  0  0  0  0  0  0  0  0  0
  149.2621  139.5402  158.1819 O   0  0  0  0  0  0  0  0  0  0  0  0
  148.8135  141.2617  156.5434 C   0  0  1  0  0  0  0  0  0  0  0  0
  148.6420  142.5606  157.0718 O   0  0  0  0  0  0  0  0  0  0  0  0
  147.4455  141.0548  153.5535 C   0  0  0  0  0  0  0  0  0  0  0  0
  147.1309  142.2146  153.8188 O   0  0  0  0  0  0  0  0  0  0  0  0
  146.7115  140.2538  152.6671 N   0  0  0  0  0  0  0  0  0  0  0  0
  149.4415  142.2958  154.6613 H   0  0  0  0  0  0  0  0  0  0  0  0
  150.1840  138.8854  155.9372 H   0  0  0  0  0  0  0  0  0  0  0  0
  150.5011  141.1755  157.9179 H   0  0  0  0  0  0  0  0  0  0  0  0
  147.8562  140.7383  156.5473 H   0  0  0  0  0  0  0  0  0  0  0  0
  145.5141  138.4423  151.0178 H   0  0  0  0  0  0  0  0  0  0  0  0
  146.6658  137.2437  151.2803 H   0  0  0  0  0  0  0  0  0  0  0  0
  149.8766  138.7984  154.1563 H   0  0  0  0  0  0  0  0  0  0  0  0
  152.5821  140.3322  157.2189 H   0  0  0  0  0  0  0  0  0  0  0  0
  152.1724  138.6270  157.3297 H   0  0  0  0  0  0  0  0  0  0  0  0
  153.0914  138.2646  155.5260 H   0  0  0  0  0  0  0  0  0  0  0  0
  149.3496  138.6890  157.7797 H   0  0  0  0  0  0  0  0  0  0  0  0
  148.6516  143.1807  156.3578 H   0  0  0  0  0  0  0  0  0  0  0  0
  148.5015  137.6325  152.6858 H   0  0  0  0  0  0  0  0  0  0  0  0
  1  2  1  0  0  0  0
  1 22  1  0  0  0  0
  1 23  1  0  0  0  0
  2 17  2  0  0  0  0
  2  3  1  0  0  0  0
  3  4  2  0  0  0  0
  3 30  1  0  0  0  0
  4  5  1  0  0  0  0
  4 24  1  0  0  0  0
  5  6  1  0  0  0  0
  5 15  1  0  0  0  0
  6 18  1  0  0  0  0
  6 13  1  0  0  0  0
  6  7  1  0  0  0  0
  7  8  1  0  0  0  0
  8 19  1  0  0  0  0
  8  9  1  0  0  0  0
  8 11  1  0  0  0  0
  9 10  1  0  0  0  0
  9 25  1  0  0  0  0
  9 26  1  0  0  0  0
 10 27  1  0  0  0  0
 11 20  1  0  0  0  0
 11 12  1  0  0  0  0
 11 13  1  0  0  0  0
 12 28  1  0  0  0  0
 13 21  1  0  0  0  0
 13 14  1  0  0  0  0
 14 29  1  0  0  0  0
 15 16  2  0  0  0  0
 15 17  1  0  0  0  0
M  CHG  1   3   1
M  END
> <s_m_source_file>
AV-unprocessed.smi

> <i_m_source_file_index>
72

> <i_lp_mmshare_version>
43012

> <i_f3d_flags>
0

> <s_epik_input>
W05IMl1jMW5bY0hdbihjKD1PKW4xKVtDQEBIXTJPW0NASF0oW0NIMl1bT0hdKVtDQEBIXShbT0hdKVtDQEhdMltPSF0=

> <s_epik_cmdline>
J2VwaWtfcHl0aG9uJywgJy1waCcsICc3LjAnLCAnLXRuJywgJzgnLCAnLW1hJywgJzIwMCcsICctbWV0YWxfYmluZGluZycsICctaW1hZScsICc8aW5maWxlLm1hZT4nLCAnLW9tYWUnLCAnPG91dGZpbGUubWFlPic=

> <r_lp_tautomer_probability>
4.77166e-05

> <r_epik_Ionization_Penalty>
0.104979

> <r_epik_Ionization_Penalty_Charging>
0.0999619

> <r_epik_Ionization_Penalty_Neutral>
0.00501745

> <r_epik_State_Penalty>
2.51541

> <r_epik_Charging_Adjusted_Penalty>
2.61537

> <i_epik_Tot_Q>
1

> <i_epik_Tot_abs_Q>
1

> <r_epik_Metal_State_Penalty>
3.53763

> <b_epik_Metal_Only>
0

> <s_epik_Chemistry_Notes>
This compound contains an acetal/aminal-like group ( X-CH(R)-Y where X, Y are N, S, or O) that may be acid/base labile, releasing an aldehyde.

> <s_lp_Force_Field>
OPLS_2005

> <r_lp_Energy>
25.3585

> <b_lp_Chiralities_Consistent>
1

> <s_lp_Variant>
AV-unprocessed.smi:72-39

> <Gold.Version>
5.8.1

> <Gold.Id.Protein>
6NUR|6NUR_protein|mol2

> <Gold.PLP.Fitness>
41.0688

> <Gold.PLP.PLP>
-24.7680

> <Gold.PLP.part.hbond>
-6.3398

> <Gold.PLP.part.metal>
0.0000

> <Gold.PLP.part.buried>
0.1407

> <Gold.PLP.part.nonpolar>
-19.1424

> <Gold.PLP.part.repulsive>
1.4642

> <Gold.PLP.ligand.clash>
0.0000

> <Gold.PLP.ligand.torsion>
0.6445

> <Gold.PLP.Chemscore.Hbond>
5.8480

> <Gold.PLP.Chemscore.CHOScore>
0.0000

> <Gold.PLP.Chemscore.Metal>
0.0000

> <Gold.Chemscore.Hbonds>
donor molecule, donor type, donor heavy atom, donor atom, acceptor molecule, acceptor atom, score
      L1  H     1    22       P1 10171  0.99
      L1  H     3    30       P1  7948  2.00
      L1  H    14    29       P1  8028  1.00
      P1  H  7989  7998       L1     7  0.86
      P1  H  7997  8009       L1    10  0.99

> <Gold.PLP.Chemscore.Internal.Correction>
0.0458

> <Gold.Rescore>
     Score         DG    S(hbond)    S(metal)    S(lipo)     H(rot)  DE(clash)    DE(int)     intcor
      7.35     -10.31       3.93        0.00      18.41       4.08       1.35       1.62       ----

> <Gold.Chemscore.Fitness>
7.3462

> <Gold.Chemscore.DG>
-10.3135

> <Gold.Chemscore.ZeroCoef>
-5.4800

> <Gold.Chemscore.Hbond>
3.9280

> <Gold.Chemscore.Metal>
0.0000

> <Gold.Chemscore.Lipo>
18.4130

> <Gold.Chemscore.Internal_Hbond>
0.0000

> <Gold.Chemscore.DEClash>
1.3458

> <Gold.Chemscore.DEInternal>
1.6215

> <Gold.Chemscore.Rot>
4.0783

> <Gold.Chemscore.Internal.Correction>
   9.000000E+99

> <Gold.Chemscore.Hbonds>
donor molecule, donor type, donor heavy atom, donor atom, acceptor molecule, acceptor atom, score
      L1  H     1    22       P1 10171  0.92
      L1  H     3    30       P1  7948  1.00
      L1  H    14    29       P1  8028  0.90
      P1  H  7989  7998       L1     7  0.66
      P1  H  7997  8009       L1    10  0.29

> <Gold.Chemscore.Hbond.Weighted>
-13.1196

> <Gold.Chemscore.Metal.Weighted>
-0.0000

> <Gold.Chemscore.Lipo.Weighted>
-2.1543

> <Gold.Chemscore.Internal_Hbond.Weighted>
0.0000

> <Gold.Chemscore.DEClash.Weighted>
1.3458

> <Gold.Chemscore.DEInternal.Weighted>
1.6215

> <Gold.Chemscore.Rot.Weighted>
10.4404

> <Gold.Chemscore.Internal.Correction.Weighted>
   9.000000E+99

> <Gold.Protein.RotatedTorsions>
[ 6907 6896 6895 6894 ] final  -75.09 input  -60.11 | X-H torsion
[ 7974 7965 7964 7962 ] final -157.41 input  175.53 | X-H torsion
[ 8008 7997 7996 7995 ] final -128.17 input   59.86 | X-H torsion
[ 10167 10162 10161 10158 ] final  -80.88 input  -65.29 | X-H torsion
[ 10718 10713 10712 10709 ] final  126.48 input   66.30 | X-H torsion
[ 10763 10752 10751 10750 ] final  160.03 input  -60.55 | X-H torsion
[ 11005 11000 10999 10996 ] final -162.74 input  -57.11 | X-H torsion

> <Gold.Protein.ActiveResidues>
 VAL166  LYS551  ARG553  GLY616  TRP617  ASP618  TYR619  PRO620  LYS621  CYS622 
 ASP623  PHE694  ASN695  SER759  ASP760  ASP761  ALA762  ILE779  LEU786  VAL792 
 PHE793  MET794  SER795  GLU796  ALA797  LYS798  CYS799  TRP800  GLU811  SER814 

> <Gold.Protein.RotatedAtoms>
  150.7071  134.4773  159.5453 H   0  0  0  0  0  0  0  0  0  0  0  0  # atno 6907 bound_to 6896
  152.2417  134.8219  160.0468 H   0  0  0  0  0  0  0  0  0  0  0  0  # atno 6908 bound_to 6896
  151.8998  133.3500  159.3863 H   0  0  0  0  0  0  0  0  0  0  0  0  # atno 6909 bound_to 6896
  144.7549  140.3972  143.6020 H   0  0  0  0  0  0  0  0  0  0  0  0  # atno 7974 bound_to 7965
  155.2582  140.0435  157.2994 H   0  0  0  0  0  0  0  0  0  0  0  0  # atno 8008 bound_to 7997
  154.5727  140.2378  155.8138 H   0  0  0  0  0  0  0  0  0  0  0  0  # atno 8009 bound_to 7997
  156.2134  140.2992  155.9793 H   0  0  0  0  0  0  0  0  0  0  0  0  # atno 8010 bound_to 7997
  140.4462  143.2498  151.8554 H   0  0  0  0  0  0  0  0  0  0  0  0  # atno 10167 bound_to 10162
  157.5415  131.1096  150.8851 H   0  0  0  0  0  0  0  0  0  0  0  0  # atno 10718 bound_to 10713
  154.2411  135.2775  155.2853 H   0  0  0  0  0  0  0  0  0  0  0  0  # atno 10763 bound_to 10752
  154.5544  135.5665  153.6954 H   0  0  0  0  0  0  0  0  0  0  0  0  # atno 10764 bound_to 10752
  152.9999  135.6282  154.2555 H   0  0  0  0  0  0  0  0  0  0  0  0  # atno 10765 bound_to 10752
  140.6058  134.4900  157.5210 H   0  0  0  0  0  0  0  0  0  0  0  0  # atno 11005 bound_to 11000
  145.6813  139.1619  143.2699 LP  0  0  0  0  0  0  0  0  0  0  0  0  # atno 17320 bound_to 7965
  146.1547  140.6874  142.9305 LP  0  0  0  0  0  0  0  0  0  0  0  0  # atno 17321 bound_to 7965
  139.4793  144.5172  151.8851 LP  0  0  0  0  0  0  0  0  0  0  0  0  # atno 17342 bound_to 10162
  140.4260  144.2179  150.5887 LP  0  0  0  0  0  0  0  0  0  0  0  0  # atno 17343 bound_to 10162
  156.9402  130.5382  149.5280 LP  0  0  0  0  0  0  0  0  0  0  0  0  # atno 17370 bound_to 10713
  156.0501  130.5571  150.8969 LP  0  0  0  0  0  0  0  0  0  0  0  0  # atno 17371 bound_to 10713
  139.9213  134.8144  156.1204 LP  0  0  0  0  0  0  0  0  0  0  0  0  # atno 17394 bound_to 11000
  141.0841  133.6741  156.2399 LP  0  0  0  0  0  0  0  0  0  0  0  0  # atno 17395 bound_to 11000

$$$$
