AV-unprocessed.smi:2135|AV-procd|sdf|8700|dock4
  -GOLD-   2272011453D 1   1.00000     0.00000
 Structure written by MMmdl.
 43 44  0  0  0  0  0  0  0  0  2 V2000
  152.2040  138.0530  157.6103 C   0  0  0  0  0  0  0  0  0  0  0  0
  151.3077  136.4660  157.3690 S   0  0  0  0  0  0  0  0  0  0  0  0
  152.2983  135.4043  157.1348 O   0  0  0  0  0  0  0  0  0  0  0  0
  150.3342  136.3299  158.4633 O   0  0  0  0  0  0  0  0  0  0  0  0
  150.4043  136.7032  155.9008 N   0  0  0  0  0  0  0  0  0  0  0  0
  148.9319  136.7745  155.9287 C   0  0  0  0  0  0  0  0  0  0  0  0
  148.4339  138.1893  155.5909 C   0  0  0  0  0  0  0  0  0  0  0  0
  149.0383  138.7043  154.2715 C   0  0  0  0  0  0  0  0  0  0  0  0
  150.5828  138.6299  154.2756 C   0  0  1  0  0  0  0  0  0  0  0  0
  151.2531  139.7246  155.1279 C   0  0  0  0  0  0  0  0  0  0  0  0
  152.4716  139.7457  155.3057 O   0  0  0  0  0  0  0  0  0  0  0  0
  150.4259  140.6209  155.6893 N   0  0  0  0  0  0  0  0  0  0  0  0
  150.8440  141.7339  156.5329 C   0  0  0  0  0  0  0  0  0  0  0  0
  150.8277  141.3537  158.0226 C   0  0  0  0  0  0  0  0  0  0  0  0
  151.4400  142.4323  158.8943 C   0  0  0  0  0  0  0  0  0  0  0  0
  152.5184  142.1370  159.7572 C   0  0  0  0  0  0  0  0  0  0  0  0
  153.0640  143.1624  160.5577 C   0  0  0  0  0  0  0  0  0  0  0  0
  152.5180  144.4600  160.4776 C   0  0  0  0  0  0  0  0  0  0  0  0
  151.4854  144.7046  159.6409 N   0  3  0  0  0  0  0  0  0  0  0  0
  150.9356  143.7507  158.8577 C   0  0  0  0  0  0  0  0  0  0  0  0
  151.0342  137.1981  154.6582 C   0  0  0  0  0  0  0  0  0  0  0  0
  152.6681  138.0530  158.5961 H   0  0  0  0  0  0  0  0  0  0  0  0
  151.5065  138.8871  157.5429 H   0  0  0  0  0  0  0  0  0  0  0  0
  152.9836  138.1571  156.8598 H   0  0  0  0  0  0  0  0  0  0  0  0
  148.5376  136.0617  155.2037 H   0  0  0  0  0  0  0  0  0  0  0  0
  148.5563  136.4662  156.9044 H   0  0  0  0  0  0  0  0  0  0  0  0
  147.3462  138.1842  155.5166 H   0  0  0  0  0  0  0  0  0  0  0  0
  148.6703  138.8644  156.4122 H   0  0  0  0  0  0  0  0  0  0  0  0
  148.6565  138.1018  153.4463 H   0  0  0  0  0  0  0  0  0  0  0  0
  148.6994  139.7229  154.0773 H   0  0  0  0  0  0  0  0  0  0  0  0
  150.9162  138.8178  153.2538 H   0  0  0  0  0  0  0  0  0  0  0  0
  149.4365  140.5322  155.5066 H   0  0  0  0  0  0  0  0  0  0  0  0
  151.8371  142.0737  156.2332 H   0  0  0  0  0  0  0  0  0  0  0  0
  150.1638  142.5673  156.3540 H   0  0  0  0  0  0  0  0  0  0  0  0
  149.8042  141.1650  158.3494 H   0  0  0  0  0  0  0  0  0  0  0  0
  151.3768  140.4248  158.1834 H   0  0  0  0  0  0  0  0  0  0  0  0
  152.9240  141.1369  159.8077 H   0  0  0  0  0  0  0  0  0  0  0  0
  153.8892  142.9559  161.2234 H   0  0  0  0  0  0  0  0  0  0  0  0
  152.8729  145.3027  161.0529 H   0  0  0  0  0  0  0  0  0  0  0  0
  150.1137  144.0680  158.2321 H   0  0  0  0  0  0  0  0  0  0  0  0
  152.1194  137.1391  154.7375 H   0  0  0  0  0  0  0  0  0  0  0  0
  150.7657  136.5150  153.8517 H   0  0  0  0  0  0  0  0  0  0  0  0
  151.1047  145.6504  159.5984 H   0  0  0  0  0  0  0  0  0  0  0  0
  1  2  1  0  0  0  0
  1 22  1  0  0  0  0
  1 23  1  0  0  0  0
  1 24  1  0  0  0  0
  2  3  2  0  0  0  0
  2  4  2  0  0  0  0
  2  5  1  0  0  0  0
  5 21  1  0  0  0  0
  5  6  1  0  0  0  0
  6  7  1  0  0  0  0
  6 25  1  0  0  0  0
  6 26  1  0  0  0  0
  7  8  1  0  0  0  0
  7 27  1  0  0  0  0
  7 28  1  0  0  0  0
  8  9  1  0  0  0  0
  8 29  1  0  0  0  0
  8 30  1  0  0  0  0
  9 10  1  0  0  0  0
  9 21  1  0  0  0  0
  9 31  1  0  0  0  0
 10 11  2  0  0  0  0
 10 12  1  0  0  0  0
 12 13  1  0  0  0  0
 12 32  1  0  0  0  0
 13 14  1  0  0  0  0
 13 33  1  0  0  0  0
 13 34  1  0  0  0  0
 14 15  1  0  0  0  0
 14 35  1  0  0  0  0
 14 36  1  0  0  0  0
 15 20  1  0  0  0  0
 15 16  2  0  0  0  0
 16 17  1  0  0  0  0
 16 37  1  0  0  0  0
 17 18  2  0  0  0  0
 17 38  1  0  0  0  0
 18 19  1  0  0  0  0
 18 39  1  0  0  0  0
 19 20  2  0  0  0  0
 19 43  1  0  0  0  0
 20 40  1  0  0  0  0
 21 41  1  0  0  0  0
 21 42  1  0  0  0  0
M  CHG  1  19   1
M  END
> <s_m_source_file>
AV-unprocessed.smi

> <i_m_source_file_index>
2135

> <i_lp_mmshare_version>
43012

> <i_f3d_flags>
0

> <s_epik_input>
W0NIM11TKD1PKSg9TylOMVtDSDJdW0NIMl1bQ0gyXVtDQEhdKFtDSDJdMSlDKD1PKVtOSF1bQ0gyXVtDSDJdYzJbY0hdW2NIXVtjSF1uW2NIXTI=

> <s_epik_cmdline>
J2VwaWtfcHl0aG9uJywgJy1waCcsICc3LjAnLCAnLXRuJywgJzgnLCAnLW1hJywgJzIwMCcsICctbWV0YWxfYmluZGluZycsICctaW1hZScsICc8aW5maWxlLm1hZT4nLCAnLW9tYWUnLCAnPG91dGZpbGUubWFlPic=

> <r_epik_Ionization_Penalty>
2.24912

> <r_epik_Ionization_Penalty_Charging>
2.24912

> <r_epik_Ionization_Penalty_Neutral>
2.62834e-08

> <r_epik_State_Penalty>
2.39611

> <r_epik_Charging_Adjusted_Penalty>
4.64523

> <i_epik_Tot_Q>
1

> <i_epik_Tot_abs_Q>
1

> <r_epik_Metal_State_Penalty>
2.40934

> <b_epik_Metal_Only>
0

> <s_lp_Force_Field>
OPLS_2005

> <r_lp_Energy>
5.07519

> <b_lp_Chiralities_Consistent>
1

> <s_lp_Variant>
AV-unprocessed.smi:2135-3

> <Gold.Version>
5.8.1

> <Gold.Id.Protein>
6NUR|6NUR_protein|mol2

> <Gold.PLP.Fitness>
45.0840

> <Gold.PLP.PLP>
-37.1609

> <Gold.PLP.part.hbond>
-4.1542

> <Gold.PLP.part.metal>
0.0000

> <Gold.PLP.part.buried>
-3.7539

> <Gold.PLP.part.nonpolar>
-29.0824

> <Gold.PLP.part.repulsive>
0.2635

> <Gold.PLP.ligand.clash>
0.0000

> <Gold.PLP.ligand.torsion>
1.4057

> <Gold.PLP.Chemscore.Hbond>
2.8800

> <Gold.PLP.Chemscore.CHOScore>
0.0000

> <Gold.PLP.Chemscore.Metal>
0.0000

> <Gold.Chemscore.Hbonds>
donor molecule, donor type, donor heavy atom, donor atom, acceptor molecule, acceptor atom, score
      P1  H  6896  6909       L1     4  0.98
      P1  H  7997  8009       L1    11  0.63
      P1  H 10752 10763       L1     3  0.62

> <Gold.PLP.Chemscore.Internal.Correction>
2.0945

> <Gold.Rescore>
     Score         DG    S(hbond)    S(metal)    S(lipo)     H(rot)  DE(clash)    DE(int)     intcor
     18.57     -21.36       2.74        0.00      93.83       1.65       0.20       2.60       ----

> <Gold.Chemscore.Fitness>
18.5688

> <Gold.Chemscore.DG>
-21.3645

> <Gold.Chemscore.ZeroCoef>
-5.4800

> <Gold.Chemscore.Hbond>
2.7366

> <Gold.Chemscore.Metal>
0.0000

> <Gold.Chemscore.Lipo>
93.8278

> <Gold.Chemscore.Internal_Hbond>
0.0000

> <Gold.Chemscore.DEClash>
0.1995

> <Gold.Chemscore.DEInternal>
2.5962

> <Gold.Chemscore.Rot>
1.6538

> <Gold.Chemscore.Internal.Correction>
   9.000000E+99

> <Gold.Chemscore.Hbonds>
donor molecule, donor type, donor heavy atom, donor atom, acceptor molecule, acceptor atom, score
      P1  H  6896  6909       L1     4  0.68
      P1  H  7997  8009       L1    11  0.62
      P1  H 10752 10763       L1     3  0.62

> <Gold.Chemscore.Hbond.Weighted>
-9.1403

> <Gold.Chemscore.Metal.Weighted>
-0.0000

> <Gold.Chemscore.Lipo.Weighted>
-10.9779

> <Gold.Chemscore.Internal_Hbond.Weighted>
0.0000

> <Gold.Chemscore.DEClash.Weighted>
0.1995

> <Gold.Chemscore.DEInternal.Weighted>
2.5962

> <Gold.Chemscore.Rot.Weighted>
4.2337

> <Gold.Chemscore.Internal.Correction.Weighted>
   9.000000E+99

> <Gold.Protein.RotatedTorsions>
[ 6907 6896 6895 6894 ] final   75.98 input  -60.11 | X-H torsion
[ 7974 7965 7964 7962 ] final  177.49 input  175.53 | X-H torsion
[ 8008 7997 7996 7995 ] final -124.54 input   59.86 | X-H torsion
[ 10167 10162 10161 10158 ] final -106.94 input  -65.29 | X-H torsion
[ 10718 10713 10712 10709 ] final    5.83 input   66.30 | X-H torsion
[ 10763 10752 10751 10750 ] final  119.40 input  -60.55 | X-H torsion
[ 11005 11000 10999 10996 ] final   32.01 input  -57.11 | X-H torsion

> <Gold.Protein.ActiveResidues>
 VAL166  LYS551  ARG553  GLY616  TRP617  ASP618  TYR619  PRO620  LYS621  CYS622 
 ASP623  PHE694  ASN695  SER759  ASP760  ASP761  ALA762  ILE779  LEU786  VAL792 
 PHE793  MET794  SER795  GLU796  ALA797  LYS798  CYS799  TRP800  GLU811  SER814 

> <Gold.Protein.RotatedAtoms>
  152.5051  134.4038  159.9425 H   0  0  0  0  0  0  0  0  0  0  0  0  # atno 6907 bound_to 6896
  151.4004  133.3753  159.2739 H   0  0  0  0  0  0  0  0  0  0  0  0  # atno 6908 bound_to 6896
  150.9366  134.8799  159.7644 H   0  0  0  0  0  0  0  0  0  0  0  0  # atno 6909 bound_to 6896
  144.7168  140.0255  143.6439 H   0  0  0  0  0  0  0  0  0  0  0  0  # atno 7974 bound_to 7965
  155.1985  140.0415  157.2913 H   0  0  0  0  0  0  0  0  0  0  0  0  # atno 8008 bound_to 7997
  154.6090  140.2472  155.7665 H   0  0  0  0  0  0  0  0  0  0  0  0  # atno 8009 bound_to 7997
  156.2368  140.2918  156.0343 H   0  0  0  0  0  0  0  0  0  0  0  0  # atno 8010 bound_to 7997
  140.1824  143.3956  152.1271 H   0  0  0  0  0  0  0  0  0  0  0  0  # atno 10167 bound_to 10162
  156.9133  130.5764  149.5647 H   0  0  0  0  0  0  0  0  0  0  0  0  # atno 10718 bound_to 10713
  153.5824  135.3481  155.2880 H   0  0  0  0  0  0  0  0  0  0  0  0  # atno 10763 bound_to 10752
  154.8665  135.4185  154.2605 H   0  0  0  0  0  0  0  0  0  0  0  0  # atno 10764 bound_to 10752
  153.3395  135.7049  153.6950 H   0  0  0  0  0  0  0  0  0  0  0  0  # atno 10765 bound_to 10752
  140.2779  134.3006  155.7809 H   0  0  0  0  0  0  0  0  0  0  0  0  # atno 11005 bound_to 11000
  146.0145  139.3198  143.0850 LP  0  0  0  0  0  0  0  0  0  0  0  0  # atno 17320 bound_to 7965
  145.8642  140.9458  143.0684 LP  0  0  0  0  0  0  0  0  0  0  0  0  # atno 17321 bound_to 7965
  139.5290  144.7137  151.5122 LP  0  0  0  0  0  0  0  0  0  0  0  0  # atno 17342 bound_to 10162
  140.6511  143.8695  150.6786 LP  0  0  0  0  0  0  0  0  0  0  0  0  # atno 17343 bound_to 10162
  156.0526  130.5592  150.9021 LP  0  0  0  0  0  0  0  0  0  0  0  0  # atno 17370 bound_to 10713
  157.5954  131.0943  150.9050 LP  0  0  0  0  0  0  0  0  0  0  0  0  # atno 17371 bound_to 10713
  141.2167  133.7507  156.9436 LP  0  0  0  0  0  0  0  0  0  0  0  0  # atno 17394 bound_to 11000
  140.1311  134.9355  157.2338 LP  0  0  0  0  0  0  0  0  0  0  0  0  # atno 17395 bound_to 11000

$$$$
