AV-unprocessed.smi:157|AV-procd|sdf|1305|dock10
  -GOLD-   2262018593D 1   1.00000     0.00000
 Structure written by MMmdl.
 35 37  0  0  0  0  0  0  0  0  1 V2000
  151.1266  143.8066  161.9565 O   0  0  0  0  0  0  0  0  0  0  0  0
  152.4051  143.6374  161.3821 C   0  0  0  0  0  0  0  0  0  0  0  0
  152.2784  143.2419  159.9006 C   0  0  1  0  0  0  0  0  0  0  0  0
  151.3204  142.2044  159.7268 O   0  0  0  0  0  0  0  0  0  0  0  0
  150.8473  142.2053  158.4110 C   0  0  2  0  0  0  0  0  0  0  0  0
  151.4324  141.0326  157.6802 N   0  0  0  0  0  0  0  0  0  0  0  0
  152.4929  140.3000  158.0476 C   0  0  0  0  0  0  0  0  0  0  0  0
  152.8017  139.3228  157.2128 N   0  0  0  0  0  0  0  0  0  0  0  0
  151.8391  139.4211  156.2081 C   0  0  0  0  0  0  0  0  0  0  0  0
  150.9919  140.4892  156.4694 C   0  0  0  0  0  0  0  0  0  0  0  0
  149.9078  141.0850  155.8502 N   0  0  0  0  0  0  0  0  0  0  0  0
  149.6064  140.7360  154.6381 C   0  0  0  0  0  0  0  0  0  0  0  0
  150.1388  139.7511  153.8172 N   0  0  0  0  0  0  0  0  0  0  0  0
  150.5239  138.4347  154.2882 C   0  0  0  0  0  0  0  0  0  0  0  0
  151.8494  138.4641  155.0496 C   0  0  2  0  0  0  0  0  0  0  0  0
  152.0939  137.1729  155.5705 O   0  0  0  0  0  0  0  0  0  0  0  0
  151.3080  143.5151  157.7521 C   0  0  0  0  0  0  0  0  0  0  0  0
  151.8081  144.3315  158.9293 C   0  0  1  0  0  0  0  0  0  0  0  0
  150.7654  145.1195  159.4721 O   0  0  0  0  0  0  0  0  0  0  0  0
  153.2377  142.8552  159.5514 H   0  0  0  0  0  0  0  0  0  0  0  0
  149.7682  142.0486  158.3940 H   0  0  0  0  0  0  0  0  0  0  0  0
  152.6597  138.7190  154.3657 H   0  0  0  0  0  0  0  0  0  0  0  0
  152.6251  144.9947  158.6431 H   0  0  0  0  0  0  0  0  0  0  0  0
  151.0275  144.7128  162.2057 H   0  0  0  0  0  0  0  0  0  0  0  0
  152.9466  144.5797  161.4685 H   0  0  0  0  0  0  0  0  0  0  0  0
  152.9684  142.8960  161.9491 H   0  0  0  0  0  0  0  0  0  0  0  0
  153.0599  140.4862  158.9478 H   0  0  0  0  0  0  0  0  0  0  0  0
  148.7954  141.2684  154.1390 H   0  0  0  0  0  0  0  0  0  0  0  0
  149.8849  139.7416  152.8397 H   0  0  0  0  0  0  0  0  0  0  0  0
  149.7296  138.0468  154.9283 H   0  0  0  0  0  0  0  0  0  0  0  0
  150.5952  137.7621  153.4331 H   0  0  0  0  0  0  0  0  0  0  0  0
  152.4358  137.2690  156.4465 H   0  0  0  0  0  0  0  0  0  0  0  0
  152.1289  143.3145  157.0612 H   0  0  0  0  0  0  0  0  0  0  0  0
  150.4950  143.9849  157.1968 H   0  0  0  0  0  0  0  0  0  0  0  0
  150.5005  145.7519  158.8216 H   0  0  0  0  0  0  0  0  0  0  0  0
  1  2  1  0  0  0  0
  1 24  1  0  0  0  0
  2  3  1  0  0  0  0
  2 25  1  0  0  0  0
  2 26  1  0  0  0  0
  3 20  1  0  0  0  0
  3 18  1  0  0  0  0
  3  4  1  0  0  0  0
  4  5  1  0  0  0  0
  5 21  1  0  0  0  0
  5  6  1  0  0  0  0
  5 17  1  0  0  0  0
  6 10  1  0  0  0  0
  6  7  1  0  0  0  0
  7  8  2  0  0  0  0
  7 27  1  0  0  0  0
  8  9  1  0  0  0  0
  9 15  1  0  0  0  0
  9 10  2  0  0  0  0
 10 11  1  0  0  0  0
 11 12  2  0  0  0  0
 12 13  1  0  0  0  0
 12 28  1  0  0  0  0
 13 14  1  0  0  0  0
 13 29  1  0  0  0  0
 14 15  1  0  0  0  0
 14 30  1  0  0  0  0
 14 31  1  0  0  0  0
 15 22  1  0  0  0  0
 15 16  1  0  0  0  0
 16 32  1  0  0  0  0
 17 18  1  0  0  0  0
 17 33  1  0  0  0  0
 17 34  1  0  0  0  0
 18 23  1  0  0  0  0
 18 19  1  0  0  0  0
 19 35  1  0  0  0  0
M  END
> <s_m_source_file>
AV-unprocessed.smi

> <i_m_source_file_index>
157

> <i_lp_mmshare_version>
43012

> <i_f3d_flags>
0

> <s_epik_input>
W09IXVtDSDJdW0NASF0xT1tDQEhdKFtDSDJdW0NAQEhdMVtPSF0pbihbY0hdbjIpYyhjMjMpTj1bQ0hdW05IXVtDSDJdW0NASF0zW09IXQ==

> <s_epik_cmdline>
J2VwaWtfcHl0aG9uJywgJy1waCcsICc3LjAnLCAnLXRuJywgJzgnLCAnLW1hJywgJzIwMCcsICctbWV0YWxfYmluZGluZycsICctaW1hZScsICc8aW5maWxlLm1hZT4nLCAnLW9tYWUnLCAnPG91dGZpbGUubWFlPic=

> <r_lp_tautomer_probability>
1

> <r_epik_Ionization_Penalty>
0.0357149

> <r_epik_Ionization_Penalty_Charging>
0.0355056

> <r_epik_Ionization_Penalty_Neutral>
0.000209255

> <r_epik_State_Penalty>
0.0296046

> <r_epik_Charging_Adjusted_Penalty>
0.0651102

> <i_epik_Tot_Q>
0

> <i_epik_Tot_abs_Q>
0

> <r_epik_Metal_State_Penalty>
3.03559e-05

> <b_epik_Metal_Only>
0

> <s_epik_Chemistry_Notes>
This compound has an imine and may undergo hydrolysis. This compound contains an acetal/aminal-like group ( X-CH(R)-Y where X, Y are N, S, or O) that may be acid/base labile, releasing an aldehyde.

> <s_lp_Force_Field>
OPLS_2005

> <r_lp_Energy>
41.6449

> <b_lp_Chiralities_Consistent>
1

> <s_lp_Variant>
AV-unprocessed.smi:157-15

> <Gold.Version>
5.8.1

> <Gold.Id.Protein>
6NUR|6NUR_protein|mol2

> <Gold.PLP.Fitness>
49.2895

> <Gold.PLP.PLP>
-41.5555

> <Gold.PLP.part.hbond>
-6.8740

> <Gold.PLP.part.metal>
0.0000

> <Gold.PLP.part.buried>
-6.4004

> <Gold.PLP.part.nonpolar>
-30.4365

> <Gold.PLP.part.repulsive>
1.8116

> <Gold.PLP.ligand.clash>
0.0000

> <Gold.PLP.ligand.torsion>
0.5579

> <Gold.PLP.Chemscore.Hbond>
2.9477

> <Gold.PLP.Chemscore.CHOScore>
0.0000

> <Gold.PLP.Chemscore.Metal>
0.0000

> <Gold.Chemscore.Hbonds>
donor molecule, donor type, donor heavy atom, donor atom, acceptor molecule, acceptor atom, score
      L1  H    13    29       P1  7957  1.00
      P1  H  6933  6945       L1     1  0.14
      P1  H  7997  8010       L1     8  0.90
      P1  H 10752 10764       L1    16  0.91

> <Gold.PLP.Chemscore.Internal.Correction>
0.0067

> <Gold.Rescore>
     Score         DG    S(hbond)    S(metal)    S(lipo)     H(rot)  DE(clash)    DE(int)     intcor
      8.93     -10.23       1.80        0.00      68.80       3.64       0.79       0.50       ----

> <Gold.Chemscore.Fitness>
8.9345

> <Gold.Chemscore.DG>
-10.2254

> <Gold.Chemscore.ZeroCoef>
-5.4800

> <Gold.Chemscore.Hbond>
1.7978

> <Gold.Chemscore.Metal>
0.0000

> <Gold.Chemscore.Lipo>
68.7973

> <Gold.Chemscore.Internal_Hbond>
0.0000

> <Gold.Chemscore.DEClash>
0.7878

> <Gold.Chemscore.DEInternal>
0.5031

> <Gold.Chemscore.Rot>
3.6362

> <Gold.Chemscore.Internal.Correction>
   9.000000E+99

> <Gold.Chemscore.Hbonds>
donor molecule, donor type, donor heavy atom, donor atom, acceptor molecule, acceptor atom, score
      L1  H    13    29       P1  7957  1.00
      P1  H  6933  6945       L1     1  0.11
      P1  H  7997  8010       L1     8  0.09
      P1  H 10752 10764       L1    16  0.42

> <Gold.Chemscore.Hbond.Weighted>
-6.0048

> <Gold.Chemscore.Metal.Weighted>
-0.0000

> <Gold.Chemscore.Lipo.Weighted>
-8.0493

> <Gold.Chemscore.Internal_Hbond.Weighted>
0.0000

> <Gold.Chemscore.DEClash.Weighted>
0.7878

> <Gold.Chemscore.DEInternal.Weighted>
0.5031

> <Gold.Chemscore.Rot.Weighted>
9.3087

> <Gold.Chemscore.Internal.Correction.Weighted>
   9.000000E+99

> <Gold.Protein.RotatedTorsions>
[ 6907 6896 6895 6894 ] final -114.95 input  -60.11 | X-H torsion
[ 7974 7965 7964 7962 ] final   32.85 input  175.53 | X-H torsion
[ 8008 7997 7996 7995 ] final   70.54 input   59.86 | X-H torsion
[ 10167 10162 10161 10158 ] final -130.24 input  -65.29 | X-H torsion
[ 10718 10713 10712 10709 ] final    8.82 input   66.30 | X-H torsion
[ 10763 10752 10751 10750 ] final  -44.43 input  -60.55 | X-H torsion
[ 11005 11000 10999 10996 ] final -130.63 input  -57.11 | X-H torsion

> <Gold.Protein.ActiveResidues>
 VAL166  LYS551  ARG553  GLY616  TRP617  ASP618  TYR619  PRO620  LYS621  CYS622 
 ASP623  PHE694  ASN695  SER759  ASP760  ASP761  ALA762  ILE779  LEU786  VAL792 
 PHE793  MET794  SER795  GLU796  ALA797  LYS798  CYS799  TRP800  GLU811  SER814 

> <Gold.Protein.RotatedAtoms>
  150.7941  133.8728  159.3263 H   0  0  0  0  0  0  0  0  0  0  0  0  # atno 6907 bound_to 6896
  151.6558  135.0994  160.0179 H   0  0  0  0  0  0  0  0  0  0  0  0  # atno 6908 bound_to 6896
  152.4020  133.6792  159.6359 H   0  0  0  0  0  0  0  0  0  0  0  0  # atno 6909 bound_to 6896
  146.1460  139.6473  142.9131 H   0  0  0  0  0  0  0  0  0  0  0  0  # atno 7974 bound_to 7965
  155.7404  140.3490  155.5101 H   0  0  0  0  0  0  0  0  0  0  0  0  # atno 8008 bound_to 7997
  155.9099  140.1048  157.1308 H   0  0  0  0  0  0  0  0  0  0  0  0  # atno 8009 bound_to 7997
  154.4054  140.1270  156.4531 H   0  0  0  0  0  0  0  0  0  0  0  0  # atno 8010 bound_to 7997
  139.9314  143.6268  152.2528 H   0  0  0  0  0  0  0  0  0  0  0  0  # atno 10167 bound_to 10162
  156.9572  130.5919  149.5660 H   0  0  0  0  0  0  0  0  0  0  0  0  # atno 10718 bound_to 10713
  154.0120  135.6680  153.4766 H   0  0  0  0  0  0  0  0  0  0  0  0  # atno 10763 bound_to 10752
  153.0617  135.5024  154.8104 H   0  0  0  0  0  0  0  0  0  0  0  0  # atno 10764 bound_to 10752
  154.6990  135.3075  154.9333 H   0  0  0  0  0  0  0  0  0  0  0  0  # atno 10765 bound_to 10752
  140.9329  134.1295  157.4219 H   0  0  0  0  0  0  0  0  0  0  0  0  # atno 11005 bound_to 11000
  145.4937  141.0438  143.2579 LP  0  0  0  0  0  0  0  0  0  0  0  0  # atno 17320 bound_to 7965
  144.7846  139.6453  143.7139 LP  0  0  0  0  0  0  0  0  0  0  0  0  # atno 17321 bound_to 7965
  139.6779  144.7657  151.1662 LP  0  0  0  0  0  0  0  0  0  0  0  0  # atno 17342 bound_to 10162
  140.7636  143.5768  150.8937 LP  0  0  0  0  0  0  0  0  0  0  0  0  # atno 17343 bound_to 10162
  156.0337  130.5426  150.8600 LP  0  0  0  0  0  0  0  0  0  0  0  0  # atno 17370 bound_to 10713
  157.5682  131.0946  150.9458 LP  0  0  0  0  0  0  0  0  0  0  0  0  # atno 17371 bound_to 10713
  139.8801  135.0011  156.6049 LP  0  0  0  0  0  0  0  0  0  0  0  0  # atno 17394 bound_to 11000
  140.7838  133.8638  155.8589 LP  0  0  0  0  0  0  0  0  0  0  0  0  # atno 17395 bound_to 11000

$$$$
