#       Name:                AV-unprocessed.smi:2702
#       Creating user name   scv26
#       Creation time:       Fri Mar 27 14:47:51 2020


#       File generated by GOLD software.
#

@<TRIPOS>MOLECULE
AV-unprocessed.smi:2702
    54    55     1
SMALL
NO_CHARGES


@<TRIPOS>ATOM
      1 ****        -7.1094   3.1796  -2.2758 C.3            1 S1                 0.0000
      2 ****        -5.9178   2.4736  -1.9778 O.3            1 S1                 0.0000
      3 ****        -5.0832   2.3144  -3.1127 C.3            1 S1                 0.0000
      4 ****        -3.8364   1.5320  -2.7523 C.2            1 S1                 0.0000
      5 ****        -2.6058   2.0953  -2.7665 C.2            1 S1                 0.0000
      6 ****        -1.4210   1.3084  -2.4241 C.2            1 S1                 0.0000
      7 ****        -0.2856   1.7849  -2.4229 O.2            1 S1                 0.0000
      8 ****        -1.6692   0.0027  -2.1086 N.am           1 S1                 0.0000
      9 ****        -0.5752  -0.9180  -1.7487 C.3            1 S1                 0.0000
     10 ****        -0.1031  -0.7631  -0.2956 C.2            1 S1                 0.0000
     11 ****        -0.8626  -0.3292   0.5715 O.2            1 S1                 0.0000
     12 ****         1.1585  -1.1444  -0.0461 N.am           1 S1                 0.0000
     13 ****         1.8273  -1.0695   1.2511 C.3            1 S1                 0.0000
     14 ****         1.5092  -2.3364   2.0719 C.3            1 S1                 0.0000
     15 ****         2.2526  -2.3499   3.4145 C.3            1 S1                 0.0000
     16 ****         3.7669  -2.1862   3.2115 C.3            1 S1                 0.0000
     17 ****         4.1143  -0.9127   2.4142 C.3            1 S1                 0.0000
     18 ****         3.9176   0.3603   3.2627 C.3            1 S1                 0.0000
     19 ****         3.3566  -0.8974   1.0593 C.3            1 S1                 0.0000
     20 ****         3.7205   0.3277   0.1965 C.3            1 S1                 0.0000
     21 ****        -2.9728  -0.5326  -2.1065 C.2            1 S1                 0.0000
     22 ****        -4.0056   0.1853  -2.4149 N.2            1 S1                 0.0000
     23 ****        -7.7129   3.2764  -1.3735 H              1 S1                 0.0000
     24 ****        -7.7041   2.6525  -3.0229 H              1 S1                 0.0000
     25 ****        -6.8922   4.1828  -2.6448 H              1 S1                 0.0000
     26 ****        -5.6171   1.7788  -3.8994 H              1 S1                 0.0000
     27 ****        -4.8081   3.2909  -3.5145 H              1 S1                 0.0000
     28 ****        -2.4881   3.1359  -3.0322 H              1 S1                 0.0000
     29 ****        -0.8605  -1.9603  -1.9014 H              1 S1                 0.0000
     30 ****         0.2706  -0.7574  -2.4201 H              1 S1                 0.0000
     31 ****         1.7068  -1.4944  -0.8182 H              1 S1                 0.0000
     32 ****         1.4488  -0.1984   1.7889 H              1 S1                 0.0000
     33 ****         0.4361  -2.4097   2.2511 H              1 S1                 0.0000
     34 ****         1.7863  -3.2234   1.5005 H              1 S1                 0.0000
     35 ****         1.8713  -1.5534   4.0538 H              1 S1                 0.0000
     36 ****         2.0500  -3.2842   3.9385 H              1 S1                 0.0000
     37 ****         4.2737  -2.1787   4.1770 H              1 S1                 0.0000
     38 ****         4.1492  -3.0579   2.6786 H              1 S1                 0.0000
     39 ****         5.1805  -0.9662   2.1896 H              1 S1                 0.0000
     40 ****         2.8692   0.5425   3.4964 H              1 S1                 0.0000
     41 ****         4.3018   1.2440   2.7535 H              1 S1                 0.0000
     42 ****         4.4548   0.2827   4.2081 H              1 S1                 0.0000
     43 ****         3.7059  -1.7702   0.5048 H              1 S1                 0.0000
     44 ****         3.3026   1.2471   0.6072 H              1 S1                 0.0000
     45 ****         3.3448   0.2262  -0.8219 H              1 S1                 0.0000
     46 ****         4.8014   0.4519   0.1280 H              1 S1                 0.0000
     47 ****        -3.0486  -1.5845  -1.8262 H              1 S1                 0.0000
     48 ****        -6.1600   1.5686  -1.6284 LP             1 S1                 0.0000
     49 ****        -5.4132   2.9775  -1.2768 LP             1 S1                 0.0000
     50 ****        -0.1463   2.7458  -2.6625 LP             1 S1                 0.0000
     51 ****         0.4973   1.2111  -2.1824 LP             1 S1                 0.0000
     52 ****        -1.7993  -0.0728   0.3329 LP             1 S1                 0.0000
     53 ****        -0.5425  -0.2332   1.5140 LP             1 S1                 0.0000
     54 ****        -4.9192  -0.2211  -2.4118 LP             1 S1                 0.0000
@<TRIPOS>BOND
    1    1    2 1     
    2    1   23 1     
    3    1   24 1     
    4    1   25 1     
    5    2    3 1     
    6    3    4 1     
    7    3   26 1     
    8    3   27 1     
    9    4   22 1     
   10    4    5 2     
   11    5    6 1     
   12    5   28 1     
   13    6    7 2     
   14    6    8 am    
   15    8    9 1     
   16    8   21 1     
   17    9   10 1     
   18    9   29 1     
   19    9   30 1     
   20   10   11 2     
   21   10   12 am    
   22   12   13 1     
   23   12   31 1     
   24   13   19 1     
   25   13   14 1     
   26   13   32 1     
   27   14   15 1     
   28   14   33 1     
   29   14   34 1     
   30   15   16 1     
   31   15   35 1     
   32   15   36 1     
   33   16   17 1     
   34   16   37 1     
   35   16   38 1     
   36   17   18 1     
   37   17   19 1     
   38   17   39 1     
   39   18   40 1     
   40   18   41 1     
   41   18   42 1     
   42   19   20 1     
   43   19   43 1     
   44   20   44 1     
   45   20   45 1     
   46   20   46 1     
   47   21   22 2     
   48   21   47 1     
   49    2   48 1     
   50    2   49 1     
   51    7   50 1     
   52    7   51 1     
   53   11   52 1     
   54   11   53 1     
   55   22   54 1     
@<TRIPOS>SUBSTRUCTURE
      1 S1             1
@<TRIPOS>SET
LONE_PAIRS      STATIC     ATOMS    <user>   **** ""
7 48 49 50 51 52 53 54
DONOR_HYDROGENS      STATIC     ATOMS    <user>   **** ""
1 31
ATOM$BLUE        STATIC     ATOMS    COLORGROUP SYSTEM
7 48 49 50 51 52 53 54
ATOM$RED        STATIC     ATOMS    COLORGROUP SYSTEM
1 31
