#       Name:                AV-unprocessed.smi:44
#       Creating user name   scv26
#       Creation time:       Thu Mar 26 16:25:44 2020


#       File generated by GOLD software.
#

@<TRIPOS>MOLECULE
AV-unprocessed.smi:44
    37    39     1
SMALL
NO_CHARGES


@<TRIPOS>ATOM
      1 ****        -2.7953   4.1644   1.3325 O.2            1 S1                 0.0000
      2 ****        -2.9605   3.0098   0.9441 C.2            1 S1                 0.0000
      3 ****        -4.1430   2.3294   0.7974 N.pl3          1 S1                -1.0000
      4 ****        -4.1803   1.0161   0.3416 C.2            1 S1                 0.0000
      5 ****        -3.1832   0.2755   0.0086 N.2            1 S1                 0.0000
      6 ****        -1.9253   0.8853   0.1254 C.2            1 S1                 0.0000
      7 ****        -1.7699   2.1789   0.5657 C.2            1 S1                 0.0000
      8 ****        -0.4400   2.5024   0.5802 N.pl3          1 S1                 1.0000
      9 ****         0.1512   1.3890   0.1472 C.2            1 S1                 0.0000
     10 ****        -0.6914   0.3547  -0.1518 N.pl3          1 S1                 0.0000
     11 ****        -0.3304  -1.0064  -0.6518 C.3            1 S1                 0.0000
     12 ****        -0.0658  -1.9382   0.5317 C.3            1 S1                 0.0000
     13 ****         1.4276  -1.7817   0.7159 C.3            1 S1                 0.0000
     14 ****         1.8995  -1.6496  -0.7317 C.3            1 S1                 0.0000
     15 ****         3.2511  -0.9343  -0.8729 C.3            1 S1                 0.0000
     16 ****         3.8022  -1.1957  -2.1450 O.3            1 S1                 0.0000
     17 ****         0.8655  -0.8983  -1.3680 O.3            1 S1                 0.0000
     18 ****        -0.0091   3.3764   0.8532 H              1 S1                 0.0000
     19 ****        -1.1681  -1.3055  -1.2828 H              1 S1                 0.0000
     20 ****         1.9372  -2.6451  -1.1781 H              1 S1                 0.0000
     21 ****        -5.2026   0.6338   0.2837 H              1 S1                 0.0000
     22 ****         1.2173   1.3083   0.0398 H              1 S1                 0.0000
     23 ****        -0.6564  -1.6708   1.4090 H              1 S1                 0.0000
     24 ****        -0.3116  -2.9589   0.2354 H              1 S1                 0.0000
     25 ****         1.6467  -0.8761   1.2830 H              1 S1                 0.0000
     26 ****         1.8827  -2.6258   1.2347 H              1 S1                 0.0000
     27 ****         3.1551   0.1400  -0.7156 H              1 S1                 0.0000
     28 ****         3.9532  -1.3103  -0.1280 H              1 S1                 0.0000
     29 ****         4.6429  -0.7681  -2.2039 H              1 S1                 0.0000
     30 ****        -1.8721   4.5438   1.3945 LP             1 S1                 0.0000
     31 ****        -3.5840   4.7242   1.5864 LP             1 S1                 0.0000
     32 ****        -5.0009   2.7903   1.0243 LP             1 S1                 0.0000
     33 ****        -3.2961  -0.6656  -0.3101 LP             1 S1                 0.0000
     34 ****         3.1937  -0.8411  -2.8549 LP             1 S1                 0.0000
     35 ****         3.9168  -2.1817  -2.2661 LP             1 S1                 0.0000
     36 ****         1.1369   0.0632  -1.4120 LP             1 S1                 0.0000
     37 ****         0.7270  -1.2483  -2.2944 LP             1 S1                 0.0000
@<TRIPOS>BOND
    1    1    2 2     
    2    2    7 1     
    3    2    3 1     
    4    3    4 1     
    5    4   21 1     
    6    4    5 2     
    7    5    6 1     
    8    6   10 1     
    9    6    7 2     
   10    7    8 1     
   11    8    9 2     
   12    8   18 1     
   13    9   10 1     
   14    9   22 1     
   15   10   11 1     
   16   11   19 1     
   17   11   17 1     
   18   11   12 1     
   19   12   13 1     
   20   12   23 1     
   21   12   24 1     
   22   13   14 1     
   23   13   25 1     
   24   13   26 1     
   25   14   20 1     
   26   14   15 1     
   27   14   17 1     
   28   15   16 1     
   29   15   27 1     
   30   15   28 1     
   31   16   29 1     
   32    1   30 1     
   33    1   31 1     
   34    3   32 1     
   35    5   33 1     
   36   16   34 1     
   37   16   35 1     
   38   17   36 1     
   39   17   37 1     
@<TRIPOS>SUBSTRUCTURE
      1 S1             1
@<TRIPOS>SET
LONE_PAIRS      STATIC     ATOMS    <user>   **** ""
8 30 31 32 33 34 35 36 37
DONOR_HYDROGENS      STATIC     ATOMS    <user>   **** ""
2 18 29
ATOM$BLUE        STATIC     ATOMS    COLORGROUP SYSTEM
8 30 31 32 33 34 35 36 37
ATOM$RED        STATIC     ATOMS    COLORGROUP SYSTEM
2 18 29
