AV-unprocessed.smi:37|AV-procd|sdf|311|dock7
  -GOLD-   2262016123D 1   1.00000     0.00000
 Structure written by MMmdl.
 44 45  0  0  0  0  0  0  0  0  1 V2000
  147.3572  134.7735  162.2258 C   0  0  0  0  0  0  0  0  0  0  0  0
  147.9056  134.8848  160.7969 C   0  0  0  0  0  0  0  0  0  0  0  0
  147.9352  136.3293  160.3024 C   0  0  0  0  0  0  0  0  0  0  0  0
  147.4680  137.2480  160.9759 O   0  0  0  0  0  0  0  0  0  0  0  0
  148.5064  136.4510  159.0941 O   0  0  0  0  0  0  0  0  0  0  0  0
  148.3764  137.6661  158.3761 C   0  0  0  0  0  0  0  0  0  0  0  0
  149.7711  138.2568  158.1358 C   0  0  2  0  0  0  0  0  0  0  0  0
  149.9634  139.4465  158.8928 O   0  0  0  0  0  0  0  0  0  0  0  0
  150.9119  140.2615  158.2677 C   0  0  1  0  0  0  0  0  0  0  0  0
  152.1311  140.3974  159.1517 N   0  0  0  0  0  0  0  0  0  0  0  0
  152.7277  139.3011  159.7639 C   0  0  0  0  0  0  0  0  0  0  0  0
  153.8199  139.4068  160.5569 C   0  0  0  0  0  0  0  0  0  0  0  0
  154.3455  138.3016  161.1119 F   0  0  0  0  0  0  0  0  0  0  0  0
  154.4339  140.7071  160.8111 C   0  0  0  0  0  0  0  0  0  0  0  0
  155.4215  140.9034  161.5165 O   0  0  0  0  0  0  0  0  0  0  0  0
  153.8039  141.7781  160.1704 N   0  0  0  0  0  0  0  0  0  0  0  0
  152.6803  141.6830  159.3479 C   0  0  0  0  0  0  0  0  0  0  0  0
  152.2119  142.6915  158.8213 O   0  0  0  0  0  0  0  0  0  0  0  0
  151.2265  139.6400  156.8887 C   0  0  1  0  0  0  0  0  0  0  0  0
  152.9044  138.5521  156.8642 Br  0  0  0  0  0  0  0  0  0  0  0  0
  150.0512  138.7000  156.6971 C   0  0  2  0  0  0  0  0  0  0  0  0
  148.9439  139.4274  156.1699 O   0  0  0  0  0  0  0  0  0  0  0  0
  149.0301  140.0620  154.9865 C   0  0  0  0  0  0  0  0  0  0  0  0
  150.0475  140.1798  154.3019 O   0  0  0  0  0  0  0  0  0  0  0  0
  147.6820  140.6437  154.5556 C   0  0  0  0  0  0  0  0  0  0  0  0
  147.1913  140.1192  153.1979 C   0  0  0  0  0  0  0  0  0  0  0  0
  154.1978  142.6968  160.3127 H   0  0  0  0  0  0  0  0  0  0  0  0
  147.3056  133.7302  162.5368 H   0  0  0  0  0  0  0  0  0  0  0  0
  146.3517  135.1895  162.2979 H   0  0  0  0  0  0  0  0  0  0  0  0
  147.9918  135.2990  162.9403 H   0  0  0  0  0  0  0  0  0  0  0  0
  148.9144  134.4745  160.7504 H   0  0  0  0  0  0  0  0  0  0  0  0
  147.2915  134.2924  160.1180 H   0  0  0  0  0  0  0  0  0  0  0  0
  147.8896  137.4627  157.4214 H   0  0  0  0  0  0  0  0  0  0  0  0
  147.7496  138.3716  158.9236 H   0  0  0  0  0  0  0  0  0  0  0  0
  150.5315  137.5315  158.4299 H   0  0  0  0  0  0  0  0  0  0  0  0
  150.4720  141.2583  158.1986 H   0  0  0  0  0  0  0  0  0  0  0  0
  152.3248  138.3117  159.6063 H   0  0  0  0  0  0  0  0  0  0  0  0
  151.3101  140.4081  156.1190 H   0  0  0  0  0  0  0  0  0  0  0  0
  150.3201  137.8543  156.0630 H   0  0  0  0  0  0  0  0  0  0  0  0
  146.9451  140.4133  155.3255 H   0  0  0  0  0  0  0  0  0  0  0  0
  147.7699  141.7298  154.5187 H   0  0  0  0  0  0  0  0  0  0  0  0
  146.2310  140.5656  152.9390 H   0  0  0  0  0  0  0  0  0  0  0  0
  147.0578  139.0371  153.2136 H   0  0  0  0  0  0  0  0  0  0  0  0
  147.8932  140.3627  152.3993 H   0  0  0  0  0  0  0  0  0  0  0  0
  1  2  1  0  0  0  0
  1 28  1  0  0  0  0
  1 29  1  0  0  0  0
  1 30  1  0  0  0  0
  2  3  1  0  0  0  0
  2 31  1  0  0  0  0
  2 32  1  0  0  0  0
  3  4  2  0  0  0  0
  3  5  1  0  0  0  0
  5  6  1  0  0  0  0
  6  7  1  0  0  0  0
  6 33  1  0  0  0  0
  6 34  1  0  0  0  0
  7 21  1  0  0  0  0
  7  8  1  0  0  0  0
  7 35  1  0  0  0  0
  8  9  1  0  0  0  0
  9 10  1  0  0  0  0
  9 19  1  0  0  0  0
  9 36  1  0  0  0  0
 10 17  1  0  0  0  0
 10 11  1  0  0  0  0
 11 12  2  0  0  0  0
 11 37  1  0  0  0  0
 12 13  1  0  0  0  0
 12 14  1  0  0  0  0
 14 15  2  0  0  0  0
 14 16  1  0  0  0  0
 16 27  1  0  0  0  0
 16 17  1  0  0  0  0
 17 18  2  0  0  0  0
 19 20  1  0  0  0  0
 19 21  1  0  0  0  0
 19 38  1  0  0  0  0
 21 22  1  0  0  0  0
 21 39  1  0  0  0  0
 22 23  1  0  0  0  0
 23 24  2  0  0  0  0
 23 25  1  0  0  0  0
 25 26  1  0  0  0  0
 25 40  1  0  0  0  0
 25 41  1  0  0  0  0
 26 42  1  0  0  0  0
 26 43  1  0  0  0  0
 26 44  1  0  0  0  0
M  END
> <s_m_source_file>
AV-unprocessed.smi

> <i_m_source_file_index>
37

> <i_lp_mmshare_version>
43012

> <i_f3d_flags>
0

> <s_epik_input>
W0NIM11bQ0gyXUMoPU8pT1tDSDJdW0NAQEhdMU9bQ0BASF0objJbY0hdYyhGKWMoPU8pW25IXWMyPU8pW0NAQEhdKEJyKVtDQEhdMU9DKD1PKVtDSDJdW0NIM10=

> <s_epik_cmdline>
J2VwaWtfcHl0aG9uJywgJy1waCcsICc3LjAnLCAnLXRuJywgJzgnLCAnLW1hJywgJzIwMCcsICctbWV0YWxfYmluZGluZycsICctaW1hZScsICc8aW5maWxlLm1hZT4nLCAnLW9tYWUnLCAnPG91dGZpbGUubWFlPic=

> <r_lp_tautomer_probability>
0.999537

> <r_epik_Ionization_Penalty>
0.104106

> <r_epik_Ionization_Penalty_Charging>
0.104106

> <r_epik_Ionization_Penalty_Neutral>
3.94675e-16

> <r_epik_State_Penalty>
0.0940182

> <r_epik_Charging_Adjusted_Penalty>
0.198124

> <i_epik_Tot_Q>
0

> <i_epik_Tot_abs_Q>
0

> <r_epik_Metal_State_Penalty>
3.05314

> <b_epik_Metal_Only>
0

> <s_epik_Chemistry_Notes>
This compound has an ester and may undergo hydrolysis at high or low pH. This compound contains an acetal/aminal-like group ( X-CH(R)-Y where X, Y are N, S, or O) that may be acid/base labile, releasing an aldehyde.

> <s_lp_Force_Field>
OPLS_2005

> <r_lp_Energy>
26.7513

> <b_lp_Chiralities_Consistent>
1

> <s_lp_Variant>
AV-unprocessed.smi:37-9

> <Gold.Version>
5.8.1

> <Gold.Id.Protein>
6NUR|6NUR_protein|mol2

> <Gold.PLP.Fitness>
41.1686

> <Gold.PLP.PLP>
-35.9352

> <Gold.PLP.part.hbond>
-4.7224

> <Gold.PLP.part.metal>
0.0000

> <Gold.PLP.part.buried>
-5.8338

> <Gold.PLP.part.nonpolar>
-26.2770

> <Gold.PLP.part.repulsive>
0.1689

> <Gold.PLP.ligand.clash>
0.0000

> <Gold.PLP.ligand.torsion>
1.6125

> <Gold.PLP.Chemscore.Hbond>
2.7680

> <Gold.PLP.Chemscore.CHOScore>
0.0000

> <Gold.PLP.Chemscore.Metal>
0.0000

> <Gold.Chemscore.Hbonds>
donor molecule, donor type, donor heavy atom, donor atom, acceptor molecule, acceptor atom, score
      P1  H  6931  6943       L1     4  0.73
      P1  H  6934  6947       L1     4  1.00
      P1  H  7989  7998       L1    24  0.98

> <Gold.PLP.Chemscore.Internal.Correction>
0.1544

> <Gold.Rescore>
     Score         DG    S(hbond)    S(metal)    S(lipo)     H(rot)  DE(clash)    DE(int)     intcor
      7.35     -11.61       2.42        0.00      56.03       3.33       0.21       4.05       ----

> <Gold.Chemscore.Fitness>
7.3474

> <Gold.Chemscore.DG>
-11.6090

> <Gold.Chemscore.ZeroCoef>
-5.4800

> <Gold.Chemscore.Hbond>
2.4248

> <Gold.Chemscore.Metal>
0.0000

> <Gold.Chemscore.Lipo>
56.0325

> <Gold.Chemscore.Internal_Hbond>
0.0000

> <Gold.Chemscore.DEClash>
0.2128

> <Gold.Chemscore.DEInternal>
4.0488

> <Gold.Chemscore.Rot>
3.3303

> <Gold.Chemscore.Internal.Correction>
   9.000000E+99

> <Gold.Chemscore.Hbonds>
donor molecule, donor type, donor heavy atom, donor atom, acceptor molecule, acceptor atom, score
      P1  H  6931  6943       L1     4  0.49
      P1  H  6934  6947       L1     4  0.95
      P1  H  7989  7998       L1    24  0.92

> <Gold.Chemscore.Hbond.Weighted>
-8.0988

> <Gold.Chemscore.Metal.Weighted>
-0.0000

> <Gold.Chemscore.Lipo.Weighted>
-6.5558

> <Gold.Chemscore.Internal_Hbond.Weighted>
0.0000

> <Gold.Chemscore.DEClash.Weighted>
0.2128

> <Gold.Chemscore.DEInternal.Weighted>
4.0488

> <Gold.Chemscore.Rot.Weighted>
8.5256

> <Gold.Chemscore.Internal.Correction.Weighted>
   9.000000E+99

> <Gold.Protein.RotatedTorsions>
[ 6907 6896 6895 6894 ] final  -74.38 input  -60.11 | X-H torsion
[ 7974 7965 7964 7962 ] final    9.80 input  175.53 | X-H torsion
[ 8008 7997 7996 7995 ] final  -45.18 input   59.86 | X-H torsion
[ 10167 10162 10161 10158 ] final  148.62 input  -65.29 | X-H torsion
[ 10718 10713 10712 10709 ] final  -63.21 input   66.30 | X-H torsion
[ 10763 10752 10751 10750 ] final -135.48 input  -60.55 | X-H torsion
[ 11005 11000 10999 10996 ] final -135.29 input  -57.11 | X-H torsion

> <Gold.Protein.ActiveResidues>
 VAL166  LYS551  ARG553  GLY616  TRP617  ASP618  TYR619  PRO620  LYS621  CYS622 
 ASP623  PHE694  ASN695  SER759  ASP760  ASP761  ALA762  ILE779  LEU786  VAL792 
 PHE793  MET794  SER795  GLU796  ALA797  LYS798  CYS799  TRP800  GLU811  SER814 

> <Gold.Protein.RotatedAtoms>
  150.7095  134.4877  159.5500 H   0  0  0  0  0  0  0  0  0  0  0  0  # atno 6907 bound_to 6896
  152.2501  134.8138  160.0456 H   0  0  0  0  0  0  0  0  0  0  0  0  # atno 6908 bound_to 6896
  151.8889  133.3476  159.3828 H   0  0  0  0  0  0  0  0  0  0  0  0  # atno 6909 bound_to 6896
  146.2398  139.9729  142.8445 H   0  0  0  0  0  0  0  0  0  0  0  0  # atno 7974 bound_to 7965
  154.4000  140.1403  156.3806 H   0  0  0  0  0  0  0  0  0  0  0  0  # atno 8008 bound_to 7997
  155.8007  140.3476  155.5381 H   0  0  0  0  0  0  0  0  0  0  0  0  # atno 8009 bound_to 7997
  155.8486  140.0938  157.1680 H   0  0  0  0  0  0  0  0  0  0  0  0  # atno 8010 bound_to 7997
  139.4872  144.5665  151.7135 H   0  0  0  0  0  0  0  0  0  0  0  0  # atno 10167 bound_to 10162
  156.0805  130.4218  150.1245 H   0  0  0  0  0  0  0  0  0  0  0  0  # atno 10718 bound_to 10713
  154.8702  135.3702  154.4905 H   0  0  0  0  0  0  0  0  0  0  0  0  # atno 10763 bound_to 10752
  153.5552  135.7024  153.5577 H   0  0  0  0  0  0  0  0  0  0  0  0  # atno 10764 bound_to 10752
  153.3678  135.4029  155.1730 H   0  0  0  0  0  0  0  0  0  0  0  0  # atno 10765 bound_to 10752
  140.8911  134.1810  157.4527 H   0  0  0  0  0  0  0  0  0  0  0  0  # atno 11005 bound_to 11000
  145.1664  140.9699  143.4347 LP  0  0  0  0  0  0  0  0  0  0  0  0  # atno 17320 bound_to 7965
  145.0069  139.3546  143.6139 LP  0  0  0  0  0  0  0  0  0  0  0  0  # atno 17321 bound_to 7965
  140.5244  144.0828  150.6033 LP  0  0  0  0  0  0  0  0  0  0  0  0  # atno 17342 bound_to 10162
  140.3797  143.2809  152.0184 LP  0  0  0  0  0  0  0  0  0  0  0  0  # atno 17343 bound_to 10162
  156.9277  130.9703  151.3538 LP  0  0  0  0  0  0  0  0  0  0  0  0  # atno 17370 bound_to 10713
  157.5920  130.8450  149.8673 LP  0  0  0  0  0  0  0  0  0  0  0  0  # atno 17371 bound_to 10713
  139.8730  134.9859  156.5301 LP  0  0  0  0  0  0  0  0  0  0  0  0  # atno 17394 bound_to 11000
  140.8345  133.8253  155.9016 LP  0  0  0  0  0  0  0  0  0  0  0  0  # atno 17395 bound_to 11000

$$$$
