#       Name:                AV-unprocessed.smi:2368
#       Creating user name   scv26
#       Creation time:       Fri Mar 27 13:06:23 2020


#       File generated by GOLD software.
#

@<TRIPOS>MOLECULE
AV-unprocessed.smi:2368
    40    41     1
SMALL
NO_CHARGES


@<TRIPOS>ATOM
      1 ****        -5.8817   0.8248  -1.6955 C.3            1 S1                 0.0000
      2 ****        -4.5351   1.3212  -1.2054 C.ar           1 S1                 0.0000
      3 ****        -4.4430   2.6143  -0.8241 N.pl3          1 S1                 1.0000
      4 ****        -3.3015   3.1651  -0.3619 C.ar           1 S1                 0.0000
      5 ****        -2.1333   2.3845  -0.2664 C.ar           1 S1                 0.0000
      6 ****        -2.1677   1.0258  -0.6709 C.ar           1 S1                 0.0000
      7 ****        -1.0377   0.1648  -0.5909 N.am           1 S1                 0.0000
      8 ****         0.2655   0.4908  -0.6288 C.2            1 S1                 0.0000
      9 ****         0.7093   1.6331  -0.7441 O.2            1 S1                 0.0000
     10 ****         1.0418  -0.5981  -0.5415 N.am           1 S1                 0.0000
     11 ****         2.5003  -0.5836  -0.5624 C.3            1 S1                 0.0000
     12 ****         3.0379  -1.9780  -0.7311 C.2            1 S1                 0.0000
     13 ****         3.8858  -2.3223   0.2351 C.2            1 S1                 0.0000
     14 ****         4.0855  -1.2303   1.2551 C.3            1 S1                 0.0000
     15 ****         3.8130  -1.6990   2.6947 C.3            1 S1                 0.0000
     16 ****         4.7598  -2.6694   3.0893 O.3            1 S1                 0.0000
     17 ****         3.1168  -0.1162   0.7827 C.3            1 S1                 0.0000
     18 ****        -3.3943   0.4871  -1.1334 C.ar           1 S1                 0.0000
     19 ****        -3.5010  -1.1731  -1.6150 Cl             1 S1                 0.0000
     20 ****         2.8623   0.0267  -1.3915 H              1 S1                 0.0000
     21 ****         5.1145  -0.8775   1.1712 H              1 S1                 0.0000
     22 ****        -5.7990   0.4459  -2.7145 H              1 S1                 0.0000
     23 ****        -6.6266   1.6214  -1.6901 H              1 S1                 0.0000
     24 ****        -6.2436   0.0193  -1.0561 H              1 S1                 0.0000
     25 ****        -3.3579   4.2059  -0.0777 H              1 S1                 0.0000
     26 ****        -1.2368   2.8396   0.1264 H              1 S1                 0.0000
     27 ****        -1.2469  -0.8230  -0.5836 H              1 S1                 0.0000
     28 ****         0.5974  -1.5004  -0.4539 H              1 S1                 0.0000
     29 ****         2.7610  -2.6048  -1.5660 H              1 S1                 0.0000
     30 ****         4.3980  -3.2710   0.3014 H              1 S1                 0.0000
     31 ****         3.8741  -0.8568   3.3848 H              1 S1                 0.0000
     32 ****         2.8103  -2.1190   2.7839 H              1 S1                 0.0000
     33 ****         4.5659  -2.9360   3.9750 H              1 S1                 0.0000
     34 ****         3.6437   0.8305   0.6580 H              1 S1                 0.0000
     35 ****         2.3402   0.0574   1.5293 H              1 S1                 0.0000
     36 ****        -5.2768   3.1996  -0.8830 H              1 S1                 0.0000
     37 ****         0.0818   2.4082  -0.8184 LP             1 S1                 0.0000
     38 ****         1.6973   1.7861  -0.7635 LP             1 S1                 0.0000
     39 ****         5.6796  -2.2791   3.0485 LP             1 S1                 0.0000
     40 ****         4.7059  -3.4603   2.4798 LP             1 S1                 0.0000
@<TRIPOS>BOND
    1    1    2 1     
    2    1   22 1     
    3    1   23 1     
    4    1   24 1     
    5    2   18 ar    
    6    2    3 ar    
    7    3    4 ar    
    8    3   36 1     
    9    4    5 ar    
   10    4   25 1     
   11    5    6 ar    
   12    5   26 1     
   13    6    7 1     
   14    6   18 ar    
   15    7    8 am    
   16    7   27 1     
   17    8    9 2     
   18    8   10 am    
   19   10   11 1     
   20   10   28 1     
   21   11   20 1     
   22   11   17 1     
   23   11   12 1     
   24   12   13 2     
   25   12   29 1     
   26   13   14 1     
   27   13   30 1     
   28   14   21 1     
   29   14   15 1     
   30   14   17 1     
   31   15   16 1     
   32   15   31 1     
   33   15   32 1     
   34   16   33 1     
   35   17   34 1     
   36   17   35 1     
   37   18   19 1     
   38    9   37 1     
   39    9   38 1     
   40   16   39 1     
   41   16   40 1     
@<TRIPOS>SUBSTRUCTURE
      1 S1             1
@<TRIPOS>SET
LONE_PAIRS      STATIC     ATOMS    <user>   **** ""
4 37 38 39 40
DONOR_HYDROGENS      STATIC     ATOMS    <user>   **** ""
4 36 27 28 33
ATOM$BLUE        STATIC     ATOMS    COLORGROUP SYSTEM
4 37 38 39 40
ATOM$RED        STATIC     ATOMS    COLORGROUP SYSTEM
4 36 27 28 33
