#       Name:                AV-unprocessed.smi:115
#       Creating user name   scv26
#       Creation time:       Thu Mar 26 18:25:19 2020


#       File generated by GOLD software.
#

@<TRIPOS>MOLECULE
AV-unprocessed.smi:115
    65    67     1
SMALL
NO_CHARGES


@<TRIPOS>ATOM
      1 ****        -7.4557   1.0241  -0.4355 C.3            1 S1                 0.0000
      2 ****        -6.5466   1.3465   0.6024 O.3            1 S1                 0.0000
      3 ****        -5.2072   1.0061   0.2810 C.3            1 S1                 0.0000
      4 ****        -4.2920   1.4037   1.4571 C.3            1 S1                 0.0000
      5 ****        -4.4520   0.5114   2.7001 C.3            1 S1                 0.0000
      6 ****        -2.8788   1.5648   1.0762 N.pl3          1 S1                 0.0000
      7 ****        -2.1126   2.6859   1.3936 C.2            1 S1                 0.0000
      8 ****        -2.6384   3.8580   2.1608 C.3            1 S1                 0.0000
      9 ****        -0.8645   2.5008   0.8813 C.2            1 S1                 0.0000
     10 ****        -0.8208   1.2349   0.2400 C.2            1 S1                 0.0000
     11 ****         0.3223   0.6232  -0.4853 C.2            1 S1                 0.0000
     12 ****         0.2174  -0.3821  -1.1893 O.2            1 S1                 0.0000
     13 ****         1.6771   1.3373  -0.3210 C.3            1 S1                 0.0000
     14 ****         2.7819   0.6105  -0.9341 N.am           1 S1                 0.0000
     15 ****         3.1061   0.9053  -2.2821 C.2            1 S1                 0.0000
     16 ****         2.4926   1.7524  -2.9337 O.2            1 S1                 0.0000
     17 ****         4.2044   0.1149  -2.8273 C.2            1 S1                 0.0000
     18 ****         4.5955   0.3090  -4.0982 F              1 S1                 0.0000
     19 ****         4.8333  -0.8164  -2.0784 C.2            1 S1                 0.0000
     20 ****         4.4926  -1.0851  -0.7631 N.am           1 S1                 0.0000
     21 ****         5.2077  -2.1522   0.0361 C.3            1 S1                 0.0000
     22 ****         4.4484  -3.4805  -0.0559 C.3            1 S1                 0.0000
     23 ****         5.1369  -4.1503  -1.2247 C.3            1 S1                 0.0000
     24 ****         6.5748  -3.6760  -1.0464 C.3            1 S1                 0.0000
     25 ****         6.4796  -2.3590  -0.5083 O.3            1 S1                 0.0000
     26 ****         3.4346  -0.3753  -0.1554 C.2            1 S1                 0.0000
     27 ****         3.0898  -0.6236   1.0024 O.2            1 S1                 0.0000
     28 ****        -2.0587   0.6510   0.3953 C.2            1 S1                 0.0000
     29 ****        -2.5458  -0.7012  -0.0485 C.3            1 S1                 0.0000
     30 ****        -8.4652   1.3083  -0.1387 H              1 S1                 0.0000
     31 ****        -7.4549  -0.0468  -0.6423 H              1 S1                 0.0000
     32 ****        -7.2120   1.5591  -1.3542 H              1 S1                 0.0000
     33 ****        -5.1524  -0.0595   0.0645 H              1 S1                 0.0000
     34 ****        -4.9092   1.5439  -0.6206 H              1 S1                 0.0000
     35 ****        -4.6552   2.3862   1.7523 H              1 S1                 0.0000
     36 ****        -5.4902   0.4918   3.0320 H              1 S1                 0.0000
     37 ****        -3.8533   0.8914   3.5284 H              1 S1                 0.0000
     38 ****        -4.1483  -0.5183   2.5231 H              1 S1                 0.0000
     39 ****        -1.8406   4.5690   2.3763 H              1 S1                 0.0000
     40 ****        -3.0660   3.5446   3.1134 H              1 S1                 0.0000
     41 ****        -3.4057   4.3844   1.5927 H              1 S1                 0.0000
     42 ****        -0.0591   3.2165   0.9575 H              1 S1                 0.0000
     43 ****         1.6445   2.3382  -0.7537 H              1 S1                 0.0000
     44 ****         1.9185   1.4855   0.7328 H              1 S1                 0.0000
     45 ****         5.6322  -1.3741  -2.5434 H              1 S1                 0.0000
     46 ****         5.2997  -1.7609   1.0506 H              1 S1                 0.0000
     47 ****         4.6198  -4.0433   0.8624 H              1 S1                 0.0000
     48 ****         3.3752  -3.3410  -0.1908 H              1 S1                 0.0000
     49 ****         5.0409  -5.2362  -1.2142 H              1 S1                 0.0000
     50 ****         4.7289  -3.7805  -2.1661 H              1 S1                 0.0000
     51 ****         7.0952  -4.3090  -0.3268 H              1 S1                 0.0000
     52 ****         7.1389  -3.6868  -1.9791 H              1 S1                 0.0000
     53 ****        -1.7403  -1.4331  -0.0615 H              1 S1                 0.0000
     54 ****        -2.9695  -0.6501  -1.0514 H              1 S1                 0.0000
     55 ****        -3.2945  -1.1160   0.6195 H              1 S1                 0.0000
     56 ****        -6.8139   0.8495   1.4279 LP             1 S1                 0.0000
     57 ****        -6.5941   2.3302   0.7755 LP             1 S1                 0.0000
     58 ****        -0.6713  -0.8283  -1.2946 LP             1 S1                 0.0000
     59 ****         1.0210  -0.7521  -1.6556 LP             1 S1                 0.0000
     60 ****         1.7389   2.2574  -2.5132 LP             1 S1                 0.0000
     61 ****         2.7485   1.9348  -3.8831 LP             1 S1                 0.0000
     62 ****         7.1684  -2.2437   0.2074 LP             1 S1                 0.0000
     63 ****         6.6402  -1.6921  -1.2360 LP             1 S1                 0.0000
     64 ****         2.3296  -0.1227   1.4160 LP             1 S1                 0.0000
     65 ****         3.5705  -1.3259   1.5275 LP             1 S1                 0.0000
@<TRIPOS>BOND
    1    1    2 1     
    2    1   30 1     
    3    1   31 1     
    4    1   32 1     
    5    2    3 1     
    6    3    4 1     
    7    3   33 1     
    8    3   34 1     
    9    4    5 1     
   10    4    6 1     
   11    4   35 1     
   12    5   36 1     
   13    5   37 1     
   14    5   38 1     
   15    6   28 1     
   16    6    7 1     
   17    7    8 1     
   18    7    9 2     
   19    8   39 1     
   20    8   40 1     
   21    8   41 1     
   22    9   10 1     
   23    9   42 1     
   24   10   11 1     
   25   10   28 2     
   26   11   12 2     
   27   11   13 1     
   28   13   14 1     
   29   13   43 1     
   30   13   44 1     
   31   14   26 am    
   32   14   15 am    
   33   15   16 2     
   34   15   17 1     
   35   17   18 1     
   36   17   19 2     
   37   19   20 1     
   38   19   45 1     
   39   20   21 1     
   40   20   26 am    
   41   21   25 1     
   42   21   22 1     
   43   21   46 1     
   44   22   23 1     
   45   22   47 1     
   46   22   48 1     
   47   23   24 1     
   48   23   49 1     
   49   23   50 1     
   50   24   25 1     
   51   24   51 1     
   52   24   52 1     
   53   26   27 2     
   54   28   29 1     
   55   29   53 1     
   56   29   54 1     
   57   29   55 1     
   58    2   56 1     
   59    2   57 1     
   60   12   58 1     
   61   12   59 1     
   62   16   60 1     
   63   16   61 1     
   64   25   62 1     
   65   25   63 1     
   66   27   64 1     
   67   27   65 1     
@<TRIPOS>SUBSTRUCTURE
      1 S1             1
@<TRIPOS>SET
LONE_PAIRS      STATIC     ATOMS    <user>   **** ""
10 56 57 58 59 60 61 62 63 64 65
ATOM$BLUE        STATIC     ATOMS    COLORGROUP SYSTEM
10 56 57 58 59 60 61 62 63 64 65
