#       Name:                AV-unprocessed.smi:148
#       Creating user name   scv26
#       Creation time:       Thu Mar 26 18:38:45 2020


#       File generated by GOLD software.
#

@<TRIPOS>MOLECULE
AV-unprocessed.smi:148
    73    77     1
SMALL
NO_CHARGES


@<TRIPOS>ATOM
      1 ****        -2.2409  -1.6012   5.6005 O.3            1 S1                 0.0000
      2 ****        -2.9520  -2.2006   4.5376 C.3            1 S1                 0.0000
      3 ****        -2.5733  -1.5441   3.1889 C.3            1 S1                 0.0000
      4 ****        -1.1168  -1.9033   2.8028 C.3            1 S1                 0.0000
      5 ****        -0.6720  -1.2666   1.5759 N.pl3          1 S1                 0.0000
      6 ****        -0.4655  -1.8727   0.3571 C.2            1 S1                 0.0000
      7 ****        -0.0640  -1.0784  -0.5973 N.2            1 S1                 0.0000
      8 ****         0.0202   0.1676   0.0125 C.ar           1 S1                 0.0000
      9 ****         0.3903   1.4697  -0.4280 C.ar           1 S1                 0.0000
     10 ****         0.7801   1.7765  -1.6855 N.3            1 S1                 0.0000
     11 ****        -0.3861   1.8543  -2.5649 C.3            1 S1                 0.0000
     12 ****        -0.0179   2.4483  -3.9298 C.3            1 S1                 0.0000
     13 ****         1.1226   1.6477  -4.5652 C.3            1 S1                 0.0000
     14 ****         2.3250   1.6031  -3.6128 C.3            1 S1                 0.0000
     15 ****         1.9401   1.0371  -2.2188 C.3            1 S1                 0.0000
     16 ****         3.1423   0.9854  -1.2148 C.3            1 S1                 0.0000
     17 ****         3.7224   2.3746  -0.8595 C.3            1 S1                 0.0000
     18 ****         5.2209   2.3387  -1.1927 C.3            1 S1                 0.0000
     19 ****         5.4021   1.1545  -2.1405 C.3            1 S1                 0.0000
     20 ****         4.3675   0.1472  -1.6428 C.3            1 S1                 0.0000
     21 ****         4.1006  -0.8847  -2.5712 O.3            1 S1                 0.0000
     22 ****         0.3429   2.4841   0.4699 N.ar           1 S1                 0.0000
     23 ****        -0.0303   2.2426   1.7302 C.ar           1 S1                 0.0000
     24 ****        -0.3944   1.0848   2.2864 N.ar           1 S1                 0.0000
     25 ****        -0.3567   0.0658   1.3804 C.ar           1 S1                 0.0000
     26 ****        -3.5852  -1.8443   2.0477 C.3            1 S1                 0.0000
     27 ****        -5.0082  -1.3319   2.2785 C.3            1 S1                 0.0000
     28 ****        -5.8866  -2.5656   2.0782 C.3            1 S1                 0.0000
     29 ****        -5.1126  -3.3956   1.2282 O.3            1 S1                 0.0000
     30 ****        -3.7790  -3.3286   1.7051 C.3            1 S1                 0.0000
     31 ****        -1.3155  -1.7151   5.4465 H              1 S1                 0.0000
     32 ****        -2.7364  -3.2688   4.5323 H              1 S1                 0.0000
     33 ****        -4.0138  -2.0930   4.7537 H              1 S1                 0.0000
     34 ****        -2.6102  -0.4640   3.3404 H              1 S1                 0.0000
     35 ****        -0.4273  -1.6095   3.5950 H              1 S1                 0.0000
     36 ****        -1.0114  -2.9829   2.6890 H              1 S1                 0.0000
     37 ****        -0.6298  -2.9281   0.1945 H              1 S1                 0.0000
     38 ****        -0.8062   0.8563  -2.6994 H              1 S1                 0.0000
     39 ****        -1.1623   2.4657  -2.1017 H              1 S1                 0.0000
     40 ****        -0.8888   2.4484  -4.5854 H              1 S1                 0.0000
     41 ****         0.2838   3.4895  -3.8086 H              1 S1                 0.0000
     42 ****         0.7865   0.6335  -4.7840 H              1 S1                 0.0000
     43 ****         1.4124   2.0944  -5.5166 H              1 S1                 0.0000
     44 ****         3.1036   0.9998  -4.0758 H              1 S1                 0.0000
     45 ****         2.7341   2.6087  -3.5204 H              1 S1                 0.0000
     46 ****         1.6053   0.0122  -2.3796 H              1 S1                 0.0000
     47 ****         2.7896   0.5200  -0.2941 H              1 S1                 0.0000
     48 ****         3.2329   3.1710  -1.4189 H              1 S1                 0.0000
     49 ****         3.5681   2.6052   0.1953 H              1 S1                 0.0000
     50 ****         5.5740   3.2746  -1.6265 H              1 S1                 0.0000
     51 ****         5.7919   2.1640  -0.2799 H              1 S1                 0.0000
     52 ****         5.1855   1.4631  -3.1631 H              1 S1                 0.0000
     53 ****         6.4171   0.7564  -2.1225 H              1 S1                 0.0000
     54 ****         4.7776  -0.3306  -0.7513 H              1 S1                 0.0000
     55 ****         3.4774  -1.4814  -2.1861 H              1 S1                 0.0000
     56 ****        -0.0393   3.1000   2.3870 H              1 S1                 0.0000
     57 ****        -3.2437  -1.3464   1.1396 H              1 S1                 0.0000
     58 ****        -5.1660  -0.8733   3.2543 H              1 S1                 0.0000
     59 ****        -5.2516  -0.5771   1.5294 H              1 S1                 0.0000
     60 ****        -6.0570  -3.0766   3.0274 H              1 S1                 0.0000
     61 ****        -6.8552  -2.3274   1.6383 H              1 S1                 0.0000
     62 ****        -3.0709  -3.6801   0.9545 H              1 S1                 0.0000
     63 ****        -3.6895  -3.9725   2.5797 H              1 S1                 0.0000
     64 ****        -2.4949  -2.0372   6.4639 LP             1 S1                 0.0000
     65 ****        -2.4577  -0.6259   5.6432 LP             1 S1                 0.0000
     66 ****         0.1369  -1.3124  -1.5485 LP             1 S1                 0.0000
     67 ****         1.1852   2.6897  -1.6416 LP             1 S1                 0.0000
     68 ****         4.9467  -1.3727  -2.7854 LP             1 S1                 0.0000
     69 ****         3.7199  -0.4941  -3.4093 LP             1 S1                 0.0000
     70 ****         0.5870   3.4124   0.1895 LP             1 S1                 0.0000
     71 ****        -0.6606   0.9783   3.2444 LP             1 S1                 0.0000
     72 ****        -5.1595  -3.0643   0.2858 LP             1 S1                 0.0000
     73 ****        -5.4466  -4.3374   1.2675 LP             1 S1                 0.0000
@<TRIPOS>BOND
    1    1    2 1     
    2    1   31 1     
    3    2    3 1     
    4    2   32 1     
    5    2   33 1     
    6    3    4 1     
    7    3   26 1     
    8    3   34 1     
    9    4    5 1     
   10    4   35 1     
   11    4   36 1     
   12    5   25 1     
   13    5    6 1     
   14    6    7 2     
   15    6   37 1     
   16    7    8 1     
   17    8   25 ar    
   18    8    9 ar    
   19    9   10 1     
   20    9   22 ar    
   21   10   15 1     
   22   10   11 1     
   23   11   12 1     
   24   11   38 1     
   25   11   39 1     
   26   12   13 1     
   27   12   40 1     
   28   12   41 1     
   29   13   14 1     
   30   13   42 1     
   31   13   43 1     
   32   14   15 1     
   33   14   44 1     
   34   14   45 1     
   35   15   16 1     
   36   15   46 1     
   37   16   20 1     
   38   16   17 1     
   39   16   47 1     
   40   17   18 1     
   41   17   48 1     
   42   17   49 1     
   43   18   19 1     
   44   18   50 1     
   45   18   51 1     
   46   19   20 1     
   47   19   52 1     
   48   19   53 1     
   49   20   21 1     
   50   20   54 1     
   51   21   55 1     
   52   22   23 ar    
   53   23   24 ar    
   54   23   56 1     
   55   24   25 ar    
   56   26   30 1     
   57   26   27 1     
   58   26   57 1     
   59   27   28 1     
   60   27   58 1     
   61   27   59 1     
   62   28   29 1     
   63   28   60 1     
   64   28   61 1     
   65   29   30 1     
   66   30   62 1     
   67   30   63 1     
   68    1   64 1     
   69    1   65 1     
   70    7   66 1     
   71   10   67 1     
   72   21   68 1     
   73   21   69 1     
   74   22   70 1     
   75   24   71 1     
   76   29   72 1     
   77   29   73 1     
@<TRIPOS>SUBSTRUCTURE
      1 S1             1
@<TRIPOS>SET
LONE_PAIRS      STATIC     ATOMS    <user>   **** ""
10 64 65 66 67 68 69 70 71 72 73
DONOR_HYDROGENS      STATIC     ATOMS    <user>   **** ""
2 31 55
ATOM$BLUE        STATIC     ATOMS    COLORGROUP SYSTEM
10 64 65 66 67 68 69 70 71 72 73
ATOM$RED        STATIC     ATOMS    COLORGROUP SYSTEM
2 31 55
