AV-unprocessed.smi:649|AV-procd|sdf|3180|dock7
  -GOLD-   22720 0103D 1   1.00000     0.00000
 Structure written by MMmdl.
 34 35  0  0  0  0  0  0  0  0  2 V2000
  151.6469  145.5653  160.1496 C   0  0  0  0  0  0  0  0  0  0  0  0
  151.8609  144.0987  159.8380 C   0  0  0  0  0  0  0  0  0  0  0  0
  151.2281  143.5062  158.7305 C   0  0  0  0  0  0  0  0  0  0  0  0
  151.4204  142.1395  158.4613 C   0  0  0  0  0  0  0  0  0  0  0  0
  152.2411  141.3460  159.2922 C   0  0  0  0  0  0  0  0  0  0  0  0
  152.3847  139.8722  158.9488 C   0  0  0  0  0  0  0  0  0  0  0  0
  152.8889  141.9411  160.4114 C   0  0  0  0  0  0  0  0  0  0  0  0
  153.7781  141.1650  161.3891 C   0  0  2  0  0  0  0  0  0  0  0  0
  154.1885  141.9220  162.5091 O   0  0  0  0  0  0  0  0  0  0  0  0
  155.0092  140.4901  160.7376 C   0  0  0  0  0  0  0  0  0  0  0  0
  154.8752  139.0267  160.6578 N   0  0  0  0  0  0  0  0  0  0  0  0
  154.5818  138.3493  161.8530 C   0  0  0  0  0  0  0  0  0  0  0  0
  154.4031  137.0151  161.8955 C   0  0  0  0  0  0  0  0  0  0  0  0
  154.0340  136.2125  163.3801 Cl  0  0  0  0  0  0  0  0  0  0  0  0
  154.5268  136.2671  160.6463 C   0  0  0  0  0  0  0  0  0  0  0  0
  154.3672  135.0473  160.6488 O   0  0  0  0  0  0  0  0  0  0  0  0
  154.8195  136.9698  159.5132 N   0  5  0  0  0  0  0  0  0  0  0  0
  154.9943  138.3272  159.4889 C   0  0  0  0  0  0  0  0  0  0  0  0
  155.2485  138.9360  158.4496 O   0  0  0  0  0  0  0  0  0  0  0  0
  152.6868  143.3168  160.6671 C   0  0  0  0  0  0  0  0  0  0  0  0
  151.2772  146.1040  159.2767 H   0  0  0  0  0  0  0  0  0  0  0  0
  152.5810  146.0312  160.4646 H   0  0  0  0  0  0  0  0  0  0  0  0
  150.9195  145.6742  160.9544 H   0  0  0  0  0  0  0  0  0  0  0  0
  150.5890  144.0937  158.0878 H   0  0  0  0  0  0  0  0  0  0  0  0
  150.9226  141.6983  157.6104 H   0  0  0  0  0  0  0  0  0  0  0  0
  153.3822  139.6634  158.5631 H   0  0  0  0  0  0  0  0  0  0  0  0
  151.6674  139.5749  158.1837 H   0  0  0  0  0  0  0  0  0  0  0  0
  152.2042  139.2426  159.8177 H   0  0  0  0  0  0  0  0  0  0  0  0
  153.1645  140.3680  161.8113 H   0  0  0  0  0  0  0  0  0  0  0  0
  155.0831  142.1934  162.3722 H   0  0  0  0  0  0  0  0  0  0  0  0
  155.2026  140.9164  159.7540 H   0  0  0  0  0  0  0  0  0  0  0  0
  155.9024  140.7324  161.3154 H   0  0  0  0  0  0  0  0  0  0  0  0
  154.5042  138.9816  162.7255 H   0  0  0  0  0  0  0  0  0  0  0  0
  153.1583  143.7789  161.5223 H   0  0  0  0  0  0  0  0  0  0  0  0
  1  2  1  0  0  0  0
  1 21  1  0  0  0  0
  1 22  1  0  0  0  0
  1 23  1  0  0  0  0
  2 20  1  0  0  0  0
  2  3  2  0  0  0  0
  3  4  1  0  0  0  0
  3 24  1  0  0  0  0
  4  5  2  0  0  0  0
  4 25  1  0  0  0  0
  5  6  1  0  0  0  0
  5  7  1  0  0  0  0
  6 26  1  0  0  0  0
  6 27  1  0  0  0  0
  6 28  1  0  0  0  0
  7  8  1  0  0  0  0
  7 20  2  0  0  0  0
  8  9  1  0  0  0  0
  8 10  1  0  0  0  0
  8 29  1  0  0  0  0
  9 30  1  0  0  0  0
 10 11  1  0  0  0  0
 10 31  1  0  0  0  0
 10 32  1  0  0  0  0
 11 18  1  0  0  0  0
 11 12  1  0  0  0  0
 12 13  2  0  0  0  0
 12 33  1  0  0  0  0
 13 14  1  0  0  0  0
 13 15  1  0  0  0  0
 15 16  2  0  0  0  0
 15 17  1  0  0  0  0
 17 18  1  0  0  0  0
 18 19  2  0  0  0  0
 20 34  1  0  0  0  0
M  CHG  1  17  -1
M  END
> <s_m_source_file>
AV-unprocessed.smi

> <i_m_source_file_index>
649

> <i_lp_mmshare_version>
43012

> <i_f3d_flags>
0

> <s_epik_input>
W0NIM11jMVtjSF1bY0hdYyhbQ0gzXSljKFtjSF0xKVtDQEhdKFtPSF0pW0NIMl1uMltjSF1jKENsKWMoPU8pW25IXWMyPU8=

> <s_epik_cmdline>
J2VwaWtfcHl0aG9uJywgJy1waCcsICc3LjAnLCAnLXRuJywgJzgnLCAnLW1hJywgJzIwMCcsICctbWV0YWxfYmluZGluZycsICctaW1hZScsICc8aW5maWxlLm1hZT4nLCAnLW9tYWUnLCAnPG91dGZpbGUubWFlPic=

> <r_epik_Ionization_Penalty>
1.7979

> <r_epik_Ionization_Penalty_Charging>
3.23819e-08

> <r_epik_Ionization_Penalty_Neutral>
1.7979

> <r_epik_State_Penalty>
1.91135

> <r_epik_Charging_Adjusted_Penalty>
1.91135

> <i_epik_Tot_Q>
-1

> <i_epik_Tot_abs_Q>
1

> <r_epik_Metal_State_Penalty>
0.014155

> <b_epik_Metal_Only>
0

> <s_lp_Force_Field>
OPLS_2005

> <r_lp_Energy>
21.5696

> <b_lp_Chiralities_Consistent>
1

> <s_lp_Variant>
AV-unprocessed.smi:649-3

> <Gold.Version>
5.8.1

> <Gold.Id.Protein>
6NUR|6NUR_protein|mol2

> <Gold.PLP.Fitness>
48.4129

> <Gold.PLP.PLP>
-43.9280

> <Gold.PLP.part.hbond>
-3.0000

> <Gold.PLP.part.metal>
0.0000

> <Gold.PLP.part.buried>
-4.5092

> <Gold.PLP.part.nonpolar>
-36.6421

> <Gold.PLP.part.repulsive>
0.0000

> <Gold.PLP.ligand.clash>
0.0000

> <Gold.PLP.ligand.torsion>
0.7833

> <Gold.PLP.Chemscore.Hbond>
1.9913

> <Gold.PLP.Chemscore.CHOScore>
0.0000

> <Gold.PLP.Chemscore.Metal>
0.0000

> <Gold.Chemscore.Hbonds>
donor molecule, donor type, donor heavy atom, donor atom, acceptor molecule, acceptor atom, score
      P1  H  6896  6909       L1    16  0.96
      P1  H  7997  8008       L1    19  0.99

> <Gold.PLP.Chemscore.Internal.Correction>
0.0777

> <Gold.Rescore>
     Score         DG    S(hbond)    S(metal)    S(lipo)     H(rot)  DE(clash)    DE(int)     intcor
     18.63     -20.97       1.91        0.00     123.66       2.09       1.50       0.84       ----

> <Gold.Chemscore.Fitness>
18.6323

> <Gold.Chemscore.DG>
-20.9727

> <Gold.Chemscore.ZeroCoef>
-5.4800

> <Gold.Chemscore.Hbond>
1.9063

> <Gold.Chemscore.Metal>
0.0000

> <Gold.Chemscore.Lipo>
123.6568

> <Gold.Chemscore.Internal_Hbond>
0.0000

> <Gold.Chemscore.DEClash>
1.4984

> <Gold.Chemscore.DEInternal>
0.8421

> <Gold.Chemscore.Rot>
2.0868

> <Gold.Chemscore.Internal.Correction>
   9.000000E+99

> <Gold.Chemscore.Hbonds>
donor molecule, donor type, donor heavy atom, donor atom, acceptor molecule, acceptor atom, score
      P1  H  6896  6909       L1    16  0.57
      P1  H  7997  8008       L1    19  0.92

> <Gold.Chemscore.Hbond.Weighted>
-6.3672

> <Gold.Chemscore.Metal.Weighted>
-0.0000

> <Gold.Chemscore.Lipo.Weighted>
-14.4678

> <Gold.Chemscore.Internal_Hbond.Weighted>
0.0000

> <Gold.Chemscore.DEClash.Weighted>
1.4984

> <Gold.Chemscore.DEInternal.Weighted>
0.8421

> <Gold.Chemscore.Rot.Weighted>
5.3423

> <Gold.Chemscore.Internal.Correction.Weighted>
   9.000000E+99

> <Gold.Protein.RotatedTorsions>
[ 6907 6896 6895 6894 ] final  178.17 input  -60.11 | X-H torsion
[ 7974 7965 7964 7962 ] final  -94.78 input  175.53 | X-H torsion
[ 8008 7997 7996 7995 ] final -130.24 input   59.86 | X-H torsion
[ 10167 10162 10161 10158 ] final   76.94 input  -65.29 | X-H torsion
[ 10718 10713 10712 10709 ] final  -29.30 input   66.30 | X-H torsion
[ 10763 10752 10751 10750 ] final  -79.26 input  -60.55 | X-H torsion
[ 11005 11000 10999 10996 ] final -179.86 input  -57.11 | X-H torsion

> <Gold.Protein.ActiveResidues>
 VAL166  LYS551  ARG553  GLY616  TRP617  ASP618  TYR619  PRO620  LYS621  CYS622 
 ASP623  PHE694  ASN695  SER759  ASP760  ASP761  ALA762  ILE779  LEU786  VAL792 
 PHE793  MET794  SER795  GLU796  ALA797  LYS798  CYS799  TRP800  GLU811  SER814 

> <Gold.Protein.RotatedAtoms>
  151.6921  133.3311  159.3245 H   0  0  0  0  0  0  0  0  0  0  0  0  # atno 6907 bound_to 6896
  150.7774  134.6689  159.6390 H   0  0  0  0  0  0  0  0  0  0  0  0  # atno 6908 bound_to 6896
  152.3821  134.6578  160.0191 H   0  0  0  0  0  0  0  0  0  0  0  0  # atno 6909 bound_to 6896
  145.3688  140.9502  143.2459 H   0  0  0  0  0  0  0  0  0  0  0  0  # atno 7974 bound_to 7965
  155.2925  140.0449  157.3024 H   0  0  0  0  0  0  0  0  0  0  0  0  # atno 8008 bound_to 7997
  154.5533  140.2324  155.8418 H   0  0  0  0  0  0  0  0  0  0  0  0  # atno 8009 bound_to 7997
  156.1985  140.3032  155.9485 H   0  0  0  0  0  0  0  0  0  0  0  0  # atno 8010 bound_to 7997
  139.9869  144.5786  150.7852 H   0  0  0  0  0  0  0  0  0  0  0  0  # atno 10167 bound_to 10162
  156.4143  130.4414  149.7230 H   0  0  0  0  0  0  0  0  0  0  0  0  # atno 10718 bound_to 10713
  154.5364  135.5701  153.6802 H   0  0  0  0  0  0  0  0  0  0  0  0  # atno 10763 bound_to 10752
  152.9952  135.6217  154.2561 H   0  0  0  0  0  0  0  0  0  0  0  0  # atno 10764 bound_to 10752
  154.2489  135.2860  155.2804 H   0  0  0  0  0  0  0  0  0  0  0  0  # atno 10765 bound_to 10752
  140.4140  134.6666  157.4629 H   0  0  0  0  0  0  0  0  0  0  0  0  # atno 11005 bound_to 11000
  144.8592  139.5203  143.6820 LP  0  0  0  0  0  0  0  0  0  0  0  0  # atno 17320 bound_to 7965
  146.2895  139.7098  142.9171 LP  0  0  0  0  0  0  0  0  0  0  0  0  # atno 17321 bound_to 7965
  140.7469  143.2898  151.3362 LP  0  0  0  0  0  0  0  0  0  0  0  0  # atno 17342 bound_to 10162
  139.6369  144.0614  152.2523 LP  0  0  0  0  0  0  0  0  0  0  0  0  # atno 17343 bound_to 10162
  156.4196  130.7762  151.2779 LP  0  0  0  0  0  0  0  0  0  0  0  0  # atno 17370 bound_to 10713
  157.7507  131.0187  150.3636 LP  0  0  0  0  0  0  0  0  0  0  0  0  # atno 17371 bound_to 10713
  140.0247  134.6494  155.9189 LP  0  0  0  0  0  0  0  0  0  0  0  0  # atno 17394 bound_to 11000
  141.1810  133.6546  156.5021 LP  0  0  0  0  0  0  0  0  0  0  0  0  # atno 17395 bound_to 11000

$$$$
