#       Name:                AV-unprocessed.smi:2737
#       Creating user name   scv26
#       Creation time:       Fri Mar 27 14:59:49 2020


#       File generated by GOLD software.
#

@<TRIPOS>MOLECULE
AV-unprocessed.smi:2737
    51    52     1
SMALL
NO_CHARGES


@<TRIPOS>ATOM
      1 ****        -4.2322   4.2823   0.8049 C.3            1 S1                 0.0000
      2 ****        -4.1050   3.3070  -0.2258 O.3            1 S1                 0.0000
      3 ****        -3.4336   2.0814   0.0914 C.3            1 S1                 0.0000
      4 ****        -4.0511   1.4104   1.3380 C.3            1 S1                 0.0000
      5 ****        -3.6348   1.1867  -1.1417 C.3            1 S1                 0.0000
      6 ****        -1.9692   2.3832   0.2719 C.2            1 S1                 0.0000
      7 ****        -1.0657   1.6160   0.8812 N.2            1 S1                 0.0000
      8 ****         0.0862   2.2894   0.6089 C.2            1 S1                 0.0000
      9 ****         1.4231   1.8448   1.1091 C.3            1 S1                 0.0000
     10 ****         2.0546   0.8477   0.1365 C.2            1 S1                 0.0000
     11 ****         2.7741   1.2506  -0.7774 O.2            1 S1                 0.0000
     12 ****         1.7777  -0.4496   0.3437 N.am           1 S1                 0.0000
     13 ****         2.2567  -1.5572  -0.4778 C.3            1 S1                 0.0000
     14 ****         1.3217  -2.7693  -0.3045 C.3            1 S1                 0.0000
     15 ****         1.8147  -3.9797  -1.1144 C.3            1 S1                 0.0000
     16 ****         3.2608  -4.3461  -0.7445 C.3            1 S1                 0.0000
     17 ****         4.1994  -3.1416  -0.9168 C.3            1 S1                 0.0000
     18 ****         3.7080  -1.9303  -0.1078 C.3            1 S1                 0.0000
     19 ****        -0.0439   3.3772  -0.1400 N.2            1 S1                 0.0000
     20 ****        -1.4192   3.4221  -0.4065 O.3            1 S1                 0.0000
     21 ****        -4.6322   5.2013   0.3767 H              1 S1                 0.0000
     22 ****        -3.2769   4.5256   1.2703 H              1 S1                 0.0000
     23 ****        -4.9277   3.9595   1.5796 H              1 S1                 0.0000
     24 ****        -3.6101   0.4285   1.5130 H              1 S1                 0.0000
     25 ****        -5.1253   1.2688   1.2173 H              1 S1                 0.0000
     26 ****        -3.8890   1.9957   2.2433 H              1 S1                 0.0000
     27 ****        -3.1300   0.2274  -1.0226 H              1 S1                 0.0000
     28 ****        -3.2379   1.6592  -2.0412 H              1 S1                 0.0000
     29 ****        -4.6924   0.9854  -1.3148 H              1 S1                 0.0000
     30 ****         2.0801   2.7078   1.2280 H              1 S1                 0.0000
     31 ****         1.3146   1.3921   2.0957 H              1 S1                 0.0000
     32 ****         1.1759  -0.6866   1.1192 H              1 S1                 0.0000
     33 ****         2.2266  -1.2548  -1.5266 H              1 S1                 0.0000
     34 ****         1.2608  -3.0422   0.7502 H              1 S1                 0.0000
     35 ****         0.3089  -2.5083  -0.6146 H              1 S1                 0.0000
     36 ****         1.1588  -4.8338  -0.9431 H              1 S1                 0.0000
     37 ****         1.7560  -3.7540  -2.1800 H              1 S1                 0.0000
     38 ****         3.2973  -4.6928   0.2890 H              1 S1                 0.0000
     39 ****         3.6040  -5.1766  -1.3619 H              1 S1                 0.0000
     40 ****         5.2098  -3.4102  -0.6073 H              1 S1                 0.0000
     41 ****         4.2607  -2.8743  -1.9724 H              1 S1                 0.0000
     42 ****         4.3733  -1.0840  -0.2824 H              1 S1                 0.0000
     43 ****         3.7713  -2.1576   0.9574 H              1 S1                 0.0000
     44 ****        -3.6058   3.7337  -0.9799 LP             1 S1                 0.0000
     45 ****        -5.0284   3.0712  -0.5286 LP             1 S1                 0.0000
     46 ****        -1.1982   0.7713   1.3998 LP             1 S1                 0.0000
     47 ****         2.9458   2.2300  -0.8840 LP             1 S1                 0.0000
     48 ****         3.1870   0.5985  -1.4133 LP             1 S1                 0.0000
     49 ****         0.6677   4.0118  -0.4415 LP             1 S1                 0.0000
     50 ****        -1.8060   4.2877  -0.0886 LP             1 S1                 0.0000
     51 ****        -1.5858   3.3229  -1.3875 LP             1 S1                 0.0000
@<TRIPOS>BOND
    1    1    2 1     
    2    1   21 1     
    3    1   22 1     
    4    1   23 1     
    5    2    3 1     
    6    3    4 1     
    7    3    5 1     
    8    3    6 1     
    9    4   24 1     
   10    4   25 1     
   11    4   26 1     
   12    5   27 1     
   13    5   28 1     
   14    5   29 1     
   15    6   20 1     
   16    6    7 2     
   17    7    8 1     
   18    8    9 1     
   19    8   19 2     
   20    9   10 1     
   21    9   30 1     
   22    9   31 1     
   23   10   11 2     
   24   10   12 am    
   25   12   13 1     
   26   12   32 1     
   27   13   18 1     
   28   13   14 1     
   29   13   33 1     
   30   14   15 1     
   31   14   34 1     
   32   14   35 1     
   33   15   16 1     
   34   15   36 1     
   35   15   37 1     
   36   16   17 1     
   37   16   38 1     
   38   16   39 1     
   39   17   18 1     
   40   17   40 1     
   41   17   41 1     
   42   18   42 1     
   43   18   43 1     
   44   19   20 1     
   45    2   44 1     
   46    2   45 1     
   47    7   46 1     
   48   11   47 1     
   49   11   48 1     
   50   19   49 1     
   51   20   50 1     
   52   20   51 1     
@<TRIPOS>SUBSTRUCTURE
      1 S1             1
@<TRIPOS>SET
LONE_PAIRS      STATIC     ATOMS    <user>   **** ""
8 44 45 46 47 48 49 50 51
DONOR_HYDROGENS      STATIC     ATOMS    <user>   **** ""
1 32
ATOM$BLUE        STATIC     ATOMS    COLORGROUP SYSTEM
8 44 45 46 47 48 49 50 51
ATOM$RED        STATIC     ATOMS    COLORGROUP SYSTEM
1 32
