AV-unprocessed.smi:1360|AV-procd|sdf|5551|dock10
  -GOLD-   22720 5143D 1   1.00000     0.00000
 Structure written by MMmdl.
 36 37  0  0  0  0  0  0  0  0  1 V2000
  152.4368  139.1564  155.3381 C   0  0  0  0  0  0  0  0  0  0  0  0
  150.9996  139.4653  155.7848 C   0  0  2  0  0  0  0  0  0  0  0  0
  150.0846  139.7591  154.5803 C   0  0  0  0  0  0  0  0  0  0  0  0
  148.8619  140.4397  154.9702 N   0  0  0  0  0  0  0  0  0  0  0  0
  147.9205  141.0369  154.1588 C   0  0  0  0  0  0  0  0  0  0  0  0
  146.9433  141.5372  154.9707 C   0  0  0  0  0  0  0  0  0  0  0  0
  147.3820  141.1920  156.2796 C   0  0  0  0  0  0  0  0  0  0  0  0
  148.5313  140.5361  156.2764 N   0  0  0  0  0  0  0  0  0  0  0  0
  150.9987  140.6011  156.7039 N   0  0  0  0  0  0  0  0  0  0  0  0
  151.8919  140.8146  157.6822 C   0  0  0  0  0  0  0  0  0  0  0  0
  152.8443  140.0659  157.9033 O   0  0  0  0  0  0  0  0  0  0  0  0
  151.6728  142.0642  158.5450 C   0  0  2  0  0  0  0  0  0  0  0  0
  151.4806  143.3228  157.6674 C   0  0  0  0  0  0  0  0  0  0  0  0
  151.5235  144.6030  158.4831 C   0  0  0  0  0  0  0  0  0  0  0  0
  152.0020  144.6648  159.7376 C   0  0  0  0  0  0  0  0  0  0  0  0
  152.5592  143.4627  160.4799 C   0  0  0  0  0  0  0  0  0  0  0  0
  152.8314  142.2721  159.5410 C   0  0  0  0  0  0  0  0  0  0  0  0
  152.4622  138.2965  154.6683 H   0  0  0  0  0  0  0  0  0  0  0  0
  153.0749  138.9247  156.1916 H   0  0  0  0  0  0  0  0  0  0  0  0
  152.8788  140.0024  154.8108 H   0  0  0  0  0  0  0  0  0  0  0  0
  150.6077  138.5845  156.2972 H   0  0  0  0  0  0  0  0  0  0  0  0
  150.6078  140.3584  153.8332 H   0  0  0  0  0  0  0  0  0  0  0  0
  149.8033  138.8271  154.0886 H   0  0  0  0  0  0  0  0  0  0  0  0
  148.0227  141.0532  153.0837 H   0  0  0  0  0  0  0  0  0  0  0  0
  146.0505  142.0677  154.6748 H   0  0  0  0  0  0  0  0  0  0  0  0
  146.9025  141.3977  157.2253 H   0  0  0  0  0  0  0  0  0  0  0  0
  150.2452  141.2657  156.6017 H   0  0  0  0  0  0  0  0  0  0  0  0
  150.7616  141.9179  159.1285 H   0  0  0  0  0  0  0  0  0  0  0  0
  152.2479  143.3915  156.8949 H   0  0  0  0  0  0  0  0  0  0  0  0
  150.5192  143.2701  157.1551 H   0  0  0  0  0  0  0  0  0  0  0  0
  151.1561  145.4987  158.0037 H   0  0  0  0  0  0  0  0  0  0  0  0
  151.9922  145.6045  160.2701 H   0  0  0  0  0  0  0  0  0  0  0  0
  153.4781  143.7494  160.9917 H   0  0  0  0  0  0  0  0  0  0  0  0
  151.8413  143.1790  161.2500 H   0  0  0  0  0  0  0  0  0  0  0  0
  153.0010  141.3710  160.1321 H   0  0  0  0  0  0  0  0  0  0  0  0
  153.7556  142.4573  158.9910 H   0  0  0  0  0  0  0  0  0  0  0  0
  1  2  1  0  0  0  0
  1 18  1  0  0  0  0
  1 19  1  0  0  0  0
  1 20  1  0  0  0  0
  2  3  1  0  0  0  0
  2  9  1  0  0  0  0
  2 21  1  0  0  0  0
  3  4  1  0  0  0  0
  3 22  1  0  0  0  0
  3 23  1  0  0  0  0
  4  8  1  0  0  0  0
  4  5  1  0  0  0  0
  5  6  2  0  0  0  0
  5 24  1  0  0  0  0
  6  7  1  0  0  0  0
  6 25  1  0  0  0  0
  7  8  2  0  0  0  0
  7 26  1  0  0  0  0
  9 10  1  0  0  0  0
  9 27  1  0  0  0  0
 10 11  2  0  0  0  0
 10 12  1  0  0  0  0
 12 17  1  0  0  0  0
 12 13  1  0  0  0  0
 12 28  1  0  0  0  0
 13 14  1  0  0  0  0
 13 29  1  0  0  0  0
 13 30  1  0  0  0  0
 14 15  2  0  0  0  0
 14 31  1  0  0  0  0
 15 16  1  0  0  0  0
 15 32  1  0  0  0  0
 16 17  1  0  0  0  0
 16 33  1  0  0  0  0
 16 34  1  0  0  0  0
 17 35  1  0  0  0  0
 17 36  1  0  0  0  0
M  END
> <s_m_source_file>
AV-unprocessed.smi

> <i_m_source_file_index>
1360

> <i_lp_mmshare_version>
43012

> <i_f3d_flags>
0

> <s_epik_input>
bjFbY0hdW2NIXVtjSF1uMVtDSDJdW0NAQEhdKFtDSDNdKVtOSF1DKD1PKVtDQEBIXTJbQ0gyXVtDSF09W0NIXVtDSDJdW0NIMl0y

> <s_epik_cmdline>
J2VwaWtfcHl0aG9uJywgJy1waCcsICc3LjAnLCAnLXRuJywgJzgnLCAnLW1hJywgJzIwMCcsICctbWV0YWxfYmluZGluZycsICctaW1hZScsICc8aW5maWxlLm1hZT4nLCAnLW9tYWUnLCAnPG91dGZpbGUubWFlPic=

> <r_lp_tautomer_probability>
1

> <r_epik_Ionization_Penalty>
0.000315076

> <r_epik_Ionization_Penalty_Charging>
0

> <r_epik_Ionization_Penalty_Neutral>
0.000315076

> <r_epik_State_Penalty>
-0

> <r_epik_Charging_Adjusted_Penalty>
0

> <i_epik_Tot_Q>
0

> <i_epik_Tot_abs_Q>
0

> <r_epik_Metal_State_Penalty>
-0

> <b_epik_Metal_Only>
0

> <s_lp_Force_Field>
OPLS_2005

> <r_lp_Energy>
8.39031

> <b_lp_Chiralities_Consistent>
1

> <s_lp_Variant>
AV-unprocessed.smi:1360-1

> <Gold.Version>
5.8.1

> <Gold.Id.Protein>
6NUR|6NUR_protein|mol2

> <Gold.PLP.Fitness>
45.8925

> <Gold.PLP.PLP>
-41.1203

> <Gold.PLP.part.hbond>
-1.0000

> <Gold.PLP.part.metal>
0.0000

> <Gold.PLP.part.buried>
-2.4815

> <Gold.PLP.part.nonpolar>
-37.9148

> <Gold.PLP.part.repulsive>
0.1516

> <Gold.PLP.ligand.clash>
0.0000

> <Gold.PLP.ligand.torsion>
0.6247

> <Gold.PLP.Chemscore.Hbond>
1.0000

> <Gold.PLP.Chemscore.CHOScore>
1.0000

> <Gold.PLP.Chemscore.Metal>
0.0000

> <Gold.Chemscore.Hbonds>
donor molecule, donor type, donor heavy atom, donor atom, acceptor molecule, acceptor atom, score
      P1  H  7997  8009       L1    11  1.00
      L1  C     5    24       P1  7957  0.63

> <Gold.PLP.Chemscore.Internal.Correction>
0.0218

> <Gold.Rescore>
     Score         DG    S(hbond)    S(metal)    S(lipo)     H(rot)  DE(clash)    DE(int)     intcor
     15.13     -16.84       0.97        0.00     102.25       1.51       0.18       1.52       ----

> <Gold.Chemscore.Fitness>
15.1328

> <Gold.Chemscore.DG>
-16.8373

> <Gold.Chemscore.ZeroCoef>
-5.4800

> <Gold.Chemscore.Hbond>
0.9725

> <Gold.Chemscore.Metal>
0.0000

> <Gold.Chemscore.Lipo>
102.2542

> <Gold.Chemscore.Internal_Hbond>
0.0000

> <Gold.Chemscore.DEClash>
0.1812

> <Gold.Chemscore.DEInternal>
1.5233

> <Gold.Chemscore.Rot>
1.5057

> <Gold.Chemscore.Internal.Correction>
   9.000000E+99

> <Gold.Chemscore.Hbonds>
donor molecule, donor type, donor heavy atom, donor atom, acceptor molecule, acceptor atom, score
      P1  H  7997  8009       L1    11  0.93

> <Gold.Chemscore.Hbond.Weighted>
-3.2482

> <Gold.Chemscore.Metal.Weighted>
-0.0000

> <Gold.Chemscore.Lipo.Weighted>
-11.9637

> <Gold.Chemscore.Internal_Hbond.Weighted>
0.0000

> <Gold.Chemscore.DEClash.Weighted>
0.1812

> <Gold.Chemscore.DEInternal.Weighted>
1.5233

> <Gold.Chemscore.Rot.Weighted>
3.8546

> <Gold.Chemscore.Internal.Correction.Weighted>
   9.000000E+99

> <Gold.Protein.RotatedTorsions>
[ 6907 6896 6895 6894 ] final -119.33 input  -60.11 | X-H torsion
[ 7974 7965 7964 7962 ] final -129.98 input  175.53 | X-H torsion
[ 8008 7997 7996 7995 ] final  173.64 input   59.86 | X-H torsion
[ 10167 10162 10161 10158 ] final -111.68 input  -65.29 | X-H torsion
[ 10718 10713 10712 10709 ] final   95.26 input   66.30 | X-H torsion
[ 10763 10752 10751 10750 ] final    3.01 input  -60.55 | X-H torsion
[ 11005 11000 10999 10996 ] final -156.04 input  -57.11 | X-H torsion

> <Gold.Protein.ActiveResidues>
 VAL166  LYS551  ARG553  GLY616  TRP617  ASP618  TYR619  PRO620  LYS621  CYS622 
 ASP623  PHE694  ASN695  SER759  ASP760  ASP761  ALA762  ILE779  LEU786  VAL792 
 PHE793  MET794  SER795  GLU796  ALA797  LYS798  CYS799  TRP800  GLU811  SER814 

> <Gold.Protein.RotatedAtoms>
  150.8296  133.8113  159.3103 H   0  0  0  0  0  0  0  0  0  0  0  0  # atno 6907 bound_to 6896
  151.5847  135.1055  160.0035 H   0  0  0  0  0  0  0  0  0  0  0  0  # atno 6908 bound_to 6896
  152.4377  133.7349  159.6665 H   0  0  0  0  0  0  0  0  0  0  0  0  # atno 6909 bound_to 6896
  144.9519  140.7354  143.4782 H   0  0  0  0  0  0  0  0  0  0  0  0  # atno 7974 bound_to 7965
  156.1055  140.1455  156.9410 H   0  0  0  0  0  0  0  0  0  0  0  0  # atno 8008 bound_to 7997
  154.4731  140.0903  156.7239 H   0  0  0  0  0  0  0  0  0  0  0  0  # atno 8009 bound_to 7997
  155.4686  140.3441  155.4325 H   0  0  0  0  0  0  0  0  0  0  0  0  # atno 8010 bound_to 7997
  140.1309  143.4361  152.1628 H   0  0  0  0  0  0  0  0  0  0  0  0  # atno 10167 bound_to 10162
  157.6940  131.0539  150.4311 H   0  0  0  0  0  0  0  0  0  0  0  0  # atno 10718 bound_to 10713
  153.2886  135.6946  153.7315 H   0  0  0  0  0  0  0  0  0  0  0  0  # atno 10763 bound_to 10752
  153.6275  135.3416  155.3032 H   0  0  0  0  0  0  0  0  0  0  0  0  # atno 10764 bound_to 10752
  154.8517  135.4401  154.1961 H   0  0  0  0  0  0  0  0  0  0  0  0  # atno 10765 bound_to 10752
  140.6799  134.4156  157.5227 H   0  0  0  0  0  0  0  0  0  0  0  0  # atno 11005 bound_to 11000
  145.2830  139.1911  143.4780 LP  0  0  0  0  0  0  0  0  0  0  0  0  # atno 17320 bound_to 7965
  146.3324  140.2795  142.8609 LP  0  0  0  0  0  0  0  0  0  0  0  0  # atno 17321 bound_to 7965
  139.5520  144.7345  151.4407 LP  0  0  0  0  0  0  0  0  0  0  0  0  # atno 17342 bound_to 10162
  140.6817  143.8066  150.7131 LP  0  0  0  0  0  0  0  0  0  0  0  0  # atno 17343 bound_to 10162
  156.4678  130.4046  149.6537 LP  0  0  0  0  0  0  0  0  0  0  0  0  # atno 17370 bound_to 10713
  156.3628  130.7490  151.2464 LP  0  0  0  0  0  0  0  0  0  0  0  0  # atno 17371 bound_to 10713
  139.8955  134.8682  156.2129 LP  0  0  0  0  0  0  0  0  0  0  0  0  # atno 17394 bound_to 11000
  141.0326  133.6980  156.1456 LP  0  0  0  0  0  0  0  0  0  0  0  0  # atno 17395 bound_to 11000

$$$$
