#       Name:                AV-unprocessed.smi:1294
#       Creating user name   scv26
#       Creation time:       Fri Mar 27 04:56:02 2020


#       File generated by GOLD software.
#

@<TRIPOS>MOLECULE
AV-unprocessed.smi:1294
    48    49     1
SMALL
NO_CHARGES


@<TRIPOS>ATOM
      1 ****        -3.0100   3.0909   1.9731 C.3            1 S1                 0.0000
      2 ****        -2.9039   3.3074   0.4906 C.2            1 S1                 0.0000
      3 ****        -3.1904   4.4959  -0.0148 N.2            1 S1                 0.0000
      4 ****        -2.9949   4.3616  -1.3419 N.pl3          1 S1                 0.0000
      5 ****        -3.2176   5.4995  -2.2125 C.3            1 S1                 0.0000
      6 ****        -2.5852   3.0852  -1.6755 C.2            1 S1                 0.0000
      7 ****        -2.2973   2.6834  -3.0859 C.3            1 S1                 0.0000
      8 ****        -2.5174   2.3687  -0.5105 C.2            1 S1                 0.0000
      9 ****        -2.1242   0.9265  -0.3115 C.3            1 S1                 0.0000
     10 ****        -0.5998   0.7943  -0.3107 C.2            1 S1                 0.0000
     11 ****         0.0723   1.4071   0.5192 O.2            1 S1                 0.0000
     12 ****        -0.0698  -0.0060  -1.2490 N.am           1 S1                 0.0000
     13 ****         1.3537  -0.2644  -1.4433 C.3            1 S1                 0.0000
     14 ****         1.7794  -1.6175  -0.8509 C.3            1 S1                 0.0000
     15 ****         1.8252  -1.6010   0.9648 S.3            1 S1                 0.0000
     16 ****         2.2793  -3.3266   1.2993 C.3            1 S1                 0.0000
     17 ****         2.2430  -3.6595   2.7900 C.3            1 S1                 0.0000
     18 ****         3.1064  -4.9163   2.9221 C.3            1 S1                 0.0000
     19 ****         4.1178  -4.8606   1.7667 C.3            1 S1                 0.0000
     20 ****         3.7162  -3.6645   0.8927 C.3            1 S1                 0.0000
     21 ****        -2.1095   2.6154   2.3623 H              1 S1                 0.0000
     22 ****        -3.8557   2.4462   2.2121 H              1 S1                 0.0000
     23 ****        -3.1453   4.0299   2.5111 H              1 S1                 0.0000
     24 ****        -3.8940   5.2183  -3.0200 H              1 S1                 0.0000
     25 ****        -2.2681   5.8240  -2.6386 H              1 S1                 0.0000
     26 ****        -3.6580   6.3291  -1.6579 H              1 S1                 0.0000
     27 ****        -1.8356   1.6972  -3.1297 H              1 S1                 0.0000
     28 ****        -1.6154   3.3894  -3.5602 H              1 S1                 0.0000
     29 ****        -3.2150   2.6509  -3.6730 H              1 S1                 0.0000
     30 ****        -2.5009   0.5384   0.6352 H              1 S1                 0.0000
     31 ****        -2.5550   0.2922  -1.0876 H              1 S1                 0.0000
     32 ****        -0.7043  -0.4688  -1.8837 H              1 S1                 0.0000
     33 ****         1.5338  -0.2740  -2.5183 H              1 S1                 0.0000
     34 ****         1.9688   0.5426  -1.0414 H              1 S1                 0.0000
     35 ****         1.1104  -2.4096  -1.1893 H              1 S1                 0.0000
     36 ****         2.7761  -1.8702  -1.2122 H              1 S1                 0.0000
     37 ****         1.5866  -3.9849   0.7731 H              1 S1                 0.0000
     38 ****         2.6933  -2.8483   3.3644 H              1 S1                 0.0000
     39 ****         1.2291  -3.8074   3.1633 H              1 S1                 0.0000
     40 ****         3.5935  -4.9729   3.8959 H              1 S1                 0.0000
     41 ****         2.4814  -5.8041   2.8174 H              1 S1                 0.0000
     42 ****         5.1387  -4.7465   2.1332 H              1 S1                 0.0000
     43 ****         4.0802  -5.7869   1.1921 H              1 S1                 0.0000
     44 ****         3.8080  -3.8828  -0.1716 H              1 S1                 0.0000
     45 ****         4.3726  -2.8214   1.1132 H              1 S1                 0.0000
     46 ****        -3.4866   5.3136   0.4787 LP             1 S1                 0.0000
     47 ****        -0.3780   1.9921   1.1937 LP             1 S1                 0.0000
     48 ****         1.0685   1.3199   0.5186 LP             1 S1                 0.0000
@<TRIPOS>BOND
    1    1    2 1     
    2    1   21 1     
    3    1   22 1     
    4    1   23 1     
    5    2    8 1     
    6    2    3 2     
    7    3    4 1     
    8    4    5 1     
    9    4    6 1     
   10    5   24 1     
   11    5   25 1     
   12    5   26 1     
   13    6    7 1     
   14    6    8 2     
   15    7   27 1     
   16    7   28 1     
   17    7   29 1     
   18    8    9 1     
   19    9   10 1     
   20    9   30 1     
   21    9   31 1     
   22   10   11 2     
   23   10   12 am    
   24   12   13 1     
   25   12   32 1     
   26   13   14 1     
   27   13   33 1     
   28   13   34 1     
   29   14   15 1     
   30   14   35 1     
   31   14   36 1     
   32   15   16 1     
   33   16   20 1     
   34   16   17 1     
   35   16   37 1     
   36   17   18 1     
   37   17   38 1     
   38   17   39 1     
   39   18   19 1     
   40   18   40 1     
   41   18   41 1     
   42   19   20 1     
   43   19   42 1     
   44   19   43 1     
   45   20   44 1     
   46   20   45 1     
   47    3   46 1     
   48   11   47 1     
   49   11   48 1     
@<TRIPOS>SUBSTRUCTURE
      1 S1             1
@<TRIPOS>SET
LONE_PAIRS      STATIC     ATOMS    <user>   **** ""
3 46 47 48
DONOR_HYDROGENS      STATIC     ATOMS    <user>   **** ""
1 32
ATOM$BLUE        STATIC     ATOMS    COLORGROUP SYSTEM
3 46 47 48
ATOM$RED        STATIC     ATOMS    COLORGROUP SYSTEM
1 32
