AV-unprocessed.smi:2735|AV-procd|sdf|10544|dock4
  -GOLD-   2272014593D 1   1.00000     0.00000
 Structure written by MMmdl.
 42 42  0  0  0  0  0  0  0  0  2 V2000
  154.6648  140.0757  161.7692 C   0  0  0  0  0  0  0  0  0  0  0  0
  153.6544  140.9148  161.0448 C   0  0  0  0  0  0  0  0  0  0  0  0
  153.2383  142.2426  161.3360 C   0  0  0  0  0  0  0  0  0  0  0  0
  152.3018  142.5208  160.3804 C   0  0  0  0  0  0  0  0  0  0  0  0
  151.4904  143.7589  160.1758 C   0  0  0  0  0  0  0  0  0  0  0  0
  152.2050  141.4023  159.5665 N   0  0  0  0  0  0  0  0  0  0  0  0
  151.3153  141.1701  158.4281 C   0  0  1  0  0  0  0  0  0  0  0  0
  151.3019  142.3444  157.4269 C   0  0  0  0  0  0  0  0  0  0  0  0
  151.6653  139.8379  157.7485 C   0  0  0  0  0  0  0  0  0  0  0  0
  152.7932  139.6438  157.2938 O   0  0  0  0  0  0  0  0  0  0  0  0
  150.6789  138.9296  157.6937 N   0  0  0  0  0  0  0  0  0  0  0  0
  150.7633  137.5760  157.1488 C   0  0  2  0  0  0  0  0  0  0  0  0
  149.4767  136.7691  157.4458 C   0  0  0  0  0  0  0  0  0  0  0  0
  149.5489  135.2482  157.1783 C   0  0  0  0  0  0  0  0  0  0  0  0
  149.8848  134.9767  155.7039 C   0  0  0  0  0  0  0  0  0  0  0  0
  148.2519  134.5203  157.5707 C   0  0  0  0  0  0  0  0  0  0  0  0
  152.0219  136.8943  157.6979 C   0  0  0  0  0  0  0  0  0  0  0  0
  152.1118  136.7677  158.9401 O   0  0  0  0  0  0  0  0  0  0  0  0
  152.8746  136.5089  156.8684 O   0  5  0  0  0  0  0  0  0  0  0  0
  153.0276  140.4152  159.9939 N   0  0  0  0  0  0  0  0  0  0  0  0
  150.8997  137.6328  156.0681 H   0  0  0  0  0  0  0  0  0  0  0  0
  155.1051  140.6221  162.6035 H   0  0  0  0  0  0  0  0  0  0  0  0
  155.4751  139.7756  161.1044 H   0  0  0  0  0  0  0  0  0  0  0  0
  154.2081  139.1703  162.1697 H   0  0  0  0  0  0  0  0  0  0  0  0
  153.5703  142.8909  162.1333 H   0  0  0  0  0  0  0  0  0  0  0  0
  151.7839  144.5364  160.8815 H   0  0  0  0  0  0  0  0  0  0  0  0
  150.4293  143.5606  160.3257 H   0  0  0  0  0  0  0  0  0  0  0  0
  151.6263  144.1552  159.1697 H   0  0  0  0  0  0  0  0  0  0  0  0
  150.3010  141.0879  158.8201 H   0  0  0  0  0  0  0  0  0  0  0  0
  150.5823  142.1662  156.6272 H   0  0  0  0  0  0  0  0  0  0  0  0
  152.2755  142.5033  156.9612 H   0  0  0  0  0  0  0  0  0  0  0  0
  151.0159  143.2728  157.9216 H   0  0  0  0  0  0  0  0  0  0  0  0
  149.7902  139.1787  158.1032 H   0  0  0  0  0  0  0  0  0  0  0  0
  149.1886  136.9238  158.4870 H   0  0  0  0  0  0  0  0  0  0  0  0
  148.6637  137.1929  156.8538 H   0  0  0  0  0  0  0  0  0  0  0  0
  150.3633  134.8267  157.7669 H   0  0  0  0  0  0  0  0  0  0  0  0
  149.1118  135.3692  155.0422 H   0  0  0  0  0  0  0  0  0  0  0  0
  149.9765  133.9075  155.5112 H   0  0  0  0  0  0  0  0  0  0  0  0
  150.8304  135.4412  155.4231 H   0  0  0  0  0  0  0  0  0  0  0  0
  147.3943  134.9168  157.0263 H   0  0  0  0  0  0  0  0  0  0  0  0
  148.0416  134.6126  158.6356 H   0  0  0  0  0  0  0  0  0  0  0  0
  148.3199  133.4545  157.3507 H   0  0  0  0  0  0  0  0  0  0  0  0
  1  2  1  0  0  0  0
  1 22  1  0  0  0  0
  1 23  1  0  0  0  0
  1 24  1  0  0  0  0
  2 20  2  0  0  0  0
  2  3  1  0  0  0  0
  3  4  2  0  0  0  0
  3 25  1  0  0  0  0
  4  5  1  0  0  0  0
  4  6  1  0  0  0  0
  5 26  1  0  0  0  0
  5 27  1  0  0  0  0
  5 28  1  0  0  0  0
  6  7  1  0  0  0  0
  6 20  1  0  0  0  0
  7  8  1  0  0  0  0
  7  9  1  0  0  0  0
  7 29  1  0  0  0  0
  8 30  1  0  0  0  0
  8 31  1  0  0  0  0
  8 32  1  0  0  0  0
  9 10  2  0  0  0  0
  9 11  1  0  0  0  0
 11 12  1  0  0  0  0
 11 33  1  0  0  0  0
 12 21  1  0  0  0  0
 12 13  1  0  0  0  0
 12 17  1  0  0  0  0
 13 14  1  0  0  0  0
 13 34  1  0  0  0  0
 13 35  1  0  0  0  0
 14 15  1  0  0  0  0
 14 16  1  0  0  0  0
 14 36  1  0  0  0  0
 15 37  1  0  0  0  0
 15 38  1  0  0  0  0
 15 39  1  0  0  0  0
 16 40  1  0  0  0  0
 16 41  1  0  0  0  0
 16 42  1  0  0  0  0
 17 18  2  0  0  0  0
 17 19  1  0  0  0  0
M  CHG  1  19  -1
M  END
> <s_m_source_file>
AV-unprocessed.smi

> <i_m_source_file_index>
2735

> <i_lp_mmshare_version>
43012

> <i_f3d_flags>
0

> <s_epik_input>
W0NIM11jMVtjSF1jKFtDSDNdKW4objEpW0NASF0oW0NIM10pQyg9TylbTkhdW0NASF0oQyg9TylbT0hdKVtDSDJdW0NIXShbQ0gzXSlbQ0gzXQ==

> <s_epik_cmdline>
J2VwaWtfcHl0aG9uJywgJy1waCcsICc3LjAnLCAnLXRuJywgJzgnLCAnLW1hJywgJzIwMCcsICctbWV0YWxfYmluZGluZycsICctaW1hZScsICc8aW5maWxlLm1hZT4nLCAnLW9tYWUnLCAnPG91dGZpbGUubWFlPic=

> <r_lp_tautomer_probability>
1

> <r_epik_Ionization_Penalty>
0.0012303

> <r_epik_Ionization_Penalty_Charging>
0.000186407

> <r_epik_Ionization_Penalty_Neutral>
0.0010439

> <r_epik_State_Penalty>
-0

> <r_epik_Charging_Adjusted_Penalty>
0.000186407

> <i_epik_Tot_Q>
-1

> <i_epik_Tot_abs_Q>
1

> <r_epik_Metal_State_Penalty>
-0

> <b_epik_Metal_Only>
0

> <s_lp_Force_Field>
OPLS_2005

> <r_lp_Energy>
6.63837

> <b_lp_Chiralities_Consistent>
1

> <s_lp_Variant>
AV-unprocessed.smi:2735-4

> <Gold.Version>
5.8.1

> <Gold.Id.Protein>
6NUR|6NUR_protein|mol2

> <Gold.PLP.Fitness>
45.8997

> <Gold.PLP.PLP>
-32.2499

> <Gold.PLP.part.hbond>
-3.0000

> <Gold.PLP.part.metal>
0.0000

> <Gold.PLP.part.buried>
-5.4047

> <Gold.PLP.part.nonpolar>
-24.2430

> <Gold.PLP.part.repulsive>
0.0449

> <Gold.PLP.ligand.clash>
0.0000

> <Gold.PLP.ligand.torsion>
0.4886

> <Gold.PLP.Chemscore.Hbond>
4.8240

> <Gold.PLP.Chemscore.CHOScore>
0.0000

> <Gold.PLP.Chemscore.Metal>
0.0000

> <Gold.Chemscore.Hbonds>
donor molecule, donor type, donor heavy atom, donor atom, acceptor molecule, acceptor atom, score
      P1  H  6896  6907       L1    18  1.76
      P1  H  7997  8010       L1    10  1.00
      P1  H 10752 10764       L1    19  2.00

> <Gold.PLP.Chemscore.Internal.Correction>
0.1550

> <Gold.Rescore>
     Score         DG    S(hbond)    S(metal)    S(lipo)     H(rot)  DE(clash)    DE(int)     intcor
     15.26     -18.29       2.83        0.00      77.51       2.24       0.01       3.02       ----

> <Gold.Chemscore.Fitness>
15.2578

> <Gold.Chemscore.DG>
-18.2860

> <Gold.Chemscore.ZeroCoef>
-5.4800

> <Gold.Chemscore.Hbond>
2.8348

> <Gold.Chemscore.Metal>
0.0000

> <Gold.Chemscore.Lipo>
77.5131

> <Gold.Chemscore.Internal_Hbond>
0.0000

> <Gold.Chemscore.DEClash>
0.0126

> <Gold.Chemscore.DEInternal>
3.0156

> <Gold.Chemscore.Rot>
2.2388

> <Gold.Chemscore.Internal.Correction>
   9.000000E+99

> <Gold.Chemscore.Hbonds>
donor molecule, donor type, donor heavy atom, donor atom, acceptor molecule, acceptor atom, score
      P1  H  6896  6907       L1    18  0.85
      P1  H  7997  8010       L1    10  1.00
      P1  H 10752 10764       L1    19  0.94

> <Gold.Chemscore.Hbond.Weighted>
-9.4683

> <Gold.Chemscore.Metal.Weighted>
-0.0000

> <Gold.Chemscore.Lipo.Weighted>
-9.0690

> <Gold.Chemscore.Internal_Hbond.Weighted>
0.0000

> <Gold.Chemscore.DEClash.Weighted>
0.0126

> <Gold.Chemscore.DEInternal.Weighted>
3.0156

> <Gold.Chemscore.Rot.Weighted>
5.7314

> <Gold.Chemscore.Internal.Correction.Weighted>
   9.000000E+99

> <Gold.Protein.RotatedTorsions>
[ 6907 6896 6895 6894 ] final    4.93 input  -60.11 | X-H torsion
[ 7974 7965 7964 7962 ] final  -98.33 input  175.53 | X-H torsion
[ 8008 7997 7996 7995 ] final   45.81 input   59.86 | X-H torsion
[ 10167 10162 10161 10158 ] final  -53.99 input  -65.29 | X-H torsion
[ 10718 10713 10712 10709 ] final  -68.34 input   66.30 | X-H torsion
[ 10763 10752 10751 10750 ] final   -0.80 input  -60.55 | X-H torsion
[ 11005 11000 10999 10996 ] final  -58.49 input  -57.11 | X-H torsion

> <Gold.Protein.ActiveResidues>
 VAL166  LYS551  ARG553  GLY616  TRP617  ASP618  TYR619  PRO620  LYS621  CYS622 
 ASP623  PHE694  ASN695  SER759  ASP760  ASP761  ALA762  ILE779  LEU786  VAL792 
 PHE793  MET794  SER795  GLU796  ALA797  LYS798  CYS799  TRP800  GLU811  SER814 

> <Gold.Protein.RotatedAtoms>
  151.6492  135.1003  160.0156 H   0  0  0  0  0  0  0  0  0  0  0  0  # atno 6907 bound_to 6896
  152.4010  133.6814  159.6325 H   0  0  0  0  0  0  0  0  0  0  0  0  # atno 6908 bound_to 6896
  150.7910  133.8708  159.3299 H   0  0  0  0  0  0  0  0  0  0  0  0  # atno 6909 bound_to 6896
  145.3220  140.9424  143.2710 H   0  0  0  0  0  0  0  0  0  0  0  0  # atno 7974 bound_to 7965
  155.3421  140.3408  155.4239 H   0  0  0  0  0  0  0  0  0  0  0  0  # atno 8008 bound_to 7997
  156.1808  140.1663  156.8314 H   0  0  0  0  0  0  0  0  0  0  0  0  # atno 8009 bound_to 7997
  154.5331  140.0741  156.8364 H   0  0  0  0  0  0  0  0  0  0  0  0  # atno 8010 bound_to 7997
  140.6455  143.2532  151.4872 H   0  0  0  0  0  0  0  0  0  0  0  0  # atno 10167 bound_to 10162
  156.0510  130.4293  150.1987 H   0  0  0  0  0  0  0  0  0  0  0  0  # atno 10718 bound_to 10713
  153.3365  135.6978  153.6903 H   0  0  0  0  0  0  0  0  0  0  0  0  # atno 10763 bound_to 10752
  153.5685  135.3521  155.2828 H   0  0  0  0  0  0  0  0  0  0  0  0  # atno 10764 bound_to 10752
  154.8628  135.4266  154.2567 H   0  0  0  0  0  0  0  0  0  0  0  0  # atno 10765 bound_to 10752
  141.1209  133.6612  156.4928 H   0  0  0  0  0  0  0  0  0  0  0  0  # atno 11005 bound_to 11000
  144.8932  139.4747  143.6668 LP  0  0  0  0  0  0  0  0  0  0  0  0  # atno 17320 bound_to 7965
  146.3078  139.7642  142.9042 LP  0  0  0  0  0  0  0  0  0  0  0  0  # atno 17321 bound_to 7965
  139.5665  144.2029  152.1773 LP  0  0  0  0  0  0  0  0  0  0  0  0  # atno 17342 bound_to 10162
  140.1313  144.5286  150.6801 LP  0  0  0  0  0  0  0  0  0  0  0  0  # atno 17343 bound_to 10162
  157.0070  130.9939  151.3376 LP  0  0  0  0  0  0  0  0  0  0  0  0  # atno 17370 bound_to 10713
  157.5436  130.8136  149.8059 LP  0  0  0  0  0  0  0  0  0  0  0  0  # atno 17371 bound_to 10713
  140.4509  134.6930  157.5039 LP  0  0  0  0  0  0  0  0  0  0  0  0  # atno 17394 bound_to 11000
  140.0166  134.6609  155.9300 LP  0  0  0  0  0  0  0  0  0  0  0  0  # atno 17395 bound_to 11000

$$$$
