#       Name:                AV-unprocessed.smi:281
#       Creating user name   scv26
#       Creation time:       Thu Mar 26 21:40:03 2020


#       File generated by GOLD software.
#

@<TRIPOS>MOLECULE
AV-unprocessed.smi:281
    67    71     1
SMALL
NO_CHARGES


@<TRIPOS>ATOM
      1 ****        -3.8987  -1.4622   2.2590 C.3            1 S1                 0.0000
      2 ****        -3.3739  -0.3635   1.3296 C.3            1 S1                 0.0000
      3 ****        -1.8490  -0.1956   1.4392 C.3            1 S1                 0.0000
      4 ****        -1.4156   0.9260   0.6170 N.3            1 S1                 0.0000
      5 ****        -0.0902   0.9762   0.3335 C.ar           1 S1                 0.0000
      6 ****         0.6487   2.0453   0.7341 N.ar           1 S1                 0.0000
      7 ****         1.9538   2.1062   0.4546 C.ar           1 S1                 0.0000
      8 ****         2.7074   1.2262  -0.2070 N.ar           1 S1                 0.0000
      9 ****         1.9718   0.1531  -0.6160 C.ar           1 S1                 0.0000
     10 ****         0.5806  -0.0492  -0.3911 C.ar           1 S1                 0.0000
     11 ****         0.1774  -1.2448  -0.9743 N.2            1 S1                 0.0000
     12 ****         1.2679  -1.7242  -1.5068 C.2            1 S1                 0.0000
     13 ****         2.3952  -0.9529  -1.3331 N.pl3          1 S1                 0.0000
     14 ****         3.7344  -1.2384  -1.8259 C.3            1 S1                 0.0000
     15 ****         4.6105  -2.0336  -0.8290 C.3            1 S1                 0.0000
     16 ****         4.7384  -1.2934   0.3726 O.3            1 S1                 0.0000
     17 ****         6.0074  -2.3133  -1.3697 C.3            1 S1                 0.0000
     18 ****         6.3818  -3.6187  -0.6818 C.3            1 S1                 0.0000
     19 ****         5.1653  -4.3452  -0.7030 O.3            1 S1                 0.0000
     20 ****         4.0851  -3.4428  -0.4828 C.3            1 S1                 0.0000
     21 ****        -2.1110   2.1736   0.9195 C.3            1 S1                 0.0000
     22 ****        -3.6491   1.9803   0.8724 C.3            1 S1                 0.0000
     23 ****        -4.3539   3.1952   1.4621 C.3            1 S1                 0.0000
     24 ****        -4.5574   4.0906   0.2513 C.3            1 S1                 0.0000
     25 ****        -4.9281   3.1795  -0.7684 O.3            1 S1                 0.0000
     26 ****        -4.2985   1.9196  -0.5418 C.3            1 S1                 0.0000
     27 ****        -3.3863   1.5959  -1.7378 C.3            1 S1                 0.0000
     28 ****        -4.0098   0.8620   1.6886 O.3            1 S1                 0.0000
     29 ****        -3.4500  -2.4262   2.0186 H              1 S1                 0.0000
     30 ****        -4.9800  -1.5664   2.1661 H              1 S1                 0.0000
     31 ****        -3.6736  -1.2379   3.3021 H              1 S1                 0.0000
     32 ****        -3.6403  -0.6270   0.3055 H              1 S1                 0.0000
     33 ****        -1.5647  -0.0018   2.4743 H              1 S1                 0.0000
     34 ****        -1.3571  -1.1221   1.1450 H              1 S1                 0.0000
     35 ****         2.4671   2.9873   0.8105 H              1 S1                 0.0000
     36 ****         1.2767  -2.6585  -2.0487 H              1 S1                 0.0000
     37 ****         3.6397  -1.7875  -2.7636 H              1 S1                 0.0000
     38 ****         4.2158  -0.2918  -2.0754 H              1 S1                 0.0000
     39 ****         5.2799  -1.7845   0.9714 H              1 S1                 0.0000
     40 ****         5.9701  -2.4794  -2.4470 H              1 S1                 0.0000
     41 ****         6.7205  -1.5092  -1.1832 H              1 S1                 0.0000
     42 ****         7.1800  -4.1545  -1.1959 H              1 S1                 0.0000
     43 ****         6.6893  -3.4450   0.3506 H              1 S1                 0.0000
     44 ****         3.7421  -3.5142   0.5506 H              1 S1                 0.0000
     45 ****         3.2579  -3.7469  -1.1234 H              1 S1                 0.0000
     46 ****        -1.8109   2.4907   1.9196 H              1 S1                 0.0000
     47 ****        -1.8038   2.9633   0.2329 H              1 S1                 0.0000
     48 ****        -5.3290   2.9099   1.8606 H              1 S1                 0.0000
     49 ****        -3.7985   3.6815   2.2648 H              1 S1                 0.0000
     50 ****        -5.3234   4.8499   0.4090 H              1 S1                 0.0000
     51 ****        -3.6285   4.5904  -0.0267 H              1 S1                 0.0000
     52 ****        -5.1070   1.1877  -0.5241 H              1 S1                 0.0000
     53 ****        -2.9224   0.6152  -1.6374 H              1 S1                 0.0000
     54 ****        -2.5955   2.3365  -1.8555 H              1 S1                 0.0000
     55 ****        -3.9612   1.5867  -2.6640 H              1 S1                 0.0000
     56 ****        -1.7487   0.7269  -0.3046 LP             1 S1                 0.0000
     57 ****         0.2131   2.7896   1.2403 LP             1 S1                 0.0000
     58 ****         3.6858   1.3390  -0.3807 LP             1 S1                 0.0000
     59 ****        -0.7386  -1.6457  -0.9837 LP             1 S1                 0.0000
     60 ****         3.8354  -1.1475   0.7766 LP             1 S1                 0.0000
     61 ****         5.1643  -0.4092   0.1803 LP             1 S1                 0.0000
     62 ****         5.1758  -5.0385   0.0175 LP             1 S1                 0.0000
     63 ****         5.0554  -4.7899  -1.5919 LP             1 S1                 0.0000
     64 ****        -4.6407   3.5395  -1.6560 LP             1 S1                 0.0000
     65 ****        -5.9209   3.0605  -0.7626 LP             1 S1                 0.0000
     66 ****        -3.7659   1.0747   2.6348 LP             1 S1                 0.0000
     67 ****        -4.9989   0.7320   1.6204 LP             1 S1                 0.0000
@<TRIPOS>BOND
    1    1    2 1     
    2    1   29 1     
    3    1   30 1     
    4    1   31 1     
    5    2   28 1     
    6    2    3 1     
    7    2   32 1     
    8    3    4 1     
    9    3   33 1     
   10    3   34 1     
   11    4    5 1     
   12    4   21 1     
   13    5   10 ar    
   14    5    6 ar    
   15    6    7 ar    
   16    7    8 ar    
   17    7   35 1     
   18    8    9 ar    
   19    9   13 1     
   20    9   10 ar    
   21   10   11 1     
   22   11   12 2     
   23   12   13 1     
   24   12   36 1     
   25   13   14 1     
   26   14   15 1     
   27   14   37 1     
   28   14   38 1     
   29   15   20 1     
   30   15   16 1     
   31   15   17 1     
   32   16   39 1     
   33   17   18 1     
   34   17   40 1     
   35   17   41 1     
   36   18   19 1     
   37   18   42 1     
   38   18   43 1     
   39   19   20 1     
   40   20   44 1     
   41   20   45 1     
   42   21   22 1     
   43   21   46 1     
   44   21   47 1     
   45   22   26 1     
   46   22   23 1     
   47   22   28 1     
   48   23   24 1     
   49   23   48 1     
   50   23   49 1     
   51   24   25 1     
   52   24   50 1     
   53   24   51 1     
   54   25   26 1     
   55   26   27 1     
   56   26   52 1     
   57   27   53 1     
   58   27   54 1     
   59   27   55 1     
   60    4   56 1     
   61    6   57 1     
   62    8   58 1     
   63   11   59 1     
   64   16   60 1     
   65   16   61 1     
   66   19   62 1     
   67   19   63 1     
   68   25   64 1     
   69   25   65 1     
   70   28   66 1     
   71   28   67 1     
@<TRIPOS>SUBSTRUCTURE
      1 S1             1
@<TRIPOS>SET
LONE_PAIRS      STATIC     ATOMS    <user>   **** ""
12 56 57 58 59 60 61 62 63 64 65 66 67
DONOR_HYDROGENS      STATIC     ATOMS    <user>   **** ""
1 39
ATOM$BLUE        STATIC     ATOMS    COLORGROUP SYSTEM
12 56 57 58 59 60 61 62 63 64 65 66 67
ATOM$RED        STATIC     ATOMS    COLORGROUP SYSTEM
1 39
