AV-unprocessed.smi:2424|AV-procd|sdf|9566|dock2
  -GOLD-   2272013193D 1   1.00000     0.00000
 Structure written by MMmdl.
 50 51  0  0  0  0  0  0  0  0  1 V2000
  145.9666  141.6927  154.9493 C   0  0  0  0  0  0  0  0  0  0  0  0
  145.3892  140.3598  155.4565 C   0  0  0  0  0  0  0  0  0  0  0  0
  146.1566  139.0883  155.0154 C   0  0  0  0  0  0  0  0  0  0  0  0
  145.2863  137.8502  155.3549 C   0  0  0  0  0  0  0  0  0  0  0  0
  144.9723  137.6654  156.8493 C   0  0  0  0  0  0  0  0  0  0  0  0
  146.7286  139.1756  153.5695 C   0  0  2  0  0  0  0  0  0  0  0  0
  146.8931  137.8689  152.9279 N   0  0  0  0  0  0  0  0  0  0  0  0
  145.9073  137.1222  152.4148 C   0  0  0  0  0  0  0  0  0  0  0  0
  144.7266  137.4674  152.4160 O   0  0  0  0  0  0  0  0  0  0  0  0
  146.3957  135.9680  151.9263 N   0  0  0  0  0  0  0  0  0  0  0  0
  145.7179  134.9072  151.3105 C   0  0  0  0  0  0  0  0  0  0  0  0
  144.5983  135.1961  150.6249 C   0  0  0  0  0  0  0  0  0  0  0  0
  143.8603  134.2046  149.9747 N   0  0  0  0  0  0  0  0  0  0  0  0
  144.1879  132.8927  149.9711 C   0  0  0  0  0  0  0  0  0  0  0  0
  143.4899  132.0780  149.3700 O   0  0  0  0  0  0  0  0  0  0  0  0
  145.4040  132.5421  150.7226 C   0  0  0  0  0  0  0  0  0  0  0  0
  145.8184  131.0820  150.7668 C   0  0  0  0  0  0  0  0  0  0  0  0
  146.1182  133.5044  151.3519 C   0  0  0  0  0  0  0  0  0  0  0  0
  148.0556  139.6963  154.1465 C   0  0  2  0  0  0  0  0  0  0  0  0
  149.3999  139.3543  153.5067 C   0  0  0  0  0  0  0  0  0  0  0  0
  147.6418  139.0613  155.4843 C   0  0  2  0  0  0  0  0  0  0  0  0
  148.1890  137.7535  155.6099 O   0  0  0  0  0  0  0  0  0  0  0  0
  149.5091  137.7523  156.1262 C   0  0  0  0  0  0  0  0  0  0  0  0
  143.0341  134.5004  149.4754 H   0  0  0  0  0  0  0  0  0  0  0  0
  145.2894  142.5140  155.1841 H   0  0  0  0  0  0  0  0  0  0  0  0
  146.1108  141.6873  153.8694 H   0  0  0  0  0  0  0  0  0  0  0  0
  146.9220  141.9272  155.4172 H   0  0  0  0  0  0  0  0  0  0  0  0
  145.2986  140.3987  156.5415 H   0  0  0  0  0  0  0  0  0  0  0  0
  144.3583  140.3072  155.1068 H   0  0  0  0  0  0  0  0  0  0  0  0
  144.3318  137.9072  154.8323 H   0  0  0  0  0  0  0  0  0  0  0  0
  145.7396  136.9369  154.9731 H   0  0  0  0  0  0  0  0  0  0  0  0
  144.2561  136.8560  156.9909 H   0  0  0  0  0  0  0  0  0  0  0  0
  144.5390  138.5659  157.2842 H   0  0  0  0  0  0  0  0  0  0  0  0
  145.8621  137.4081  157.4229 H   0  0  0  0  0  0  0  0  0  0  0  0
  146.2149  139.9158  152.9533 H   0  0  0  0  0  0  0  0  0  0  0  0
  147.8353  137.5095  152.8799 H   0  0  0  0  0  0  0  0  0  0  0  0
  147.3913  135.8319  152.0226 H   0  0  0  0  0  0  0  0  0  0  0  0
  144.1894  136.1901  150.5152 H   0  0  0  0  0  0  0  0  0  0  0  0
  146.7233  130.9411  151.3587 H   0  0  0  0  0  0  0  0  0  0  0  0
  146.0132  130.7112  149.7600 H   0  0  0  0  0  0  0  0  0  0  0  0
  145.0286  130.4745  151.2101 H   0  0  0  0  0  0  0  0  0  0  0  0
  146.9953  133.1950  151.8956 H   0  0  0  0  0  0  0  0  0  0  0  0
  147.9774  140.7802  154.2444 H   0  0  0  0  0  0  0  0  0  0  0  0
  149.5554  138.2788  153.4244 H   0  0  0  0  0  0  0  0  0  0  0  0
  150.2256  139.7580  154.0924 H   0  0  0  0  0  0  0  0  0  0  0  0
  149.4729  139.7734  152.5030 H   0  0  0  0  0  0  0  0  0  0  0  0
  147.8773  139.7096  156.3299 H   0  0  0  0  0  0  0  0  0  0  0  0
  149.8553  136.7251  156.2392 H   0  0  0  0  0  0  0  0  0  0  0  0
  149.5613  138.2356  157.1018 H   0  0  0  0  0  0  0  0  0  0  0  0
  150.1932  138.2642  155.4485 H   0  0  0  0  0  0  0  0  0  0  0  0
  1  2  1  0  0  0  0
  1 25  1  0  0  0  0
  1 26  1  0  0  0  0
  1 27  1  0  0  0  0
  2  3  1  0  0  0  0
  2 28  1  0  0  0  0
  2 29  1  0  0  0  0
  3 21  1  0  0  0  0
  3  4  1  0  0  0  0
  3  6  1  0  0  0  0
  4  5  1  0  0  0  0
  4 30  1  0  0  0  0
  4 31  1  0  0  0  0
  5 32  1  0  0  0  0
  5 33  1  0  0  0  0
  5 34  1  0  0  0  0
  6  7  1  0  0  0  0
  6 19  1  0  0  0  0
  6 35  1  0  0  0  0
  7  8  1  0  0  0  0
  7 36  1  0  0  0  0
  8  9  2  0  0  0  0
  8 10  1  0  0  0  0
 10 11  1  0  0  0  0
 10 37  1  0  0  0  0
 11 18  1  0  0  0  0
 11 12  2  0  0  0  0
 12 13  1  0  0  0  0
 12 38  1  0  0  0  0
 13 24  1  0  0  0  0
 13 14  1  0  0  0  0
 14 15  2  0  0  0  0
 14 16  1  0  0  0  0
 16 17  1  0  0  0  0
 16 18  2  0  0  0  0
 17 39  1  0  0  0  0
 17 40  1  0  0  0  0
 17 41  1  0  0  0  0
 18 42  1  0  0  0  0
 19 20  1  0  0  0  0
 19 21  1  0  0  0  0
 19 43  1  0  0  0  0
 20 44  1  0  0  0  0
 20 45  1  0  0  0  0
 20 46  1  0  0  0  0
 21 22  1  0  0  0  0
 21 47  1  0  0  0  0
 22 23  1  0  0  0  0
 23 48  1  0  0  0  0
 23 49  1  0  0  0  0
 23 50  1  0  0  0  0
M  END
> <s_m_source_file>
AV-unprocessed.smi

> <i_m_source_file_index>
2424

> <i_lp_mmshare_version>
43012

> <i_f3d_flags>
0

> <s_epik_input>
W0NIM11PW0NAQEhdMVtDQEhdKFtDSDNdKVtDQEBIXShDMShbQ0gyXVtDSDNdKVtDSDJdW0NIM10pW05IXUMoPU8pW05IXWMyW2NIXVtuSF1jKD1PKWMoW0NIM10pW2NIXTI=

> <s_epik_cmdline>
J2VwaWtfcHl0aG9uJywgJy1waCcsICc3LjAnLCAnLXRuJywgJzgnLCAnLW1hJywgJzIwMCcsICctbWV0YWxfYmluZGluZycsICctaW1hZScsICc8aW5maWxlLm1hZT4nLCAnLW9tYWUnLCAnPG91dGZpbGUubWFlPic=

> <r_lp_tautomer_probability>
1

> <r_epik_Ionization_Penalty>
4.7326e-05

> <r_epik_Ionization_Penalty_Charging>
2.70169e-05

> <r_epik_Ionization_Penalty_Neutral>
2.0309e-05

> <r_epik_State_Penalty>
-0

> <r_epik_Charging_Adjusted_Penalty>
2.70169e-05

> <i_epik_Tot_Q>
0

> <i_epik_Tot_abs_Q>
0

> <r_epik_Metal_State_Penalty>
0.0198736

> <b_epik_Metal_Only>
0

> <s_lp_Force_Field>
OPLS_2005

> <r_lp_Energy>
37.0094

> <b_lp_Chiralities_Consistent>
1

> <s_lp_Variant>
AV-unprocessed.smi:2424-8

> <Gold.Version>
5.8.1

> <Gold.Id.Protein>
6NUR|6NUR_protein|mol2

> <Gold.PLP.Fitness>
39.9184

> <Gold.PLP.PLP>
-26.5159

> <Gold.PLP.part.hbond>
-4.0000

> <Gold.PLP.part.metal>
0.0000

> <Gold.PLP.part.buried>
-2.1718

> <Gold.PLP.part.nonpolar>
-22.9178

> <Gold.PLP.part.repulsive>
1.6447

> <Gold.PLP.ligand.clash>
0.0346

> <Gold.PLP.ligand.torsion>
0.6585

> <Gold.PLP.Chemscore.Hbond>
3.6708

> <Gold.PLP.Chemscore.CHOScore>
1.0000

> <Gold.PLP.Chemscore.Metal>
0.0000

> <Gold.Chemscore.Hbonds>
donor molecule, donor type, donor heavy atom, donor atom, acceptor molecule, acceptor atom, score
      L1  H     7    36       P1  7948  0.83
      L1  H    10    37       P1  7948  1.00
      L1  H    13    24       P1 10186  0.85
      P1  H 10785 10796       L1    15  0.93
      L1  C    12    38       P1 10171  1.00

> <Gold.PLP.Chemscore.Internal.Correction>
0.7419

> <Gold.Rescore>
     Score         DG    S(hbond)    S(metal)    S(lipo)     H(rot)  DE(clash)    DE(int)     intcor
     15.61     -21.54       3.64        0.00      67.39       1.55       2.85       3.08       ----

> <Gold.Chemscore.Fitness>
15.6118

> <Gold.Chemscore.DG>
-21.5412

> <Gold.Chemscore.ZeroCoef>
-5.4800

> <Gold.Chemscore.Hbond>
3.6363

> <Gold.Chemscore.Metal>
0.0000

> <Gold.Chemscore.Lipo>
67.3887

> <Gold.Chemscore.Internal_Hbond>
0.0000

> <Gold.Chemscore.DEClash>
2.8466

> <Gold.Chemscore.DEInternal>
3.0829

> <Gold.Chemscore.Rot>
1.5502

> <Gold.Chemscore.Internal.Correction>
   9.000000E+99

> <Gold.Chemscore.Hbonds>
donor molecule, donor type, donor heavy atom, donor atom, acceptor molecule, acceptor atom, score
      L1  H     7    36       P1  7948  0.80
      L1  H    10    37       P1  7948  0.96
      L1  H    13    24       P1 10186  0.79
      P1  H 10785 10796       L1    15  0.85

> <Gold.Chemscore.Hbond.Weighted>
-12.1452

> <Gold.Chemscore.Metal.Weighted>
-0.0000

> <Gold.Chemscore.Lipo.Weighted>
-7.8845

> <Gold.Chemscore.Internal_Hbond.Weighted>
0.0000

> <Gold.Chemscore.DEClash.Weighted>
2.8466

> <Gold.Chemscore.DEInternal.Weighted>
3.0829

> <Gold.Chemscore.Rot.Weighted>
3.9685

> <Gold.Chemscore.Internal.Correction.Weighted>
   9.000000E+99

> <Gold.Protein.RotatedTorsions>
[ 6907 6896 6895 6894 ] final  149.34 input  -60.11 | X-H torsion
[ 7974 7965 7964 7962 ] final  107.35 input  175.53 | X-H torsion
[ 8008 7997 7996 7995 ] final  -97.67 input   59.86 | X-H torsion
[ 10167 10162 10161 10158 ] final -139.15 input  -65.29 | X-H torsion
[ 10718 10713 10712 10709 ] final  -17.67 input   66.30 | X-H torsion
[ 10763 10752 10751 10750 ] final  -81.29 input  -60.55 | X-H torsion
[ 11005 11000 10999 10996 ] final  -73.29 input  -57.11 | X-H torsion

> <Gold.Protein.ActiveResidues>
 VAL166  LYS551  ARG553  GLY616  TRP617  ASP618  TYR619  PRO620  LYS621  CYS622 
 ASP623  PHE694  ASN695  SER759  ASP760  ASP761  ALA762  ILE779  LEU786  VAL792 
 PHE793  MET794  SER795  GLU796  ALA797  LYS798  CYS799  TRP800  GLU811  SER814 

> <Gold.Protein.RotatedAtoms>
  152.1294  133.4399  159.4713 H   0  0  0  0  0  0  0  0  0  0  0  0  # atno 6907 bound_to 6896
  150.6877  134.2439  159.4493 H   0  0  0  0  0  0  0  0  0  0  0  0  # atno 6908 bound_to 6896
  152.0322  134.9761  160.0623 H   0  0  0  0  0  0  0  0  0  0  0  0  # atno 6909 bound_to 6896
  145.2947  139.2589  143.3846 H   0  0  0  0  0  0  0  0  0  0  0  0  # atno 7974 bound_to 7965
  154.7908  140.0461  157.1199 H   0  0  0  0  0  0  0  0  0  0  0  0  # atno 8008 bound_to 7997
  154.9593  140.3075  155.5018 H   0  0  0  0  0  0  0  0  0  0  0  0  # atno 8009 bound_to 7997
  156.2949  140.2273  156.4677 H   0  0  0  0  0  0  0  0  0  0  0  0  # atno 8010 bound_to 7997
  139.8408  143.7324  152.2663 H   0  0  0  0  0  0  0  0  0  0  0  0  # atno 10167 bound_to 10162
  156.5702  130.4748  149.6366 H   0  0  0  0  0  0  0  0  0  0  0  0  # atno 10718 bound_to 10713
  154.5618  135.5631  153.7014 H   0  0  0  0  0  0  0  0  0  0  0  0  # atno 10763 bound_to 10752
  153.0020  135.6276  154.2234 H   0  0  0  0  0  0  0  0  0  0  0  0  # atno 10764 bound_to 10752
  154.2172  135.2871  155.2917 H   0  0  0  0  0  0  0  0  0  0  0  0  # atno 10765 bound_to 10752
  141.1621  133.6873  156.7189 H   0  0  0  0  0  0  0  0  0  0  0  0  # atno 11005 bound_to 11000
  146.3173  140.3447  142.8651 LP  0  0  0  0  0  0  0  0  0  0  0  0  # atno 17320 bound_to 7965
  144.9143  140.7794  143.5788 LP  0  0  0  0  0  0  0  0  0  0  0  0  # atno 17321 bound_to 7965
  139.7561  144.7520  151.0434 LP  0  0  0  0  0  0  0  0  0  0  0  0  # atno 17342 bound_to 10162
  140.7798  143.4804  151.0025 LP  0  0  0  0  0  0  0  0  0  0  0  0  # atno 17343 bound_to 10162
  156.2721  130.7023  151.1823 LP  0  0  0  0  0  0  0  0  0  0  0  0  # atno 17370 bound_to 10713
  157.7350  131.0577  150.5496 LP  0  0  0  0  0  0  0  0  0  0  0  0  # atno 17371 bound_to 10713
  140.2831  134.8301  157.3950 LP  0  0  0  0  0  0  0  0  0  0  0  0  # atno 17394 bound_to 11000
  140.1415  134.4965  155.8028 LP  0  0  0  0  0  0  0  0  0  0  0  0  # atno 17395 bound_to 11000

$$$$
