AV-unprocessed.smi:1207|AV-procd|sdf|5059|dock2
  -GOLD-   22720 4 93D 1   1.00000     0.00000
 Structure written by MMmdl.
 53 55  0  0  0  0  0  0  0  0  3 V2000
  151.9991  144.1985  160.7237 C   0  0  0  0  0  0  0  0  0  0  0  0
  151.8736  143.1997  159.5858 C   0  0  0  0  0  0  0  0  0  0  0  0
  151.0207  143.5144  158.5038 C   0  0  0  0  0  0  0  0  0  0  0  0
  150.9269  142.5814  157.4781 C   0  0  0  0  0  0  0  0  0  0  0  0
  150.1908  142.5965  156.2913 N   0  3  0  0  0  0  0  0  0  0  0  0
  150.4254  141.4494  155.5959 C   0  0  0  0  0  0  0  0  0  0  0  0
  151.2908  140.6957  156.3282 N   0  0  0  0  0  0  0  0  0  0  0  0
  151.8739  139.3788  156.0417 C   0  0  0  0  0  0  0  0  0  0  0  0
  150.8253  138.2509  155.9512 C   0  0  2  0  0  0  0  0  0  0  0  0
  151.0529  137.3646  157.0274 O   0  0  0  0  0  0  0  0  0  0  0  0
  150.8742  137.4536  154.6292 C   0  0  0  0  0  0  0  0  0  0  0  0
  149.8399  136.3889  154.5898 N   0  3  2  0  0  0  0  0  0  0  0  0
  148.5475  136.8400  155.1562 C   0  0  0  0  0  0  0  0  0  0  0  0
  150.3032  135.1031  155.1732 C   0  0  0  0  0  0  0  0  0  0  0  0
  149.1689  134.1185  155.2841 C   0  0  0  0  0  0  0  0  0  0  0  0
  148.3858  133.7821  156.4271 C   0  0  0  0  0  0  0  0  0  0  0  0
  148.4761  134.3145  157.8287 C   0  0  0  0  0  0  0  0  0  0  0  0
  147.4725  132.8687  156.1459 N   0  0  0  0  0  0  0  0  0  0  0  0
  147.6334  132.5670  154.7904 O   0  0  0  0  0  0  0  0  0  0  0  0
  148.6495  133.3212  154.3017 C   0  0  0  0  0  0  0  0  0  0  0  0
  148.9858  133.1433  152.8593 C   0  0  0  0  0  0  0  0  0  0  0  0
  151.6430  141.3690  157.5032 C   0  0  0  0  0  0  0  0  0  0  0  0
  152.4930  141.0462  158.5580 C   0  0  0  0  0  0  0  0  0  0  0  0
  152.6011  141.9816  159.6119 C   0  0  0  0  0  0  0  0  0  0  0  0
  153.5166  141.6550  160.7794 C   0  0  0  0  0  0  0  0  0  0  0  0
  151.3826  145.0809  160.5502 H   0  0  0  0  0  0  0  0  0  0  0  0
  153.0323  144.5306  160.8289 H   0  0  0  0  0  0  0  0  0  0  0  0
  151.6812  143.7497  161.6652 H   0  0  0  0  0  0  0  0  0  0  0  0
  150.4675  144.4419  158.4755 H   0  0  0  0  0  0  0  0  0  0  0  0
  149.9999  141.1860  154.6380 H   0  0  0  0  0  0  0  0  0  0  0  0
  152.4183  139.4644  155.1001 H   0  0  0  0  0  0  0  0  0  0  0  0
  152.6160  139.1625  156.8120 H   0  0  0  0  0  0  0  0  0  0  0  0
  149.8346  138.6805  156.0919 H   0  0  0  0  0  0  0  0  0  0  0  0
  151.9037  137.5457  157.3980 H   0  0  0  0  0  0  0  0  0  0  0  0
  150.7361  138.1052  153.7655 H   0  0  0  0  0  0  0  0  0  0  0  0
  151.8700  137.0202  154.5229 H   0  0  0  0  0  0  0  0  0  0  0  0
  148.6411  137.0556  156.2214 H   0  0  0  0  0  0  0  0  0  0  0  0
  147.7756  136.0816  155.0269 H   0  0  0  0  0  0  0  0  0  0  0  0
  148.1988  137.7427  154.6536 H   0  0  0  0  0  0  0  0  0  0  0  0
  151.0892  134.6751  154.5515 H   0  0  0  0  0  0  0  0  0  0  0  0
  150.7765  135.2901  156.1378 H   0  0  0  0  0  0  0  0  0  0  0  0
  149.1219  135.1901  157.8862 H   0  0  0  0  0  0  0  0  0  0  0  0
  148.8786  133.5617  158.5066 H   0  0  0  0  0  0  0  0  0  0  0  0
  147.4945  134.6075  158.2022 H   0  0  0  0  0  0  0  0  0  0  0  0
  149.0399  134.1071  152.3532 H   0  0  0  0  0  0  0  0  0  0  0  0
  148.2341  132.5387  152.3509 H   0  0  0  0  0  0  0  0  0  0  0  0
  149.9499  132.6477  152.7468 H   0  0  0  0  0  0  0  0  0  0  0  0
  153.0514  140.1219  158.5761 H   0  0  0  0  0  0  0  0  0  0  0  0
  154.0153  140.6954  160.6398 H   0  0  0  0  0  0  0  0  0  0  0  0
  152.9480  141.6029  161.7083 H   0  0  0  0  0  0  0  0  0  0  0  0
  154.2882  142.4175  160.8873 H   0  0  0  0  0  0  0  0  0  0  0  0
  149.6696  136.2173  153.6087 H   0  0  0  0  0  0  0  0  0  0  0  0
  149.5802  143.3383  155.9725 H   0  0  0  0  0  0  0  0  0  0  0  0
  1  2  1  0  0  0  0
  1 26  1  0  0  0  0
  1 27  1  0  0  0  0
  1 28  1  0  0  0  0
  2 24  1  0  0  0  0
  2  3  2  0  0  0  0
  3  4  1  0  0  0  0
  3 29  1  0  0  0  0
  4 22  2  0  0  0  0
  4  5  1  0  0  0  0
  5  6  2  0  0  0  0
  5 53  1  0  0  0  0
  6  7  1  0  0  0  0
  6 30  1  0  0  0  0
  7  8  1  0  0  0  0
  7 22  1  0  0  0  0
  8  9  1  0  0  0  0
  8 31  1  0  0  0  0
  8 32  1  0  0  0  0
  9 10  1  0  0  0  0
  9 11  1  0  0  0  0
  9 33  1  0  0  0  0
 10 34  1  0  0  0  0
 11 12  1  0  0  0  0
 11 35  1  0  0  0  0
 11 36  1  0  0  0  0
 12 13  1  0  0  0  0
 12 14  1  0  0  0  0
 12 52  1  0  0  0  0
 13 37  1  0  0  0  0
 13 38  1  0  0  0  0
 13 39  1  0  0  0  0
 14 15  1  0  0  0  0
 14 40  1  0  0  0  0
 14 41  1  0  0  0  0
 15 20  2  0  0  0  0
 15 16  1  0  0  0  0
 16 17  1  0  0  0  0
 16 18  2  0  0  0  0
 17 42  1  0  0  0  0
 17 43  1  0  0  0  0
 17 44  1  0  0  0  0
 18 19  1  0  0  0  0
 19 20  1  0  0  0  0
 20 21  1  0  0  0  0
 21 45  1  0  0  0  0
 21 46  1  0  0  0  0
 21 47  1  0  0  0  0
 22 23  1  0  0  0  0
 23 24  2  0  0  0  0
 23 48  1  0  0  0  0
 24 25  1  0  0  0  0
 25 49  1  0  0  0  0
 25 50  1  0  0  0  0
 25 51  1  0  0  0  0
M  CHG  1   5   1
M  CHG  1  12   1
M  END
> <s_m_source_file>
AV-unprocessed.smi

> <i_m_source_file_index>
1207

> <i_lp_mmshare_version>
43012

> <i_f3d_flags>
0

> <s_epik_input>
W0NIM11jKFtjSF0xKWMoW0NIM10pW2NIXWMoYzEyKW4oW2NIXW4yKVtDSDJdW0NASF0oW09IXSlbQ0gyXU4oW0NIM10pW0NIMl1jM2MoW0NIM10pbm9jM1tDSDNd

> <s_epik_cmdline>
J2VwaWtfcHl0aG9uJywgJy1waCcsICc3LjAnLCAnLXRuJywgJzgnLCAnLW1hJywgJzIwMCcsICctbWV0YWxfYmluZGluZycsICctaW1hZScsICc8aW5maWxlLm1hZT4nLCAnLW9tYWUnLCAnPG91dGZpbGUubWFlPic=

> <r_epik_Ionization_Penalty>
1.77463

> <r_epik_Ionization_Penalty_Charging>
1.77463

> <r_epik_Ionization_Penalty_Neutral>
3.70885e-06

> <r_epik_State_Penalty>
1.85225

> <r_epik_Charging_Adjusted_Penalty>
3.62688

> <i_epik_Tot_Q>
2

> <i_epik_Tot_abs_Q>
2

> <r_epik_Metal_State_Penalty>
1.92674

> <b_epik_Metal_Only>
0

> <s_lp_Force_Field>
OPLS_2005

> <r_lp_Energy>
20.2471

> <b_lp_Chiralities_Consistent>
1

> <s_lp_Variant>
AV-unprocessed.smi:1207-11

> <Gold.Version>
5.8.1

> <Gold.Id.Protein>
6NUR|6NUR_protein|mol2

> <Gold.PLP.Fitness>
55.0052

> <Gold.PLP.PLP>
-45.4165

> <Gold.PLP.part.hbond>
-2.0000

> <Gold.PLP.part.metal>
0.0000

> <Gold.PLP.part.buried>
-5.7624

> <Gold.PLP.part.nonpolar>
-37.6282

> <Gold.PLP.part.repulsive>
0.1397

> <Gold.PLP.ligand.clash>
0.0000

> <Gold.PLP.ligand.torsion>
1.3760

> <Gold.PLP.Chemscore.Hbond>
4.0000

> <Gold.PLP.Chemscore.CHOScore>
0.0000

> <Gold.PLP.Chemscore.Metal>
0.0000

> <Gold.Chemscore.Hbonds>
donor molecule, donor type, donor heavy atom, donor atom, acceptor molecule, acceptor atom, score
      L1  H     5    53       P1  8028  2.00
      L1  H    12    52       P1  7948  2.00

> <Gold.PLP.Chemscore.Internal.Correction>
0.3407

> <Gold.Rescore>
     Score         DG    S(hbond)    S(metal)    S(lipo)     H(rot)  DE(clash)    DE(int)     intcor
     17.21     -19.62       1.85        0.00     123.54       2.54       0.26       2.15       ----

> <Gold.Chemscore.Fitness>
17.2105

> <Gold.Chemscore.DG>
-19.6203

> <Gold.Chemscore.ZeroCoef>
-5.4800

> <Gold.Chemscore.Hbond>
1.8490

> <Gold.Chemscore.Metal>
0.0000

> <Gold.Chemscore.Lipo>
123.5437

> <Gold.Chemscore.Internal_Hbond>
0.0000

> <Gold.Chemscore.DEClash>
0.2595

> <Gold.Chemscore.DEInternal>
2.1503

> <Gold.Chemscore.Rot>
2.5351

> <Gold.Chemscore.Internal.Correction>
   9.000000E+99

> <Gold.Chemscore.Hbonds>
donor molecule, donor type, donor heavy atom, donor atom, acceptor molecule, acceptor atom, score
      L1  H     5    53       P1  8028  0.97
      L1  H    12    52       P1  7948  0.35

> <Gold.Chemscore.Hbond.Weighted>
-6.1756

> <Gold.Chemscore.Metal.Weighted>
-0.0000

> <Gold.Chemscore.Lipo.Weighted>
-14.4546

> <Gold.Chemscore.Internal_Hbond.Weighted>
0.0000

> <Gold.Chemscore.DEClash.Weighted>
0.2595

> <Gold.Chemscore.DEInternal.Weighted>
2.1503

> <Gold.Chemscore.Rot.Weighted>
6.4900

> <Gold.Chemscore.Internal.Correction.Weighted>
   9.000000E+99

> <Gold.Protein.RotatedTorsions>
[ 6907 6896 6895 6894 ] final   89.42 input  -60.11 | X-H torsion
[ 7974 7965 7964 7962 ] final -137.29 input  175.53 | X-H torsion
[ 8008 7997 7996 7995 ] final   93.15 input   59.86 | X-H torsion
[ 10167 10162 10161 10158 ] final  104.83 input  -65.29 | X-H torsion
[ 10718 10713 10712 10709 ] final  -82.24 input   66.30 | X-H torsion
[ 10763 10752 10751 10750 ] final  140.07 input  -60.55 | X-H torsion
[ 11005 11000 10999 10996 ] final  -76.77 input  -57.11 | X-H torsion

> <Gold.Protein.ActiveResidues>
 VAL166  LYS551  ARG553  GLY616  TRP617  ASP618  TYR619  PRO620  LYS621  CYS622 
 ASP623  PHE694  ASN695  SER759  ASP760  ASP761  ALA762  ILE779  LEU786  VAL792 
 PHE793  MET794  SER795  GLU796  ALA797  LYS798  CYS799  TRP800  GLU811  SER814 

> <Gold.Protein.RotatedAtoms>
  152.5436  134.1970  159.8696 H   0  0  0  0  0  0  0  0  0  0  0  0  # atno 6907 bound_to 6896
  151.1961  133.4631  159.2603 H   0  0  0  0  0  0  0  0  0  0  0  0  # atno 6908 bound_to 6896
  151.1035  134.9998  159.8515 H   0  0  0  0  0  0  0  0  0  0  0  0  # atno 6909 bound_to 6896
  144.8855  140.6568  143.5179 H   0  0  0  0  0  0  0  0  0  0  0  0  # atno 7974 bound_to 7965
  156.0435  140.3316  155.7270 H   0  0  0  0  0  0  0  0  0  0  0  0  # atno 8008 bound_to 7997
  155.5709  140.0628  157.2824 H   0  0  0  0  0  0  0  0  0  0  0  0  # atno 8009 bound_to 7997
  154.4403  140.1861  156.0867 H   0  0  0  0  0  0  0  0  0  0  0  0  # atno 8010 bound_to 7997
  139.7144  144.7071  151.0975 H   0  0  0  0  0  0  0  0  0  0  0  0  # atno 10167 bound_to 10162
  156.0036  130.4628  150.4075 H   0  0  0  0  0  0  0  0  0  0  0  0  # atno 10718 bound_to 10713
  153.9166  135.3005  155.3448 H   0  0  0  0  0  0  0  0  0  0  0  0  # atno 10763 bound_to 10752
  154.7596  135.4940  153.9443 H   0  0  0  0  0  0  0  0  0  0  0  0  # atno 10764 bound_to 10752
  153.1164  135.6771  153.9513 H   0  0  0  0  0  0  0  0  0  0  0  0  # atno 10765 bound_to 10752
  141.1656  133.6996  156.7719 H   0  0  0  0  0  0  0  0  0  0  0  0  # atno 11005 bound_to 11000
  145.3877  139.1623  143.4246 LP  0  0  0  0  0  0  0  0  0  0  0  0  # atno 17320 bound_to 7965
  146.3021  140.3964  142.8700 LP  0  0  0  0  0  0  0  0  0  0  0  0  # atno 17321 bound_to 7965
  140.7740  143.5250  150.9491 LP  0  0  0  0  0  0  0  0  0  0  0  0  # atno 17342 bound_to 10162
  139.8936  143.6923  152.3142 LP  0  0  0  0  0  0  0  0  0  0  0  0  # atno 17343 bound_to 10162
  157.2140  131.0467  151.2583 LP  0  0  0  0  0  0  0  0  0  0  0  0  # atno 17370 bound_to 10713
  157.3862  130.7258  149.6665 LP  0  0  0  0  0  0  0  0  0  0  0  0  # atno 17371 bound_to 10713
  140.2458  134.8579  157.3618 LP  0  0  0  0  0  0  0  0  0  0  0  0  # atno 17394 bound_to 11000
  140.1751  134.4559  155.7807 LP  0  0  0  0  0  0  0  0  0  0  0  0  # atno 17395 bound_to 11000

$$$$
