AV-unprocessed.smi:2227|AV-procd|sdf|9021|dock6
  -GOLD-   2272012223D 1   1.00000     0.00000
 Structure written by MMmdl.
 43 45  0  0  0  0  0  0  0  0  2 V2000
  150.3863  137.2438  154.5919 C   0  0  0  0  0  0  0  0  0  0  0  0
  150.9256  138.6004  154.1171 C   0  0  0  0  0  0  0  0  0  0  0  0
  152.3811  138.8151  154.5583 C   0  0  0  0  0  0  0  0  0  0  0  0
  150.0347  139.7253  154.5691 C   0  0  0  0  0  0  0  0  0  0  0  0
  149.3479  140.5332  153.7509 N   0  3  0  0  0  0  0  0  0  0  0  0
  148.6639  141.4760  154.4668 C   0  0  0  0  0  0  0  0  0  0  0  0
  148.9525  141.2434  155.7849 C   0  0  0  0  0  0  0  0  0  0  0  0
  149.8018  140.1660  155.8213 N   0  0  0  0  0  0  0  0  0  0  0  0
  150.3812  139.5744  157.0366 C   0  0  0  0  0  0  0  0  0  0  0  0
  151.6050  140.3558  157.5207 C   0  0  0  0  0  0  0  0  0  0  0  0
  152.7371  139.9473  157.2635 O   0  0  0  0  0  0  0  0  0  0  0  0
  151.3591  141.4687  158.2289 N   0  0  0  0  0  0  0  0  0  0  0  0
  152.3668  142.3574  158.7976 C   0  0  0  0  0  0  0  0  0  0  0  0
  153.0409  141.7296  160.0044 C   0  0  0  0  0  0  0  0  0  0  0  0
  154.5114  141.3846  159.9997 C   0  0  0  0  0  0  0  0  0  0  0  0
  153.4759  140.2835  159.9900 C   0  0  0  0  0  0  0  0  0  0  0  0
  151.7995  143.7209  159.1581 C   0  0  0  0  0  0  0  0  0  0  0  0
  151.4169  144.7217  158.0930 C   0  0  0  0  0  0  0  0  0  0  0  0
  152.6102  144.9836  158.9825 C   0  0  0  0  0  0  0  0  0  0  0  0
  149.3685  137.0788  154.2368 H   0  0  0  0  0  0  0  0  0  0  0  0
  150.3720  137.1807  155.6803 H   0  0  0  0  0  0  0  0  0  0  0  0
  151.0015  136.4242  154.2196 H   0  0  0  0  0  0  0  0  0  0  0  0
  150.9144  138.6027  153.0286 H   0  0  0  0  0  0  0  0  0  0  0  0
  152.7689  139.7617  154.1807 H   0  0  0  0  0  0  0  0  0  0  0  0
  153.0256  138.0217  154.1790 H   0  0  0  0  0  0  0  0  0  0  0  0
  152.4747  138.8255  155.6446 H   0  0  0  0  0  0  0  0  0  0  0  0
  148.0439  142.2252  153.9964 H   0  0  0  0  0  0  0  0  0  0  0  0
  148.6292  141.7573  156.6789 H   0  0  0  0  0  0  0  0  0  0  0  0
  149.6204  139.5879  157.8179 H   0  0  0  0  0  0  0  0  0  0  0  0
  150.6156  138.5268  156.8424 H   0  0  0  0  0  0  0  0  0  0  0  0
  150.3949  141.7244  158.3867 H   0  0  0  0  0  0  0  0  0  0  0  0
  153.1457  142.5138  158.0483 H   0  0  0  0  0  0  0  0  0  0  0  0
  152.6526  142.0950  160.9536 H   0  0  0  0  0  0  0  0  0  0  0  0
  155.0731  141.5468  159.0822 H   0  0  0  0  0  0  0  0  0  0  0  0
  155.0673  141.5450  160.9212 H   0  0  0  0  0  0  0  0  0  0  0  0
  153.3405  139.7093  160.9042 H   0  0  0  0  0  0  0  0  0  0  0  0
  153.3560  139.7230  159.0652 H   0  0  0  0  0  0  0  0  0  0  0  0
  151.1558  143.7004  160.0358 H   0  0  0  0  0  0  0  0  0  0  0  0
  151.6168  144.4649  157.0547 H   0  0  0  0  0  0  0  0  0  0  0  0
  150.5211  145.3157  158.2620 H   0  0  0  0  0  0  0  0  0  0  0  0
  152.5111  145.7534  159.7451 H   0  0  0  0  0  0  0  0  0  0  0  0
  153.5952  144.9020  158.5277 H   0  0  0  0  0  0  0  0  0  0  0  0
  149.3416  140.4556  152.7417 H   0  0  0  0  0  0  0  0  0  0  0  0
  1  2  1  0  0  0  0
  1 20  1  0  0  0  0
  1 21  1  0  0  0  0
  1 22  1  0  0  0  0
  2  3  1  0  0  0  0
  2  4  1  0  0  0  0
  2 23  1  0  0  0  0
  3 24  1  0  0  0  0
  3 25  1  0  0  0  0
  3 26  1  0  0  0  0
  4  8  1  0  0  0  0
  4  5  2  0  0  0  0
  5  6  1  0  0  0  0
  5 43  1  0  0  0  0
  6  7  2  0  0  0  0
  6 27  1  0  0  0  0
  7  8  1  0  0  0  0
  7 28  1  0  0  0  0
  8  9  1  0  0  0  0
  9 10  1  0  0  0  0
  9 29  1  0  0  0  0
  9 30  1  0  0  0  0
 10 11  2  0  0  0  0
 10 12  1  0  0  0  0
 12 13  1  0  0  0  0
 12 31  1  0  0  0  0
 13 14  1  0  0  0  0
 13 17  1  0  0  0  0
 13 32  1  0  0  0  0
 14 16  1  0  0  0  0
 14 15  1  0  0  0  0
 14 33  1  0  0  0  0
 15 16  1  0  0  0  0
 15 34  1  0  0  0  0
 15 35  1  0  0  0  0
 16 36  1  0  0  0  0
 16 37  1  0  0  0  0
 17 19  1  0  0  0  0
 17 18  1  0  0  0  0
 17 38  1  0  0  0  0
 18 19  1  0  0  0  0
 18 39  1  0  0  0  0
 18 40  1  0  0  0  0
 19 41  1  0  0  0  0
 19 42  1  0  0  0  0
M  CHG  1   5   1
M  END
> <s_m_source_file>
AV-unprocessed.smi

> <i_m_source_file_index>
2227

> <i_lp_mmshare_version>
43012

> <i_f3d_flags>
0

> <s_epik_input>
W0NIM11bQ0hdKFtDSDNdKWMxbltjSF1bY0hdbjFbQ0gyXUMoPU8pW05IXVtDSF0oW0NIXTJbQ0gyXVtDSDJdMilbQ0hdM1tDSDJdW0NIMl0z

> <s_epik_cmdline>
J2VwaWtfcHl0aG9uJywgJy1waCcsICc3LjAnLCAnLXRuJywgJzgnLCAnLW1hJywgJzIwMCcsICctbWV0YWxfYmluZGluZycsICctaW1hZScsICc8aW5maWxlLm1hZT4nLCAnLW9tYWUnLCAnPG91dGZpbGUubWFlPic=

> <r_lp_tautomer_probability>
1

> <r_epik_Ionization_Penalty>
0.258813

> <r_epik_Ionization_Penalty_Charging>
0

> <r_epik_Ionization_Penalty_Neutral>
0.258813

> <r_epik_State_Penalty>
0.250457

> <r_epik_Charging_Adjusted_Penalty>
0.250457

> <i_epik_Tot_Q>
1

> <i_epik_Tot_abs_Q>
1

> <r_epik_Metal_State_Penalty>
0.539096

> <b_epik_Metal_Only>
0

> <s_lp_Force_Field>
OPLS_2005

> <r_lp_Energy>
28.4044

> <b_lp_Chiralities_Consistent>
1

> <s_lp_Variant>
AV-unprocessed.smi:2227-1

> <Gold.Version>
5.8.1

> <Gold.Id.Protein>
6NUR|6NUR_protein|mol2

> <Gold.PLP.Fitness>
49.2395

> <Gold.PLP.PLP>
-45.4929

> <Gold.PLP.part.hbond>
-2.0000

> <Gold.PLP.part.metal>
0.0000

> <Gold.PLP.part.buried>
-5.9871

> <Gold.PLP.part.nonpolar>
-37.7105

> <Gold.PLP.part.repulsive>
1.2223

> <Gold.PLP.ligand.clash>
0.0000

> <Gold.PLP.ligand.torsion>
2.2152

> <Gold.PLP.Chemscore.Hbond>
2.0000

> <Gold.PLP.Chemscore.CHOScore>
0.0000

> <Gold.PLP.Chemscore.Metal>
0.0000

> <Gold.Chemscore.Hbonds>
donor molecule, donor type, donor heavy atom, donor atom, acceptor molecule, acceptor atom, score
      L1  H     5    43       P1  7957  1.00
      P1  H  7997  8010       L1    11  1.00

> <Gold.PLP.Chemscore.Internal.Correction>
2.1770

> <Gold.Rescore>
     Score         DG    S(hbond)    S(metal)    S(lipo)     H(rot)  DE(clash)    DE(int)     intcor
     19.01     -21.47       1.97        0.00     118.35       1.74       0.24       2.21       ----

> <Gold.Chemscore.Fitness>
19.0111

> <Gold.Chemscore.DG>
-21.4682

> <Gold.Chemscore.ZeroCoef>
-5.4800

> <Gold.Chemscore.Hbond>
1.9740

> <Gold.Chemscore.Metal>
0.0000

> <Gold.Chemscore.Lipo>
118.3542

> <Gold.Chemscore.Internal_Hbond>
0.0000

> <Gold.Chemscore.DEClash>
0.2433

> <Gold.Chemscore.DEInternal>
2.2138

> <Gold.Chemscore.Rot>
1.7392

> <Gold.Chemscore.Internal.Correction>
   9.000000E+99

> <Gold.Chemscore.Hbonds>
donor molecule, donor type, donor heavy atom, donor atom, acceptor molecule, acceptor atom, score
      L1  H     5    43       P1  7957  1.00
      P1  H  7997  8010       L1    11  0.99

> <Gold.Chemscore.Hbond.Weighted>
-6.5932

> <Gold.Chemscore.Metal.Weighted>
-0.0000

> <Gold.Chemscore.Lipo.Weighted>
-13.8474

> <Gold.Chemscore.Internal_Hbond.Weighted>
0.0000

> <Gold.Chemscore.DEClash.Weighted>
0.2433

> <Gold.Chemscore.DEInternal.Weighted>
2.2138

> <Gold.Chemscore.Rot.Weighted>
4.4524

> <Gold.Chemscore.Internal.Correction.Weighted>
   9.000000E+99

> <Gold.Protein.RotatedTorsions>
[ 6907 6896 6895 6894 ] final  -52.03 input  -60.11 | X-H torsion
[ 7974 7965 7964 7962 ] final -157.66 input  175.53 | X-H torsion
[ 8008 7997 7996 7995 ] final   58.50 input   59.86 | X-H torsion
[ 10167 10162 10161 10158 ] final   56.62 input  -65.29 | X-H torsion
[ 10718 10713 10712 10709 ] final -143.28 input   66.30 | X-H torsion
[ 10763 10752 10751 10750 ] final   15.41 input  -60.55 | X-H torsion
[ 11005 11000 10999 10996 ] final   68.76 input  -57.11 | X-H torsion

> <Gold.Protein.ActiveResidues>
 VAL166  LYS551  ARG553  GLY616  TRP617  ASP618  TYR619  PRO620  LYS621  CYS622 
 ASP623  PHE694  ASN695  SER759  ASP760  ASP761  ALA762  ILE779  LEU786  VAL792 
 PHE793  MET794  SER795  GLU796  ALA797  LYS798  CYS799  TRP800  GLU811  SER814 

> <Gold.Protein.RotatedAtoms>
  150.8556  134.7893  159.7042 H   0  0  0  0  0  0  0  0  0  0  0  0  # atno 6907 bound_to 6896
  152.4608  134.5185  159.9785 H   0  0  0  0  0  0  0  0  0  0  0  0  # atno 6908 bound_to 6896
  151.5298  133.3413  159.2952 H   0  0  0  0  0  0  0  0  0  0  0  0  # atno 6909 bound_to 6896
  144.7539  140.3938  143.6027 H   0  0  0  0  0  0  0  0  0  0  0  0  # atno 7974 bound_to 7965
  155.5510  140.3486  155.4468 H   0  0  0  0  0  0  0  0  0  0  0  0  # atno 8008 bound_to 7997
  156.0583  140.1334  156.9996 H   0  0  0  0  0  0  0  0  0  0  0  0  # atno 8009 bound_to 7997
  154.4467  140.0990  156.6464 H   0  0  0  0  0  0  0  0  0  0  0  0  # atno 8010 bound_to 7997
  140.2067  144.3931  150.6506 H   0  0  0  0  0  0  0  0  0  0  0  0  # atno 10167 bound_to 10162
  156.3560  130.7713  151.1873 H   0  0  0  0  0  0  0  0  0  0  0  0  # atno 10718 bound_to 10713
  153.1528  135.6781  153.8856 H   0  0  0  0  0  0  0  0  0  0  0  0  # atno 10763 bound_to 10752
  153.8277  135.3122  155.3417 H   0  0  0  0  0  0  0  0  0  0  0  0  # atno 10764 bound_to 10752
  154.7875  135.4853  154.0066 H   0  0  0  0  0  0  0  0  0  0  0  0  # atno 10765 bound_to 10752
  139.9692  134.6928  156.0481 H   0  0  0  0  0  0  0  0  0  0  0  0  # atno 11005 bound_to 11000
  145.6848  139.1626  143.2680 LP  0  0  0  0  0  0  0  0  0  0  0  0  # atno 17320 bound_to 7965
  146.1524  140.6906  142.9315 LP  0  0  0  0  0  0  0  0  0  0  0  0  # atno 17321 bound_to 7965
  140.6352  143.2194  151.6410 LP  0  0  0  0  0  0  0  0  0  0  0  0  # atno 17342 bound_to 10162
  139.5196  144.3250  152.0877 LP  0  0  0  0  0  0  0  0  0  0  0  0  # atno 17343 bound_to 10162
  157.7467  131.0414  150.4643 LP  0  0  0  0  0  0  0  0  0  0  0  0  # atno 17370 bound_to 10713
  156.4846  130.4081  149.6441 LP  0  0  0  0  0  0  0  0  0  0  0  0  # atno 17371 bound_to 10713
  141.1372  133.6572  156.3627 LP  0  0  0  0  0  0  0  0  0  0  0  0  # atno 17394 bound_to 11000
  140.5329  134.6195  157.5356 LP  0  0  0  0  0  0  0  0  0  0  0  0  # atno 17395 bound_to 11000

$$$$
