AV-unprocessed.smi:276|AV-procd|sdf|2076|dock3
  -GOLD-   2262021343D 1   1.00000     0.00000
 Structure written by MMmdl.
 57 61  0  0  0  0  0  0  0  0  1 V2000
  144.9879  137.6693  162.5251 C   0  0  0  0  0  0  0  0  0  0  0  0
  145.8910  137.8324  161.4457 O   0  0  0  0  0  0  0  0  0  0  0  0
  145.6770  136.8899  160.4074 C   0  0  2  0  0  0  0  0  0  0  0  0
  145.8706  135.4294  160.8307 C   0  0  0  0  0  0  0  0  0  0  0  0
  146.5191  135.2007  159.4591 C   0  0  2  0  0  0  0  0  0  0  0  0
  147.6303  134.2470  159.5055 N   0  0  0  0  0  0  0  0  0  0  0  0
  147.4821  133.1371  160.4382 C   0  0  0  0  0  0  0  0  0  0  0  0
  148.0832  133.7995  158.3125 C   0  0  0  0  0  0  0  0  0  0  0  0
  149.4023  133.9781  158.0506 N   0  0  0  0  0  0  0  0  0  0  0  0
  149.9118  133.5873  156.8789 C   0  0  0  0  0  0  0  0  0  0  0  0
  149.2911  133.0034  155.8518 N   0  0  0  0  0  0  0  0  0  0  0  0
  147.9707  132.7985  156.1237 C   0  0  0  0  0  0  0  0  0  0  0  0
  147.2899  133.1511  157.3229 C   0  0  0  0  0  0  0  0  0  0  0  0
  145.9569  132.7650  157.2389 N   0  0  0  0  0  0  0  0  0  0  0  0
  145.8502  132.2395  156.0495 C   0  0  0  0  0  0  0  0  0  0  0  0
  147.0100  132.2288  155.3092 N   0  0  0  0  0  0  0  0  0  0  0  0
  147.1765  131.7272  153.9583 C   0  0  0  0  0  0  0  0  0  0  0  0
  146.8186  132.7718  152.8799 C   0  0  1  0  0  0  0  0  0  0  0  0
  148.0302  133.3594  152.4506 O   0  0  0  0  0  0  0  0  0  0  0  0
  146.0687  132.1943  151.6583 C   0  0  2  0  0  0  0  0  0  0  0  0
  145.7372  133.2182  150.5725 C   0  0  0  0  0  0  0  0  0  0  0  0
  144.6200  132.5407  149.8021 C   0  0  0  0  0  0  0  0  0  0  0  0
  143.9859  131.6078  150.8361 C   0  0  0  0  0  0  0  0  0  0  0  0
  144.7679  131.7475  152.0168 O   0  0  0  0  0  0  0  0  0  0  0  0
  146.8869  136.7097  159.4700 C   0  0  0  0  0  0  0  0  0  0  0  0
  146.9910  137.5266  158.1755 C   0  0  0  0  0  0  0  0  0  0  0  0
  148.4968  137.6752  158.4151 C   0  0  0  0  0  0  0  0  0  0  0  0
  148.2799  137.2398  159.8683 C   0  0  0  0  0  0  0  0  0  0  0  0
  145.1950  138.4166  163.2907 H   0  0  0  0  0  0  0  0  0  0  0  0
  145.0880  136.6840  162.9821 H   0  0  0  0  0  0  0  0  0  0  0  0
  143.9559  137.8001  162.1972 H   0  0  0  0  0  0  0  0  0  0  0  0
  144.7512  137.0536  159.8511 H   0  0  0  0  0  0  0  0  0  0  0  0
  146.5655  135.3190  161.6657 H   0  0  0  0  0  0  0  0  0  0  0  0
  144.9458  134.8768  160.9971 H   0  0  0  0  0  0  0  0  0  0  0  0
  145.7601  134.9679  158.7110 H   0  0  0  0  0  0  0  0  0  0  0  0
  146.6424  132.5024  160.1519 H   0  0  0  0  0  0  0  0  0  0  0  0
  147.3008  133.5044  161.4483 H   0  0  0  0  0  0  0  0  0  0  0  0
  148.3832  132.5228  160.4689 H   0  0  0  0  0  0  0  0  0  0  0  0
  150.9667  133.7746  156.7428 H   0  0  0  0  0  0  0  0  0  0  0  0
  144.9140  131.8534  155.6733 H   0  0  0  0  0  0  0  0  0  0  0  0
  148.2115  131.4024  153.8423 H   0  0  0  0  0  0  0  0  0  0  0  0
  146.5557  130.8373  153.8437 H   0  0  0  0  0  0  0  0  0  0  0  0
  146.2145  133.5629  153.3257 H   0  0  0  0  0  0  0  0  0  0  0  0
  148.4512  132.7682  151.8452 H   0  0  0  0  0  0  0  0  0  0  0  0
  146.6273  131.3632  151.2234 H   0  0  0  0  0  0  0  0  0  0  0  0
  145.3688  134.1406  151.0242 H   0  0  0  0  0  0  0  0  0  0  0  0
  146.5931  133.4659  149.9439 H   0  0  0  0  0  0  0  0  0  0  0  0
  143.9092  133.2594  149.3931 H   0  0  0  0  0  0  0  0  0  0  0  0
  145.0271  131.9591  148.9736 H   0  0  0  0  0  0  0  0  0  0  0  0
  142.9478  131.8696  151.0415 H   0  0  0  0  0  0  0  0  0  0  0  0
  144.0138  130.5722  150.4952 H   0  0  0  0  0  0  0  0  0  0  0  0
  146.7308  136.9831  157.2678 H   0  0  0  0  0  0  0  0  0  0  0  0
  146.4628  138.4790  158.2362 H   0  0  0  0  0  0  0  0  0  0  0  0
  149.0905  136.9676  157.8365 H   0  0  0  0  0  0  0  0  0  0  0  0
  148.8706  138.6930  158.3018 H   0  0  0  0  0  0  0  0  0  0  0  0
  148.2403  138.0952  160.5432 H   0  0  0  0  0  0  0  0  0  0  0  0
  148.9852  136.4922  160.2291 H   0  0  0  0  0  0  0  0  0  0  0  0
  1  2  1  0  0  0  0
  1 29  1  0  0  0  0
  1 30  1  0  0  0  0
  1 31  1  0  0  0  0
  2  3  1  0  0  0  0
  3 25  1  0  0  0  0
  3  4  1  0  0  0  0
  3 32  1  0  0  0  0
  4  5  1  0  0  0  0
  4 33  1  0  0  0  0
  4 34  1  0  0  0  0
  5  6  1  0  0  0  0
  5 25  1  0  0  0  0
  5 35  1  0  0  0  0
  6  7  1  0  0  0  0
  6  8  1  0  0  0  0
  7 36  1  0  0  0  0
  7 37  1  0  0  0  0
  7 38  1  0  0  0  0
  8 13  1  0  0  0  0
  8  9  2  0  0  0  0
  9 10  1  0  0  0  0
 10 11  2  0  0  0  0
 10 39  1  0  0  0  0
 11 12  1  0  0  0  0
 12 16  1  0  0  0  0
 12 13  2  0  0  0  0
 13 14  1  0  0  0  0
 14 15  2  0  0  0  0
 15 16  1  0  0  0  0
 15 40  1  0  0  0  0
 16 17  1  0  0  0  0
 17 18  1  0  0  0  0
 17 41  1  0  0  0  0
 17 42  1  0  0  0  0
 18 19  1  0  0  0  0
 18 20  1  0  0  0  0
 18 43  1  0  0  0  0
 19 44  1  0  0  0  0
 20 24  1  0  0  0  0
 20 21  1  0  0  0  0
 20 45  1  0  0  0  0
 21 22  1  0  0  0  0
 21 46  1  0  0  0  0
 21 47  1  0  0  0  0
 22 23  1  0  0  0  0
 22 48  1  0  0  0  0
 22 49  1  0  0  0  0
 23 24  1  0  0  0  0
 23 50  1  0  0  0  0
 23 51  1  0  0  0  0
 25 28  1  0  0  0  0
 25 26  1  0  0  0  0
 26 27  1  0  0  0  0
 26 52  1  0  0  0  0
 26 53  1  0  0  0  0
 27 28  1  0  0  0  0
 27 54  1  0  0  0  0
 27 55  1  0  0  0  0
 28 56  1  0  0  0  0
 28 57  1  0  0  0  0
M  END
> <s_m_source_file>
AV-unprocessed.smi

> <i_m_source_file_index>
276

> <i_lp_mmshare_version>
43012

> <i_f3d_flags>
0

> <s_epik_input>
W0NIMl0xW0NIMl1bQ0gyXUMxMltDQEhdKE9bQ0gzXSlbQ0gyXVtDQEhdMk4oW0NIM10pYyhuW2NIXW4zKWMoYzM0KW5bY0hdbjRbQ0gyXVtDQEhdKFtPSF0pW0NAQEhdNVtDSDJdW0NIMl1bQ0gyXU81

> <s_epik_cmdline>
J2VwaWtfcHl0aG9uJywgJy1waCcsICc3LjAnLCAnLXRuJywgJzgnLCAnLW1hJywgJzIwMCcsICctbWV0YWxfYmluZGluZycsICctaW1hZScsICc8aW5maWxlLm1hZT4nLCAnLW9tYWUnLCAnPG91dGZpbGUubWFlPic=

> <r_lp_tautomer_probability>
1

> <r_epik_Ionization_Penalty>
0.00204117

> <r_epik_Ionization_Penalty_Charging>
0

> <r_epik_Ionization_Penalty_Neutral>
0.00204117

> <r_epik_State_Penalty>
0.00127401

> <r_epik_Charging_Adjusted_Penalty>
0.00127401

> <i_epik_Tot_Q>
0

> <i_epik_Tot_abs_Q>
0

> <r_epik_Metal_State_Penalty>
-0

> <b_epik_Metal_Only>
0

> <s_lp_Force_Field>
OPLS_2005

> <r_lp_Energy>
54.0539

> <b_lp_Chiralities_Consistent>
1

> <s_lp_Variant>
AV-unprocessed.smi:276-7

> <Gold.Version>
5.8.1

> <Gold.Id.Protein>
6NUR|6NUR_protein|mol2

> <Gold.PLP.Fitness>
44.6201

> <Gold.PLP.PLP>
-34.1519

> <Gold.PLP.part.hbond>
-4.1262

> <Gold.PLP.part.metal>
0.0000

> <Gold.PLP.part.buried>
-4.1539

> <Gold.PLP.part.nonpolar>
-25.3204

> <Gold.PLP.part.repulsive>
0.1907

> <Gold.PLP.ligand.clash>
0.0000

> <Gold.PLP.ligand.torsion>
1.9928

> <Gold.PLP.Chemscore.Hbond>
3.5478

> <Gold.PLP.Chemscore.CHOScore>
0.9893

> <Gold.PLP.Chemscore.Metal>
0.0000

> <Gold.Chemscore.Hbonds>
donor molecule, donor type, donor heavy atom, donor atom, acceptor molecule, acceptor atom, score
      P1  H  6896  6908       L1     9  1.00
      P1  H  6934  6947       L1     2  0.90
      L1  C    15    40       P1 10957  1.00

> <Gold.PLP.Chemscore.Internal.Correction>
0.8425

> <Gold.Rescore>
     Score         DG    S(hbond)    S(metal)    S(lipo)     H(rot)  DE(clash)    DE(int)     intcor
     15.11     -17.46       2.91        0.00      78.91       2.72       0.01       2.34       ----

> <Gold.Chemscore.Fitness>
15.1051

> <Gold.Chemscore.DG>
-17.4608

> <Gold.Chemscore.ZeroCoef>
-5.4800

> <Gold.Chemscore.Hbond>
2.9055

> <Gold.Chemscore.Metal>
0.0000

> <Gold.Chemscore.Lipo>
78.9090

> <Gold.Chemscore.Internal_Hbond>
0.0000

> <Gold.Chemscore.DEClash>
0.0141

> <Gold.Chemscore.DEInternal>
2.3417

> <Gold.Chemscore.Rot>
2.7172

> <Gold.Chemscore.Internal.Correction>
   9.000000E+99

> <Gold.Chemscore.Hbonds>
donor molecule, donor type, donor heavy atom, donor atom, acceptor molecule, acceptor atom, score
      L1  H    19    44       P1 10747  0.01
      P1  H  6896  6908       L1     9  0.65
      P1  H  6934  6947       L1     2  0.66

> <Gold.Chemscore.Hbond.Weighted>
-9.7045

> <Gold.Chemscore.Metal.Weighted>
-0.0000

> <Gold.Chemscore.Lipo.Weighted>
-9.2324

> <Gold.Chemscore.Internal_Hbond.Weighted>
0.0000

> <Gold.Chemscore.DEClash.Weighted>
0.0141

> <Gold.Chemscore.DEInternal.Weighted>
2.3417

> <Gold.Chemscore.Rot.Weighted>
6.9560

> <Gold.Chemscore.Internal.Correction.Weighted>
   9.000000E+99

> <Gold.Protein.RotatedTorsions>
[ 6907 6896 6895 6894 ] final  127.40 input  -60.11 | X-H torsion
[ 7974 7965 7964 7962 ] final -114.70 input  175.53 | X-H torsion
[ 8008 7997 7996 7995 ] final  100.96 input   59.86 | X-H torsion
[ 10167 10162 10161 10158 ] final  -39.17 input  -65.29 | X-H torsion
[ 10718 10713 10712 10709 ] final   75.70 input   66.30 | X-H torsion
[ 10763 10752 10751 10750 ] final  -50.63 input  -60.55 | X-H torsion
[ 11005 11000 10999 10996 ] final  -48.79 input  -57.11 | X-H torsion

> <Gold.Protein.ActiveResidues>
 VAL166  LYS551  ARG553  GLY616  TRP617  ASP618  TYR619  PRO620  LYS621  CYS622 
 ASP623  PHE694  ASN695  SER759  ASP760  ASP761  ALA762  ILE779  LEU786  VAL792 
 PHE793  MET794  SER795  GLU796  ALA797  LYS798  CYS799  TRP800  GLU811  SER814 

> <Gold.Protein.RotatedAtoms>
  152.3816  133.6554  159.6165 H   0  0  0  0  0  0  0  0  0  0  0  0  # atno 6907 bound_to 6896
  150.7745  133.9104  159.3376 H   0  0  0  0  0  0  0  0  0  0  0  0  # atno 6908 bound_to 6896
  151.6909  135.0948  160.0284 H   0  0  0  0  0  0  0  0  0  0  0  0  # atno 6909 bound_to 6896
  145.1171  140.8647  143.3835 H   0  0  0  0  0  0  0  0  0  0  0  0  # atno 7974 bound_to 7965
  156.1253  140.3205  155.8268 H   0  0  0  0  0  0  0  0  0  0  0  0  # atno 8008 bound_to 7997
  155.4430  140.0527  157.3025 H   0  0  0  0  0  0  0  0  0  0  0  0  # atno 8009 bound_to 7997
  154.4858  140.2072  155.9672 H   0  0  0  0  0  0  0  0  0  0  0  0  # atno 8010 bound_to 7997
  140.7072  143.3231  151.2744 H   0  0  0  0  0  0  0  0  0  0  0  0  # atno 10167 bound_to 10162
  157.6644  130.9739  150.1391 H   0  0  0  0  0  0  0  0  0  0  0  0  # atno 10718 bound_to 10713
  154.1135  135.6545  153.4889 H   0  0  0  0  0  0  0  0  0  0  0  0  # atno 10763 bound_to 10752
  153.0248  135.5253  154.7168 H   0  0  0  0  0  0  0  0  0  0  0  0  # atno 10764 bound_to 10752
  154.6355  135.2981  155.0136 H   0  0  0  0  0  0  0  0  0  0  0  0  # atno 10765 bound_to 10752
  141.0722  133.6676  156.3492 H   0  0  0  0  0  0  0  0  0  0  0  0  # atno 11005 bound_to 11000
  145.0781  139.2980  143.5797 LP  0  0  0  0  0  0  0  0  0  0  0  0  # atno 17320 bound_to 7965
  146.3523  140.0279  142.8653 LP  0  0  0  0  0  0  0  0  0  0  0  0  # atno 17321 bound_to 7965
  139.6691  144.0052  152.2742 LP  0  0  0  0  0  0  0  0  0  0  0  0  # atno 17342 bound_to 10162
  139.9645  144.6536  150.8048 LP  0  0  0  0  0  0  0  0  0  0  0  0  # atno 17343 bound_to 10162
  156.2218  130.3674  149.8547 LP  0  0  0  0  0  0  0  0  0  0  0  0  # atno 17370 bound_to 10713
  156.6398  130.8700  151.3511 LP  0  0  0  0  0  0  0  0  0  0  0  0  # atno 17371 bound_to 10713
  140.5650  134.5897  157.5443 LP  0  0  0  0  0  0  0  0  0  0  0  0  # atno 17394 bound_to 11000
  139.9534  134.7576  156.0395 LP  0  0  0  0  0  0  0  0  0  0  0  0  # atno 17395 bound_to 11000

$$$$
