#       Name:                AV-unprocessed.smi:2397
#       Creating user name   scv26
#       Creation time:       Fri Mar 27 13:12:36 2020


#       File generated by GOLD software.
#

@<TRIPOS>MOLECULE
AV-unprocessed.smi:2397
    43    44     1
SMALL
NO_CHARGES


@<TRIPOS>ATOM
      1 ****        -3.5891   1.1198  -0.6055 C.3            1 S1                 0.0000
      2 ****        -2.5944   0.9917  -1.7698 C.3            1 S1                 0.0000
      3 ****        -2.6743  -0.3688  -2.4800 C.3            1 S1                 0.0000
      4 ****        -1.1714   1.3266  -1.3423 C.ar           1 S1                 0.0000
      5 ****        -0.6034   2.3959  -1.9080 N.ar           1 S1                 0.0000
      6 ****         0.6602   2.6858  -1.5324 C.ar           1 S1                 0.0000
      7 ****         1.3554   1.8992  -0.5924 C.ar           1 S1                 0.0000
      8 ****         0.6650   0.7884  -0.0581 C.ar           1 S1                 0.0000
      9 ****         1.2949  -0.0431   0.8929 N.3            1 S1                 0.0000
     10 ****         1.4010   0.6461   2.1784 C.3            1 S1                 0.0000
     11 ****         2.2154  -0.1811   3.1814 C.3            1 S1                 0.0000
     12 ****         1.6152  -1.4604   3.3172 O.3            1 S1                 0.0000
     13 ****         1.6480  -2.1808   2.0920 C.3            1 S1                 0.0000
     14 ****         0.8425  -1.4447   0.9939 C.3            1 S1                 0.0000
     15 ****         0.9367  -2.2913  -0.2944 C.2            1 S1                 0.0000
     16 ****         1.7660  -1.8914  -1.2644 N.am           1 S1                 0.0000
     17 ****         0.2485  -3.3028  -0.4136 O.2            1 S1                 0.0000
     18 ****        -0.6072   0.5194  -0.4385 N.ar           1 S1                 0.0000
     19 ****        -3.5567   2.1192  -0.1707 H              1 S1                 0.0000
     20 ****        -3.3686   0.4038   0.1869 H              1 S1                 0.0000
     21 ****        -4.6106   0.9384  -0.9406 H              1 S1                 0.0000
     22 ****        -2.8927   1.7379  -2.5084 H              1 S1                 0.0000
     23 ****        -2.0099  -0.3991  -3.3439 H              1 S1                 0.0000
     24 ****        -3.6862  -0.5675  -2.8339 H              1 S1                 0.0000
     25 ****        -2.3907  -1.1842  -1.8136 H              1 S1                 0.0000
     26 ****         1.1218   3.5500  -1.9865 H              1 S1                 0.0000
     27 ****         2.3686   2.1357  -0.3025 H              1 S1                 0.0000
     28 ****         1.8740   1.6217   2.0600 H              1 S1                 0.0000
     29 ****         0.3998   0.8249   2.5749 H              1 S1                 0.0000
     30 ****         3.2544  -0.2778   2.8619 H              1 S1                 0.0000
     31 ****         2.2252   0.3106   4.1542 H              1 S1                 0.0000
     32 ****         2.6855  -2.3321   1.7870 H              1 S1                 0.0000
     33 ****         1.2283  -3.1713   2.2730 H              1 S1                 0.0000
     34 ****        -0.2038  -1.4361   1.3053 H              1 S1                 0.0000
     35 ****         1.8442  -2.4331  -2.1129 H              1 S1                 0.0000
     36 ****         2.3127  -1.0513  -1.1425 H              1 S1                 0.0000
     37 ****        -1.0916   2.9549  -2.5781 LP             1 S1                 0.0000
     38 ****         2.2122  -0.1927   0.5237 LP             1 S1                 0.0000
     39 ****         0.6635  -1.3449   3.6014 LP             1 S1                 0.0000
     40 ****         2.1103  -1.9800   4.0136 LP             1 S1                 0.0000
     41 ****        -0.3706  -3.5760   0.3226 LP             1 S1                 0.0000
     42 ****         0.3078  -3.8526  -1.2469 LP             1 S1                 0.0000
     43 ****        -1.1075  -0.2573  -0.0559 LP             1 S1                 0.0000
@<TRIPOS>BOND
    1    1    2 1     
    2    1   19 1     
    3    1   20 1     
    4    1   21 1     
    5    2    3 1     
    6    2    4 1     
    7    2   22 1     
    8    3   23 1     
    9    3   24 1     
   10    3   25 1     
   11    4   18 ar    
   12    4    5 ar    
   13    5    6 ar    
   14    6    7 ar    
   15    6   26 1     
   16    7    8 ar    
   17    7   27 1     
   18    8    9 1     
   19    8   18 ar    
   20    9   14 1     
   21    9   10 1     
   22   10   11 1     
   23   10   28 1     
   24   10   29 1     
   25   11   12 1     
   26   11   30 1     
   27   11   31 1     
   28   12   13 1     
   29   13   14 1     
   30   13   32 1     
   31   13   33 1     
   32   14   15 1     
   33   14   34 1     
   34   15   16 am    
   35   15   17 2     
   36   16   35 1     
   37   16   36 1     
   38    5   37 1     
   39    9   38 1     
   40   12   39 1     
   41   12   40 1     
   42   17   41 1     
   43   17   42 1     
   44   18   43 1     
@<TRIPOS>SUBSTRUCTURE
      1 S1             1
@<TRIPOS>SET
LONE_PAIRS      STATIC     ATOMS    <user>   **** ""
7 37 38 39 40 41 42 43
DONOR_HYDROGENS      STATIC     ATOMS    <user>   **** ""
2 35 36
ATOM$BLUE        STATIC     ATOMS    COLORGROUP SYSTEM
7 37 38 39 40 41 42 43
ATOM$RED        STATIC     ATOMS    COLORGROUP SYSTEM
2 35 36
