AV-unprocessed.smi:3279|AV-procd|sdf|12549|dock10
  -GOLD-   2272018463D 1   1.00000     0.00000
 Structure written by MMmdl.
 35 35  0  0  0  0  0  0  0  0  2 V2000
  148.8682  138.8667  154.0996 C   0  0  0  0  0  0  0  0  0  0  0  0
  149.7867  139.8237  154.8758 C   0  0  1  0  0  0  0  0  0  0  0  0
  149.1786  140.2640  156.2251 C   0  0  0  0  0  0  0  0  0  0  0  0
  149.9752  141.3107  156.8626 N   0  0  0  0  0  0  0  0  0  0  0  0
  149.6598  141.9566  157.9962 C   0  0  0  0  0  0  0  0  0  0  0  0
  148.5996  141.7949  158.6015 O   0  0  0  0  0  0  0  0  0  0  0  0
  150.7093  142.9310  158.5291 C   0  0  0  0  0  0  0  0  0  0  0  0
  151.1823  142.4498  159.7839 O   0  0  0  0  0  0  0  0  0  0  0  0
  152.3312  143.0746  160.3609 C   0  0  0  0  0  0  0  0  0  0  0  0
  152.6065  142.5412  161.7810 C   0  0  0  0  0  0  0  0  0  0  0  0
  151.9541  144.5629  160.4365 C   0  0  0  0  0  0  0  0  0  0  0  0
  153.5626  142.9000  159.4504 C   0  0  0  0  0  0  0  0  0  0  0  0
  151.1753  139.2632  155.0192 C   0  0  0  0  0  0  0  0  0  0  0  0
  151.4211  138.0523  155.5426 N   0  0  0  0  0  0  0  0  0  0  0  0
  152.7524  137.9350  155.4508 N   0  0  0  0  0  0  0  0  0  0  0  0
  153.2663  139.0380  154.8938 N   0  0  0  0  0  0  0  0  0  0  0  0
  152.2830  139.9018  154.6087 N   0  5  0  0  0  0  0  0  0  0  0  0
  149.2822  138.6379  153.1171 H   0  0  0  0  0  0  0  0  0  0  0  0
  147.8817  139.3055  153.9487 H   0  0  0  0  0  0  0  0  0  0  0  0
  148.7337  137.9248  154.6323 H   0  0  0  0  0  0  0  0  0  0  0  0
  149.8326  140.7297  154.2688 H   0  0  0  0  0  0  0  0  0  0  0  0
  148.1713  140.6506  156.0691 H   0  0  0  0  0  0  0  0  0  0  0  0
  149.0727  139.3980  156.8805 H   0  0  0  0  0  0  0  0  0  0  0  0
  150.8711  141.5129  156.4434 H   0  0  0  0  0  0  0  0  0  0  0  0
  151.5241  143.0078  157.8086 H   0  0  0  0  0  0  0  0  0  0  0  0
  150.2454  143.9120  158.6248 H   0  0  0  0  0  0  0  0  0  0  0  0
  153.3869  143.1228  162.2726 H   0  0  0  0  0  0  0  0  0  0  0  0
  152.9430  141.5046  161.7714 H   0  0  0  0  0  0  0  0  0  0  0  0
  151.7123  142.5966  162.4027 H   0  0  0  0  0  0  0  0  0  0  0  0
  151.0709  144.7143  161.0584 H   0  0  0  0  0  0  0  0  0  0  0  0
  151.7301  144.9643  159.4476 H   0  0  0  0  0  0  0  0  0  0  0  0
  152.7632  145.1588  160.8601 H   0  0  0  0  0  0  0  0  0  0  0  0
  154.4004  143.4997  159.8074 H   0  0  0  0  0  0  0  0  0  0  0  0
  153.3449  143.2130  158.4288 H   0  0  0  0  0  0  0  0  0  0  0  0
  153.9047  141.8658  159.4168 H   0  0  0  0  0  0  0  0  0  0  0  0
  1  2  1  0  0  0  0
  1 18  1  0  0  0  0
  1 19  1  0  0  0  0
  1 20  1  0  0  0  0
  2  3  1  0  0  0  0
  2 13  1  0  0  0  0
  2 21  1  0  0  0  0
  3  4  1  0  0  0  0
  3 22  1  0  0  0  0
  3 23  1  0  0  0  0
  4  5  1  0  0  0  0
  4 24  1  0  0  0  0
  5  6  2  0  0  0  0
  5  7  1  0  0  0  0
  7  8  1  0  0  0  0
  7 25  1  0  0  0  0
  7 26  1  0  0  0  0
  8  9  1  0  0  0  0
  9 10  1  0  0  0  0
  9 11  1  0  0  0  0
  9 12  1  0  0  0  0
 10 27  1  0  0  0  0
 10 28  1  0  0  0  0
 10 29  1  0  0  0  0
 11 30  1  0  0  0  0
 11 31  1  0  0  0  0
 11 32  1  0  0  0  0
 12 33  1  0  0  0  0
 12 34  1  0  0  0  0
 12 35  1  0  0  0  0
 13 17  1  0  0  0  0
 13 14  2  0  0  0  0
 14 15  1  0  0  0  0
 15 16  2  0  0  0  0
 16 17  1  0  0  0  0
M  CHG  1  17  -1
M  END
> <s_m_source_file>
AV-unprocessed.smi

> <i_m_source_file_index>
3279

> <i_lp_mmshare_version>
43012

> <i_f3d_flags>
0

> <s_epik_input>
W25IXTFubm5jMVtDQEhdKFtDSDNdKVtDSDJdW05IXUMoPU8pW0NIMl1PQyhbQ0gzXSkoW0NIM10pW0NIM10=

> <s_epik_cmdline>
J2VwaWtfcHl0aG9uJywgJy1waCcsICc3LjAnLCAnLXRuJywgJzgnLCAnLW1hJywgJzIwMCcsICctbWV0YWxfYmluZGluZycsICctaW1hZScsICc8aW5maWxlLm1hZT4nLCAnLW9tYWUnLCAnPG91dGZpbGUubWFlPic=

> <r_epik_Ionization_Penalty>
0.054353

> <r_epik_Ionization_Penalty_Charging>
0.054353

> <r_epik_Ionization_Penalty_Neutral>
3.0997e-08

> <r_epik_State_Penalty>
0.0139445

> <r_epik_Charging_Adjusted_Penalty>
0.0682975

> <i_epik_Tot_Q>
-1

> <i_epik_Tot_abs_Q>
1

> <r_epik_Metal_State_Penalty>
0.0109703

> <b_epik_Metal_Only>
0

> <s_lp_Force_Field>
OPLS_2005

> <r_lp_Energy>
1.27922

> <b_lp_Chiralities_Consistent>
1

> <s_lp_Variant>
AV-unprocessed.smi:3279-2

> <Gold.Version>
5.8.1

> <Gold.Id.Protein>
6NUR|6NUR_protein|mol2

> <Gold.PLP.Fitness>
38.1146

> <Gold.PLP.PLP>
-33.4518

> <Gold.PLP.part.hbond>
-4.3694

> <Gold.PLP.part.metal>
0.0000

> <Gold.PLP.part.buried>
-5.5468

> <Gold.PLP.part.nonpolar>
-23.6756

> <Gold.PLP.part.repulsive>
0.2039

> <Gold.PLP.ligand.clash>
0.0000

> <Gold.PLP.ligand.torsion>
0.2534

> <Gold.PLP.Chemscore.Hbond>
1.6880

> <Gold.PLP.Chemscore.CHOScore>
0.0000

> <Gold.PLP.Chemscore.Metal>
0.0000

> <Gold.Chemscore.Hbonds>
donor molecule, donor type, donor heavy atom, donor atom, acceptor molecule, acceptor atom, score
      P1  H  7989  7998       L1    17  0.67
      P1  H  7997  8008       L1    16  1.00

> <Gold.PLP.Chemscore.Internal.Correction>
0.1056

> <Gold.Rescore>
     Score         DG    S(hbond)    S(metal)    S(lipo)     H(rot)  DE(clash)    DE(int)     intcor
     12.06     -12.34       1.70        0.00      67.88       2.64       0.00       0.28       ----

> <Gold.Chemscore.Fitness>
12.0622

> <Gold.Chemscore.DG>
-12.3392

> <Gold.Chemscore.ZeroCoef>
-5.4800

> <Gold.Chemscore.Hbond>
1.6999

> <Gold.Chemscore.Metal>
0.0000

> <Gold.Chemscore.Lipo>
67.8839

> <Gold.Chemscore.Internal_Hbond>
0.0000

> <Gold.Chemscore.DEClash>
0.0000

> <Gold.Chemscore.DEInternal>
0.2770

> <Gold.Chemscore.Rot>
2.6409

> <Gold.Chemscore.Internal.Correction>
   9.000000E+99

> <Gold.Chemscore.Hbonds>
donor molecule, donor type, donor heavy atom, donor atom, acceptor molecule, acceptor atom, score
      P1  H  7989  7998       L1    17  0.20
      P1  H  7997  8008       L1    16  0.27

> <Gold.Chemscore.Hbond.Weighted>
-5.6775

> <Gold.Chemscore.Metal.Weighted>
-0.0000

> <Gold.Chemscore.Lipo.Weighted>
-7.9424

> <Gold.Chemscore.Internal_Hbond.Weighted>
0.0000

> <Gold.Chemscore.DEClash.Weighted>
0.0000

> <Gold.Chemscore.DEInternal.Weighted>
0.2770

> <Gold.Chemscore.Rot.Weighted>
6.7607

> <Gold.Chemscore.Internal.Correction.Weighted>
   9.000000E+99

> <Gold.Protein.RotatedTorsions>
[ 6907 6896 6895 6894 ] final -157.07 input  -60.11 | X-H torsion
[ 7974 7965 7964 7962 ] final   33.97 input  175.53 | X-H torsion
[ 8008 7997 7996 7995 ] final  -25.97 input   59.86 | X-H torsion
[ 10167 10162 10161 10158 ] final   26.75 input  -65.29 | X-H torsion
[ 10718 10713 10712 10709 ] final  -78.24 input   66.30 | X-H torsion
[ 10763 10752 10751 10750 ] final  111.98 input  -60.55 | X-H torsion
[ 11005 11000 10999 10996 ] final   61.39 input  -57.11 | X-H torsion

> <Gold.Protein.ActiveResidues>
 VAL166  LYS551  ARG553  GLY616  TRP617  ASP618  TYR619  PRO620  LYS621  CYS622 
 ASP623  PHE694  ASN695  SER759  ASP760  ASP761  ALA762  ILE779  LEU786  VAL792 
 PHE793  MET794  SER795  GLU796  ALA797  LYS798  CYS799  TRP800  GLU811  SER814 

> <Gold.Protein.RotatedAtoms>
  151.2973  133.4138  159.2636 H   0  0  0  0  0  0  0  0  0  0  0  0  # atno 6907 bound_to 6896
  151.0225  134.9480  159.8078 H   0  0  0  0  0  0  0  0  0  0  0  0  # atno 6908 bound_to 6896
  152.5327  134.2936  159.9105 H   0  0  0  0  0  0  0  0  0  0  0  0  # atno 6909 bound_to 6896
  146.1385  139.6329  142.9179 H   0  0  0  0  0  0  0  0  0  0  0  0  # atno 7974 bound_to 7965
  154.4448  140.1912  156.0702 H   0  0  0  0  0  0  0  0  0  0  0  0  # atno 8008 bound_to 7997
  156.0517  140.3308  155.7331 H   0  0  0  0  0  0  0  0  0  0  0  0  # atno 8009 bound_to 7997
  155.5547  140.0598  157.2833 H   0  0  0  0  0  0  0  0  0  0  0  0  # atno 8010 bound_to 7997
  140.4996  144.0336  150.6327 H   0  0  0  0  0  0  0  0  0  0  0  0  # atno 10167 bound_to 10162
  156.0123  130.4513  150.3466 H   0  0  0  0  0  0  0  0  0  0  0  0  # atno 10718 bound_to 10713
  153.4712  135.3700  155.2392 H   0  0  0  0  0  0  0  0  0  0  0  0  # atno 10763 bound_to 10752
  154.8757  135.3932  154.3810 H   0  0  0  0  0  0  0  0  0  0  0  0  # atno 10764 bound_to 10752
  153.4398  135.7084  153.6241 H   0  0  0  0  0  0  0  0  0  0  0  0  # atno 10765 bound_to 10752
  140.0164  134.6218  155.9703 H   0  0  0  0  0  0  0  0  0  0  0  0  # atno 11005 bound_to 11000
  145.5102  141.0435  143.2492 LP  0  0  0  0  0  0  0  0  0  0  0  0  # atno 17320 bound_to 7965
  144.7766  139.6617  143.7172 LP  0  0  0  0  0  0  0  0  0  0  0  0  # atno 17321 bound_to 7965
  140.3628  143.2898  152.0364 LP  0  0  0  0  0  0  0  0  0  0  0  0  # atno 17342 bound_to 10162
  139.4869  144.6290  151.7108 LP  0  0  0  0  0  0  0  0  0  0  0  0  # atno 17343 bound_to 10162
  157.1560  131.0333  151.2863 LP  0  0  0  0  0  0  0  0  0  0  0  0  # atno 17370 bound_to 10713
  157.4352  130.7513  149.7023 LP  0  0  0  0  0  0  0  0  0  0  0  0  # atno 17371 bound_to 10713
  141.1746  133.6539  156.4779 LP  0  0  0  0  0  0  0  0  0  0  0  0  # atno 17394 bound_to 11000
  140.4463  134.6970  157.5017 LP  0  0  0  0  0  0  0  0  0  0  0  0  # atno 17395 bound_to 11000

$$$$
