AV-unprocessed.smi:2919|AV-procd|sdf|11194|dock9
  -GOLD-   2272016 83D 1   1.00000     0.00000
 Structure written by MMmdl.
 34 36  0  0  0  0  0  0  0  0  1 V2000
  154.6212  140.8131  161.6574 C   0  0  0  0  0  0  0  0  0  0  0  0
  153.8121  140.7532  160.3739 C   0  0  0  0  0  0  0  0  0  0  0  0
  154.1217  139.7264  159.5522 N   0  0  0  0  0  0  0  0  0  0  0  0
  153.4797  139.5701  158.3938 N   0  0  0  0  0  0  0  0  0  0  0  0
  152.5046  140.4314  158.0157 C   0  0  0  0  0  0  0  0  0  0  0  0
  151.8743  140.2011  156.7792 N   0  0  0  0  0  0  0  0  0  0  0  0
  152.3600  139.1649  155.8726 C   0  0  2  0  0  0  0  0  0  0  0  0
  151.4560  138.9682  154.6534 C   0  0  0  0  0  0  0  0  0  0  0  0
  151.1726  137.4605  154.7101 C   0  0  2  0  0  0  0  0  0  0  0  0
  150.1758  137.1160  155.8243 C   0  0  0  0  0  0  0  0  0  0  0  0
  151.0309  137.3074  157.0753 C   0  0  0  0  0  0  0  0  0  0  0  0
  152.3785  137.7456  156.4759 C   0  0  1  0  0  0  0  0  0  0  0  0
  152.3773  136.9797  155.2830 O   0  0  0  0  0  0  0  0  0  0  0  0
  152.1296  141.5329  158.8281 C   0  0  0  0  0  0  0  0  0  0  0  0
  151.0763  142.4582  158.4149 C   0  0  0  0  0  0  0  0  0  0  0  0
  150.2426  143.1911  158.0880 N   0  0  0  0  0  0  0  0  0  0  0  0
  152.8089  141.7023  160.0608 C   0  0  0  0  0  0  0  0  0  0  0  0
  152.4697  142.8567  161.0006 C   0  0  0  0  0  0  0  0  0  0  0  0
  155.1653  141.7557  161.7217 H   0  0  0  0  0  0  0  0  0  0  0  0
  155.3506  140.0036  161.7091 H   0  0  0  0  0  0  0  0  0  0  0  0
  153.9666  140.7267  162.5250 H   0  0  0  0  0  0  0  0  0  0  0  0
  150.9148  140.4976  156.6729 H   0  0  0  0  0  0  0  0  0  0  0  0
  153.3594  139.4270  155.5222 H   0  0  0  0  0  0  0  0  0  0  0  0
  150.5381  139.5569  154.6848 H   0  0  0  0  0  0  0  0  0  0  0  0
  151.9925  139.2293  153.7405 H   0  0  0  0  0  0  0  0  0  0  0  0
  150.9252  137.0197  153.7440 H   0  0  0  0  0  0  0  0  0  0  0  0
  149.2961  137.7604  155.8091 H   0  0  0  0  0  0  0  0  0  0  0  0
  149.8431  136.0806  155.7433 H   0  0  0  0  0  0  0  0  0  0  0  0
  150.6127  138.0352  157.7708 H   0  0  0  0  0  0  0  0  0  0  0  0
  151.1393  136.3612  157.6066 H   0  0  0  0  0  0  0  0  0  0  0  0
  153.2321  137.5516  157.1260 H   0  0  0  0  0  0  0  0  0  0  0  0
  151.4146  142.8229  161.2742 H   0  0  0  0  0  0  0  0  0  0  0  0
  152.6646  143.8105  160.5095 H   0  0  0  0  0  0  0  0  0  0  0  0
  153.0426  142.8435  161.9259 H   0  0  0  0  0  0  0  0  0  0  0  0
  1  2  1  0  0  0  0
  1 19  1  0  0  0  0
  1 20  1  0  0  0  0
  1 21  1  0  0  0  0
  2 17  1  0  0  0  0
  2  3  2  0  0  0  0
  3  4  1  0  0  0  0
  4  5  2  0  0  0  0
  5  6  1  0  0  0  0
  5 14  1  0  0  0  0
  6  7  1  0  0  0  0
  6 22  1  0  0  0  0
  7 12  1  0  0  0  0
  7  8  1  0  0  0  0
  7 23  1  0  0  0  0
  8  9  1  0  0  0  0
  8 24  1  0  0  0  0
  8 25  1  0  0  0  0
  9 13  1  0  0  0  0
  9 10  1  0  0  0  0
  9 26  1  0  0  0  0
 10 11  1  0  0  0  0
 10 27  1  0  0  0  0
 10 28  1  0  0  0  0
 11 12  1  0  0  0  0
 11 29  1  0  0  0  0
 11 30  1  0  0  0  0
 12 13  1  0  0  0  0
 12 31  1  0  0  0  0
 14 15  1  0  0  0  0
 14 17  2  0  0  0  0
 15 16  3  0  0  0  0
 17 18  1  0  0  0  0
 18 32  1  0  0  0  0
 18 33  1  0  0  0  0
 18 34  1  0  0  0  0
M  END
> <s_m_source_file>
AV-unprocessed.smi

> <i_m_source_file_index>
2919

> <i_lp_mmshare_version>
43012

> <i_f3d_flags>
0

> <s_epik_input>
W0NIM11jMW5uYyhjKEMjTiljMVtDSDNdKVtOSF1bQ0BIXShbQ0gyXVtDQEBIXTIzKVtDQEBIXShPMylbQ0gyXVtDSDJdMg==

> <s_epik_cmdline>
J2VwaWtfcHl0aG9uJywgJy1waCcsICc3LjAnLCAnLXRuJywgJzgnLCAnLW1hJywgJzIwMCcsICctbWV0YWxfYmluZGluZycsICctaW1hZScsICc8aW5maWxlLm1hZT4nLCAnLW9tYWUnLCAnPG91dGZpbGUubWFlPic=

> <r_lp_tautomer_probability>
1

> <r_epik_Ionization_Penalty>
0.00143865

> <r_epik_Ionization_Penalty_Charging>
0

> <r_epik_Ionization_Penalty_Neutral>
0.00143865

> <r_epik_State_Penalty>
-0

> <r_epik_Charging_Adjusted_Penalty>
0

> <i_epik_Tot_Q>
0

> <i_epik_Tot_abs_Q>
0

> <r_epik_Metal_State_Penalty>
-0

> <b_epik_Metal_Only>
0

> <s_lp_Force_Field>
OPLS_2005

> <r_lp_Energy>
49.1594

> <b_lp_Chiralities_Consistent>
1

> <s_lp_Variant>
AV-unprocessed.smi:2919-3

> <Gold.Version>
5.8.1

> <Gold.Id.Protein>
6NUR|6NUR_protein|mol2

> <Gold.PLP.Fitness>
36.8256

> <Gold.PLP.PLP>
-31.1912

> <Gold.PLP.part.hbond>
-2.0000

> <Gold.PLP.part.metal>
0.0000

> <Gold.PLP.part.buried>
-3.4268

> <Gold.PLP.part.nonpolar>
-25.5706

> <Gold.PLP.part.repulsive>
0.4046

> <Gold.PLP.ligand.clash>
0.0000

> <Gold.PLP.ligand.torsion>
0.0319

> <Gold.PLP.Chemscore.Hbond>
1.8960

> <Gold.PLP.Chemscore.CHOScore>
0.0000

> <Gold.PLP.Chemscore.Metal>
0.0000

> <Gold.Chemscore.Hbonds>
donor molecule, donor type, donor heavy atom, donor atom, acceptor molecule, acceptor atom, score
      P1  H  7997  8009       L1     4  0.90
      P1  H 10752 10763       L1    13  0.77

> <Gold.PLP.Chemscore.Internal.Correction>
0.0102

> <Gold.Rescore>
     Score         DG    S(hbond)    S(metal)    S(lipo)     H(rot)  DE(clash)    DE(int)     intcor
     15.48     -16.38       1.16        0.00      81.98       1.00       0.85       0.05       ----

> <Gold.Chemscore.Fitness>
15.4781

> <Gold.Chemscore.DG>
-16.3801

> <Gold.Chemscore.ZeroCoef>
-5.4800

> <Gold.Chemscore.Hbond>
1.1583

> <Gold.Chemscore.Metal>
0.0000

> <Gold.Chemscore.Lipo>
81.9789

> <Gold.Chemscore.Internal_Hbond>
0.0000

> <Gold.Chemscore.DEClash>
0.8518

> <Gold.Chemscore.DEInternal>
0.0501

> <Gold.Chemscore.Rot>
1.0000

> <Gold.Chemscore.Internal.Correction>
   9.000000E+99

> <Gold.Chemscore.Hbonds>
donor molecule, donor type, donor heavy atom, donor atom, acceptor molecule, acceptor atom, score
      P1  H  7997  8009       L1     4  0.08
      P1  H 10752 10763       L1    13  0.70

> <Gold.Chemscore.Hbond.Weighted>
-3.8686

> <Gold.Chemscore.Metal.Weighted>
-0.0000

> <Gold.Chemscore.Lipo.Weighted>
-9.5915

> <Gold.Chemscore.Internal_Hbond.Weighted>
0.0000

> <Gold.Chemscore.DEClash.Weighted>
0.8518

> <Gold.Chemscore.DEInternal.Weighted>
0.0501

> <Gold.Chemscore.Rot.Weighted>
2.5600

> <Gold.Chemscore.Internal.Correction.Weighted>
   9.000000E+99

> <Gold.Protein.RotatedTorsions>
[ 6907 6896 6895 6894 ] final  144.71 input  -60.11 | X-H torsion
[ 7974 7965 7964 7962 ] final  -94.90 input  175.53 | X-H torsion
[ 8008 7997 7996 7995 ] final  144.25 input   59.86 | X-H torsion
[ 10167 10162 10161 10158 ] final  -17.13 input  -65.29 | X-H torsion
[ 10718 10713 10712 10709 ] final   23.98 input   66.30 | X-H torsion
[ 10763 10752 10751 10750 ] final   61.34 input  -60.55 | X-H torsion
[ 11005 11000 10999 10996 ] final   53.26 input  -57.11 | X-H torsion

> <Gold.Protein.ActiveResidues>
 VAL166  LYS551  ARG553  GLY616  TRP617  ASP618  TYR619  PRO620  LYS621  CYS622 
 ASP623  PHE694  ASN695  SER759  ASP760  ASP761  ALA762  ILE779  LEU786  VAL792 
 PHE793  MET794  SER795  GLU796  ALA797  LYS798  CYS799  TRP800  GLU811  SER814 

> <Gold.Protein.RotatedAtoms>
  152.1902  133.4768  159.5003 H   0  0  0  0  0  0  0  0  0  0  0  0  # atno 6907 bound_to 6896
  150.6950  134.1722  159.4225 H   0  0  0  0  0  0  0  0  0  0  0  0  # atno 6908 bound_to 6896
  151.9636  135.0111  160.0599 H   0  0  0  0  0  0  0  0  0  0  0  0  # atno 6909 bound_to 6896
  145.3672  140.9500  143.2468 H   0  0  0  0  0  0  0  0  0  0  0  0  # atno 7974 bound_to 7965
  156.2912  140.2241  156.5023 H   0  0  0  0  0  0  0  0  0  0  0  0  # atno 8008 bound_to 7997
  154.7679  140.0468  157.1049 H   0  0  0  0  0  0  0  0  0  0  0  0  # atno 8009 bound_to 7997
  154.9910  140.3090  155.4909 H   0  0  0  0  0  0  0  0  0  0  0  0  # atno 8010 bound_to 7997
  140.7243  143.5046  150.9825 H   0  0  0  0  0  0  0  0  0  0  0  0  # atno 10167 bound_to 10162
  157.1736  130.6770  149.6087 H   0  0  0  0  0  0  0  0  0  0  0  0  # atno 10718 bound_to 10713
  152.9947  135.5504  154.6017 H   0  0  0  0  0  0  0  0  0  0  0  0  # atno 10763 bound_to 10752
  154.5357  135.2816  155.1142 H   0  0  0  0  0  0  0  0  0  0  0  0  # atno 10764 bound_to 10752
  154.2440  135.6411  153.5269 H   0  0  0  0  0  0  0  0  0  0  0  0  # atno 10765 bound_to 10752
  140.0781  134.5376  155.8975 H   0  0  0  0  0  0  0  0  0  0  0  0  # atno 11005 bound_to 11000
  144.8603  139.5187  143.6815 LP  0  0  0  0  0  0  0  0  0  0  0  0  # atno 17320 bound_to 7965
  146.2901  139.7116  142.9167 LP  0  0  0  0  0  0  0  0  0  0  0  0  # atno 17321 bound_to 7965
  139.8757  143.7135  152.3162 LP  0  0  0  0  0  0  0  0  0  0  0  0  # atno 17342 bound_to 10162
  139.7400  144.7562  151.0668 LP  0  0  0  0  0  0  0  0  0  0  0  0  # atno 17343 bound_to 10162
  155.9735  130.4671  150.6311 LP  0  0  0  0  0  0  0  0  0  0  0  0  # atno 17370 bound_to 10713
  157.4020  131.0811  151.1300 LP  0  0  0  0  0  0  0  0  0  0  0  0  # atno 17371 bound_to 10713
  141.2037  133.6634  156.6078 LP  0  0  0  0  0  0  0  0  0  0  0  0  # atno 17394 bound_to 11000
  140.3527  134.7755  157.4478 LP  0  0  0  0  0  0  0  0  0  0  0  0  # atno 17395 bound_to 11000

$$$$
