AV-unprocessed.smi:1999|AV-procd|sdf|8093|dock6
  -GOLD-   2272010313D 1   1.00000     0.00000
 Structure written by MMmdl.
 38 39  0  0  0  0  0  0  0  0  1 V2000
  143.9541  132.9505  151.0601 C   0  0  0  0  0  0  0  0  0  0  0  0
  143.9838  134.3185  151.6505 C   0  0  0  0  0  0  0  0  0  0  0  0
  143.0522  134.7563  152.5060 N   0  0  0  0  0  0  0  0  0  0  0  0
  143.2909  136.0584  152.9231 N   0  0  0  0  0  0  0  0  0  0  0  0
  144.4012  136.5649  152.3691 C   0  0  0  0  0  0  0  0  0  0  0  0
  144.8802  137.8779  152.6198 N   0  0  0  0  0  0  0  0  0  0  0  0
  146.0668  138.2490  153.1325 C   0  0  0  0  0  0  0  0  0  0  0  0
  146.9678  137.4811  153.4708 O   0  0  0  0  0  0  0  0  0  0  0  0
  146.1548  139.5838  153.2305 N   0  0  0  0  0  0  0  0  0  0  0  0
  147.3041  140.3242  153.7441 C   0  0  1  0  0  0  0  0  0  0  0  0
  146.9602  141.8216  153.8243 C   0  0  0  0  0  0  0  0  0  0  0  0
  147.6923  139.7386  155.1175 C   0  0  0  0  0  0  0  0  0  0  0  0
  149.1265  139.6754  155.4018 N   0  0  0  0  0  0  0  0  0  0  0  0
  149.7351  140.9969  155.5446 C   0  0  0  0  0  0  0  0  0  0  0  0
  151.2482  140.9068  155.8106 C   0  0  0  0  0  0  0  0  0  0  0  0
  151.8763  140.1665  154.7693 O   0  0  0  0  0  0  0  0  0  0  0  0
  151.3427  138.8539  154.6325 C   0  0  0  0  0  0  0  0  0  0  0  0
  149.8317  138.9404  154.3572 C   0  0  0  0  0  0  0  0  0  0  0  0
  145.2515  135.4814  151.2808 S   0  0  0  0  0  0  0  0  0  0  0  0
  142.9247  132.6250  150.9070 H   0  0  0  0  0  0  0  0  0  0  0  0
  144.4496  132.2461  151.7281 H   0  0  0  0  0  0  0  0  0  0  0  0
  144.4677  132.9431  150.0987 H   0  0  0  0  0  0  0  0  0  0  0  0
  144.2429  138.6232  152.3811 H   0  0  0  0  0  0  0  0  0  0  0  0
  145.3651  140.1336  152.9257 H   0  0  0  0  0  0  0  0  0  0  0  0
  148.1345  140.1897  153.0504 H   0  0  0  0  0  0  0  0  0  0  0  0
  147.8130  142.4044  154.1731 H   0  0  0  0  0  0  0  0  0  0  0  0
  146.1312  142.0028  154.5091 H   0  0  0  0  0  0  0  0  0  0  0  0
  146.6776  142.2150  152.8474 H   0  0  0  0  0  0  0  0  0  0  0  0
  147.2084  140.3434  155.8857 H   0  0  0  0  0  0  0  0  0  0  0  0
  147.2642  138.7394  155.2156 H   0  0  0  0  0  0  0  0  0  0  0  0
  149.5612  141.5845  154.6420 H   0  0  0  0  0  0  0  0  0  0  0  0
  149.2736  141.5412  156.3674 H   0  0  0  0  0  0  0  0  0  0  0  0
  151.6860  141.9042  155.8530 H   0  0  0  0  0  0  0  0  0  0  0  0
  151.4425  140.4302  156.7727 H   0  0  0  0  0  0  0  0  0  0  0  0
  151.8498  138.3467  153.8115 H   0  0  0  0  0  0  0  0  0  0  0  0
  151.5389  138.2765  155.5374 H   0  0  0  0  0  0  0  0  0  0  0  0
  149.4241  137.9323  154.2738 H   0  0  0  0  0  0  0  0  0  0  0  0
  149.6698  139.4229  153.3921 H   0  0  0  0  0  0  0  0  0  0  0  0
  1  2  1  0  0  0  0
  1 20  1  0  0  0  0
  1 21  1  0  0  0  0
  1 22  1  0  0  0  0
  2 19  1  0  0  0  0
  2  3  2  0  0  0  0
  3  4  1  0  0  0  0
  4  5  2  0  0  0  0
  5  6  1  0  0  0  0
  5 19  1  0  0  0  0
  6  7  1  0  0  0  0
  6 23  1  0  0  0  0
  7  8  2  0  0  0  0
  7  9  1  0  0  0  0
  9 10  1  0  0  0  0
  9 24  1  0  0  0  0
 10 11  1  0  0  0  0
 10 12  1  0  0  0  0
 10 25  1  0  0  0  0
 11 26  1  0  0  0  0
 11 27  1  0  0  0  0
 11 28  1  0  0  0  0
 12 13  1  0  0  0  0
 12 29  1  0  0  0  0
 12 30  1  0  0  0  0
 13 18  1  0  0  0  0
 13 14  1  0  0  0  0
 14 15  1  0  0  0  0
 14 31  1  0  0  0  0
 14 32  1  0  0  0  0
 15 16  1  0  0  0  0
 15 33  1  0  0  0  0
 15 34  1  0  0  0  0
 16 17  1  0  0  0  0
 17 18  1  0  0  0  0
 17 35  1  0  0  0  0
 17 36  1  0  0  0  0
 18 37  1  0  0  0  0
 18 38  1  0  0  0  0
M  END
> <s_m_source_file>
AV-unprocessed.smi

> <i_m_source_file_index>
1999

> <i_lp_mmshare_version>
43012

> <i_f3d_flags>
0

> <s_epik_input>
W0NIM11jMW5uYyhzMSlbTkhdQyg9TylbTkhdW0NASF0oW0NIM10pW0NIMl1OMltDSDJdW0NIMl1PW0NIMl1bQ0gyXTI=

> <s_epik_cmdline>
J2VwaWtfcHl0aG9uJywgJy1waCcsICc3LjAnLCAnLXRuJywgJzgnLCAnLW1hJywgJzIwMCcsICctbWV0YWxfYmluZGluZycsICctaW1hZScsICc8aW5maWxlLm1hZT4nLCAnLW9tYWUnLCAnPG91dGZpbGUubWFlPic=

> <r_lp_tautomer_probability>
1

> <r_epik_Ionization_Penalty>
0.221412

> <r_epik_Ionization_Penalty_Charging>
0

> <r_epik_Ionization_Penalty_Neutral>
0.221412

> <r_epik_State_Penalty>
0.209349

> <r_epik_Charging_Adjusted_Penalty>
0.209349

> <i_epik_Tot_Q>
0

> <i_epik_Tot_abs_Q>
0

> <r_epik_Metal_State_Penalty>
0.56886

> <b_epik_Metal_Only>
0

> <s_lp_Force_Field>
OPLS_2005

> <r_lp_Energy>
22.0732

> <b_lp_Chiralities_Consistent>
1

> <s_lp_Variant>
AV-unprocessed.smi:1999-2

> <Gold.Version>
5.8.1

> <Gold.Id.Protein>
6NUR|6NUR_protein|mol2

> <Gold.PLP.Fitness>
38.1970

> <Gold.PLP.PLP>
-31.5278

> <Gold.PLP.part.hbond>
-4.0000

> <Gold.PLP.part.metal>
0.0000

> <Gold.PLP.part.buried>
-6.2301

> <Gold.PLP.part.nonpolar>
-23.4968

> <Gold.PLP.part.repulsive>
2.0177

> <Gold.PLP.ligand.clash>
0.0000

> <Gold.PLP.ligand.torsion>
1.1285

> <Gold.PLP.Chemscore.Hbond>
2.9600

> <Gold.PLP.Chemscore.CHOScore>
0.0000

> <Gold.PLP.Chemscore.Metal>
0.0000

> <Gold.Chemscore.Hbonds>
donor molecule, donor type, donor heavy atom, donor atom, acceptor molecule, acceptor atom, score
      L1  H     6    23       P1 10175  1.00
      L1  H     9    24       P1 10175  1.00
      P1  H  7989  7998       L1    16  0.73

> <Gold.PLP.Chemscore.Internal.Correction>
0.0462

> <Gold.Rescore>
     Score         DG    S(hbond)    S(metal)    S(lipo)     H(rot)  DE(clash)    DE(int)     intcor
     13.59     -16.33       2.37        0.00      59.61       1.58       0.68       2.05       ----

> <Gold.Chemscore.Fitness>
13.5901

> <Gold.Chemscore.DG>
-16.3254

> <Gold.Chemscore.ZeroCoef>
-5.4800

> <Gold.Chemscore.Hbond>
2.3727

> <Gold.Chemscore.Metal>
0.0000

> <Gold.Chemscore.Lipo>
59.6134

> <Gold.Chemscore.Internal_Hbond>
0.0000

> <Gold.Chemscore.DEClash>
0.6813

> <Gold.Chemscore.DEInternal>
2.0540

> <Gold.Chemscore.Rot>
1.5837

> <Gold.Chemscore.Internal.Correction>
   9.000000E+99

> <Gold.Chemscore.Hbonds>
donor molecule, donor type, donor heavy atom, donor atom, acceptor molecule, acceptor atom, score
      L1  H     6    23       P1 10175  0.97
      L1  H     9    24       P1 10175  0.98
      P1  H  7989  7998       L1    16  0.32

> <Gold.Chemscore.Hbond.Weighted>
-7.9248

> <Gold.Chemscore.Metal.Weighted>
-0.0000

> <Gold.Chemscore.Lipo.Weighted>
-6.9748

> <Gold.Chemscore.Internal_Hbond.Weighted>
0.0000

> <Gold.Chemscore.DEClash.Weighted>
0.6813

> <Gold.Chemscore.DEInternal.Weighted>
2.0540

> <Gold.Chemscore.Rot.Weighted>
4.0542

> <Gold.Chemscore.Internal.Correction.Weighted>
   9.000000E+99

> <Gold.Protein.RotatedTorsions>
[ 6907 6896 6895 6894 ] final -157.21 input  -60.11 | X-H torsion
[ 7974 7965 7964 7962 ] final   31.45 input  175.53 | X-H torsion
[ 8008 7997 7996 7995 ] final -161.97 input   59.86 | X-H torsion
[ 10167 10162 10161 10158 ] final -169.01 input  -65.29 | X-H torsion
[ 10718 10713 10712 10709 ] final  130.56 input   66.30 | X-H torsion
[ 10763 10752 10751 10750 ] final  157.27 input  -60.55 | X-H torsion
[ 11005 11000 10999 10996 ] final -144.52 input  -57.11 | X-H torsion

> <Gold.Protein.ActiveResidues>
 VAL166  LYS551  ARG553  GLY616  TRP617  ASP618  TYR619  PRO620  LYS621  CYS622 
 ASP623  PHE694  ASN695  SER759  ASP760  ASP761  ALA762  ILE779  LEU786  VAL792 
 PHE793  MET794  SER795  GLU796  ALA797  LYS798  CYS799  TRP800  GLU811  SER814 

> <Gold.Protein.RotatedAtoms>
  151.2994  133.4129  159.2638 H   0  0  0  0  0  0  0  0  0  0  0  0  # atno 6907 bound_to 6896
  151.0208  134.9468  159.8069 H   0  0  0  0  0  0  0  0  0  0  0  0  # atno 6908 bound_to 6896
  152.5324  134.2957  159.9112 H   0  0  0  0  0  0  0  0  0  0  0  0  # atno 6909 bound_to 6896
  146.1549  139.6655  142.9073 H   0  0  0  0  0  0  0  0  0  0  0  0  # atno 7974 bound_to 7965
  155.8000  140.0890  157.1962 H   0  0  0  0  0  0  0  0  0  0  0  0  # atno 8008 bound_to 7997
  154.3982  140.1474  156.3321 H   0  0  0  0  0  0  0  0  0  0  0  0  # atno 8009 bound_to 7997
  155.8472  140.3436  155.5673 H   0  0  0  0  0  0  0  0  0  0  0  0  # atno 8010 bound_to 7997
  139.5949  144.1133  152.1678 H   0  0  0  0  0  0  0  0  0  0  0  0  # atno 10167 bound_to 10162
  157.5050  131.1095  150.9373 H   0  0  0  0  0  0  0  0  0  0  0  0  # atno 10718 bound_to 10713
  154.1975  135.2792  155.3002 H   0  0  0  0  0  0  0  0  0  0  0  0  # atno 10763 bound_to 10752
  154.5880  135.5568  153.7254 H   0  0  0  0  0  0  0  0  0  0  0  0  # atno 10764 bound_to 10752
  153.0096  135.6361  154.2114 H   0  0  0  0  0  0  0  0  0  0  0  0  # atno 10765 bound_to 10752
  140.8016  134.2850  157.4976 H   0  0  0  0  0  0  0  0  0  0  0  0  # atno 11005 bound_to 11000
  145.4732  141.0436  143.2687 LP  0  0  0  0  0  0  0  0  0  0  0  0  # atno 17320 bound_to 7965
  144.7951  139.6251  143.7096 LP  0  0  0  0  0  0  0  0  0  0  0  0  # atno 17321 bound_to 7965
  140.0716  144.5774  150.7187 LP  0  0  0  0  0  0  0  0  0  0  0  0  # atno 17342 bound_to 10162
  140.7204  143.2583  151.4298 LP  0  0  0  0  0  0  0  0  0  0  0  0  # atno 17343 bound_to 10162
  157.0032  130.5608  149.5313 LP  0  0  0  0  0  0  0  0  0  0  0  0  # atno 17370 bound_to 10713
  156.0253  130.5347  150.8388 LP  0  0  0  0  0  0  0  0  0  0  0  0  # atno 17371 bound_to 10713
  139.8721  134.9432  156.3848 LP  0  0  0  0  0  0  0  0  0  0  0  0  # atno 17394 bound_to 11000
  140.9289  133.7593  155.9999 LP  0  0  0  0  0  0  0  0  0  0  0  0  # atno 17395 bound_to 11000

$$$$
