AV-unprocessed.smi:3241|AV-procd|sdf|12385|dock8
  -GOLD-   2272018253D 1   1.00000     0.00000
 Structure written by MMmdl.
 44 45  0  0  0  0  0  0  0  0  2 V2000
  151.1027  144.9501  159.3544 C   0  0  0  0  0  0  0  0  0  0  0  0
  151.4913  143.5291  159.7948 C   0  0  2  0  0  0  0  0  0  0  0  0
  152.7333  143.5651  160.7081 C   0  0  0  0  0  0  0  0  0  0  0  0
  153.1483  142.1577  161.1619 C   0  0  0  0  0  0  0  0  0  0  0  0
  153.3914  141.2400  159.9562 C   0  0  0  0  0  0  0  0  0  0  0  0
  152.1561  141.1875  159.0454 C   0  0  0  0  0  0  0  0  0  0  0  0
  151.7297  142.5980  158.5840 C   0  0  1  0  0  0  0  0  0  0  0  0
  150.5121  142.5166  157.8524 O   0  0  0  0  0  0  0  0  0  0  0  0
  150.6457  142.0052  156.5344 C   0  0  0  0  0  0  0  0  0  0  0  0
  149.3203  141.3516  156.1307 C   0  0  0  0  0  0  0  0  0  0  0  0
  148.1711  142.1512  156.5983 N   0  3  0  0  0  0  0  0  0  0  0  0
  147.7932  141.8956  158.0013 C   0  0  0  0  0  0  0  0  0  0  0  0
  146.6103  142.7790  158.4230 C   0  0  0  0  0  0  0  0  0  0  0  0
  146.5437  142.9372  159.8628 N   0  0  0  0  0  0  0  0  0  0  0  0
  146.8249  144.0565  160.6179 C   0  0  0  0  0  0  0  0  0  0  0  0
  146.6225  143.7243  161.9268 C   0  0  0  0  0  0  0  0  0  0  0  0
  146.2166  142.3616  161.8711 C   0  0  0  0  0  0  0  0  0  0  0  0
  146.1714  141.8932  160.6339 N   0  0  0  0  0  0  0  0  0  0  0  0
  151.8887  145.4074  158.7527 H   0  0  0  0  0  0  0  0  0  0  0  0
  150.9278  145.5934  160.2171 H   0  0  0  0  0  0  0  0  0  0  0  0
  150.1883  144.9474  158.7607 H   0  0  0  0  0  0  0  0  0  0  0  0
  150.6617  143.1242  160.3764 H   0  0  0  0  0  0  0  0  0  0  0  0
  153.5650  144.0352  160.1811 H   0  0  0  0  0  0  0  0  0  0  0  0
  152.5351  144.1845  161.5835 H   0  0  0  0  0  0  0  0  0  0  0  0
  154.0491  142.2148  161.7736 H   0  0  0  0  0  0  0  0  0  0  0  0
  152.3697  141.7323  161.7965 H   0  0  0  0  0  0  0  0  0  0  0  0
  154.2503  141.6000  159.3885 H   0  0  0  0  0  0  0  0  0  0  0  0
  153.6446  140.2360  160.2984 H   0  0  0  0  0  0  0  0  0  0  0  0
  152.3736  140.5503  158.1886 H   0  0  0  0  0  0  0  0  0  0  0  0
  151.3322  140.7136  159.5807 H   0  0  0  0  0  0  0  0  0  0  0  0
  152.5144  143.0340  157.9625 H   0  0  0  0  0  0  0  0  0  0  0  0
  150.8710  142.8218  155.8469 H   0  0  0  0  0  0  0  0  0  0  0  0
  151.4604  141.2841  156.4650 H   0  0  0  0  0  0  0  0  0  0  0  0
  149.2757  141.2326  155.0474 H   0  0  0  0  0  0  0  0  0  0  0  0
  149.2558  140.3542  156.5673 H   0  0  0  0  0  0  0  0  0  0  0  0
  148.3965  143.1307  156.4976 H   0  0  0  0  0  0  0  0  0  0  0  0
  147.5305  140.8430  158.1167 H   0  0  0  0  0  0  0  0  0  0  0  0
  148.6547  142.0862  158.6427 H   0  0  0  0  0  0  0  0  0  0  0  0
  146.6881  143.7680  157.9690 H   0  0  0  0  0  0  0  0  0  0  0  0
  145.6707  142.3449  158.0787 H   0  0  0  0  0  0  0  0  0  0  0  0
  147.1415  144.9857  160.1675 H   0  0  0  0  0  0  0  0  0  0  0  0
  146.7472  144.3573  162.7928 H   0  0  0  0  0  0  0  0  0  0  0  0
  145.9560  141.7038  162.6870 H   0  0  0  0  0  0  0  0  0  0  0  0
  147.3782  141.9397  156.0091 H   0  0  0  0  0  0  0  0  0  0  0  0
  1  2  1  0  0  0  0
  1 19  1  0  0  0  0
  1 20  1  0  0  0  0
  1 21  1  0  0  0  0
  2  7  1  0  0  0  0
  2  3  1  0  0  0  0
  2 22  1  0  0  0  0
  3  4  1  0  0  0  0
  3 23  1  0  0  0  0
  3 24  1  0  0  0  0
  4  5  1  0  0  0  0
  4 25  1  0  0  0  0
  4 26  1  0  0  0  0
  5  6  1  0  0  0  0
  5 27  1  0  0  0  0
  5 28  1  0  0  0  0
  6  7  1  0  0  0  0
  6 29  1  0  0  0  0
  6 30  1  0  0  0  0
  7  8  1  0  0  0  0
  7 31  1  0  0  0  0
  8  9  1  0  0  0  0
  9 10  1  0  0  0  0
  9 32  1  0  0  0  0
  9 33  1  0  0  0  0
 10 11  1  0  0  0  0
 10 34  1  0  0  0  0
 10 35  1  0  0  0  0
 11 12  1  0  0  0  0
 11 36  1  0  0  0  0
 11 44  1  0  0  0  0
 12 13  1  0  0  0  0
 12 37  1  0  0  0  0
 12 38  1  0  0  0  0
 13 14  1  0  0  0  0
 13 39  1  0  0  0  0
 13 40  1  0  0  0  0
 14 18  1  0  0  0  0
 14 15  1  0  0  0  0
 15 16  2  0  0  0  0
 15 41  1  0  0  0  0
 16 17  1  0  0  0  0
 16 42  1  0  0  0  0
 17 18  2  0  0  0  0
 17 43  1  0  0  0  0
M  CHG  1  11   1
M  END
> <s_m_source_file>
AV-unprocessed.smi

> <i_m_source_file_index>
3241

> <i_lp_mmshare_version>
43012

> <i_f3d_flags>
0

> <s_epik_input>
W0NIM11bQ0BASF0xW0NIMl1bQ0gyXVtDSDJdW0NIMl1bQ0BIXTFPW0NIMl1bQ0gyXVtOSF1bQ0gyXVtDSDJdbjJbY0hdW2NIXVtjSF1uMg==

> <s_epik_cmdline>
J2VwaWtfcHl0aG9uJywgJy1waCcsICc3LjAnLCAnLXRuJywgJzgnLCAnLW1hJywgJzIwMCcsICctbWV0YWxfYmluZGluZycsICctaW1hZScsICc8aW5maWxlLm1hZT4nLCAnLW9tYWUnLCAnPG91dGZpbGUubWFlPic=

> <r_lp_tautomer_probability>
1

> <r_epik_Ionization_Penalty>
0.00924946

> <r_epik_Ionization_Penalty_Charging>
0.00924645

> <r_epik_Ionization_Penalty_Neutral>
3.00629e-06

> <r_epik_State_Penalty>
0.0070118

> <r_epik_Charging_Adjusted_Penalty>
0.0162583

> <i_epik_Tot_Q>
1

> <i_epik_Tot_abs_Q>
1

> <r_epik_Metal_State_Penalty>
0.00702523

> <b_epik_Metal_Only>
0

> <s_lp_Force_Field>
OPLS_2005

> <r_lp_Energy>
13.7412

> <b_lp_Chiralities_Consistent>
1

> <s_lp_Variant>
AV-unprocessed.smi:3241-1

> <Gold.Version>
5.8.1

> <Gold.Id.Protein>
6NUR|6NUR_protein|mol2

> <Gold.PLP.Fitness>
50.5940

> <Gold.PLP.PLP>
-39.9506

> <Gold.PLP.part.hbond>
-2.0000

> <Gold.PLP.part.metal>
0.0000

> <Gold.PLP.part.buried>
-6.1499

> <Gold.PLP.part.nonpolar>
-31.2734

> <Gold.PLP.part.repulsive>
0.1280

> <Gold.PLP.ligand.clash>
0.0000

> <Gold.PLP.ligand.torsion>
0.7207

> <Gold.PLP.Chemscore.Hbond>
3.0000

> <Gold.PLP.Chemscore.CHOScore>
1.0000

> <Gold.PLP.Chemscore.Metal>
0.0000

> <Gold.Chemscore.Hbonds>
donor molecule, donor type, donor heavy atom, donor atom, acceptor molecule, acceptor atom, score
      L1  H    11    36       P1  8028  2.00
      P1  H  6934  6946       L1    18  0.34

> <Gold.PLP.Chemscore.Internal.Correction>
0.0848

> <Gold.Rescore>
     Score         DG    S(hbond)    S(metal)    S(lipo)     H(rot)  DE(clash)    DE(int)     intcor
     17.27     -19.29       1.88        0.00     105.81       1.89       0.02       2.00       ----

> <Gold.Chemscore.Fitness>
17.2661

> <Gold.Chemscore.DG>
-19.2890

> <Gold.Chemscore.ZeroCoef>
-5.4800

> <Gold.Chemscore.Hbond>
1.8769

> <Gold.Chemscore.Metal>
0.0000

> <Gold.Chemscore.Lipo>
105.8143

> <Gold.Chemscore.Internal_Hbond>
0.0000

> <Gold.Chemscore.DEClash>
0.0195

> <Gold.Chemscore.DEInternal>
2.0033

> <Gold.Chemscore.Rot>
1.8906

> <Gold.Chemscore.Internal.Correction>
   9.000000E+99

> <Gold.Chemscore.Hbonds>
donor molecule, donor type, donor heavy atom, donor atom, acceptor molecule, acceptor atom, score
      L1  H    11    36       P1  8028  0.65
      P1  H  6934  6946       L1    18  0.10

> <Gold.Chemscore.Hbond.Weighted>
-6.2687

> <Gold.Chemscore.Metal.Weighted>
-0.0000

> <Gold.Chemscore.Lipo.Weighted>
-12.3803

> <Gold.Chemscore.Internal_Hbond.Weighted>
0.0000

> <Gold.Chemscore.DEClash.Weighted>
0.0195

> <Gold.Chemscore.DEInternal.Weighted>
2.0033

> <Gold.Chemscore.Rot.Weighted>
4.8400

> <Gold.Chemscore.Internal.Correction.Weighted>
   9.000000E+99

> <Gold.Protein.RotatedTorsions>
[ 6907 6896 6895 6894 ] final  -44.79 input  -60.11 | X-H torsion
[ 7974 7965 7964 7962 ] final   85.71 input  175.53 | X-H torsion
[ 8008 7997 7996 7995 ] final  -50.54 input   59.86 | X-H torsion
[ 10167 10162 10161 10158 ] final   63.79 input  -65.29 | X-H torsion
[ 10718 10713 10712 10709 ] final  176.88 input   66.30 | X-H torsion
[ 10763 10752 10751 10750 ] final -130.93 input  -60.55 | X-H torsion
[ 11005 11000 10999 10996 ] final  -38.90 input  -57.11 | X-H torsion

> <Gold.Protein.ActiveResidues>
 VAL166  LYS551  ARG553  GLY616  TRP617  ASP618  TYR619  PRO620  LYS621  CYS622 
 ASP623  PHE694  ASN695  SER759  ASP760  ASP761  ALA762  ILE779  LEU786  VAL792 
 PHE793  MET794  SER795  GLU796  ALA797  LYS798  CYS799  TRP800  GLU811  SER814 

> <Gold.Protein.RotatedAtoms>
  150.9290  134.8705  159.7538 H   0  0  0  0  0  0  0  0  0  0  0  0  # atno 6907 bound_to 6896
  152.5029  134.4107  159.9457 H   0  0  0  0  0  0  0  0  0  0  0  0  # atno 6908 bound_to 6896
  151.4135  133.3680  159.2782 H   0  0  0  0  0  0  0  0  0  0  0  0  # atno 6909 bound_to 6896
  145.5819  139.2326  143.2348 H   0  0  0  0  0  0  0  0  0  0  0  0  # atno 7974 bound_to 7965
  154.4064  140.1270  156.4682 H   0  0  0  0  0  0  0  0  0  0  0  0  # atno 8008 bound_to 7997
  155.7205  140.3493  155.4994 H   0  0  0  0  0  0  0  0  0  0  0  0  # atno 8009 bound_to 7997
  155.9219  140.1054  157.1190 H   0  0  0  0  0  0  0  0  0  0  0  0  # atno 8010 bound_to 7997
  140.1292  144.4658  150.6874 H   0  0  0  0  0  0  0  0  0  0  0  0  # atno 10167 bound_to 10162
  156.9136  130.9918  151.3016 H   0  0  0  0  0  0  0  0  0  0  0  0  # atno 10718 bound_to 10713
  154.8753  135.3846  154.4163 H   0  0  0  0  0  0  0  0  0  0  0  0  # atno 10763 bound_to 10752
  153.4872  135.7030  153.5910 H   0  0  0  0  0  0  0  0  0  0  0  0  # atno 10764 bound_to 10752
  153.4299  135.3881  155.2131 H   0  0  0  0  0  0  0  0  0  0  0  0  # atno 10765 bound_to 10752
  141.0062  133.6930  156.2115 H   0  0  0  0  0  0  0  0  0  0  0  0  # atno 11005 bound_to 11000
  146.1710  140.6646  142.9233 LP  0  0  0  0  0  0  0  0  0  0  0  0  # atno 17320 bound_to 7965
  144.7390  140.4889  143.6883 LP  0  0  0  0  0  0  0  0  0  0  0  0  # atno 17321 bound_to 7965
  140.6827  143.2334  151.5343 LP  0  0  0  0  0  0  0  0  0  0  0  0  # atno 17342 bound_to 10162
  139.5528  144.2352  152.1560 LP  0  0  0  0  0  0  0  0  0  0  0  0  # atno 17343 bound_to 10162
  157.5952  130.8472  149.8718 LP  0  0  0  0  0  0  0  0  0  0  0  0  # atno 17370 bound_to 10713
  156.0524  130.3715  150.1170 LP  0  0  0  0  0  0  0  0  0  0  0  0  # atno 17371 bound_to 10713
  140.6809  134.4768  157.5589 LP  0  0  0  0  0  0  0  0  0  0  0  0  # atno 17394 bound_to 11000
  139.9065  134.8439  156.1688 LP  0  0  0  0  0  0  0  0  0  0  0  0  # atno 17395 bound_to 11000

$$$$
