AV-unprocessed.smi:1005|AV-procd|sdf|4374|dock8
  -GOLD-   22720 2283D 1   1.00000     0.00000
 Structure written by MMmdl.
 57 59  0  0  0  0  0  0  0  0  3 V2000
  152.7626  144.0680  162.3631 C   0  0  0  0  0  0  0  0  0  0  0  0
  152.6252  143.1432  161.1655 C   0  0  0  0  0  0  0  0  0  0  0  0
  153.1874  141.8487  161.2450 C   0  0  0  0  0  0  0  0  0  0  0  0
  153.0443  141.0259  160.1341 C   0  0  0  0  0  0  0  0  0  0  0  0
  153.4740  139.7174  159.9009 N   0  3  0  0  0  0  0  0  0  0  0  0
  153.0939  139.3298  158.6515 C   0  0  0  0  0  0  0  0  0  0  0  0
  152.4286  140.3726  158.0845 N   0  0  0  0  0  0  0  0  0  0  0  0
  151.8047  140.4893  156.7603 C   0  0  0  0  0  0  0  0  0  0  0  0
  151.9545  139.2078  155.9183 C   0  0  2  0  0  0  0  0  0  0  0  0
  153.3140  139.0512  155.5611 O   0  0  0  0  0  0  0  0  0  0  0  0
  151.1089  139.2740  154.6311 C   0  0  0  0  0  0  0  0  0  0  0  0
  149.7029  139.6397  154.8160 N   0  0  0  0  0  0  0  0  0  0  0  0
  149.4779  141.0817  154.7346 C   0  0  0  0  0  0  0  0  0  0  0  0
  147.9906  141.4385  154.8890 C   0  0  0  0  0  0  0  0  0  0  0  0
  147.2277  140.7343  153.9150 O   0  0  0  0  0  0  0  0  0  0  0  0
  147.3641  139.3186  154.0100 C   0  0  1  0  0  0  0  0  0  0  0  0
  146.4584  138.6867  152.9312 C   0  0  0  0  0  0  0  0  0  0  0  0
  146.5174  137.2022  152.8976 N   0  3  0  0  0  0  0  0  0  0  0  0
  145.6110  136.5900  151.8998 C   0  0  0  0  0  0  0  0  0  0  0  0
  146.3231  136.6132  154.2415 C   0  0  0  0  0  0  0  0  0  0  0  0
  148.8604  138.9774  153.8260 C   0  0  0  0  0  0  0  0  0  0  0  0
  152.3723  141.4513  158.9722 C   0  0  0  0  0  0  0  0  0  0  0  0
  151.8122  142.7226  158.8766 C   0  0  0  0  0  0  0  0  0  0  0  0
  151.9454  143.5740  159.9965 C   0  0  0  0  0  0  0  0  0  0  0  0
  151.3430  144.9667  159.9227 C   0  0  0  0  0  0  0  0  0  0  0  0
  153.3312  143.5986  163.1665 H   0  0  0  0  0  0  0  0  0  0  0  0
  151.7811  144.3294  162.7589 H   0  0  0  0  0  0  0  0  0  0  0  0
  153.2792  144.9861  162.0826 H   0  0  0  0  0  0  0  0  0  0  0  0
  153.7048  141.5134  162.1321 H   0  0  0  0  0  0  0  0  0  0  0  0
  153.2813  138.3683  158.1950 H   0  0  0  0  0  0  0  0  0  0  0  0
  150.7540  140.7470  156.8979 H   0  0  0  0  0  0  0  0  0  0  0  0
  152.2666  141.3372  156.2521 H   0  0  0  0  0  0  0  0  0  0  0  0
  151.6593  138.3569  156.5303 H   0  0  0  0  0  0  0  0  0  0  0  0
  153.3628  138.9148  154.6269 H   0  0  0  0  0  0  0  0  0  0  0  0
  151.5693  139.9798  153.9379 H   0  0  0  0  0  0  0  0  0  0  0  0
  151.1669  138.3008  154.1408 H   0  0  0  0  0  0  0  0  0  0  0  0
  150.0369  141.6024  155.5106 H   0  0  0  0  0  0  0  0  0  0  0  0
  149.8416  141.4603  153.7781 H   0  0  0  0  0  0  0  0  0  0  0  0
  147.6354  141.1903  155.8902 H   0  0  0  0  0  0  0  0  0  0  0  0
  147.8412  142.5096  154.7524 H   0  0  0  0  0  0  0  0  0  0  0  0
  147.0233  139.0135  155.0014 H   0  0  0  0  0  0  0  0  0  0  0  0
  145.4263  138.9584  153.1590 H   0  0  0  0  0  0  0  0  0  0  0  0
  146.6655  139.1048  151.9446 H   0  0  0  0  0  0  0  0  0  0  0  0
  144.5785  136.9018  152.0625 H   0  0  0  0  0  0  0  0  0  0  0  0
  145.6506  135.5018  151.9589 H   0  0  0  0  0  0  0  0  0  0  0  0
  145.9032  136.8619  150.8863 H   0  0  0  0  0  0  0  0  0  0  0  0
  145.3290  136.8422  154.6279 H   0  0  0  0  0  0  0  0  0  0  0  0
  147.0613  136.9990  154.9455 H   0  0  0  0  0  0  0  0  0  0  0  0
  146.4366  135.5290  154.2104 H   0  0  0  0  0  0  0  0  0  0  0  0
  149.1765  139.2693  152.8231 H   0  0  0  0  0  0  0  0  0  0  0  0
  149.0072  137.9003  153.8893 H   0  0  0  0  0  0  0  0  0  0  0  0
  151.2947  143.0488  157.9864 H   0  0  0  0  0  0  0  0  0  0  0  0
  150.8196  145.1261  158.9795 H   0  0  0  0  0  0  0  0  0  0  0  0
  152.1223  145.7245  160.0038 H   0  0  0  0  0  0  0  0  0  0  0  0
  150.6257  145.1187  160.7293 H   0  0  0  0  0  0  0  0  0  0  0  0
  147.4576  136.9573  152.6212 H   0  0  0  0  0  0  0  0  0  0  0  0
  153.9862  139.1287  160.5452 H   0  0  0  0  0  0  0  0  0  0  0  0
  1  2  1  0  0  0  0
  1 26  1  0  0  0  0
  1 27  1  0  0  0  0
  1 28  1  0  0  0  0
  2 24  1  0  0  0  0
  2  3  2  0  0  0  0
  3  4  1  0  0  0  0
  3 29  1  0  0  0  0
  4 22  2  0  0  0  0
  4  5  1  0  0  0  0
  5  6  2  0  0  0  0
  5 57  1  0  0  0  0
  6  7  1  0  0  0  0
  6 30  1  0  0  0  0
  7  8  1  0  0  0  0
  7 22  1  0  0  0  0
  8  9  1  0  0  0  0
  8 31  1  0  0  0  0
  8 32  1  0  0  0  0
  9 10  1  0  0  0  0
  9 11  1  0  0  0  0
  9 33  1  0  0  0  0
 10 34  1  0  0  0  0
 11 12  1  0  0  0  0
 11 35  1  0  0  0  0
 11 36  1  0  0  0  0
 12 21  1  0  0  0  0
 12 13  1  0  0  0  0
 13 14  1  0  0  0  0
 13 37  1  0  0  0  0
 13 38  1  0  0  0  0
 14 15  1  0  0  0  0
 14 39  1  0  0  0  0
 14 40  1  0  0  0  0
 15 16  1  0  0  0  0
 16 17  1  0  0  0  0
 16 21  1  0  0  0  0
 16 41  1  0  0  0  0
 17 18  1  0  0  0  0
 17 42  1  0  0  0  0
 17 43  1  0  0  0  0
 18 19  1  0  0  0  0
 18 20  1  0  0  0  0
 18 56  1  0  0  0  0
 19 44  1  0  0  0  0
 19 45  1  0  0  0  0
 19 46  1  0  0  0  0
 20 47  1  0  0  0  0
 20 48  1  0  0  0  0
 20 49  1  0  0  0  0
 21 50  1  0  0  0  0
 21 51  1  0  0  0  0
 22 23  1  0  0  0  0
 23 24  2  0  0  0  0
 23 52  1  0  0  0  0
 24 25  1  0  0  0  0
 25 53  1  0  0  0  0
 25 54  1  0  0  0  0
 25 55  1  0  0  0  0
M  CHG  1   5   1
M  CHG  1  18   1
M  END
> <s_m_source_file>
AV-unprocessed.smi

> <i_m_source_file_index>
1005

> <i_lp_mmshare_version>
43012

> <i_f3d_flags>
0

> <s_epik_input>
W0NIM11jKFtjSF0xKWMoW0NIM10pW2NIXWMoYzEyKW4oW2NIXW4yKVtDSDJdW0NASF0oW09IXSlbQ0gyXU4zW0NIMl1bQ0gyXU9bQ0BIXShbQ0gyXTMpW0NIMl1OKFtDSDNdKVtDSDNd

> <s_epik_cmdline>
J2VwaWtfcHl0aG9uJywgJy1waCcsICc3LjAnLCAnLXRuJywgJzgnLCAnLW1hJywgJzIwMCcsICctbWV0YWxfYmluZGluZycsICctaW1hZScsICc8aW5maWxlLm1hZT4nLCAnLW9tYWUnLCAnPG91dGZpbGUubWFlPic=

> <r_epik_Ionization_Penalty>
1.3281

> <r_epik_Ionization_Penalty_Charging>
1.21988

> <r_epik_Ionization_Penalty_Neutral>
0.10822

> <r_epik_State_Penalty>
1.32886

> <r_epik_Charging_Adjusted_Penalty>
2.54875

> <i_epik_Tot_Q>
2

> <i_epik_Tot_abs_Q>
2

> <r_epik_Metal_State_Penalty>
5.33912

> <b_epik_Metal_Only>
0

> <s_lp_Force_Field>
OPLS_2005

> <r_lp_Energy>
44.7977

> <b_lp_Chiralities_Consistent>
1

> <s_lp_Variant>
AV-unprocessed.smi:1005-13

> <Gold.Version>
5.8.1

> <Gold.Id.Protein>
6NUR|6NUR_protein|mol2

> <Gold.PLP.Fitness>
57.7584

> <Gold.PLP.PLP>
-49.7619

> <Gold.PLP.part.hbond>
-2.0000

> <Gold.PLP.part.metal>
0.0000

> <Gold.PLP.part.buried>
-3.6418

> <Gold.PLP.part.nonpolar>
-43.4208

> <Gold.PLP.part.repulsive>
0.3444

> <Gold.PLP.ligand.clash>
0.0000

> <Gold.PLP.ligand.torsion>
0.5111

> <Gold.PLP.Chemscore.Hbond>
2.9920

> <Gold.PLP.Chemscore.CHOScore>
0.0000

> <Gold.PLP.Chemscore.Metal>
0.0000

> <Gold.Chemscore.Hbonds>
donor molecule, donor type, donor heavy atom, donor atom, acceptor molecule, acceptor atom, score
      L1  H    18    56       P1  7948  2.00
      P1  H  7997  8010       L1    10  1.00

> <Gold.PLP.Chemscore.Internal.Correction>
0.0427

> <Gold.Rescore>
     Score         DG    S(hbond)    S(metal)    S(lipo)     H(rot)  DE(clash)    DE(int)     intcor
     20.44     -22.14       1.84        0.00     144.43       2.49       1.21       0.50       ----

> <Gold.Chemscore.Fitness>
20.4367

> <Gold.Chemscore.DG>
-22.1448

> <Gold.Chemscore.ZeroCoef>
-5.4800

> <Gold.Chemscore.Hbond>
1.8383

> <Gold.Chemscore.Metal>
0.0000

> <Gold.Chemscore.Lipo>
144.4331

> <Gold.Chemscore.Internal_Hbond>
0.0000

> <Gold.Chemscore.DEClash>
1.2083

> <Gold.Chemscore.DEInternal>
0.4998

> <Gold.Chemscore.Rot>
2.4897

> <Gold.Chemscore.Internal.Correction>
   9.000000E+99

> <Gold.Chemscore.Hbonds>
donor molecule, donor type, donor heavy atom, donor atom, acceptor molecule, acceptor atom, score
      L1  H    18    56       P1  7948  1.00
      P1  H  7997  8010       L1    10  0.47

> <Gold.Chemscore.Hbond.Weighted>
-6.1398

> <Gold.Chemscore.Metal.Weighted>
-0.0000

> <Gold.Chemscore.Lipo.Weighted>
-16.8987

> <Gold.Chemscore.Internal_Hbond.Weighted>
0.0000

> <Gold.Chemscore.DEClash.Weighted>
1.2083

> <Gold.Chemscore.DEInternal.Weighted>
0.4998

> <Gold.Chemscore.Rot.Weighted>
6.3737

> <Gold.Chemscore.Internal.Correction.Weighted>
   9.000000E+99

> <Gold.Protein.RotatedTorsions>
[ 6907 6896 6895 6894 ] final  -44.67 input  -60.11 | X-H torsion
[ 7974 7965 7964 7962 ] final  -88.42 input  175.53 | X-H torsion
[ 8008 7997 7996 7995 ] final  105.87 input   59.86 | X-H torsion
[ 10167 10162 10161 10158 ] final  -38.07 input  -65.29 | X-H torsion
[ 10718 10713 10712 10709 ] final   68.42 input   66.30 | X-H torsion
[ 10763 10752 10751 10750 ] final -172.26 input  -60.55 | X-H torsion
[ 11005 11000 10999 10996 ] final -135.51 input  -57.11 | X-H torsion

> <Gold.Protein.ActiveResidues>
 VAL166  LYS551  ARG553  GLY616  TRP617  ASP618  TYR619  PRO620  LYS621  CYS622 
 ASP623  PHE694  ASN695  SER759  ASP760  ASP761  ALA762  ILE779  LEU786  VAL792 
 PHE793  MET794  SER795  GLU796  ALA797  LYS798  CYS799  TRP800  GLU811  SER814 

> <Gold.Protein.RotatedAtoms>
  150.9303  134.8718  159.7546 H   0  0  0  0  0  0  0  0  0  0  0  0  # atno 6907 bound_to 6896
  152.5034  134.4089  159.9452 H   0  0  0  0  0  0  0  0  0  0  0  0  # atno 6908 bound_to 6896
  151.4116  133.3685  159.2780 H   0  0  0  0  0  0  0  0  0  0  0  0  # atno 6909 bound_to 6896
  145.4534  140.9561  143.2010 H   0  0  0  0  0  0  0  0  0  0  0  0  # atno 7974 bound_to 7965
  156.1696  140.3123  155.8949 H   0  0  0  0  0  0  0  0  0  0  0  0  # atno 8008 bound_to 7997
  155.3615  140.0476  157.3063 H   0  0  0  0  0  0  0  0  0  0  0  0  # atno 8009 bound_to 7997
  154.5227  140.2204  155.8957 H   0  0  0  0  0  0  0  0  0  0  0  0  # atno 8010 bound_to 7997
  140.7102  143.3301  151.2589 H   0  0  0  0  0  0  0  0  0  0  0  0  # atno 10167 bound_to 10162
  157.6288  130.9372  150.0374 H   0  0  0  0  0  0  0  0  0  0  0  0  # atno 10718 bound_to 10713
  154.6213  135.2875  155.0323 H   0  0  0  0  0  0  0  0  0  0  0  0  # atno 10763 bound_to 10752
  154.1517  135.6502  153.4969 H   0  0  0  0  0  0  0  0  0  0  0  0  # atno 10764 bound_to 10752
  153.0237  135.5357  154.7004 H   0  0  0  0  0  0  0  0  0  0  0  0  # atno 10765 bound_to 10752
  140.8891  134.1834  157.4540 H   0  0  0  0  0  0  0  0  0  0  0  0  # atno 11005 bound_to 11000
  144.8047  139.6073  143.7056 LP  0  0  0  0  0  0  0  0  0  0  0  0  # atno 17320 bound_to 7965
  146.2492  139.6162  142.9439 LP  0  0  0  0  0  0  0  0  0  0  0  0  # atno 17321 bound_to 7965
  139.6780  143.9903  152.2792 LP  0  0  0  0  0  0  0  0  0  0  0  0  # atno 17342 bound_to 10162
  139.9524  144.6612  150.8159 LP  0  0  0  0  0  0  0  0  0  0  0  0  # atno 17343 bound_to 10162
  156.1477  130.3642  149.9485 LP  0  0  0  0  0  0  0  0  0  0  0  0  # atno 17370 bound_to 10713
  156.7512  130.9116  151.3637 LP  0  0  0  0  0  0  0  0  0  0  0  0  # atno 17371 bound_to 10713
  139.8727  134.9851  156.5266 LP  0  0  0  0  0  0  0  0  0  0  0  0  # atno 17394 bound_to 11000
  140.8368  133.8236  155.9037 LP  0  0  0  0  0  0  0  0  0  0  0  0  # atno 17395 bound_to 11000

$$$$
