AV-unprocessed.smi:3249|AV-procd|sdf|12423|dock10
  -GOLD-   2272018313D 1   1.00000     0.00000
 Structure written by MMmdl.
 44 45  0  0  0  0  0  0  0  0  2 V2000
  146.8226  138.8092  152.2916 C   0  0  0  0  0  0  0  0  0  0  0  0
  147.6439  139.1921  153.4887 C   0  0  0  0  0  0  0  0  0  0  0  0
  147.7237  138.5263  154.7444 C   0  0  0  0  0  0  0  0  0  0  0  0
  148.5537  139.1183  155.5873 N   0  0  0  0  0  0  0  0  0  0  0  0
  149.0199  140.1907  154.9116 N   0  0  0  0  0  0  0  0  0  0  0  0
  150.0027  141.0674  155.5395 C   0  0  2  0  0  0  0  0  0  0  0  0
  151.3661  140.3543  155.6111 C   0  0  0  0  0  0  0  0  0  0  0  0
  149.4900  141.5659  156.9159 C   0  0  1  0  0  0  0  0  0  0  0  0
  149.8441  140.6038  158.0655 C   0  0  0  0  0  0  0  0  0  0  0  0
  150.0432  142.9116  157.1983 N   0  3  0  0  0  0  0  0  0  0  0  0
  151.5162  143.0170  157.1479 C   0  0  0  0  0  0  0  0  0  0  0  0
  152.0581  143.6852  158.4188 C   0  0  1  0  0  0  0  0  0  0  0  0
  151.2552  144.9460  158.7932 C   0  0  0  0  0  0  0  0  0  0  0  0
  151.7650  145.5374  160.1124 C   0  0  0  0  0  0  0  0  0  0  0  0
  151.7727  144.4540  161.1956 C   0  0  0  0  0  0  0  0  0  0  0  0
  152.5355  143.2131  160.7054 C   0  0  0  0  0  0  0  0  0  0  0  0
  151.9671  142.7438  159.4862 O   0  0  0  0  0  0  0  0  0  0  0  0
  148.4925  140.2521  153.6369 C   0  0  0  0  0  0  0  0  0  0  0  0
  146.1181  138.0096  152.5220 H   0  0  0  0  0  0  0  0  0  0  0  0
  147.4484  138.4591  151.4706 H   0  0  0  0  0  0  0  0  0  0  0  0
  146.2401  139.6510  151.9172 H   0  0  0  0  0  0  0  0  0  0  0  0
  147.2109  137.6309  155.0640 H   0  0  0  0  0  0  0  0  0  0  0  0
  150.1304  141.9358  154.8898 H   0  0  0  0  0  0  0  0  0  0  0  0
  152.1624  141.0362  155.9082 H   0  0  0  0  0  0  0  0  0  0  0  0
  151.6450  139.9486  154.6380 H   0  0  0  0  0  0  0  0  0  0  0  0
  151.3508  139.5286  156.3230 H   0  0  0  0  0  0  0  0  0  0  0  0
  148.4034  141.6496  156.8566 H   0  0  0  0  0  0  0  0  0  0  0  0
  149.3755  139.6291  157.9335 H   0  0  0  0  0  0  0  0  0  0  0  0
  149.5013  140.9835  159.0278 H   0  0  0  0  0  0  0  0  0  0  0  0
  150.9212  140.4495  158.1355 H   0  0  0  0  0  0  0  0  0  0  0  0
  149.6363  143.5782  156.5576 H   0  0  0  0  0  0  0  0  0  0  0  0
  151.9342  142.0133  157.0591 H   0  0  0  0  0  0  0  0  0  0  0  0
  151.8283  143.5753  156.2651 H   0  0  0  0  0  0  0  0  0  0  0  0
  153.1038  143.9562  158.2603 H   0  0  0  0  0  0  0  0  0  0  0  0
  151.3262  145.6912  158.0001 H   0  0  0  0  0  0  0  0  0  0  0  0
  150.1982  144.6940  158.8911 H   0  0  0  0  0  0  0  0  0  0  0  0
  152.7744  145.9273  159.9750 H   0  0  0  0  0  0  0  0  0  0  0  0
  151.1427  146.3785  160.4192 H   0  0  0  0  0  0  0  0  0  0  0  0
  152.2231  144.8379  162.1115 H   0  0  0  0  0  0  0  0  0  0  0  0
  150.7475  144.1759  161.4435 H   0  0  0  0  0  0  0  0  0  0  0  0
  153.5939  143.4371  160.5635 H   0  0  0  0  0  0  0  0  0  0  0  0
  152.4757  142.4192  161.4499 H   0  0  0  0  0  0  0  0  0  0  0  0
  148.7642  141.0354  152.9444 H   0  0  0  0  0  0  0  0  0  0  0  0
  149.7595  143.1613  158.1356 H   0  0  0  0  0  0  0  0  0  0  0  0
  1  2  1  0  0  0  0
  1 19  1  0  0  0  0
  1 20  1  0  0  0  0
  1 21  1  0  0  0  0
  2 18  2  0  0  0  0
  2  3  1  0  0  0  0
  3  4  2  0  0  0  0
  3 22  1  0  0  0  0
  4  5  1  0  0  0  0
  5  6  1  0  0  0  0
  5 18  1  0  0  0  0
  6  7  1  0  0  0  0
  6  8  1  0  0  0  0
  6 23  1  0  0  0  0
  7 24  1  0  0  0  0
  7 25  1  0  0  0  0
  7 26  1  0  0  0  0
  8  9  1  0  0  0  0
  8 10  1  0  0  0  0
  8 27  1  0  0  0  0
  9 28  1  0  0  0  0
  9 29  1  0  0  0  0
  9 30  1  0  0  0  0
 10 11  1  0  0  0  0
 10 31  1  0  0  0  0
 10 44  1  0  0  0  0
 11 12  1  0  0  0  0
 11 32  1  0  0  0  0
 11 33  1  0  0  0  0
 12 17  1  0  0  0  0
 12 13  1  0  0  0  0
 12 34  1  0  0  0  0
 13 14  1  0  0  0  0
 13 35  1  0  0  0  0
 13 36  1  0  0  0  0
 14 15  1  0  0  0  0
 14 37  1  0  0  0  0
 14 38  1  0  0  0  0
 15 16  1  0  0  0  0
 15 39  1  0  0  0  0
 15 40  1  0  0  0  0
 16 17  1  0  0  0  0
 16 41  1  0  0  0  0
 16 42  1  0  0  0  0
 18 43  1  0  0  0  0
M  CHG  1  10   1
M  END
> <s_m_source_file>
AV-unprocessed.smi

> <i_m_source_file_index>
3249

> <i_lp_mmshare_version>
43012

> <i_f3d_flags>
0

> <s_epik_input>
W0NIM11jMVtjSF1ubihbY0hdMSlbQ0BIXShbQ0gzXSlbQ0BIXShbQ0gzXSlbTkhdW0NIMl1bQ0BASF0yW0NIMl1bQ0gyXVtDSDJdW0NIMl1PMg==

> <s_epik_cmdline>
J2VwaWtfcHl0aG9uJywgJy1waCcsICc3LjAnLCAnLXRuJywgJzgnLCAnLW1hJywgJzIwMCcsICctbWV0YWxfYmluZGluZycsICctaW1hZScsICc8aW5maWxlLm1hZT4nLCAnLW9tYWUnLCAnPG91dGZpbGUubWFlPic=

> <r_lp_tautomer_probability>
1

> <r_epik_Ionization_Penalty>
0.00659207

> <r_epik_Ionization_Penalty_Charging>
0.00656881

> <r_epik_Ionization_Penalty_Neutral>
2.32662e-05

> <r_epik_State_Penalty>
0.0048654

> <r_epik_Charging_Adjusted_Penalty>
0.0114342

> <i_epik_Tot_Q>
1

> <i_epik_Tot_abs_Q>
1

> <r_epik_Metal_State_Penalty>
-0

> <b_epik_Metal_Only>
0

> <s_lp_Force_Field>
OPLS_2005

> <r_lp_Energy>
17.4327

> <b_lp_Chiralities_Consistent>
1

> <s_lp_Variant>
AV-unprocessed.smi:3249-7

> <Gold.Version>
5.8.1

> <Gold.Id.Protein>
6NUR|6NUR_protein|mol2

> <Gold.PLP.Fitness>
43.5895

> <Gold.PLP.PLP>
-38.4883

> <Gold.PLP.part.hbond>
-1.0000

> <Gold.PLP.part.metal>
0.0000

> <Gold.PLP.part.buried>
-1.2844

> <Gold.PLP.part.nonpolar>
-36.6808

> <Gold.PLP.part.repulsive>
0.0316

> <Gold.PLP.ligand.clash>
0.0000

> <Gold.PLP.ligand.torsion>
1.3252

> <Gold.PLP.Chemscore.Hbond>
2.0000

> <Gold.PLP.Chemscore.CHOScore>
0.5475

> <Gold.PLP.Chemscore.Metal>
0.0000

> <Gold.Chemscore.Hbonds>
donor molecule, donor type, donor heavy atom, donor atom, acceptor molecule, acceptor atom, score
      L1  H    10    31       P1  8028  2.00
      L1  C    18    43       P1  7957  0.55

> <Gold.PLP.Chemscore.Internal.Correction>
0.1091

> <Gold.Rescore>
     Score         DG    S(hbond)    S(metal)    S(lipo)     H(rot)  DE(clash)    DE(int)     intcor
     16.03     -18.02       0.99        0.00     112.54       1.53       0.62       1.37       ----

> <Gold.Chemscore.Fitness>
16.0297

> <Gold.Chemscore.DG>
-18.0175

> <Gold.Chemscore.ZeroCoef>
-5.4800

> <Gold.Chemscore.Hbond>
0.9866

> <Gold.Chemscore.Metal>
0.0000

> <Gold.Chemscore.Lipo>
112.5431

> <Gold.Chemscore.Internal_Hbond>
0.0000

> <Gold.Chemscore.DEClash>
0.6188

> <Gold.Chemscore.DEInternal>
1.3691

> <Gold.Chemscore.Rot>
1.5333

> <Gold.Chemscore.Internal.Correction>
   9.000000E+99

> <Gold.Chemscore.Hbonds>
donor molecule, donor type, donor heavy atom, donor atom, acceptor molecule, acceptor atom, score
      L1  H    10    31       P1  8028  0.99

> <Gold.Chemscore.Hbond.Weighted>
-3.2952

> <Gold.Chemscore.Metal.Weighted>
-0.0000

> <Gold.Chemscore.Lipo.Weighted>
-13.1675

> <Gold.Chemscore.Internal_Hbond.Weighted>
0.0000

> <Gold.Chemscore.DEClash.Weighted>
0.6188

> <Gold.Chemscore.DEInternal.Weighted>
1.3691

> <Gold.Chemscore.Rot.Weighted>
3.9252

> <Gold.Chemscore.Internal.Correction.Weighted>
   9.000000E+99

> <Gold.Protein.RotatedTorsions>
[ 6907 6896 6895 6894 ] final  -17.52 input  -60.11 | X-H torsion
[ 7974 7965 7964 7962 ] final -156.23 input  175.53 | X-H torsion
[ 8008 7997 7996 7995 ] final   24.74 input   59.86 | X-H torsion
[ 10167 10162 10161 10158 ] final -109.18 input  -65.29 | X-H torsion
[ 10718 10713 10712 10709 ] final   16.75 input   66.30 | X-H torsion
[ 10763 10752 10751 10750 ] final -117.55 input  -60.55 | X-H torsion
[ 11005 11000 10999 10996 ] final -160.77 input  -57.11 | X-H torsion

> <Gold.Protein.ActiveResidues>
 VAL166  LYS551  ARG553  GLY616  TRP617  ASP618  TYR619  PRO620  LYS621  CYS622 
 ASP623  PHE694  ASN695  SER759  ASP760  ASP761  ALA762  ILE779  LEU786  VAL792 
 PHE793  MET794  SER795  GLU796  ALA797  LYS798  CYS799  TRP800  GLU811  SER814 

> <Gold.Protein.RotatedAtoms>
  151.2921  135.0745  159.9207 H   0  0  0  0  0  0  0  0  0  0  0  0  # atno 6907 bound_to 6896
  152.5314  133.9921  159.7866 H   0  0  0  0  0  0  0  0  0  0  0  0  # atno 6908 bound_to 6896
  151.0192  133.5841  159.2704 H   0  0  0  0  0  0  0  0  0  0  0  0  # atno 6909 bound_to 6896
  144.7602  140.4138  143.5982 H   0  0  0  0  0  0  0  0  0  0  0  0  # atno 7974 bound_to 7965
  155.0009  140.3125  155.4868 H   0  0  0  0  0  0  0  0  0  0  0  0  # atno 8008 bound_to 7997
  156.2925  140.2232  156.5059 H   0  0  0  0  0  0  0  0  0  0  0  0  # atno 8009 bound_to 7997
  154.7619  140.0458  157.0969 H   0  0  0  0  0  0  0  0  0  0  0  0  # atno 8010 bound_to 7997
  140.1581  143.4143  152.1446 H   0  0  0  0  0  0  0  0  0  0  0  0  # atno 10167 bound_to 10162
  157.0723  130.6353  149.5808 H   0  0  0  0  0  0  0  0  0  0  0  0  # atno 10718 bound_to 10713
  154.8558  135.4305  154.1998 H   0  0  0  0  0  0  0  0  0  0  0  0  # atno 10763 bound_to 10752
  153.3047  135.6971  153.7176 H   0  0  0  0  0  0  0  0  0  0  0  0  # atno 10764 bound_to 10752
  153.6292  135.3488  155.3010 H   0  0  0  0  0  0  0  0  0  0  0  0  # atno 10765 bound_to 10752
  140.6278  134.4683  157.5228 H   0  0  0  0  0  0  0  0  0  0  0  0  # atno 11005 bound_to 11000
  145.6643  139.1587  143.2790 LP  0  0  0  0  0  0  0  0  0  0  0  0  # atno 17320 bound_to 7965
  146.1658  140.6721  142.9256 LP  0  0  0  0  0  0  0  0  0  0  0  0  # atno 17321 bound_to 7965
  139.5394  144.7242  151.4784 LP  0  0  0  0  0  0  0  0  0  0  0  0  # atno 17342 bound_to 10162
  140.6660  143.8396  150.6943 LP  0  0  0  0  0  0  0  0  0  0  0  0  # atno 17343 bound_to 10162
  155.9947  130.5011  150.7429 LP  0  0  0  0  0  0  0  0  0  0  0  0  # atno 17370 bound_to 10713
  157.4868  131.0907  151.0473 LP  0  0  0  0  0  0  0  0  0  0  0  0  # atno 17371 bound_to 10713
  139.9128  134.8309  156.1470 LP  0  0  0  0  0  0  0  0  0  0  0  0  # atno 17394 bound_to 11000
  141.0697  133.6803  156.2115 LP  0  0  0  0  0  0  0  0  0  0  0  0  # atno 17395 bound_to 11000

$$$$
