AV-unprocessed.smi:72|AV-procd|sdf|745|dock5
  -GOLD-   2262017 73D 1   1.00000     0.00000
 Structure written by MMmdl.
 29 30  0  0  0  0  0  0  0  0  1 V2000
  150.3959  134.1301  156.2311 N   0  0  0  0  0  0  0  0  0  0  0  0
  150.2837  135.4034  155.7137 C   0  0  0  0  0  0  0  0  0  0  0  0
  149.0052  135.9759  155.7400 N   0  0  0  0  0  0  0  0  0  0  0  0
  148.8923  137.1680  155.2459 C   0  0  0  0  0  0  0  0  0  0  0  0
  150.0363  137.8632  154.6752 N   0  0  0  0  0  0  0  0  0  0  0  0
  149.9461  139.2677  154.0982 C   0  0  2  0  0  0  0  0  0  0  0  0
  150.7979  140.1272  154.8001 O   0  0  0  0  0  0  0  0  0  0  0  0
  150.0566  140.8493  155.7793 C   0  0  1  0  0  0  0  0  0  0  0  0
  150.8348  142.0806  156.2742 C   0  0  0  0  0  0  0  0  0  0  0  0
  150.0320  142.8360  157.1563 O   0  0  0  0  0  0  0  0  0  0  0  0
  148.7508  141.1396  155.0340 C   0  0  1  0  0  0  0  0  0  0  0  0
  148.9039  142.2644  154.1828 O   0  0  0  0  0  0  0  0  0  0  0  0
  148.5202  139.8412  154.2596 C   0  0  1  0  0  0  0  0  0  0  0  0
  147.8563  140.0567  153.0280 O   0  0  0  0  0  0  0  0  0  0  0  0
  151.3113  137.2327  154.7173 C   0  0  0  0  0  0  0  0  0  0  0  0
  152.3049  137.8189  154.2876 O   0  0  0  0  0  0  0  0  0  0  0  0
  151.3766  135.9429  155.2569 N   0  0  0  0  0  0  0  0  0  0  0  0
  150.2877  139.1777  153.0654 H   0  0  0  0  0  0  0  0  0  0  0  0
  149.8257  140.1932  156.6207 H   0  0  0  0  0  0  0  0  0  0  0  0
  147.9306  141.3453  155.7224 H   0  0  0  0  0  0  0  0  0  0  0  0
  147.9247  139.1625  154.8724 H   0  0  0  0  0  0  0  0  0  0  0  0
  151.2663  133.6196  156.2666 H   0  0  0  0  0  0  0  0  0  0  0  0
  149.6163  133.6135  156.6118 H   0  0  0  0  0  0  0  0  0  0  0  0
  147.9459  137.7085  155.2325 H   0  0  0  0  0  0  0  0  0  0  0  0
  151.7664  141.7940  156.7631 H   0  0  0  0  0  0  0  0  0  0  0  0
  151.0915  142.7254  155.4331 H   0  0  0  0  0  0  0  0  0  0  0  0
  149.8145  143.6545  156.7369 H   0  0  0  0  0  0  0  0  0  0  0  0
  148.6246  143.0329  154.6572 H   0  0  0  0  0  0  0  0  0  0  0  0
  148.5059  140.1017  152.3427 H   0  0  0  0  0  0  0  0  0  0  0  0
  1  2  1  0  0  0  0
  1 22  1  0  0  0  0
  1 23  1  0  0  0  0
  2 17  2  0  0  0  0
  2  3  1  0  0  0  0
  3  4  2  0  0  0  0
  4  5  1  0  0  0  0
  4 24  1  0  0  0  0
  5  6  1  0  0  0  0
  5 15  1  0  0  0  0
  6 18  1  0  0  0  0
  6 13  1  0  0  0  0
  6  7  1  0  0  0  0
  7  8  1  0  0  0  0
  8 19  1  0  0  0  0
  8  9  1  0  0  0  0
  8 11  1  0  0  0  0
  9 10  1  0  0  0  0
  9 25  1  0  0  0  0
  9 26  1  0  0  0  0
 10 27  1  0  0  0  0
 11 20  1  0  0  0  0
 11 12  1  0  0  0  0
 11 13  1  0  0  0  0
 12 28  1  0  0  0  0
 13 21  1  0  0  0  0
 13 14  1  0  0  0  0
 14 29  1  0  0  0  0
 15 16  2  0  0  0  0
 15 17  1  0  0  0  0
M  END
> <s_m_source_file>
AV-unprocessed.smi

> <i_m_source_file_index>
72

> <i_lp_mmshare_version>
43012

> <i_f3d_flags>
0

> <s_epik_input>
W05IMl1jMW5bY0hdbihjKD1PKW4xKVtDQEBIXTJPW0NASF0oW0NIMl1bT0hdKVtDQEBIXShbT0hdKVtDQEhdMltPSF0=

> <s_epik_cmdline>
J2VwaWtfcHl0aG9uJywgJy1waCcsICc3LjAnLCAnLXRuJywgJzgnLCAnLW1hJywgJzIwMCcsICctbWV0YWxfYmluZGluZycsICctaW1hZScsICc8aW5maWxlLm1hZT4nLCAnLW9tYWUnLCAnPG91dGZpbGUubWFlPic=

> <r_lp_tautomer_probability>
4.77166e-05

> <r_epik_Ionization_Penalty>
1.3546

> <r_epik_Ionization_Penalty_Charging>
1.46833e-10

> <r_epik_Ionization_Penalty_Neutral>
1.3546

> <r_epik_State_Penalty>
3.51908

> <r_epik_Charging_Adjusted_Penalty>
3.51908

> <i_epik_Tot_Q>
0

> <i_epik_Tot_abs_Q>
0

> <r_epik_Metal_State_Penalty>
3.44088

> <b_epik_Metal_Only>
1

> <s_epik_Chemistry_Notes>
This compound contains an acetal/aminal-like group ( X-CH(R)-Y where X, Y are N, S, or O) that may be acid/base labile, releasing an aldehyde.

> <s_lp_Force_Field>
OPLS_2005

> <r_lp_Energy>
31.2985

> <b_lp_Chiralities_Consistent>
1

> <s_lp_Variant>
AV-unprocessed.smi:72-83

> <Gold.Version>
5.8.1

> <Gold.Id.Protein>
6NUR|6NUR_protein|mol2

> <Gold.PLP.Fitness>
43.1447

> <Gold.PLP.PLP>
-27.3645

> <Gold.PLP.part.hbond>
-7.0000

> <Gold.PLP.part.metal>
0.0000

> <Gold.PLP.part.buried>
-5.0953

> <Gold.PLP.part.nonpolar>
-16.6099

> <Gold.PLP.part.repulsive>
0.4707

> <Gold.PLP.ligand.clash>
0.0000

> <Gold.PLP.ligand.torsion>
0.0292

> <Gold.PLP.Chemscore.Hbond>
5.2720

> <Gold.PLP.Chemscore.CHOScore>
0.0000

> <Gold.PLP.Chemscore.Metal>
0.0000

> <Gold.Chemscore.Hbonds>
donor molecule, donor type, donor heavy atom, donor atom, acceptor molecule, acceptor atom, score
      L1  H    10    27       P1  8028  1.00
      L1  H    12    28       P1  8028  1.00
      L1  H    14    29       P1  7957  1.00
      P1  H  7989  7998       L1     7  1.00
      P1  H  8011  8017       L1    12  0.25
      P1  H 10752 10765       L1    17  1.00

> <Gold.PLP.Chemscore.Internal.Correction>
0.0227

> <Gold.Rescore>
     Score         DG    S(hbond)    S(metal)    S(lipo)     H(rot)  DE(clash)    DE(int)     intcor
     11.35     -12.98       4.44        0.00      26.19       4.06       0.31       1.32       ----

> <Gold.Chemscore.Fitness>
11.3453

> <Gold.Chemscore.DG>
-12.9824

> <Gold.Chemscore.ZeroCoef>
-5.4800

> <Gold.Chemscore.Hbond>
4.4405

> <Gold.Chemscore.Metal>
0.0000

> <Gold.Chemscore.Lipo>
26.1929

> <Gold.Chemscore.Internal_Hbond>
0.0000

> <Gold.Chemscore.DEClash>
0.3144

> <Gold.Chemscore.DEInternal>
1.3226

> <Gold.Chemscore.Rot>
4.0600

> <Gold.Chemscore.Internal.Correction>
   9.000000E+99

> <Gold.Chemscore.Hbonds>
donor molecule, donor type, donor heavy atom, donor atom, acceptor molecule, acceptor atom, score
      L1  H    10    27       P1  8028  0.98
      L1  H    12    28       P1  8028  0.97
      L1  H    14    29       P1  7957  0.99
      P1  H  7989  7998       L1     7  0.30
      P1  H  8011  8017       L1    12  0.23
      P1  H 10752 10765       L1    17  0.30

> <Gold.Chemscore.Hbond.Weighted>
-14.8314

> <Gold.Chemscore.Metal.Weighted>
-0.0000

> <Gold.Chemscore.Lipo.Weighted>
-3.0646

> <Gold.Chemscore.Internal_Hbond.Weighted>
0.0000

> <Gold.Chemscore.DEClash.Weighted>
0.3144

> <Gold.Chemscore.DEInternal.Weighted>
1.3226

> <Gold.Chemscore.Rot.Weighted>
10.3936

> <Gold.Chemscore.Internal.Correction.Weighted>
   9.000000E+99

> <Gold.Protein.RotatedTorsions>
[ 6907 6896 6895 6894 ] final   16.93 input  -60.11 | X-H torsion
[ 7974 7965 7964 7962 ] final -138.91 input  175.53 | X-H torsion
[ 8008 7997 7996 7995 ] final -111.94 input   59.86 | X-H torsion
[ 10167 10162 10161 10158 ] final  166.22 input  -65.29 | X-H torsion
[ 10718 10713 10712 10709 ] final -130.50 input   66.30 | X-H torsion
[ 10763 10752 10751 10750 ] final -158.78 input  -60.55 | X-H torsion
[ 11005 11000 10999 10996 ] final   67.64 input  -57.11 | X-H torsion

> <Gold.Protein.ActiveResidues>
 VAL166  LYS551  ARG553  GLY616  TRP617  ASP618  TYR619  PRO620  LYS621  CYS622 
 ASP623  PHE694  ASN695  SER759  ASP760  ASP761  ALA762  ILE779  LEU786  VAL792 
 PHE793  MET794  SER795  GLU796  ALA797  LYS798  CYS799  TRP800  GLU811  SER814 

> <Gold.Protein.RotatedAtoms>
  151.8417  135.0588  160.0448 H   0  0  0  0  0  0  0  0  0  0  0  0  # atno 6907 bound_to 6896
  152.2804  133.5460  159.5502 H   0  0  0  0  0  0  0  0  0  0  0  0  # atno 6908 bound_to 6896
  150.7187  134.0488  159.3833 H   0  0  0  0  0  0  0  0  0  0  0  0  # atno 6909 bound_to 6896
  144.8720  140.6381  143.5261 H   0  0  0  0  0  0  0  0  0  0  0  0  # atno 7974 bound_to 7965
  154.9976  140.0394  157.2346 H   0  0  0  0  0  0  0  0  0  0  0  0  # atno 8008 bound_to 7997
  154.7572  140.2778  155.6220 H   0  0  0  0  0  0  0  0  0  0  0  0  # atno 8009 bound_to 7997
  156.2897  140.2635  156.2341 H   0  0  0  0  0  0  0  0  0  0  0  0  # atno 8010 bound_to 7997
  139.4920  144.4050  151.9366 H   0  0  0  0  0  0  0  0  0  0  0  0  # atno 10167 bound_to 10162
  156.2151  130.6943  151.0693 H   0  0  0  0  0  0  0  0  0  0  0  0  # atno 10718 bound_to 10713
  154.7528  135.3097  154.8525 H   0  0  0  0  0  0  0  0  0  0  0  0  # atno 10763 bound_to 10752
  153.9307  135.6785  153.4750 H   0  0  0  0  0  0  0  0  0  0  0  0  # atno 10764 bound_to 10752
  153.1125  135.4860  154.8988 H   0  0  0  0  0  0  0  0  0  0  0  0  # atno 10765 bound_to 10752
  139.9759  134.6824  156.0356 H   0  0  0  0  0  0  0  0  0  0  0  0  # atno 11005 bound_to 11000
  145.4113  139.1580  143.4124 LP  0  0  0  0  0  0  0  0  0  0  0  0  # atno 17320 bound_to 7965
  146.2937  140.4217  142.8730 LP  0  0  0  0  0  0  0  0  0  0  0  0  # atno 17321 bound_to 7965
  140.3490  144.3112  150.5953 LP  0  0  0  0  0  0  0  0  0  0  0  0  # atno 17342 bound_to 10162
  140.5501  143.2208  151.7940 LP  0  0  0  0  0  0  0  0  0  0  0  0  # atno 17343 bound_to 10162
  157.7059  131.0756  150.6669 LP  0  0  0  0  0  0  0  0  0  0  0  0  # atno 17370 bound_to 10713
  156.6730  130.4545  149.5651 LP  0  0  0  0  0  0  0  0  0  0  0  0  # atno 17371 bound_to 10713
  141.1436  133.6560  156.3800 LP  0  0  0  0  0  0  0  0  0  0  0  0  # atno 17394 bound_to 11000
  140.5197  134.6316  157.5313 LP  0  0  0  0  0  0  0  0  0  0  0  0  # atno 17395 bound_to 11000

$$$$
