AV-unprocessed.smi:3057|AV-procd|sdf|11661|dock10
  -GOLD-   2272017 63D 1   1.00000     0.00000
 Structure written by MMmdl.
 40 42  0  0  0  0  0  0  0  0  1 V2000
  148.8930  140.0550  157.0956 C   0  0  0  0  0  0  0  0  0  0  0  0
  149.6574  140.4709  155.8241 C   0  0  1  0  0  0  0  0  0  0  0  0
  150.4670  141.7609  156.0499 C   0  0  0  0  0  0  0  0  0  0  0  0
  151.8784  141.2724  156.4073 C   0  0  0  0  0  0  0  0  0  0  0  0
  151.9092  139.8835  155.7905 C   0  0  0  0  0  0  0  0  0  0  0  0
  152.9488  139.2645  155.5697 O   0  0  0  0  0  0  0  0  0  0  0  0
  150.6686  139.4917  155.4734 N   0  0  0  0  0  0  0  0  0  0  0  0
  150.2966  138.4131  154.5546 C   0  0  1  0  0  0  0  0  0  0  0  0
  150.3123  137.0567  155.2797 C   0  0  0  0  0  0  0  0  0  0  0  0
  150.7162  136.9638  156.4396 O   0  0  0  0  0  0  0  0  0  0  0  0
  149.8554  136.0103  154.5775 N   0  0  0  0  0  0  0  0  0  0  0  0
  149.7912  134.6422  155.0741 C   0  0  0  0  0  0  0  0  0  0  0  0
  149.0352  133.7454  154.0838 C   0  0  0  0  0  0  0  0  0  0  0  0
  149.3735  132.2770  154.2596 C   0  0  0  0  0  0  0  0  0  0  0  0
  150.3676  131.8713  155.1756 C   0  0  0  0  0  0  0  0  0  0  0  0
  150.6442  130.4959  155.2998 C   0  0  0  0  0  0  0  0  0  0  0  0
  149.9211  129.5842  154.5068 C   0  0  0  0  0  0  0  0  0  0  0  0
  148.9496  130.0905  153.6205 C   0  0  0  0  0  0  0  0  0  0  0  0
  148.6759  131.4072  153.4946 N   0  0  0  0  0  0  0  0  0  0  0  0
  148.8645  138.7342  154.0582 C   0  0  0  0  0  0  0  0  0  0  0  0
  148.5750  140.4955  154.3853 S   0  0  0  0  0  0  0  0  0  0  0  0
  149.5678  139.9223  157.9420 H   0  0  0  0  0  0  0  0  0  0  0  0
  148.3527  139.1190  156.9559 H   0  0  0  0  0  0  0  0  0  0  0  0
  148.1600  140.8126  157.3739 H   0  0  0  0  0  0  0  0  0  0  0  0
  150.5096  142.3531  155.1344 H   0  0  0  0  0  0  0  0  0  0  0  0
  150.0402  142.3960  156.8273 H   0  0  0  0  0  0  0  0  0  0  0  0
  152.6573  141.9182  156.0009 H   0  0  0  0  0  0  0  0  0  0  0  0
  152.0123  141.1903  157.4864 H   0  0  0  0  0  0  0  0  0  0  0  0
  150.9895  138.4106  153.7108 H   0  0  0  0  0  0  0  0  0  0  0  0
  149.5423  136.1708  153.6310 H   0  0  0  0  0  0  0  0  0  0  0  0
  150.7989  134.2529  155.2294 H   0  0  0  0  0  0  0  0  0  0  0  0
  149.2914  134.6410  156.0436 H   0  0  0  0  0  0  0  0  0  0  0  0
  147.9594  133.8815  154.2036 H   0  0  0  0  0  0  0  0  0  0  0  0
  149.2693  134.0404  153.0597 H   0  0  0  0  0  0  0  0  0  0  0  0
  150.9062  132.5949  155.7699 H   0  0  0  0  0  0  0  0  0  0  0  0
  151.3972  130.1469  155.9908 H   0  0  0  0  0  0  0  0  0  0  0  0
  150.1064  128.5226  154.5760 H   0  0  0  0  0  0  0  0  0  0  0  0
  148.3769  129.4201  152.9968 H   0  0  0  0  0  0  0  0  0  0  0  0
  148.7392  138.5138  152.9982 H   0  0  0  0  0  0  0  0  0  0  0  0
  148.1040  138.1717  154.6024 H   0  0  0  0  0  0  0  0  0  0  0  0
  1  2  1  0  0  0  0
  1 22  1  0  0  0  0
  1 23  1  0  0  0  0
  1 24  1  0  0  0  0
  2  7  1  0  0  0  0
  2 21  1  0  0  0  0
  2  3  1  0  0  0  0
  3  4  1  0  0  0  0
  3 25  1  0  0  0  0
  3 26  1  0  0  0  0
  4  5  1  0  0  0  0
  4 27  1  0  0  0  0
  4 28  1  0  0  0  0
  5  6  2  0  0  0  0
  5  7  1  0  0  0  0
  7  8  1  0  0  0  0
  8  9  1  0  0  0  0
  8 20  1  0  0  0  0
  8 29  1  0  0  0  0
  9 10  2  0  0  0  0
  9 11  1  0  0  0  0
 11 12  1  0  0  0  0
 11 30  1  0  0  0  0
 12 13  1  0  0  0  0
 12 31  1  0  0  0  0
 12 32  1  0  0  0  0
 13 14  1  0  0  0  0
 13 33  1  0  0  0  0
 13 34  1  0  0  0  0
 14 19  1  0  0  0  0
 14 15  2  0  0  0  0
 15 16  1  0  0  0  0
 15 35  1  0  0  0  0
 16 17  2  0  0  0  0
 16 36  1  0  0  0  0
 17 18  1  0  0  0  0
 17 37  1  0  0  0  0
 18 19  2  0  0  0  0
 18 38  1  0  0  0  0
 20 21  1  0  0  0  0
 20 39  1  0  0  0  0
 20 40  1  0  0  0  0
M  END
> <s_m_source_file>
AV-unprocessed.smi

> <i_m_source_file_index>
3057

> <i_lp_mmshare_version>
43012

> <i_f3d_flags>
0

> <s_epik_input>
W0NIMl0xW0NIMl1DKD1PKU4oW0NAQF0xMltDSDNdKVtDQEhdKFtDSDJdUzIpQyg9TylbTkhdW0NIMl1bQ0gyXWMzW2NIXVtjSF1bY0hdW2NIXW4z

> <s_epik_cmdline>
J2VwaWtfcHl0aG9uJywgJy1waCcsICc3LjAnLCAnLXRuJywgJzgnLCAnLW1hJywgJzIwMCcsICctbWV0YWxfYmluZGluZycsICctaW1hZScsICc8aW5maWxlLm1hZT4nLCAnLW9tYWUnLCAnPG91dGZpbGUubWFlPic=

> <r_epik_Ionization_Penalty>
0.0249631

> <r_epik_Ionization_Penalty_Charging>
0

> <r_epik_Ionization_Penalty_Neutral>
0.0249631

> <r_epik_State_Penalty>
0.0202943

> <r_epik_Charging_Adjusted_Penalty>
0.0202943

> <i_epik_Tot_Q>
0

> <i_epik_Tot_abs_Q>
0

> <r_epik_Metal_State_Penalty>
0.0194661

> <b_epik_Metal_Only>
0

> <s_lp_Force_Field>
OPLS_2005

> <r_lp_Energy>
25.4312

> <b_lp_Chiralities_Consistent>
1

> <s_lp_Variant>
AV-unprocessed.smi:3057-1

> <Gold.Version>
5.8.1

> <Gold.Id.Protein>
6NUR|6NUR_protein|mol2

> <Gold.PLP.Fitness>
41.2109

> <Gold.PLP.PLP>
-35.6351

> <Gold.PLP.part.hbond>
-2.0000

> <Gold.PLP.part.metal>
0.0000

> <Gold.PLP.part.buried>
-5.9088

> <Gold.PLP.part.nonpolar>
-29.3154

> <Gold.PLP.part.repulsive>
0.1432

> <Gold.PLP.ligand.clash>
0.0000

> <Gold.PLP.ligand.torsion>
0.2180

> <Gold.PLP.Chemscore.Hbond>
2.0000

> <Gold.PLP.Chemscore.CHOScore>
0.0000

> <Gold.PLP.Chemscore.Metal>
0.0000

> <Gold.Chemscore.Hbonds>
donor molecule, donor type, donor heavy atom, donor atom, acceptor molecule, acceptor atom, score
      L1  H    11    30       P1  7948  1.00
      P1  H  7997  8009       L1     6  1.00

> <Gold.PLP.Chemscore.Internal.Correction>
0.0118

> <Gold.Rescore>
     Score         DG    S(hbond)    S(metal)    S(lipo)     H(rot)  DE(clash)    DE(int)     intcor
     15.13     -15.82       1.50        0.00      79.22       1.53       0.19       0.50       ----

> <Gold.Chemscore.Fitness>
15.1299

> <Gold.Chemscore.DG>
-15.8203

> <Gold.Chemscore.ZeroCoef>
-5.4800

> <Gold.Chemscore.Hbond>
1.4966

> <Gold.Chemscore.Metal>
0.0000

> <Gold.Chemscore.Lipo>
79.2181

> <Gold.Chemscore.Internal_Hbond>
0.0000

> <Gold.Chemscore.DEClash>
0.1868

> <Gold.Chemscore.DEInternal>
0.5036

> <Gold.Chemscore.Rot>
1.5339

> <Gold.Chemscore.Internal.Correction>
   9.000000E+99

> <Gold.Chemscore.Hbonds>
donor molecule, donor type, donor heavy atom, donor atom, acceptor molecule, acceptor atom, score
      L1  H    11    30       P1  7948  0.50
      P1  H  7997  8009       L1     6  0.85

> <Gold.Chemscore.Hbond.Weighted>
-4.9985

> <Gold.Chemscore.Metal.Weighted>
-0.0000

> <Gold.Chemscore.Lipo.Weighted>
-9.2685

> <Gold.Chemscore.Internal_Hbond.Weighted>
0.0000

> <Gold.Chemscore.DEClash.Weighted>
0.1868

> <Gold.Chemscore.DEInternal.Weighted>
0.5036

> <Gold.Chemscore.Rot.Weighted>
3.9267

> <Gold.Chemscore.Internal.Correction.Weighted>
   9.000000E+99

> <Gold.Protein.RotatedTorsions>
[ 6907 6896 6895 6894 ] final -147.07 input  -60.11 | X-H torsion
[ 7974 7965 7964 7962 ] final -106.26 input  175.53 | X-H torsion
[ 8008 7997 7996 7995 ] final -146.23 input   59.86 | X-H torsion
[ 10167 10162 10161 10158 ] final -145.98 input  -65.29 | X-H torsion
[ 10718 10713 10712 10709 ] final -128.73 input   66.30 | X-H torsion
[ 10763 10752 10751 10750 ] final  -71.32 input  -60.55 | X-H torsion
[ 11005 11000 10999 10996 ] final  110.46 input  -57.11 | X-H torsion

> <Gold.Protein.ActiveResidues>
 VAL166  LYS551  ARG553  GLY616  TRP617  ASP618  TYR619  PRO620  LYS621  CYS622 
 ASP623  PHE694  ASN695  SER759  ASP760  ASP761  ALA762  ILE779  LEU786  VAL792 
 PHE793  MET794  SER795  GLU796  ALA797  LYS798  CYS799  TRP800  GLU811  SER814 

> <Gold.Protein.RotatedAtoms>
  151.1505  133.4911  159.2595 H   0  0  0  0  0  0  0  0  0  0  0  0  # atno 6907 bound_to 6896
  151.1559  135.0249  159.8699 H   0  0  0  0  0  0  0  0  0  0  0  0  # atno 6908 bound_to 6896
  152.5463  134.1384  159.8522 H   0  0  0  0  0  0  0  0  0  0  0  0  # atno 6909 bound_to 6896
  145.2201  140.9131  143.3264 H   0  0  0  0  0  0  0  0  0  0  0  0  # atno 7974 bound_to 7965
  155.5561  140.0621  157.2839 H   0  0  0  0  0  0  0  0  0  0  0  0  # atno 8008 bound_to 7997
  154.4405  140.1894  156.0780 H   0  0  0  0  0  0  0  0  0  0  0  0  # atno 8009 bound_to 7997
  156.0481  140.3287  155.7323 H   0  0  0  0  0  0  0  0  0  0  0  0  # atno 8010 bound_to 7997
  139.7755  143.8175  152.2631 H   0  0  0  0  0  0  0  0  0  0  0  0  # atno 10167 bound_to 10162
  156.1979  130.6838  151.0504 H   0  0  0  0  0  0  0  0  0  0  0  0  # atno 10718 bound_to 10713
  154.4301  135.5966  153.6064 H   0  0  0  0  0  0  0  0  0  0  0  0  # atno 10763 bound_to 10752
  152.9798  135.5973  154.3849 H   0  0  0  0  0  0  0  0  0  0  0  0  # atno 10764 bound_to 10752
  154.3686  135.2841  155.2258 H   0  0  0  0  0  0  0  0  0  0  0  0  # atno 10765 bound_to 10752
  139.8882  134.9484  156.6282 H   0  0  0  0  0  0  0  0  0  0  0  0  # atno 11005 bound_to 11000
  144.9773  139.3818  143.6279 LP  0  0  0  0  0  0  0  0  0  0  0  0  # atno 17320 bound_to 7965
  146.3378  139.8898  142.8811 LP  0  0  0  0  0  0  0  0  0  0  0  0  # atno 17321 bound_to 7965
  139.8223  144.7290  150.9557 LP  0  0  0  0  0  0  0  0  0  0  0  0  # atno 17342 bound_to 10162
  140.7816  143.4148  151.0935 LP  0  0  0  0  0  0  0  0  0  0  0  0  # atno 17343 bound_to 10162
  157.6968  131.0791  150.6943 LP  0  0  0  0  0  0  0  0  0  0  0  0  # atno 17370 bound_to 10713
  156.7000  130.4620  149.5575 LP  0  0  0  0  0  0  0  0  0  0  0  0  # atno 17371 bound_to 10713
  140.7686  133.8757  155.8474 LP  0  0  0  0  0  0  0  0  0  0  0  0  # atno 17394 bound_to 11000
  140.9861  134.1341  157.4451 LP  0  0  0  0  0  0  0  0  0  0  0  0  # atno 17395 bound_to 11000

$$$$
