AV-unprocessed.smi:1933|AV-procd|sdf|7820|dock3
  -GOLD-   22720 9563D 1   1.00000     0.00000
 Structure written by MMmdl.
 48 50  0  0  0  0  0  0  0  0  2 V2000
  142.8925  135.3112  152.3716 O   0  0  0  0  0  0  0  0  0  0  0  0
  143.4155  136.4256  152.3868 C   0  0  0  0  0  0  0  0  0  0  0  0
  144.6820  136.6563  152.0105 N   0  0  0  0  0  0  0  0  0  0  0  0
  145.6222  135.6505  151.5248 C   0  0  0  0  0  0  0  0  0  0  0  0
  145.7750  134.4367  152.4844 C   0  0  1  0  0  0  0  0  0  0  0  0
  145.7650  133.0514  151.7737 C   0  0  2  0  0  0  0  0  0  0  0  0
  146.6353  132.9313  150.5205 C   0  0  0  0  0  0  0  0  0  0  0  0
  145.8292  132.0597  149.5530 C   0  0  0  0  0  0  0  0  0  0  0  0
  144.7051  131.6189  150.2967 O   0  0  0  0  0  0  0  0  0  0  0  0
  144.3944  132.6402  151.2249 C   0  0  0  0  0  0  0  0  0  0  0  0
  146.9984  134.5599  153.3348 N   0  3  0  0  0  0  0  0  0  0  0  0
  146.9775  135.6311  154.3633 C   0  0  0  0  0  0  0  0  0  0  0  0
  148.3665  135.7594  155.0094 C   0  0  0  0  0  0  0  0  0  0  0  0
  148.7429  134.5092  155.5755 O   0  0  0  0  0  0  0  0  0  0  0  0
  148.8349  133.4811  154.5959 C   0  0  0  0  0  0  0  0  0  0  0  0
  147.4673  133.2806  153.9207 C   0  0  0  0  0  0  0  0  0  0  0  0
  142.8208  137.5567  152.8037 N   0  0  0  0  0  0  0  0  0  0  0  0
  141.5391  137.7023  153.3956 C   0  0  0  0  0  0  0  0  0  0  0  0
  140.7442  136.5632  153.6832 C   0  0  0  0  0  0  0  0  0  0  0  0
  139.4684  136.7381  154.2530 C   0  0  0  0  0  0  0  0  0  0  0  0
  139.0130  138.0433  154.5094 C   0  0  0  0  0  0  0  0  0  0  0  0
  139.8570  139.1176  154.1741 C   0  0  0  0  0  0  0  0  0  0  0  0
  141.0803  138.9540  153.6271 N   0  0  0  0  0  0  0  0  0  0  0  0
  145.0216  137.6058  152.0615 H   0  0  0  0  0  0  0  0  0  0  0  0
  145.3347  135.3111  150.5291 H   0  0  0  0  0  0  0  0  0  0  0  0
  146.5781  136.1589  151.4037 H   0  0  0  0  0  0  0  0  0  0  0  0
  144.9236  134.4414  153.1669 H   0  0  0  0  0  0  0  0  0  0  0  0
  146.0859  132.2799  152.4753 H   0  0  0  0  0  0  0  0  0  0  0  0
  146.8345  133.9013  150.0637 H   0  0  0  0  0  0  0  0  0  0  0  0
  147.5940  132.4673  150.7516 H   0  0  0  0  0  0  0  0  0  0  0  0
  145.4893  132.6473  148.6989 H   0  0  0  0  0  0  0  0  0  0  0  0
  146.4028  131.2125  149.1761 H   0  0  0  0  0  0  0  0  0  0  0  0
  143.7209  132.2723  151.9996 H   0  0  0  0  0  0  0  0  0  0  0  0
  143.9063  133.4688  150.7082 H   0  0  0  0  0  0  0  0  0  0  0  0
  146.6921  136.5842  153.9189 H   0  0  0  0  0  0  0  0  0  0  0  0
  146.2443  135.4013  155.1371 H   0  0  0  0  0  0  0  0  0  0  0  0
  149.1092  136.0815  154.2777 H   0  0  0  0  0  0  0  0  0  0  0  0
  148.3472  136.5127  155.7971 H   0  0  0  0  0  0  0  0  0  0  0  0
  149.5990  133.7333  153.8589 H   0  0  0  0  0  0  0  0  0  0  0  0
  149.1531  132.5584  155.0813 H   0  0  0  0  0  0  0  0  0  0  0  0
  146.7467  132.9135  154.6521 H   0  0  0  0  0  0  0  0  0  0  0  0
  147.5535  132.5211  153.1428 H   0  0  0  0  0  0  0  0  0  0  0  0
  143.4055  138.3787  152.8379 H   0  0  0  0  0  0  0  0  0  0  0  0
  141.0877  135.5629  153.4667 H   0  0  0  0  0  0  0  0  0  0  0  0
  138.8486  135.8844  154.4839 H   0  0  0  0  0  0  0  0  0  0  0  0
  138.0401  138.2168  154.9451 H   0  0  0  0  0  0  0  0  0  0  0  0
  139.5421  140.1360  154.3477 H   0  0  0  0  0  0  0  0  0  0  0  0
  147.7280  134.8253  152.6885 H   0  0  0  0  0  0  0  0  0  0  0  0
  1  2  2  0  0  0  0
  2  3  1  0  0  0  0
  2 17  1  0  0  0  0
  3  4  1  0  0  0  0
  3 24  1  0  0  0  0
  4  5  1  0  0  0  0
  4 25  1  0  0  0  0
  4 26  1  0  0  0  0
  5  6  1  0  0  0  0
  5 11  1  0  0  0  0
  5 27  1  0  0  0  0
  6 10  1  0  0  0  0
  6  7  1  0  0  0  0
  6 28  1  0  0  0  0
  7  8  1  0  0  0  0
  7 29  1  0  0  0  0
  7 30  1  0  0  0  0
  8  9  1  0  0  0  0
  8 31  1  0  0  0  0
  8 32  1  0  0  0  0
  9 10  1  0  0  0  0
 10 33  1  0  0  0  0
 10 34  1  0  0  0  0
 11 16  1  0  0  0  0
 11 12  1  0  0  0  0
 11 48  1  0  0  0  0
 12 13  1  0  0  0  0
 12 35  1  0  0  0  0
 12 36  1  0  0  0  0
 13 14  1  0  0  0  0
 13 37  1  0  0  0  0
 13 38  1  0  0  0  0
 14 15  1  0  0  0  0
 15 16  1  0  0  0  0
 15 39  1  0  0  0  0
 15 40  1  0  0  0  0
 16 41  1  0  0  0  0
 16 42  1  0  0  0  0
 17 18  1  0  0  0  0
 17 43  1  0  0  0  0
 18 23  1  0  0  0  0
 18 19  2  0  0  0  0
 19 20  1  0  0  0  0
 19 44  1  0  0  0  0
 20 21  2  0  0  0  0
 20 45  1  0  0  0  0
 21 22  1  0  0  0  0
 21 46  1  0  0  0  0
 22 23  2  0  0  0  0
 22 47  1  0  0  0  0
M  CHG  1  11   1
M  END
> <s_m_source_file>
AV-unprocessed.smi

> <i_m_source_file_index>
1933

> <i_lp_mmshare_version>
43012

> <i_f3d_flags>
0

> <s_epik_input>
bjFbY0hdW2NIXVtjSF1bY0hdYzFbTkhdQyg9TylbTkhdW0NIMl1bQ0BIXShbQ0BASF0yW0NIMl1bQ0gyXU9bQ0gyXTIpTjNbQ0gyXVtDSDJdT1tDSDJdW0NIMl0z

> <s_epik_cmdline>
J2VwaWtfcHl0aG9uJywgJy1waCcsICc3LjAnLCAnLXRuJywgJzgnLCAnLW1hJywgJzIwMCcsICctbWV0YWxfYmluZGluZycsICctaW1hZScsICc8aW5maWxlLm1hZT4nLCAnLW9tYWUnLCAnPG91dGZpbGUubWFlPic=

> <r_epik_Ionization_Penalty>
0.983294

> <r_epik_Ionization_Penalty_Charging>
0.98326

> <r_epik_Ionization_Penalty_Neutral>
3.39688e-05

> <r_epik_State_Penalty>
1.0303

> <r_epik_Charging_Adjusted_Penalty>
2.01356

> <i_epik_Tot_Q>
1

> <i_epik_Tot_abs_Q>
1

> <r_epik_Metal_State_Penalty>
1.0303

> <b_epik_Metal_Only>
0

> <s_lp_Force_Field>
OPLS_2005

> <r_lp_Energy>
43.6882

> <b_lp_Chiralities_Consistent>
1

> <s_lp_Variant>
AV-unprocessed.smi:1933-6

> <Gold.Version>
5.8.1

> <Gold.Id.Protein>
6NUR|6NUR_protein|mol2

> <Gold.PLP.Fitness>
42.8072

> <Gold.PLP.PLP>
-35.9894

> <Gold.PLP.part.hbond>
-3.4187

> <Gold.PLP.part.metal>
0.0000

> <Gold.PLP.part.buried>
-5.8677

> <Gold.PLP.part.nonpolar>
-27.9105

> <Gold.PLP.part.repulsive>
1.1725

> <Gold.PLP.ligand.clash>
0.0178

> <Gold.PLP.ligand.torsion>
1.2118

> <Gold.PLP.Chemscore.Hbond>
3.0000

> <Gold.PLP.Chemscore.CHOScore>
0.0000

> <Gold.PLP.Chemscore.Metal>
0.0000

> <Gold.Chemscore.Hbonds>
donor molecule, donor type, donor heavy atom, donor atom, acceptor molecule, acceptor atom, score
      L1  H    11    48       P1  7948  2.00
      L1  H    17    43       P1 10175  0.80

> <Gold.PLP.Chemscore.Internal.Correction>
0.2592

> <Gold.Rescore>
     Score         DG    S(hbond)    S(metal)    S(lipo)     H(rot)  DE(clash)    DE(int)     intcor
     13.20     -16.70       1.99        0.00      77.65       1.77       0.13       3.37       ----

> <Gold.Chemscore.Fitness>
13.2037

> <Gold.Chemscore.DG>
-16.7025

> <Gold.Chemscore.ZeroCoef>
-5.4800

> <Gold.Chemscore.Hbond>
1.9944

> <Gold.Chemscore.Metal>
0.0000

> <Gold.Chemscore.Lipo>
77.6478

> <Gold.Chemscore.Internal_Hbond>
0.0000

> <Gold.Chemscore.DEClash>
0.1290

> <Gold.Chemscore.DEInternal>
3.3697

> <Gold.Chemscore.Rot>
1.7671

> <Gold.Chemscore.Internal.Correction>
   9.000000E+99

> <Gold.Chemscore.Hbonds>
donor molecule, donor type, donor heavy atom, donor atom, acceptor molecule, acceptor atom, score
      L1  H    11    48       P1  7948  0.87
      L1  H    17    43       P1 10175  0.74

> <Gold.Chemscore.Hbond.Weighted>
-6.6614

> <Gold.Chemscore.Metal.Weighted>
-0.0000

> <Gold.Chemscore.Lipo.Weighted>
-9.0848

> <Gold.Chemscore.Internal_Hbond.Weighted>
0.0000

> <Gold.Chemscore.DEClash.Weighted>
0.1290

> <Gold.Chemscore.DEInternal.Weighted>
3.3697

> <Gold.Chemscore.Rot.Weighted>
4.5238

> <Gold.Chemscore.Internal.Correction.Weighted>
   9.000000E+99

> <Gold.Protein.RotatedTorsions>
[ 6907 6896 6895 6894 ] final  102.44 input  -60.11 | X-H torsion
[ 7974 7965 7964 7962 ] final  -14.91 input  175.53 | X-H torsion
[ 8008 7997 7996 7995 ] final   48.65 input   59.86 | X-H torsion
[ 10167 10162 10161 10158 ] final  157.69 input  -65.29 | X-H torsion
[ 10718 10713 10712 10709 ] final  -16.18 input   66.30 | X-H torsion
[ 10763 10752 10751 10750 ] final  169.53 input  -60.55 | X-H torsion
[ 11005 11000 10999 10996 ] final -171.58 input  -57.11 | X-H torsion

> <Gold.Protein.ActiveResidues>
 VAL166  LYS551  ARG553  GLY616  TRP617  ASP618  TYR619  PRO620  LYS621  CYS622 
 ASP623  PHE694  ASN695  SER759  ASP760  ASP761  ALA762  ILE779  LEU786  VAL792 
 PHE793  MET794  SER795  GLU796  ALA797  LYS798  CYS799  TRP800  GLU811  SER814 

> <Gold.Protein.RotatedAtoms>
  152.5323  133.9975  159.7879 H   0  0  0  0  0  0  0  0  0  0  0  0  # atno 6907 bound_to 6896
  151.0200  133.5878  159.2679 H   0  0  0  0  0  0  0  0  0  0  0  0  # atno 6908 bound_to 6896
  151.2921  135.0751  159.9261 H   0  0  0  0  0  0  0  0  0  0  0  0  # atno 6909 bound_to 6896
  146.2054  140.3417  142.8409 H   0  0  0  0  0  0  0  0  0  0  0  0  # atno 7974 bound_to 7965
  155.3892  140.3432  155.4250 H   0  0  0  0  0  0  0  0  0  0  0  0  # atno 8008 bound_to 7997
  156.1567  140.1588  156.8714 H   0  0  0  0  0  0  0  0  0  0  0  0  # atno 8009 bound_to 7997
  154.5101  140.0792  156.7955 H   0  0  0  0  0  0  0  0  0  0  0  0  # atno 8010 bound_to 7997
  139.4824  144.4894  151.8331 H   0  0  0  0  0  0  0  0  0  0  0  0  # atno 10167 bound_to 10162
  156.5912  130.4799  149.6278 H   0  0  0  0  0  0  0  0  0  0  0  0  # atno 10718 bound_to 10713
  154.3845  135.2753  155.2192 H   0  0  0  0  0  0  0  0  0  0  0  0  # atno 10763 bound_to 10752
  154.4284  135.5983  153.6057 H   0  0  0  0  0  0  0  0  0  0  0  0  # atno 10764 bound_to 10752
  152.9833  135.5989  154.4092 H   0  0  0  0  0  0  0  0  0  0  0  0  # atno 10765 bound_to 10752
  140.5066  134.5842  157.5005 H   0  0  0  0  0  0  0  0  0  0  0  0  # atno 11005 bound_to 11000
  144.8781  140.7363  143.6004 LP  0  0  0  0  0  0  0  0  0  0  0  0  # atno 17320 bound_to 7965
  145.3337  139.1752  143.4523 LP  0  0  0  0  0  0  0  0  0  0  0  0  # atno 17321 bound_to 7965
  140.4376  144.2030  150.5890 LP  0  0  0  0  0  0  0  0  0  0  0  0  # atno 17342 bound_to 10162
  140.4716  143.2411  151.9081 LP  0  0  0  0  0  0  0  0  0  0  0  0  # atno 17343 bound_to 10162
  156.2548  130.6928  151.1678 LP  0  0  0  0  0  0  0  0  0  0  0  0  # atno 17370 bound_to 10713
  157.7303  131.0617  150.5733 LP  0  0  0  0  0  0  0  0  0  0  0  0  # atno 17371 bound_to 10713
  139.9683  134.7336  156.0094 LP  0  0  0  0  0  0  0  0  0  0  0  0  # atno 17394 bound_to 11000
  141.1408  133.6565  156.3723 LP  0  0  0  0  0  0  0  0  0  0  0  0  # atno 17395 bound_to 11000

$$$$
