AV-unprocessed.smi:2282|AV-procd|sdf|9195|dock10
  -GOLD-   2272012413D 1   1.00000     0.00000
 Structure written by MMmdl.
 32 33  0  0  0  0  0  0  0  0  1 V2000
  151.3122  135.2709  156.5839 C   0  0  0  0  0  0  0  0  0  0  0  0
  151.2775  136.6744  156.0084 C   0  0  0  0  0  0  0  0  0  0  0  0
  151.3559  136.7566  154.6622 N   0  0  0  0  0  0  0  0  0  0  0  0
  151.3373  137.9818  154.0992 C   0  0  0  0  0  0  0  0  0  0  0  0
  151.2343  139.1739  154.8409 C   0  0  0  0  0  0  0  0  0  0  0  0
  151.1345  139.0912  156.2504 C   0  0  0  0  0  0  0  0  0  0  0  0
  151.0483  140.2319  157.0960 N   0  0  0  0  0  0  0  0  0  0  0  0
  150.7906  141.5106  156.7657 C   0  0  0  0  0  0  0  0  0  0  0  0
  150.5755  141.9049  155.6191 O   0  0  0  0  0  0  0  0  0  0  0  0
  150.7698  142.5011  157.9420 C   0  0  2  0  0  0  0  0  0  0  0  0
  151.6179  143.7702  157.7191 C   0  0  0  0  0  0  0  0  0  0  0  0
  152.6632  143.7236  158.8216 C   0  0  0  0  0  0  0  0  0  0  0  0
  152.7009  142.2474  159.2012 C   0  0  1  0  0  0  0  0  0  0  0  0
  153.2202  141.9756  160.6168 C   0  0  0  0  0  0  0  0  0  0  0  0
  151.3377  141.8659  159.0858 O   0  0  0  0  0  0  0  0  0  0  0  0
  151.1708  137.8090  156.8470 C   0  0  0  0  0  0  0  0  0  0  0  0
  151.0793  137.6295  158.5676 Cl  0  0  0  0  0  0  0  0  0  0  0  0
  150.3980  135.0674  157.1421 H   0  0  0  0  0  0  0  0  0  0  0  0
  152.1609  135.1586  157.2588 H   0  0  0  0  0  0  0  0  0  0  0  0
  151.4034  134.5176  155.8002 H   0  0  0  0  0  0  0  0  0  0  0  0
  151.4136  138.0143  153.0226 H   0  0  0  0  0  0  0  0  0  0  0  0
  151.2481  140.1183  154.3193 H   0  0  0  0  0  0  0  0  0  0  0  0
  151.1225  140.0405  158.0847 H   0  0  0  0  0  0  0  0  0  0  0  0
  149.7392  142.7728  158.1762 H   0  0  0  0  0  0  0  0  0  0  0  0
  152.0998  143.7849  156.7406 H   0  0  0  0  0  0  0  0  0  0  0  0
  151.0138  144.6754  157.7899 H   0  0  0  0  0  0  0  0  0  0  0  0
  153.6344  144.1045  158.5045 H   0  0  0  0  0  0  0  0  0  0  0  0
  152.3261  144.3219  159.6691 H   0  0  0  0  0  0  0  0  0  0  0  0
  153.2921  141.6893  158.4734 H   0  0  0  0  0  0  0  0  0  0  0  0
  154.2552  142.3017  160.7222 H   0  0  0  0  0  0  0  0  0  0  0  0
  153.1810  140.9105  160.8465 H   0  0  0  0  0  0  0  0  0  0  0  0
  152.6248  142.4996  161.3649 H   0  0  0  0  0  0  0  0  0  0  0  0
  1  2  1  0  0  0  0
  1 18  1  0  0  0  0
  1 19  1  0  0  0  0
  1 20  1  0  0  0  0
  2 16  1  0  0  0  0
  2  3  2  0  0  0  0
  3  4  1  0  0  0  0
  4  5  2  0  0  0  0
  4 21  1  0  0  0  0
  5  6  1  0  0  0  0
  5 22  1  0  0  0  0
  6  7  1  0  0  0  0
  6 16  2  0  0  0  0
  7  8  1  0  0  0  0
  7 23  1  0  0  0  0
  8  9  2  0  0  0  0
  8 10  1  0  0  0  0
 10 15  1  0  0  0  0
 10 11  1  0  0  0  0
 10 24  1  0  0  0  0
 11 12  1  0  0  0  0
 11 25  1  0  0  0  0
 11 26  1  0  0  0  0
 12 13  1  0  0  0  0
 12 27  1  0  0  0  0
 12 28  1  0  0  0  0
 13 14  1  0  0  0  0
 13 15  1  0  0  0  0
 13 29  1  0  0  0  0
 14 30  1  0  0  0  0
 14 31  1  0  0  0  0
 14 32  1  0  0  0  0
 16 17  1  0  0  0  0
M  END
> <s_m_source_file>
AV-unprocessed.smi

> <i_m_source_file_index>
2282

> <i_lp_mmshare_version>
43012

> <i_f3d_flags>
0

> <s_epik_input>
W0NIM11jMW5bY0hdW2NIXWMoYzFDbClbTkhdQyg9TylbQ0BASF0yW0NIMl1bQ0gyXVtDQEhdKE8yKVtDSDNd

> <s_epik_cmdline>
J2VwaWtfcHl0aG9uJywgJy1waCcsICc3LjAnLCAnLXRuJywgJzgnLCAnLW1hJywgJzIwMCcsICctbWV0YWxfYmluZGluZycsICctaW1hZScsICc8aW5maWxlLm1hZT4nLCAnLW9tYWUnLCAnPG91dGZpbGUubWFlPic=

> <r_epik_Ionization_Penalty>
0.00037231

> <r_epik_Ionization_Penalty_Charging>
0

> <r_epik_Ionization_Penalty_Neutral>
0.00037231

> <r_epik_State_Penalty>
0.000225113

> <r_epik_Charging_Adjusted_Penalty>
0.000225113

> <i_epik_Tot_Q>
0

> <i_epik_Tot_abs_Q>
0

> <r_epik_Metal_State_Penalty>
-0

> <b_epik_Metal_Only>
0

> <s_lp_Force_Field>
OPLS_2005

> <r_lp_Energy>
24.6828

> <b_lp_Chiralities_Consistent>
1

> <s_lp_Variant>
AV-unprocessed.smi:2282-1

> <Gold.Version>
5.8.1

> <Gold.Id.Protein>
6NUR|6NUR_protein|mol2

> <Gold.PLP.Fitness>
37.5099

> <Gold.PLP.PLP>
-32.1335

> <Gold.PLP.part.hbond>
-1.5179

> <Gold.PLP.part.metal>
0.0000

> <Gold.PLP.part.buried>
-3.4963

> <Gold.PLP.part.nonpolar>
-29.0736

> <Gold.PLP.part.repulsive>
0.3088

> <Gold.PLP.ligand.clash>
0.0000

> <Gold.PLP.ligand.torsion>
0.2902

> <Gold.PLP.Chemscore.Hbond>
1.0000

> <Gold.PLP.Chemscore.CHOScore>
0.9828

> <Gold.PLP.Chemscore.Metal>
0.0000

> <Gold.Chemscore.Hbonds>
donor molecule, donor type, donor heavy atom, donor atom, acceptor molecule, acceptor atom, score
      P1  H 10752 10765       L1     3  1.00
      L1  C     4    21       P1  7949  0.87

> <Gold.PLP.Chemscore.Internal.Correction>
0.0083

> <Gold.Rescore>
     Score         DG    S(hbond)    S(metal)    S(lipo)     H(rot)  DE(clash)    DE(int)     intcor
     15.17     -16.79       0.78        0.00      96.37       1.00       0.12       1.50       ----

> <Gold.Chemscore.Fitness>
15.1705

> <Gold.Chemscore.DG>
-16.7900

> <Gold.Chemscore.ZeroCoef>
-5.4800

> <Gold.Chemscore.Hbond>
0.7768

> <Gold.Chemscore.Metal>
0.0000

> <Gold.Chemscore.Lipo>
96.3716

> <Gold.Chemscore.Internal_Hbond>
0.0000

> <Gold.Chemscore.DEClash>
0.1191

> <Gold.Chemscore.DEInternal>
1.5004

> <Gold.Chemscore.Rot>
1.0000

> <Gold.Chemscore.Internal.Correction>
   9.000000E+99

> <Gold.Chemscore.Hbonds>
donor molecule, donor type, donor heavy atom, donor atom, acceptor molecule, acceptor atom, score
      P1  H 10752 10765       L1     3  0.27

> <Gold.Chemscore.Hbond.Weighted>
-2.5945

> <Gold.Chemscore.Metal.Weighted>
-0.0000

> <Gold.Chemscore.Lipo.Weighted>
-11.2755

> <Gold.Chemscore.Internal_Hbond.Weighted>
0.0000

> <Gold.Chemscore.DEClash.Weighted>
0.1191

> <Gold.Chemscore.DEInternal.Weighted>
1.5004

> <Gold.Chemscore.Rot.Weighted>
2.5600

> <Gold.Chemscore.Internal.Correction.Weighted>
   9.000000E+99

> <Gold.Protein.RotatedTorsions>
[ 6907 6896 6895 6894 ] final  148.17 input  -60.11 | X-H torsion
[ 7974 7965 7964 7962 ] final  -29.66 input  175.53 | X-H torsion
[ 8008 7997 7996 7995 ] final   31.63 input   59.86 | X-H torsion
[ 10167 10162 10161 10158 ] final  147.58 input  -65.29 | X-H torsion
[ 10718 10713 10712 10709 ] final -154.79 input   66.30 | X-H torsion
[ 10763 10752 10751 10750 ] final  162.32 input  -60.55 | X-H torsion
[ 11005 11000 10999 10996 ] final  174.91 input  -57.11 | X-H torsion

> <Gold.Protein.ActiveResidues>
 VAL166  LYS551  ARG553  GLY616  TRP617  ASP618  TYR619  PRO620  LYS621  CYS622 
 ASP623  PHE694  ASN695  SER759  ASP760  ASP761  ALA762  ILE779  LEU786  VAL792 
 PHE793  MET794  SER795  GLU796  ALA797  LYS798  CYS799  TRP800  GLU811  SER814 

> <Gold.Protein.RotatedAtoms>
  152.1450  133.4487  159.4785 H   0  0  0  0  0  0  0  0  0  0  0  0  # atno 6907 bound_to 6896
  150.6889  134.2259  159.4424 H   0  0  0  0  0  0  0  0  0  0  0  0  # atno 6908 bound_to 6896
  152.0152  134.9853  160.0620 H   0  0  0  0  0  0  0  0  0  0  0  0  # atno 6909 bound_to 6896
  146.1200  140.5440  142.8739 H   0  0  0  0  0  0  0  0  0  0  0  0  # atno 7974 bound_to 7965
  155.1096  140.3237  155.4525 H   0  0  0  0  0  0  0  0  0  0  0  0  # atno 8008 bound_to 7997
  156.2694  140.2046  156.6168 H   0  0  0  0  0  0  0  0  0  0  0  0  # atno 8009 bound_to 7997
  154.6766  140.0530  157.0209 H   0  0  0  0  0  0  0  0  0  0  0  0  # atno 8010 bound_to 7997
  139.4888  144.5744  151.6993 H   0  0  0  0  0  0  0  0  0  0  0  0  # atno 10167 bound_to 10162
  156.5040  130.8404  151.2620 H   0  0  0  0  0  0  0  0  0  0  0  0  # atno 10718 bound_to 10713
  154.2766  135.2764  155.2715 H   0  0  0  0  0  0  0  0  0  0  0  0  # atno 10763 bound_to 10752
  154.5255  135.5744  153.6719 H   0  0  0  0  0  0  0  0  0  0  0  0  # atno 10764 bound_to 10752
  152.9936  135.6215  154.2924 H   0  0  0  0  0  0  0  0  0  0  0  0  # atno 10765 bound_to 10752
  140.3565  134.7150  157.4303 H   0  0  0  0  0  0  0  0  0  0  0  0  # atno 11005 bound_to 11000
  144.7589  140.5374  143.6750 LP  0  0  0  0  0  0  0  0  0  0  0  0  # atno 17320 bound_to 7965
  145.5485  139.1476  143.3407 LP  0  0  0  0  0  0  0  0  0  0  0  0  # atno 17321 bound_to 7965
  140.5338  144.0689  150.6063 LP  0  0  0  0  0  0  0  0  0  0  0  0  # atno 17342 bound_to 10162
  140.3688  143.2866  152.0302 LP  0  0  0  0  0  0  0  0  0  0  0  0  # atno 17343 bound_to 10162
  157.7459  130.9972  150.2807 LP  0  0  0  0  0  0  0  0  0  0  0  0  # atno 17370 bound_to 10713
  156.3305  130.3799  149.7495 LP  0  0  0  0  0  0  0  0  0  0  0  0  # atno 17371 bound_to 10713
  140.0661  134.5928  155.8694 LP  0  0  0  0  0  0  0  0  0  0  0  0  # atno 17394 bound_to 11000
  141.1997  133.6608  156.5857 LP  0  0  0  0  0  0  0  0  0  0  0  0  # atno 17395 bound_to 11000

$$$$
