AV-unprocessed.smi:2505|AV-procd|sdf|9853|dock3
  -GOLD-   2272013483D 1   1.00000     0.00000
 Structure written by MMmdl.
 48 52  0  0  0  0  0  0  0  0  1 V2000
  147.2512  136.2436  155.6779 O   0  0  0  0  0  0  0  0  0  0  0  0
  147.7616  136.2727  154.5606 C   0  0  0  0  0  0  0  0  0  0  0  0
  148.6495  137.1949  154.1442 N   0  0  0  0  0  0  0  0  0  0  0  0
  149.2309  138.2621  154.8785 C   0  0  0  0  0  0  0  0  0  0  0  0
  148.9478  138.5739  156.2311 C   0  0  0  0  0  0  0  0  0  0  0  0
  149.5355  139.6172  156.8559 N   0  0  0  0  0  0  0  0  0  0  0  0
  150.3868  140.3541  156.1371 C   0  0  0  0  0  0  0  0  0  0  0  0
  151.0664  141.4825  156.8487 C   0  0  0  0  0  0  0  0  0  0  0  0
  151.9976  141.2173  158.0142 C   0  0  0  0  0  0  0  0  0  0  0  0
  150.6629  141.8649  158.2581 C   0  0  0  0  0  0  0  0  0  0  0  0
  150.7318  140.1543  154.8622 N   0  0  0  0  0  0  0  0  0  0  0  0
  150.1482  139.1144  154.2292 C   0  0  0  0  0  0  0  0  0  0  0  0
  147.4727  135.3375  153.6399 N   0  0  0  0  0  0  0  0  0  0  0  0
  146.5567  134.2023  153.7640 C   0  0  2  0  0  0  0  0  0  0  0  0
  147.2163  132.8946  153.3236 C   0  0  1  0  0  0  0  0  0  0  0  0
  147.6512  131.6591  154.0280 C   0  0  0  0  0  0  0  0  0  0  0  0
  147.0389  130.6252  153.0460 C   0  0  0  0  0  0  0  0  0  0  0  0
  146.1868  131.3826  152.1528 O   0  0  0  0  0  0  0  0  0  0  0  0
  145.8101  132.5099  152.9174 C   0  0  2  0  0  0  0  0  0  0  0  0
  145.6038  133.9862  152.5228 C   0  0  0  0  0  0  0  0  0  0  0  0
  144.1697  134.5216  152.6366 C   0  0  0  0  0  0  0  0  0  0  0  0
  143.8865  135.4460  151.4468 C   0  0  0  0  0  0  0  0  0  0  0  0
  145.2368  135.6898  150.7841 C   0  0  0  0  0  0  0  0  0  0  0  0
  146.0488  134.4435  151.1218 C   0  0  0  0  0  0  0  0  0  0  0  0
  149.0173  137.0586  153.2139 H   0  0  0  0  0  0  0  0  0  0  0  0
  148.2445  138.0139  156.8269 H   0  0  0  0  0  0  0  0  0  0  0  0
  151.3287  142.2836  156.1603 H   0  0  0  0  0  0  0  0  0  0  0  0
  152.1210  140.1867  158.3418 H   0  0  0  0  0  0  0  0  0  0  0  0
  152.8837  141.8426  158.0997 H   0  0  0  0  0  0  0  0  0  0  0  0
  150.6553  142.9240  158.5068 H   0  0  0  0  0  0  0  0  0  0  0  0
  149.8989  141.2650  158.7490 H   0  0  0  0  0  0  0  0  0  0  0  0
  150.4225  138.9598  153.1960 H   0  0  0  0  0  0  0  0  0  0  0  0
  147.9455  135.4223  152.7516 H   0  0  0  0  0  0  0  0  0  0  0  0
  146.0617  134.1270  154.7367 H   0  0  0  0  0  0  0  0  0  0  0  0
  147.8663  133.0683  152.4605 H   0  0  0  0  0  0  0  0  0  0  0  0
  148.7354  131.5735  154.1039 H   0  0  0  0  0  0  0  0  0  0  0  0
  147.2158  131.5832  155.0253 H   0  0  0  0  0  0  0  0  0  0  0  0
  147.8054  130.1085  152.4679 H   0  0  0  0  0  0  0  0  0  0  0  0
  146.4574  129.8758  153.5844 H   0  0  0  0  0  0  0  0  0  0  0  0
  145.1695  132.2131  153.7560 H   0  0  0  0  0  0  0  0  0  0  0  0
  143.4442  133.7075  152.6504 H   0  0  0  0  0  0  0  0  0  0  0  0
  144.0304  135.0627  153.5719 H   0  0  0  0  0  0  0  0  0  0  0  0
  143.2224  134.9413  150.7441 H   0  0  0  0  0  0  0  0  0  0  0  0
  143.4017  136.3755  151.7472 H   0  0  0  0  0  0  0  0  0  0  0  0
  145.1548  135.8617  149.7106 H   0  0  0  0  0  0  0  0  0  0  0  0
  145.7092  136.5679  151.2258 H   0  0  0  0  0  0  0  0  0  0  0  0
  147.1163  134.6501  151.0457 H   0  0  0  0  0  0  0  0  0  0  0  0
  145.8298  133.6626  150.3925 H   0  0  0  0  0  0  0  0  0  0  0  0
  1  2  2  0  0  0  0
  2  3  1  0  0  0  0
  2 13  1  0  0  0  0
  3  4  1  0  0  0  0
  3 25  1  0  0  0  0
  4 12  1  0  0  0  0
  4  5  2  0  0  0  0
  5  6  1  0  0  0  0
  5 26  1  0  0  0  0
  6  7  2  0  0  0  0
  7  8  1  0  0  0  0
  7 11  1  0  0  0  0
  8 10  1  0  0  0  0
  8  9  1  0  0  0  0
  8 27  1  0  0  0  0
  9 10  1  0  0  0  0
  9 28  1  0  0  0  0
  9 29  1  0  0  0  0
 10 30  1  0  0  0  0
 10 31  1  0  0  0  0
 11 12  2  0  0  0  0
 12 32  1  0  0  0  0
 13 14  1  0  0  0  0
 13 33  1  0  0  0  0
 14 20  1  0  0  0  0
 14 15  1  0  0  0  0
 14 34  1  0  0  0  0
 15 19  1  0  0  0  0
 15 16  1  0  0  0  0
 15 35  1  0  0  0  0
 16 17  1  0  0  0  0
 16 36  1  0  0  0  0
 16 37  1  0  0  0  0
 17 18  1  0  0  0  0
 17 38  1  0  0  0  0
 17 39  1  0  0  0  0
 18 19  1  0  0  0  0
 19 20  1  0  0  0  0
 19 40  1  0  0  0  0
 20 24  1  0  0  0  0
 20 21  1  0  0  0  0
 21 22  1  0  0  0  0
 21 41  1  0  0  0  0
 21 42  1  0  0  0  0
 22 23  1  0  0  0  0
 22 43  1  0  0  0  0
 22 44  1  0  0  0  0
 23 24  1  0  0  0  0
 23 45  1  0  0  0  0
 23 46  1  0  0  0  0
 24 47  1  0  0  0  0
 24 48  1  0  0  0  0
M  END
> <s_m_source_file>
AV-unprocessed.smi

> <i_m_source_file_index>
2505

> <i_lp_mmshare_version>
43012

> <i_f3d_flags>
0

> <s_epik_input>
W0NIMl0xW0NIMl1bQ0hdMWMobltjSF0yKW5bY0hdYzJbTkhdQyg9TylbTkhdW0NAQEhdM1tDQEBIXShbQ0gyXVtDSDJdTzQpW0NASF00QzM1W0NIMl1bQ0gyXVtDSDJdW0NIMl01

> <s_epik_cmdline>
J2VwaWtfcHl0aG9uJywgJy1waCcsICc3LjAnLCAnLXRuJywgJzgnLCAnLW1hJywgJzIwMCcsICctbWV0YWxfYmluZGluZycsICctaW1hZScsICc8aW5maWxlLm1hZT4nLCAnLW9tYWUnLCAnPG91dGZpbGUubWFlPic=

> <r_lp_tautomer_probability>
1

> <r_epik_Ionization_Penalty>
2.6075e-05

> <r_epik_Ionization_Penalty_Charging>
0

> <r_epik_Ionization_Penalty_Neutral>
2.6075e-05

> <r_epik_State_Penalty>
-0

> <r_epik_Charging_Adjusted_Penalty>
0

> <i_epik_Tot_Q>
0

> <i_epik_Tot_abs_Q>
0

> <r_epik_Metal_State_Penalty>
-0

> <b_epik_Metal_Only>
0

> <s_lp_Force_Field>
OPLS_2005

> <r_lp_Energy>
84.8822

> <b_lp_Chiralities_Consistent>
1

> <s_lp_Variant>
AV-unprocessed.smi:2505-1

> <Gold.Version>
5.8.1

> <Gold.Id.Protein>
6NUR|6NUR_protein|mol2

> <Gold.PLP.Fitness>
43.3106

> <Gold.PLP.PLP>
-31.3657

> <Gold.PLP.part.hbond>
-2.8183

> <Gold.PLP.part.metal>
0.0000

> <Gold.PLP.part.buried>
-4.7413

> <Gold.PLP.part.nonpolar>
-24.8111

> <Gold.PLP.part.repulsive>
0.2549

> <Gold.PLP.ligand.clash>
0.0000

> <Gold.PLP.ligand.torsion>
0.2037

> <Gold.PLP.Chemscore.Hbond>
2.9840

> <Gold.PLP.Chemscore.CHOScore>
1.0000

> <Gold.PLP.Chemscore.Metal>
0.0000

> <Gold.Chemscore.Hbonds>
donor molecule, donor type, donor heavy atom, donor atom, acceptor molecule, acceptor atom, score
      L1  H     3    25       P1  7948  0.98
      L1  H    13    33       P1  7948  0.98
      P1  H  7989  7998       L1    11  1.00
      L1  C    12    32       P1  7957  1.00

> <Gold.PLP.Chemscore.Internal.Correction>
0.4003

> <Gold.Rescore>
     Score         DG    S(hbond)    S(metal)    S(lipo)     H(rot)  DE(clash)    DE(int)     intcor
     17.42     -19.17       2.36        0.00      75.38       1.17       0.35       1.40       ----

> <Gold.Chemscore.Fitness>
17.4164

> <Gold.Chemscore.DG>
-19.1702

> <Gold.Chemscore.ZeroCoef>
-5.4800

> <Gold.Chemscore.Hbond>
2.3583

> <Gold.Chemscore.Metal>
0.0000

> <Gold.Chemscore.Lipo>
75.3834

> <Gold.Chemscore.Internal_Hbond>
0.0000

> <Gold.Chemscore.DEClash>
0.3498

> <Gold.Chemscore.DEInternal>
1.4040

> <Gold.Chemscore.Rot>
1.1744

> <Gold.Chemscore.Internal.Correction>
   9.000000E+99

> <Gold.Chemscore.Hbonds>
donor molecule, donor type, donor heavy atom, donor atom, acceptor molecule, acceptor atom, score
      L1  H     3    25       P1  7948  0.90
      L1  H    13    33       P1  7948  0.89
      P1  H  7989  7998       L1    11  0.26

> <Gold.Chemscore.Hbond.Weighted>
-7.8768

> <Gold.Chemscore.Metal.Weighted>
-0.0000

> <Gold.Chemscore.Lipo.Weighted>
-8.8199

> <Gold.Chemscore.Internal_Hbond.Weighted>
0.0000

> <Gold.Chemscore.DEClash.Weighted>
0.3498

> <Gold.Chemscore.DEInternal.Weighted>
1.4040

> <Gold.Chemscore.Rot.Weighted>
3.0064

> <Gold.Chemscore.Internal.Correction.Weighted>
   9.000000E+99

> <Gold.Protein.RotatedTorsions>
[ 6907 6896 6895 6894 ] final -104.09 input  -60.11 | X-H torsion
[ 7974 7965 7964 7962 ] final -135.80 input  175.53 | X-H torsion
[ 8008 7997 7996 7995 ] final  -45.53 input   59.86 | X-H torsion
[ 10167 10162 10161 10158 ] final  157.61 input  -65.29 | X-H torsion
[ 10718 10713 10712 10709 ] final   52.63 input   66.30 | X-H torsion
[ 10763 10752 10751 10750 ] final  165.49 input  -60.55 | X-H torsion
[ 11005 11000 10999 10996 ] final -111.58 input  -57.11 | X-H torsion

> <Gold.Protein.ActiveResidues>
 VAL166  LYS551  ARG553  GLY616  TRP617  ASP618  TYR619  PRO620  LYS621  CYS622 
 ASP623  PHE694  ASN695  SER759  ASP760  ASP761  ALA762  ILE779  LEU786  VAL792 
 PHE793  MET794  SER795  GLU796  ALA797  LYS798  CYS799  TRP800  GLU811  SER814 

> <Gold.Protein.RotatedAtoms>
  150.7271  134.0330  159.3739 H   0  0  0  0  0  0  0  0  0  0  0  0  # atno 6907 bound_to 6896
  151.8300  135.0622  160.0445 H   0  0  0  0  0  0  0  0  0  0  0  0  # atno 6908 bound_to 6896
  152.2941  133.5554  159.5612 H   0  0  0  0  0  0  0  0  0  0  0  0  # atno 6909 bound_to 6896
  144.8982  140.6736  143.5102 H   0  0  0  0  0  0  0  0  0  0  0  0  # atno 7974 bound_to 7965
  154.4001  140.1394  156.3862 H   0  0  0  0  0  0  0  0  0  0  0  0  # atno 8008 bound_to 7997
  155.7957  140.3477  155.5354 H   0  0  0  0  0  0  0  0  0  0  0  0  # atno 8009 bound_to 7997
  155.8534  140.0945  157.1650 H   0  0  0  0  0  0  0  0  0  0  0  0  # atno 8010 bound_to 7997
  139.4823  144.4901  151.8320 H   0  0  0  0  0  0  0  0  0  0  0  0  # atno 10167 bound_to 10162
  157.5092  130.8490  149.8414 H   0  0  0  0  0  0  0  0  0  0  0  0  # atno 10718 bound_to 10713
  154.3248  135.2755  155.2502 H   0  0  0  0  0  0  0  0  0  0  0  0  # atno 10763 bound_to 10752
  154.4839  135.5851  153.6413 H   0  0  0  0  0  0  0  0  0  0  0  0  # atno 10764 bound_to 10752
  152.9873  135.6118  154.3435 H   0  0  0  0  0  0  0  0  0  0  0  0  # atno 10765 bound_to 10752
  141.0726  133.9355  157.2455 H   0  0  0  0  0  0  0  0  0  0  0  0  # atno 11005 bound_to 11000
  145.3662  139.1669  143.4356 LP  0  0  0  0  0  0  0  0  0  0  0  0  # atno 17320 bound_to 7965
  146.3093  140.3730  142.8676 LP  0  0  0  0  0  0  0  0  0  0  0  0  # atno 17321 bound_to 7965
  140.4385  144.2019  150.5890 LP  0  0  0  0  0  0  0  0  0  0  0  0  # atno 17342 bound_to 10162
  140.4708  143.2414  151.9092 LP  0  0  0  0  0  0  0  0  0  0  0  0  # atno 17343 bound_to 10162
  156.0278  130.3774  150.1773 LP  0  0  0  0  0  0  0  0  0  0  0  0  # atno 17370 bound_to 10713
  156.9962  130.9908  151.3402 LP  0  0  0  0  0  0  0  0  0  0  0  0  # atno 17371 bound_to 10713
  139.9538  135.0170  156.9071 LP  0  0  0  0  0  0  0  0  0  0  0  0  # atno 17394 bound_to 11000
  140.5642  134.0505  155.7409 LP  0  0  0  0  0  0  0  0  0  0  0  0  # atno 17395 bound_to 11000

$$$$
