AV-unprocessed.smi:2962|AV-procd|sdf|11318|dock3
  -GOLD-   2272016223D 1   1.00000     0.00000
 Structure written by MMmdl.
 37 38  0  0  0  0  0  0  0  0  2 V2000
  153.5511  138.5932  154.4034 C   0  0  0  0  0  0  0  0  0  0  0  0
  153.2723  139.0819  155.7033 O   0  0  0  0  0  0  0  0  0  0  0  0
  151.8841  139.2679  155.9285 C   0  0  0  0  0  0  0  0  0  0  0  0
  151.6677  139.8932  157.3134 C   0  0  0  0  0  0  0  0  0  0  0  0
  151.3778  141.3316  157.2349 N   0  0  0  0  0  0  0  0  0  0  0  0
  150.6663  142.0420  156.3166 C   0  0  0  0  0  0  0  0  0  0  0  0
  149.8433  141.3975  154.8985 S   0  0  0  0  0  0  0  0  0  0  0  0
  148.1043  141.8695  155.1193 C   0  0  1  0  0  0  0  0  0  0  0  0
  147.3169  141.6362  153.8206 C   0  0  0  0  0  0  0  0  0  0  0  0
  147.4670  141.1247  156.2993 C   0  0  0  0  0  0  0  0  0  0  0  0
  146.1903  141.4017  156.5782 N   0  0  0  0  0  0  0  0  0  0  0  0
  148.1205  140.3233  156.9638 O   0  0  0  0  0  0  0  0  0  0  0  0
  150.6846  143.3485  156.6967 N   0  3  0  0  0  0  0  0  0  0  0  0
  151.4264  143.4793  157.8722 C   0  0  0  0  0  0  0  0  0  0  0  0
  151.7314  144.6007  158.6374 C   0  0  0  0  0  0  0  0  0  0  0  0
  152.5186  144.3865  159.7880 C   0  0  0  0  0  0  0  0  0  0  0  0
  152.9705  143.0979  160.1399 C   0  0  0  0  0  0  0  0  0  0  0  0
  152.6543  141.9677  159.3576 C   0  0  0  0  0  0  0  0  0  0  0  0
  151.8754  142.1879  158.2222 C   0  0  0  0  0  0  0  0  0  0  0  0
  154.6277  138.4799  154.2774 H   0  0  0  0  0  0  0  0  0  0  0  0
  153.1935  139.2821  153.6369 H   0  0  0  0  0  0  0  0  0  0  0  0
  153.0888  137.6184  154.2421 H   0  0  0  0  0  0  0  0  0  0  0  0
  151.4634  139.9184  155.1602 H   0  0  0  0  0  0  0  0  0  0  0  0
  151.3653  138.3104  155.8644 H   0  0  0  0  0  0  0  0  0  0  0  0
  150.8281  139.4104  157.8142 H   0  0  0  0  0  0  0  0  0  0  0  0
  152.5368  139.7417  157.9543 H   0  0  0  0  0  0  0  0  0  0  0  0
  148.0889  142.9391  155.3343 H   0  0  0  0  0  0  0  0  0  0  0  0
  146.2678  141.9110  153.9379 H   0  0  0  0  0  0  0  0  0  0  0  0
  147.3561  140.5918  153.5085 H   0  0  0  0  0  0  0  0  0  0  0  0
  147.7230  142.2381  153.0071 H   0  0  0  0  0  0  0  0  0  0  0  0
  145.7302  140.9488  157.3542 H   0  0  0  0  0  0  0  0  0  0  0  0
  145.6930  142.0780  156.0167 H   0  0  0  0  0  0  0  0  0  0  0  0
  151.3879  145.5892  158.3698 H   0  0  0  0  0  0  0  0  0  0  0  0
  152.7820  145.2276  160.4129 H   0  0  0  0  0  0  0  0  0  0  0  0
  153.5725  142.9737  161.0284 H   0  0  0  0  0  0  0  0  0  0  0  0
  153.0062  140.9848  159.6344 H   0  0  0  0  0  0  0  0  0  0  0  0
  150.2293  144.0929  156.1843 H   0  0  0  0  0  0  0  0  0  0  0  0
  1  2  1  0  0  0  0
  1 20  1  0  0  0  0
  1 21  1  0  0  0  0
  1 22  1  0  0  0  0
  2  3  1  0  0  0  0
  3  4  1  0  0  0  0
  3 23  1  0  0  0  0
  3 24  1  0  0  0  0
  4  5  1  0  0  0  0
  4 25  1  0  0  0  0
  4 26  1  0  0  0  0
  5 19  1  0  0  0  0
  5  6  1  0  0  0  0
  6  7  1  0  0  0  0
  6 13  2  0  0  0  0
  7  8  1  0  0  0  0
  8  9  1  0  0  0  0
  8 10  1  0  0  0  0
  8 27  1  0  0  0  0
  9 28  1  0  0  0  0
  9 29  1  0  0  0  0
  9 30  1  0  0  0  0
 10 11  1  0  0  0  0
 10 12  2  0  0  0  0
 11 31  1  0  0  0  0
 11 32  1  0  0  0  0
 13 14  1  0  0  0  0
 13 37  1  0  0  0  0
 14 19  2  0  0  0  0
 14 15  1  0  0  0  0
 15 16  2  0  0  0  0
 15 33  1  0  0  0  0
 16 17  1  0  0  0  0
 16 34  1  0  0  0  0
 17 18  2  0  0  0  0
 17 35  1  0  0  0  0
 18 19  1  0  0  0  0
 18 36  1  0  0  0  0
M  CHG  1  13   1
M  END
> <s_m_source_file>
AV-unprocessed.smi

> <i_m_source_file_index>
2962

> <i_lp_mmshare_version>
43012

> <i_f3d_flags>
0

> <s_epik_input>
W2NIXTFbY0hdW2NIXVtjSF1jKGMxMiluKFtDSDJdW0NIMl1PW0NIM10pYyhuMilTW0NASF0oW0NIM10pQyg9TylbTkgyXQ==

> <s_epik_cmdline>
J2VwaWtfcHl0aG9uJywgJy1waCcsICc3LjAnLCAnLXRuJywgJzgnLCAnLW1hJywgJzIwMCcsICctbWV0YWxfYmluZGluZycsICctaW1hZScsICc8aW5maWxlLm1hZT4nLCAnLW9tYWUnLCAnPG91dGZpbGUubWFlPic=

> <r_epik_Ionization_Penalty>
2.01771

> <r_epik_Ionization_Penalty_Charging>
2.01771

> <r_epik_Ionization_Penalty_Neutral>
3.318e-07

> <r_epik_State_Penalty>
2.14773

> <r_epik_Charging_Adjusted_Penalty>
4.16544

> <i_epik_Tot_Q>
1

> <i_epik_Tot_abs_Q>
1

> <r_epik_Metal_State_Penalty>
2.1675

> <b_epik_Metal_Only>
0

> <s_lp_Force_Field>
OPLS_2005

> <r_lp_Energy>
8.26224

> <b_lp_Chiralities_Consistent>
1

> <s_lp_Variant>
AV-unprocessed.smi:2962-4

> <Gold.Version>
5.8.1

> <Gold.Id.Protein>
6NUR|6NUR_protein|mol2

> <Gold.PLP.Fitness>
49.4234

> <Gold.PLP.PLP>
-41.7613

> <Gold.PLP.part.hbond>
-1.8627

> <Gold.PLP.part.metal>
0.0000

> <Gold.PLP.part.buried>
-3.7277

> <Gold.PLP.part.nonpolar>
-35.9841

> <Gold.PLP.part.repulsive>
0.0705

> <Gold.PLP.ligand.clash>
0.0000

> <Gold.PLP.ligand.torsion>
0.7077

> <Gold.PLP.Chemscore.Hbond>
3.0000

> <Gold.PLP.Chemscore.CHOScore>
0.0000

> <Gold.PLP.Chemscore.Metal>
0.0000

> <Gold.Chemscore.Hbonds>
donor molecule, donor type, donor heavy atom, donor atom, acceptor molecule, acceptor atom, score
      L1  H    13    37       P1  8028  1.98
      P1  H  7997  8009       L1     2  1.00

> <Gold.PLP.Chemscore.Internal.Correction>
0.0774

> <Gold.Rescore>
     Score         DG    S(hbond)    S(metal)    S(lipo)     H(rot)  DE(clash)    DE(int)     intcor
     17.12     -17.96       1.94        0.00     107.57       2.57       0.15       0.69       ----

> <Gold.Chemscore.Fitness>
17.1214

> <Gold.Chemscore.DG>
-17.9600

> <Gold.Chemscore.ZeroCoef>
-5.4800

> <Gold.Chemscore.Hbond>
1.9399

> <Gold.Chemscore.Metal>
0.0000

> <Gold.Chemscore.Lipo>
107.5715

> <Gold.Chemscore.Internal_Hbond>
0.0000

> <Gold.Chemscore.DEClash>
0.1455

> <Gold.Chemscore.DEInternal>
0.6931

> <Gold.Chemscore.Rot>
2.5723

> <Gold.Chemscore.Internal.Correction>
   9.000000E+99

> <Gold.Chemscore.Hbonds>
donor molecule, donor type, donor heavy atom, donor atom, acceptor molecule, acceptor atom, score
      L1  H    13    37       P1  8028  0.89
      P1  H  7997  8009       L1     2  0.63

> <Gold.Chemscore.Hbond.Weighted>
-6.4791

> <Gold.Chemscore.Metal.Weighted>
-0.0000

> <Gold.Chemscore.Lipo.Weighted>
-12.5859

> <Gold.Chemscore.Internal_Hbond.Weighted>
0.0000

> <Gold.Chemscore.DEClash.Weighted>
0.1455

> <Gold.Chemscore.DEInternal.Weighted>
0.6931

> <Gold.Chemscore.Rot.Weighted>
6.5850

> <Gold.Chemscore.Internal.Correction.Weighted>
   9.000000E+99

> <Gold.Protein.RotatedTorsions>
[ 6907 6896 6895 6894 ] final    6.46 input  -60.11 | X-H torsion
[ 7974 7965 7964 7962 ] final   93.74 input  175.53 | X-H torsion
[ 8008 7997 7996 7995 ] final -146.89 input   59.86 | X-H torsion
[ 10167 10162 10161 10158 ] final  -57.81 input  -65.29 | X-H torsion
[ 10718 10713 10712 10709 ] final   41.06 input   66.30 | X-H torsion
[ 10763 10752 10751 10750 ] final  -12.67 input  -60.55 | X-H torsion
[ 11005 11000 10999 10996 ] final -135.49 input  -57.11 | X-H torsion

> <Gold.Protein.ActiveResidues>
 VAL166  LYS551  ARG553  GLY616  TRP617  ASP618  TYR619  PRO620  LYS621  CYS622 
 ASP623  PHE694  ASN695  SER759  ASP760  ASP761  ALA762  ILE779  LEU786  VAL792 
 PHE793  MET794  SER795  GLU796  ALA797  LYS798  CYS799  TRP800  GLU811  SER814 

> <Gold.Protein.RotatedAtoms>
  151.6741  135.0971  160.0203 H   0  0  0  0  0  0  0  0  0  0  0  0  # atno 6907 bound_to 6896
  152.3874  133.6626  159.6218 H   0  0  0  0  0  0  0  0  0  0  0  0  # atno 6908 bound_to 6896
  150.7797  133.8929  159.3360 H   0  0  0  0  0  0  0  0  0  0  0  0  # atno 6909 bound_to 6896
  145.4749  139.2280  143.2914 H   0  0  0  0  0  0  0  0  0  0  0  0  # atno 7974 bound_to 7965
  155.5667  140.0630  157.2816 H   0  0  0  0  0  0  0  0  0  0  0  0  # atno 8008 bound_to 7997
  154.4373  140.1876  156.0883 H   0  0  0  0  0  0  0  0  0  0  0  0  # atno 8009 bound_to 7997
  156.0407  140.3296  155.7244 H   0  0  0  0  0  0  0  0  0  0  0  0  # atno 8010 bound_to 7997
  140.6235  143.2429  151.5421 H   0  0  0  0  0  0  0  0  0  0  0  0  # atno 10167 bound_to 10162
  157.3893  130.7797  149.7256 H   0  0  0  0  0  0  0  0  0  0  0  0  # atno 10718 bound_to 10713
  153.5019  135.7017  153.5827 H   0  0  0  0  0  0  0  0  0  0  0  0  # atno 10763 bound_to 10752
  153.3955  135.3885  155.1952 H   0  0  0  0  0  0  0  0  0  0  0  0  # atno 10764 bound_to 10752
  154.8710  135.3868  154.4490 H   0  0  0  0  0  0  0  0  0  0  0  0  # atno 10765 bound_to 10752
  140.8893  134.1832  157.4539 H   0  0  0  0  0  0  0  0  0  0  0  0  # atno 11005 bound_to 11000
  146.2375  140.5531  142.8948 LP  0  0  0  0  0  0  0  0  0  0  0  0  # atno 17320 bound_to 7965
  144.7923  140.6055  143.6533 LP  0  0  0  0  0  0  0  0  0  0  0  0  # atno 17321 bound_to 7965
  139.5459  144.2521  152.1442 LP  0  0  0  0  0  0  0  0  0  0  0  0  # atno 17342 bound_to 10162
  140.1747  144.4902  150.6560 LP  0  0  0  0  0  0  0  0  0  0  0  0  # atno 17343 bound_to 10162
  155.9794  130.4040  150.3588 LP  0  0  0  0  0  0  0  0  0  0  0  0  # atno 17370 bound_to 10713
  157.1702  131.0367  151.2799 LP  0  0  0  0  0  0  0  0  0  0  0  0  # atno 17371 bound_to 10713
  139.8728  134.9851  156.5269 LP  0  0  0  0  0  0  0  0  0  0  0  0  # atno 17394 bound_to 11000
  140.8367  133.8237  155.9035 LP  0  0  0  0  0  0  0  0  0  0  0  0  # atno 17395 bound_to 11000

$$$$
