AV-unprocessed.smi:1099|AV-procd|sdf|4758|dock2
  -GOLD-   22720 3293D 1   1.00000     0.00000
 Structure written by MMmdl.
 41 43  0  0  0  0  0  0  0  0  1 V2000
  145.8616  141.9074  157.6195 C   0  0  0  0  0  0  0  0  0  0  0  0
  146.3300  143.0096  156.6652 C   0  0  0  0  0  0  0  0  0  0  0  0
  147.1602  142.4861  155.5412 C   0  0  0  0  0  0  0  0  0  0  0  0
  148.2858  141.7896  155.7183 N   0  0  0  0  0  0  0  0  0  0  0  0
  148.8845  141.4161  154.5104 C   0  0  0  0  0  0  0  0  0  0  0  0
  150.1552  140.6158  154.5177 C   0  0  0  0  0  0  0  0  0  0  0  0
  150.5279  140.0431  155.8992 C   0  0  0  0  0  0  0  0  0  0  0  0
  150.5927  141.0660  156.9413 N   0  0  0  0  0  0  0  0  0  0  0  0
  151.5883  141.2086  157.8314 C   0  0  0  0  0  0  0  0  0  0  0  0
  152.5699  140.4656  157.8641 O   0  0  0  0  0  0  0  0  0  0  0  0
  151.4416  142.3646  158.8364 C   0  0  1  0  0  0  0  0  0  0  0  0
  152.7731  142.7526  159.5249 C   0  0  0  0  0  0  0  0  0  0  0  0
  152.9062  144.2573  159.2190 C   0  0  2  0  0  0  0  0  0  0  0  0
  151.8339  145.0348  160.0051 C   0  0  0  0  0  0  0  0  0  0  0  0
  150.5352  144.6690  159.2599 C   0  0  0  0  0  0  0  0  0  0  0  0
  151.0345  143.7026  158.1684 C   0  0  1  0  0  0  0  0  0  0  0  0
  152.3717  144.3427  157.7964 C   0  0  0  0  0  0  0  0  0  0  0  0
  148.1742  141.8200  153.4075 C   0  0  0  0  0  0  0  0  0  0  0  0
  146.7252  142.6807  153.8474 S   0  0  0  0  0  0  0  0  0  0  0  0
  145.2436  142.3203  158.4170 H   0  0  0  0  0  0  0  0  0  0  0  0
  146.7122  141.4091  158.0837 H   0  0  0  0  0  0  0  0  0  0  0  0
  145.2727  141.1542  157.0950 H   0  0  0  0  0  0  0  0  0  0  0  0
  145.4669  143.5291  156.2480 H   0  0  0  0  0  0  0  0  0  0  0  0
  146.9079  143.7551  157.2125 H   0  0  0  0  0  0  0  0  0  0  0  0
  150.0773  139.7952  153.8040 H   0  0  0  0  0  0  0  0  0  0  0  0
  150.9803  141.2334  154.1602 H   0  0  0  0  0  0  0  0  0  0  0  0
  149.8174  139.2624  156.1756 H   0  0  0  0  0  0  0  0  0  0  0  0
  151.5001  139.5537  155.8401 H   0  0  0  0  0  0  0  0  0  0  0  0
  149.8201  141.7142  156.9907 H   0  0  0  0  0  0  0  0  0  0  0  0
  150.7016  142.0809  159.5870 H   0  0  0  0  0  0  0  0  0  0  0  0
  152.7446  142.5624  160.5979 H   0  0  0  0  0  0  0  0  0  0  0  0
  153.6253  142.2045  159.1192 H   0  0  0  0  0  0  0  0  0  0  0  0
  153.9164  144.6435  159.3569 H   0  0  0  0  0  0  0  0  0  0  0  0
  151.8057  144.7504  161.0577 H   0  0  0  0  0  0  0  0  0  0  0  0
  152.0154  146.1091  159.9535 H   0  0  0  0  0  0  0  0  0  0  0  0
  149.7904  144.2145  159.9144 H   0  0  0  0  0  0  0  0  0  0  0  0
  150.0874  145.5579  158.8136 H   0  0  0  0  0  0  0  0  0  0  0  0
  150.3372  143.5924  157.3367 H   0  0  0  0  0  0  0  0  0  0  0  0
  152.2737  145.3673  157.4331 H   0  0  0  0  0  0  0  0  0  0  0  0
  152.9608  143.7724  157.0781 H   0  0  0  0  0  0  0  0  0  0  0  0
  148.4057  141.6479  152.3668 H   0  0  0  0  0  0  0  0  0  0  0  0
  1  2  1  0  0  0  0
  1 20  1  0  0  0  0
  1 21  1  0  0  0  0
  1 22  1  0  0  0  0
  2  3  1  0  0  0  0
  2 23  1  0  0  0  0
  2 24  1  0  0  0  0
  3 19  1  0  0  0  0
  3  4  2  0  0  0  0
  4  5  1  0  0  0  0
  5  6  1  0  0  0  0
  5 18  2  0  0  0  0
  6  7  1  0  0  0  0
  6 25  1  0  0  0  0
  6 26  1  0  0  0  0
  7  8  1  0  0  0  0
  7 27  1  0  0  0  0
  7 28  1  0  0  0  0
  8  9  1  0  0  0  0
  8 29  1  0  0  0  0
  9 10  2  0  0  0  0
  9 11  1  0  0  0  0
 11 16  1  0  0  0  0
 11 12  1  0  0  0  0
 11 30  1  0  0  0  0
 12 13  1  0  0  0  0
 12 31  1  0  0  0  0
 12 32  1  0  0  0  0
 13 17  1  0  0  0  0
 13 14  1  0  0  0  0
 13 33  1  0  0  0  0
 14 15  1  0  0  0  0
 14 34  1  0  0  0  0
 14 35  1  0  0  0  0
 15 16  1  0  0  0  0
 15 36  1  0  0  0  0
 15 37  1  0  0  0  0
 16 17  1  0  0  0  0
 16 38  1  0  0  0  0
 17 39  1  0  0  0  0
 17 40  1  0  0  0  0
 18 19  1  0  0  0  0
 18 41  1  0  0  0  0
M  END
> <s_m_source_file>
AV-unprocessed.smi

> <i_m_source_file_index>
1099

> <i_lp_mmshare_version>
43012

> <i_f3d_flags>
0

> <s_epik_input>
W0NIM11bQ0gyXWMxbmMoW2NIXXMxKVtDSDJdW0NIMl1bTkhdQyg9TylbQ0BIXShbQ0gyXVtDQEBIXTIzKVtDQEBIXShbQ0gyXTMpW0NIMl1bQ0gyXTI=

> <s_epik_cmdline>
J2VwaWtfcHl0aG9uJywgJy1waCcsICc3LjAnLCAnLXRuJywgJzgnLCAnLW1hJywgJzIwMCcsICctbWV0YWxfYmluZGluZycsICctaW1hZScsICc8aW5maWxlLm1hZT4nLCAnLW9tYWUnLCAnPG91dGZpbGUubWFlPic=

> <r_epik_Ionization_Penalty>
0.00110131

> <r_epik_Ionization_Penalty_Charging>
0

> <r_epik_Ionization_Penalty_Neutral>
0.00110131

> <r_epik_State_Penalty>
0.00072257

> <r_epik_Charging_Adjusted_Penalty>
0.00072257

> <i_epik_Tot_Q>
0

> <i_epik_Tot_abs_Q>
0

> <r_epik_Metal_State_Penalty>
-0

> <b_epik_Metal_Only>
0

> <s_lp_Force_Field>
OPLS_2005

> <r_lp_Energy>
38.7505

> <b_lp_Chiralities_Consistent>
1

> <s_lp_Variant>
AV-unprocessed.smi:1099-4

> <Gold.Version>
5.8.1

> <Gold.Id.Protein>
6NUR|6NUR_protein|mol2

> <Gold.PLP.Fitness>
44.7660

> <Gold.PLP.PLP>
-40.9179

> <Gold.PLP.part.hbond>
-1.0000

> <Gold.PLP.part.metal>
0.0000

> <Gold.PLP.part.buried>
-1.9073

> <Gold.PLP.part.nonpolar>
-36.8188

> <Gold.PLP.part.repulsive>
0.1481

> <Gold.PLP.ligand.clash>
0.0000

> <Gold.PLP.ligand.torsion>
0.6175

> <Gold.PLP.Chemscore.Hbond>
0.6752

> <Gold.PLP.Chemscore.CHOScore>
1.0000

> <Gold.PLP.Chemscore.Metal>
0.0000

> <Gold.Chemscore.Hbonds>
donor molecule, donor type, donor heavy atom, donor atom, acceptor molecule, acceptor atom, score
      P1  H  7997  8008       L1    10  0.56
      L1  C    18    41       P1  7957  1.00

> <Gold.PLP.Chemscore.Internal.Correction>
0.0575

> <Gold.Rescore>
     Score         DG    S(hbond)    S(metal)    S(lipo)     H(rot)  DE(clash)    DE(int)     intcor
     18.14     -18.52       0.77        0.00     120.50       1.42       0.15       0.23       ----

> <Gold.Chemscore.Fitness>
18.1424

> <Gold.Chemscore.DG>
-18.5187

> <Gold.Chemscore.ZeroCoef>
-5.4800

> <Gold.Chemscore.Hbond>
0.7685

> <Gold.Chemscore.Metal>
0.0000

> <Gold.Chemscore.Lipo>
120.4978

> <Gold.Chemscore.Internal_Hbond>
0.0000

> <Gold.Chemscore.DEClash>
0.1464

> <Gold.Chemscore.DEInternal>
0.2299

> <Gold.Chemscore.Rot>
1.4165

> <Gold.Chemscore.Internal.Correction>
   9.000000E+99

> <Gold.Chemscore.Hbonds>
donor molecule, donor type, donor heavy atom, donor atom, acceptor molecule, acceptor atom, score
      P1  H  7997  8008       L1    10  0.54

> <Gold.Chemscore.Hbond.Weighted>
-2.5666

> <Gold.Chemscore.Metal.Weighted>
-0.0000

> <Gold.Chemscore.Lipo.Weighted>
-14.0982

> <Gold.Chemscore.Internal_Hbond.Weighted>
0.0000

> <Gold.Chemscore.DEClash.Weighted>
0.1464

> <Gold.Chemscore.DEInternal.Weighted>
0.2299

> <Gold.Chemscore.Rot.Weighted>
3.6262

> <Gold.Chemscore.Internal.Correction.Weighted>
   9.000000E+99

> <Gold.Protein.RotatedTorsions>
[ 6907 6896 6895 6894 ] final   93.46 input  -60.11 | X-H torsion
[ 7974 7965 7964 7962 ] final  156.36 input  175.53 | X-H torsion
[ 8008 7997 7996 7995 ] final  -72.11 input   59.86 | X-H torsion
[ 10167 10162 10161 10158 ] final  133.24 input  -65.29 | X-H torsion
[ 10718 10713 10712 10709 ] final -164.76 input   66.30 | X-H torsion
[ 10763 10752 10751 10750 ] final  106.46 input  -60.55 | X-H torsion
[ 11005 11000 10999 10996 ] final   88.44 input  -57.11 | X-H torsion

> <Gold.Protein.ActiveResidues>
 VAL166  LYS551  ARG553  GLY616  TRP617  ASP618  TYR619  PRO620  LYS621  CYS622 
 ASP623  PHE694  ASN695  SER759  ASP760  ASP761  ALA762  ILE779  LEU786  VAL792 
 PHE793  MET794  SER795  GLU796  ALA797  LYS798  CYS799  TRP800  GLU811  SER814 

> <Gold.Protein.RotatedAtoms>
  152.5452  134.1344  159.8452 H   0  0  0  0  0  0  0  0  0  0  0  0  # atno 6907 bound_to 6896
  151.1386  133.4980  159.2605 H   0  0  0  0  0  0  0  0  0  0  0  0  # atno 6908 bound_to 6896
  151.1597  135.0278  159.8759 H   0  0  0  0  0  0  0  0  0  0  0  0  # atno 6909 bound_to 6896
  144.7968  139.7193  143.6198 H   0  0  0  0  0  0  0  0  0  0  0  0  # atno 7974 bound_to 7965
  154.5140  140.0803  156.8046 H   0  0  0  0  0  0  0  0  0  0  0  0  # atno 8008 bound_to 7997
  155.3721  140.3423  155.4225 H   0  0  0  0  0  0  0  0  0  0  0  0  # atno 8009 bound_to 7997
  156.1607  140.1587  156.8605 H   0  0  0  0  0  0  0  0  0  0  0  0  # atno 8010 bound_to 7997
  139.5305  144.6625  151.4967 H   0  0  0  0  0  0  0  0  0  0  0  0  # atno 10167 bound_to 10162
  156.6437  130.8979  151.3001 H   0  0  0  0  0  0  0  0  0  0  0  0  # atno 10718 bound_to 10713
  153.3933  135.3876  155.1938 H   0  0  0  0  0  0  0  0  0  0  0  0  # atno 10763 bound_to 10752
  154.8721  135.3753  154.4710 H   0  0  0  0  0  0  0  0  0  0  0  0  # atno 10764 bound_to 10752
  153.5200  135.7087  153.5798 H   0  0  0  0  0  0  0  0  0  0  0  0  # atno 10765 bound_to 10752
  139.8896  134.8488  156.3001 H   0  0  0  0  0  0  0  0  0  0  0  0  # atno 11005 bound_to 11000
  146.2238  139.5685  142.9600 LP  0  0  0  0  0  0  0  0  0  0  0  0  # atno 17320 bound_to 7965
  145.5653  141.0400  143.2204 LP  0  0  0  0  0  0  0  0  0  0  0  0  # atno 17321 bound_to 7965
  140.6480  143.8755  150.6757 LP  0  0  0  0  0  0  0  0  0  0  0  0  # atno 17342 bound_to 10162
  140.2110  143.3883  152.1718 LP  0  0  0  0  0  0  0  0  0  0  0  0  # atno 17343 bound_to 10162
  157.7163  130.9501  150.1267 LP  0  0  0  0  0  0  0  0  0  0  0  0  # atno 17370 bound_to 10713
  156.2139  130.3668  149.8637 LP  0  0  0  0  0  0  0  0  0  0  0  0  # atno 17371 bound_to 10713
  140.9919  133.7203  156.0827 LP  0  0  0  0  0  0  0  0  0  0  0  0  # atno 17394 bound_to 11000
  140.7613  134.3935  157.5525 LP  0  0  0  0  0  0  0  0  0  0  0  0  # atno 17395 bound_to 11000

$$$$
