AV-unprocessed.smi:2643|AV-procd|sdf|10276|dock5
  -GOLD-   2272014283D 1   1.00000     0.00000
 Structure written by MMmdl.
 34 35  0  0  0  0  0  0  0  0  1 V2000
  146.4492  138.2570  152.5620 C   0  0  0  0  0  0  0  0  0  0  0  0
  146.9025  139.6973  152.2966 C   0  0  0  0  0  0  0  0  0  0  0  0
  147.9141  140.1250  153.2431 N   0  0  0  0  0  0  0  0  0  0  0  0
  148.0097  141.3351  153.9011 C   0  0  0  0  0  0  0  0  0  0  0  0
  149.1283  141.2444  154.6801 C   0  0  0  0  0  0  0  0  0  0  0  0
  149.6922  142.2014  155.5605 N   0  0  0  0  0  0  0  0  0  0  0  0
  150.7920  142.0661  156.3258 C   0  0  0  0  0  0  0  0  0  0  0  0
  151.4892  141.0545  156.3693 O   0  0  0  0  0  0  0  0  0  0  0  0
  151.0909  143.1524  157.0608 N   0  0  0  0  0  0  0  0  0  0  0  0
  152.2089  143.3360  157.9894 C   0  0  0  0  0  0  0  0  0  0  0  0
  152.2833  142.2006  159.0329 C   0  0  0  0  0  0  0  0  0  0  0  0
  152.3949  142.8825  160.3975 C   0  0  0  0  0  0  0  0  0  0  0  0
  151.6704  144.2118  160.2145 C   0  0  0  0  0  0  0  0  0  0  0  0
  152.0315  144.6385  158.7915 C   0  0  0  0  0  0  0  0  0  0  0  0
  149.6609  139.9503  154.4440 C   0  0  0  0  0  0  0  0  0  0  0  0
  148.9213  139.2792  153.5742 N   0  0  0  0  0  0  0  0  0  0  0  0
  145.6812  137.9546  151.8502 H   0  0  0  0  0  0  0  0  0  0  0  0
  146.0334  138.1540  153.5647 H   0  0  0  0  0  0  0  0  0  0  0  0
  147.2805  137.5575  152.4701 H   0  0  0  0  0  0  0  0  0  0  0  0
  147.3035  139.7898  151.2865 H   0  0  0  0  0  0  0  0  0  0  0  0
  146.0528  140.3778  152.3634 H   0  0  0  0  0  0  0  0  0  0  0  0
  147.2882  142.1253  153.7554 H   0  0  0  0  0  0  0  0  0  0  0  0
  149.2111  143.0874  155.6142 H   0  0  0  0  0  0  0  0  0  0  0  0
  150.4759  143.9466  156.9564 H   0  0  0  0  0  0  0  0  0  0  0  0
  153.1440  143.4016  157.4301 H   0  0  0  0  0  0  0  0  0  0  0  0
  151.3732  141.5989  159.0118 H   0  0  0  0  0  0  0  0  0  0  0  0
  153.1187  141.5249  158.8466 H   0  0  0  0  0  0  0  0  0  0  0  0
  151.9738  142.2808  161.2036 H   0  0  0  0  0  0  0  0  0  0  0  0
  153.4442  143.0668  160.6319 H   0  0  0  0  0  0  0  0  0  0  0  0
  150.5933  144.0575  160.2908 H   0  0  0  0  0  0  0  0  0  0  0  0
  151.9559  144.9534  160.9612 H   0  0  0  0  0  0  0  0  0  0  0  0
  152.9786  145.1792  158.8110 H   0  0  0  0  0  0  0  0  0  0  0  0
  151.2883  145.3140  158.3650 H   0  0  0  0  0  0  0  0  0  0  0  0
  150.5399  139.4851  154.8656 H   0  0  0  0  0  0  0  0  0  0  0  0
  1  2  1  0  0  0  0
  1 17  1  0  0  0  0
  1 18  1  0  0  0  0
  1 19  1  0  0  0  0
  2  3  1  0  0  0  0
  2 20  1  0  0  0  0
  2 21  1  0  0  0  0
  3 16  1  0  0  0  0
  3  4  1  0  0  0  0
  4  5  2  0  0  0  0
  4 22  1  0  0  0  0
  5  6  1  0  0  0  0
  5 15  1  0  0  0  0
  6  7  1  0  0  0  0
  6 23  1  0  0  0  0
  7  8  2  0  0  0  0
  7  9  1  0  0  0  0
  9 10  1  0  0  0  0
  9 24  1  0  0  0  0
 10 14  1  0  0  0  0
 10 11  1  0  0  0  0
 10 25  1  0  0  0  0
 11 12  1  0  0  0  0
 11 26  1  0  0  0  0
 11 27  1  0  0  0  0
 12 13  1  0  0  0  0
 12 28  1  0  0  0  0
 12 29  1  0  0  0  0
 13 14  1  0  0  0  0
 13 30  1  0  0  0  0
 13 31  1  0  0  0  0
 14 32  1  0  0  0  0
 14 33  1  0  0  0  0
 15 16  2  0  0  0  0
 15 34  1  0  0  0  0
M  END
> <s_m_source_file>
AV-unprocessed.smi

> <i_m_source_file_index>
2643

> <i_lp_mmshare_version>
43012

> <i_f3d_flags>
0

> <s_epik_input>
W0NIM11bQ0gyXW4xW2NIXWMoW2NIXW4xKVtOSF1DKD1PKVtOSF1bQ0hdMltDSDJdW0NIMl1bQ0gyXVtDSDJdMg==

> <s_epik_cmdline>
J2VwaWtfcHl0aG9uJywgJy1waCcsICc3LjAnLCAnLXRuJywgJzgnLCAnLW1hJywgJzIwMCcsICctbWV0YWxfYmluZGluZycsICctaW1hZScsICc8aW5maWxlLm1hZT4nLCAnLW9tYWUnLCAnPG91dGZpbGUubWFlPic=

> <r_lp_tautomer_probability>
1

> <r_epik_Ionization_Penalty>
0.000191398

> <r_epik_Ionization_Penalty_Charging>
0

> <r_epik_Ionization_Penalty_Neutral>
0.000191398

> <r_epik_State_Penalty>
-0

> <r_epik_Charging_Adjusted_Penalty>
0

> <i_epik_Tot_Q>
0

> <i_epik_Tot_abs_Q>
0

> <r_epik_Metal_State_Penalty>
-0

> <b_epik_Metal_Only>
0

> <s_lp_Force_Field>
OPLS_2005

> <r_lp_Energy>
32.4137

> <b_lp_Chiralities_Consistent>
1

> <s_lp_Variant>
AV-unprocessed.smi:2643-1

> <Gold.Version>
5.8.1

> <Gold.Id.Protein>
6NUR|6NUR_protein|mol2

> <Gold.PLP.Fitness>
42.0519

> <Gold.PLP.PLP>
-37.0961

> <Gold.PLP.part.hbond>
-1.9649

> <Gold.PLP.part.metal>
0.0000

> <Gold.PLP.part.buried>
-3.5790

> <Gold.PLP.part.nonpolar>
-33.0785

> <Gold.PLP.part.repulsive>
0.3848

> <Gold.PLP.ligand.clash>
0.0000

> <Gold.PLP.ligand.torsion>
0.2962

> <Gold.PLP.Chemscore.Hbond>
1.8480

> <Gold.PLP.Chemscore.CHOScore>
0.0000

> <Gold.PLP.Chemscore.Metal>
0.0000

> <Gold.Chemscore.Hbonds>
donor molecule, donor type, donor heavy atom, donor atom, acceptor molecule, acceptor atom, score
      L1  H     6    23       P1  8028  1.00
      L1  H     9    24       P1  8028  0.55

> <Gold.PLP.Chemscore.Internal.Correction>
0.0042

> <Gold.Rescore>
     Score         DG    S(hbond)    S(metal)    S(lipo)     H(rot)  DE(clash)    DE(int)     intcor
     16.02     -19.50       1.91        0.00      91.05       1.17       0.05       3.44       ----

> <Gold.Chemscore.Fitness>
16.0179

> <Gold.Chemscore.DG>
-19.5000

> <Gold.Chemscore.ZeroCoef>
-5.4800

> <Gold.Chemscore.Hbond>
1.9081

> <Gold.Chemscore.Metal>
0.0000

> <Gold.Chemscore.Lipo>
91.0481

> <Gold.Chemscore.Internal_Hbond>
0.0000

> <Gold.Chemscore.DEClash>
0.0451

> <Gold.Chemscore.DEInternal>
3.4370

> <Gold.Chemscore.Rot>
1.1741

> <Gold.Chemscore.Internal.Correction>
   9.000000E+99

> <Gold.Chemscore.Hbonds>
donor molecule, donor type, donor heavy atom, donor atom, acceptor molecule, acceptor atom, score
      L1  H     6    23       P1  8028  1.00
      L1  H     9    24       P1  8028  0.53

> <Gold.Chemscore.Hbond.Weighted>
-6.3730

> <Gold.Chemscore.Metal.Weighted>
-0.0000

> <Gold.Chemscore.Lipo.Weighted>
-10.6526

> <Gold.Chemscore.Internal_Hbond.Weighted>
0.0000

> <Gold.Chemscore.DEClash.Weighted>
0.0451

> <Gold.Chemscore.DEInternal.Weighted>
3.4370

> <Gold.Chemscore.Rot.Weighted>
3.0056

> <Gold.Chemscore.Internal.Correction.Weighted>
   9.000000E+99

> <Gold.Protein.RotatedTorsions>
[ 6907 6896 6895 6894 ] final  -75.64 input  -60.11 | X-H torsion
[ 7974 7965 7964 7962 ] final   74.77 input  175.53 | X-H torsion
[ 8008 7997 7996 7995 ] final  -26.12 input   59.86 | X-H torsion
[ 10167 10162 10161 10158 ] final -125.06 input  -65.29 | X-H torsion
[ 10718 10713 10712 10709 ] final    4.02 input   66.30 | X-H torsion
[ 10763 10752 10751 10750 ] final -178.99 input  -60.55 | X-H torsion
[ 11005 11000 10999 10996 ] final   83.10 input  -57.11 | X-H torsion

> <Gold.Protein.ActiveResidues>
 VAL166  LYS551  ARG553  GLY616  TRP617  ASP618  TYR619  PRO620  LYS621  CYS622 
 ASP623  PHE694  ASN695  SER759  ASP760  ASP761  ALA762  ILE779  LEU786  VAL792 
 PHE793  MET794  SER795  GLU796  ALA797  LYS798  CYS799  TRP800  GLU811  SER814 

> <Gold.Protein.RotatedAtoms>
  150.7052  134.4691  159.5416 H   0  0  0  0  0  0  0  0  0  0  0  0  # atno 6907 bound_to 6896
  152.2351  134.8281  160.0477 H   0  0  0  0  0  0  0  0  0  0  0  0  # atno 6908 bound_to 6896
  151.9083  133.3520  159.3891 H   0  0  0  0  0  0  0  0  0  0  0  0  # atno 6909 bound_to 6896
  145.7241  139.2659  143.1579 H   0  0  0  0  0  0  0  0  0  0  0  0  # atno 7974 bound_to 7965
  154.4441  140.1908  156.0726 H   0  0  0  0  0  0  0  0  0  0  0  0  # atno 8008 bound_to 7997
  156.0500  140.3309  155.7313 H   0  0  0  0  0  0  0  0  0  0  0  0  # atno 8009 bound_to 7997
  155.5572  140.0600  157.2828 H   0  0  0  0  0  0  0  0  0  0  0  0  # atno 8010 bound_to 7997
  139.9861  143.5690  152.2360 H   0  0  0  0  0  0  0  0  0  0  0  0  # atno 10167 bound_to 10162
  156.8865  130.5672  149.5651 H   0  0  0  0  0  0  0  0  0  0  0  0  # atno 10718 bound_to 10713
  154.5407  135.2806  155.1098 H   0  0  0  0  0  0  0  0  0  0  0  0  # atno 10763 bound_to 10752
  154.2581  135.6327  153.5268 H   0  0  0  0  0  0  0  0  0  0  0  0  # atno 10764 bound_to 10752
  152.9978  135.5599  154.5946 H   0  0  0  0  0  0  0  0  0  0  0  0  # atno 10765 bound_to 10752
  139.9042  134.8120  156.2263 H   0  0  0  0  0  0  0  0  0  0  0  0  # atno 11005 bound_to 11000
  146.0598  140.7982  142.9740 LP  0  0  0  0  0  0  0  0  0  0  0  0  # atno 17320 bound_to 7965
  144.6909  140.3180  143.7237 LP  0  0  0  0  0  0  0  0  0  0  0  0  # atno 17321 bound_to 7965
  139.6374  144.7651  151.2410 LP  0  0  0  0  0  0  0  0  0  0  0  0  # atno 17342 bound_to 10162
  140.7472  143.6375  150.8365 LP  0  0  0  0  0  0  0  0  0  0  0  0  # atno 17343 bound_to 10162
  156.0651  130.5695  150.9271 LP  0  0  0  0  0  0  0  0  0  0  0  0  # atno 17370 bound_to 10713
  157.6109  131.0936  150.8796 LP  0  0  0  0  0  0  0  0  0  0  0  0  # atno 17371 bound_to 10713
  141.0374  133.6956  156.1536 LP  0  0  0  0  0  0  0  0  0  0  0  0  # atno 17394 bound_to 11000
  140.7007  134.4567  157.5586 LP  0  0  0  0  0  0  0  0  0  0  0  0  # atno 17395 bound_to 11000

$$$$
