AV-unprocessed.smi:72|AV-procd|sdf|734|dock9
  -GOLD-   2262017 63D 1   1.00000     0.00000
 Structure written by MMmdl.
 28 29  0  0  0  0  0  0  0  0  2 V2000
  153.4702  138.8875  155.8860 N   0  0  0  0  0  0  0  0  0  0  0  0
  152.3207  139.1681  155.4497 C   0  0  0  0  0  0  0  0  0  0  0  0
  151.6612  138.2753  154.5214 N   0  0  0  0  0  0  0  0  0  0  0  0
  150.4854  138.6136  154.0886 C   0  0  0  0  0  0  0  0  0  0  0  0
  149.8428  139.8534  154.5027 N   0  0  0  0  0  0  0  0  0  0  0  0
  148.4659  140.2347  153.9971 C   0  0  1  0  0  0  0  0  0  0  0  0
  148.0606  139.3210  153.0273 O   0  0  0  0  0  0  0  0  0  0  0  0
  146.6426  139.2960  153.0079 C   0  0  1  0  0  0  0  0  0  0  0  0
  146.1476  138.0152  152.3185 C   0  0  0  0  0  0  0  0  0  0  0  0
  146.5002  138.0302  150.9516 O   0  0  0  0  0  0  0  0  0  0  0  0
  146.2854  139.3659  154.4980 C   0  0  2  0  0  0  0  0  0  0  0  0
  145.0145  139.9629  154.6654 O   0  0  0  0  0  0  0  0  0  0  0  0
  147.3809  140.2466  155.0975 C   0  0  1  0  0  0  0  0  0  0  0  0
  147.8072  139.7266  156.3441 O   0  0  0  0  0  0  0  0  0  0  0  0
  150.4996  140.6964  155.4370 C   0  0  0  0  0  0  0  0  0  0  0  0
  149.9173  141.7158  155.8083 O   0  0  0  0  0  0  0  0  0  0  0  0
  151.7328  140.3345  155.8887 N   0  5  0  0  0  0  0  0  0  0  0  0
  148.5744  141.2019  153.5032 H   0  0  0  0  0  0  0  0  0  0  0  0
  146.2791  140.1889  152.4943 H   0  0  0  0  0  0  0  0  0  0  0  0
  146.3012  138.3670  154.9382 H   0  0  0  0  0  0  0  0  0  0  0  0
  147.0543  141.2791  155.2300 H   0  0  0  0  0  0  0  0  0  0  0  0
  153.8276  138.0190  155.5159 H   0  0  0  0  0  0  0  0  0  0  0  0
  149.9078  137.9953  153.4003 H   0  0  0  0  0  0  0  0  0  0  0  0
  146.5440  137.1237  152.8057 H   0  0  0  0  0  0  0  0  0  0  0  0
  145.0602  137.9573  152.3728 H   0  0  0  0  0  0  0  0  0  0  0  0
  145.7567  138.3325  150.4529 H   0  0  0  0  0  0  0  0  0  0  0  0
  144.5782  139.9767  153.8272 H   0  0  0  0  0  0  0  0  0  0  0  0
  147.6649  138.7916  156.3411 H   0  0  0  0  0  0  0  0  0  0  0  0
  1  2  2  0  0  0  0
  1 22  1  0  0  0  0
  2 17  1  0  0  0  0
  2  3  1  0  0  0  0
  3  4  2  0  0  0  0
  4  5  1  0  0  0  0
  4 23  1  0  0  0  0
  5  6  1  0  0  0  0
  5 15  1  0  0  0  0
  6 18  1  0  0  0  0
  6 13  1  0  0  0  0
  6  7  1  0  0  0  0
  7  8  1  0  0  0  0
  8 19  1  0  0  0  0
  8  9  1  0  0  0  0
  8 11  1  0  0  0  0
  9 10  1  0  0  0  0
  9 24  1  0  0  0  0
  9 25  1  0  0  0  0
 10 26  1  0  0  0  0
 11 20  1  0  0  0  0
 11 12  1  0  0  0  0
 11 13  1  0  0  0  0
 12 27  1  0  0  0  0
 13 21  1  0  0  0  0
 13 14  1  0  0  0  0
 14 28  1  0  0  0  0
 15 16  2  0  0  0  0
 15 17  1  0  0  0  0
M  CHG  1  17  -1
M  END
> <s_m_source_file>
AV-unprocessed.smi

> <i_m_source_file_index>
72

> <i_lp_mmshare_version>
43012

> <i_f3d_flags>
0

> <s_epik_input>
W05IMl1jMW5bY0hdbihjKD1PKW4xKVtDQEBIXTJPW0NASF0oW0NIMl1bT0hdKVtDQEBIXShbT0hdKVtDQEhdMltPSF0=

> <s_epik_cmdline>
J2VwaWtfcHl0aG9uJywgJy1waCcsICc3LjAnLCAnLXRuJywgJzgnLCAnLW1hJywgJzIwMCcsICctbWV0YWxfYmluZGluZycsICctaW1hZScsICc8aW5maWxlLm1hZT4nLCAnLW9tYWUnLCAnPG91dGZpbGUubWFlPic=

> <r_lp_tautomer_probability>
7.17554e-07

> <r_epik_Ionization_Penalty>
12.8705

> <r_epik_Ionization_Penalty_Charging>
5.64144

> <r_epik_Ionization_Penalty_Neutral>
7.22905

> <r_epik_State_Penalty>
3.30104

> <r_epik_Charging_Adjusted_Penalty>
8.94249

> <i_epik_Tot_Q>
-1

> <i_epik_Tot_abs_Q>
1

> <r_epik_Metal_State_Penalty>
0.529074

> <b_epik_Metal_Only>
1

> <s_epik_Chemistry_Notes>
This compound contains an acetal/aminal-like group ( X-CH(R)-Y where X, Y are N, S, or O) that may be acid/base labile, releasing an aldehyde.

> <s_lp_Force_Field>
OPLS_2005

> <r_lp_Energy>
37.9918

> <b_lp_Chiralities_Consistent>
1

> <s_lp_Variant>
AV-unprocessed.smi:72-72

> <Gold.Version>
5.8.1

> <Gold.Id.Protein>
6NUR|6NUR_protein|mol2

> <Gold.PLP.Fitness>
38.8929

> <Gold.PLP.PLP>
-23.9324

> <Gold.PLP.part.hbond>
-4.4240

> <Gold.PLP.part.metal>
0.0000

> <Gold.PLP.part.buried>
-5.6417

> <Gold.PLP.part.nonpolar>
-18.4909

> <Gold.PLP.part.repulsive>
4.0154

> <Gold.PLP.ligand.clash>
0.0000

> <Gold.PLP.ligand.torsion>
0.0706

> <Gold.PLP.Chemscore.Hbond>
3.9920

> <Gold.PLP.Chemscore.CHOScore>
1.0000

> <Gold.PLP.Chemscore.Metal>
0.0000

> <Gold.Chemscore.Hbonds>
donor molecule, donor type, donor heavy atom, donor atom, acceptor molecule, acceptor atom, score
      L1  H    10    26       P1 10171  1.00
      L1  H    12    27       P1 10175  1.00
      P1  H  7954  7966       L1    10  1.00
      P1  H  7997  8008       L1     1  0.94
      L1  C     4    23       P1  7948  1.00

> <Gold.PLP.Chemscore.Internal.Correction>
0.1258

> <Gold.Rescore>
     Score         DG    S(hbond)    S(metal)    S(lipo)     H(rot)  DE(clash)    DE(int)     intcor
      8.05      -9.89       3.74        0.00      19.22       4.04       1.56       0.28       ----

> <Gold.Chemscore.Fitness>
8.0541

> <Gold.Chemscore.DG>
-9.8932

> <Gold.Chemscore.ZeroCoef>
-5.4800

> <Gold.Chemscore.Hbond>
3.7449

> <Gold.Chemscore.Metal>
0.0000

> <Gold.Chemscore.Lipo>
19.2176

> <Gold.Chemscore.Internal_Hbond>
0.0000

> <Gold.Chemscore.DEClash>
1.5622

> <Gold.Chemscore.DEInternal>
0.2769

> <Gold.Chemscore.Rot>
4.0403

> <Gold.Chemscore.Internal.Correction>
   9.000000E+99

> <Gold.Chemscore.Hbonds>
donor molecule, donor type, donor heavy atom, donor atom, acceptor molecule, acceptor atom, score
      L1  H    10    26       P1 10171  0.97
      L1  H    12    27       P1 10175  1.00
      P1  H  7954  7966       L1    10  0.85
      P1  H  7997  8008       L1     1  0.81

> <Gold.Chemscore.Hbond.Weighted>
-12.5078

> <Gold.Chemscore.Metal.Weighted>
-0.0000

> <Gold.Chemscore.Lipo.Weighted>
-2.2485

> <Gold.Chemscore.Internal_Hbond.Weighted>
0.0000

> <Gold.Chemscore.DEClash.Weighted>
1.5622

> <Gold.Chemscore.DEInternal.Weighted>
0.2769

> <Gold.Chemscore.Rot.Weighted>
10.3431

> <Gold.Chemscore.Internal.Correction.Weighted>
   9.000000E+99

> <Gold.Protein.RotatedTorsions>
[ 6907 6896 6895 6894 ] final  124.09 input  -60.11 | X-H torsion
[ 7974 7965 7964 7962 ] final  156.36 input  175.53 | X-H torsion
[ 8008 7997 7996 7995 ] final  -41.56 input   59.86 | X-H torsion
[ 10167 10162 10161 10158 ] final -155.88 input  -65.29 | X-H torsion
[ 10718 10713 10712 10709 ] final  -44.73 input   66.30 | X-H torsion
[ 10763 10752 10751 10750 ] final  -29.29 input  -60.55 | X-H torsion
[ 11005 11000 10999 10996 ] final  -94.38 input  -57.11 | X-H torsion

> <Gold.Protein.ActiveResidues>
 VAL166  LYS551  ARG553  GLY616  TRP617  ASP618  TYR619  PRO620  LYS621  CYS622 
 ASP623  PHE694  ASN695  SER759  ASP760  ASP761  ALA762  ILE779  LEU786  VAL792 
 PHE793  MET794  SER795  GLU796  ALA797  LYS798  CYS799  TRP800  GLU811  SER814 

> <Gold.Protein.RotatedAtoms>
  152.4107  133.6959  159.6395 H   0  0  0  0  0  0  0  0  0  0  0  0  # atno 6907 bound_to 6896
  150.7988  133.8629  159.3245 H   0  0  0  0  0  0  0  0  0  0  0  0  # atno 6908 bound_to 6896
  151.6372  135.1018  160.0185 H   0  0  0  0  0  0  0  0  0  0  0  0  # atno 6909 bound_to 6896
  144.7967  139.7194  143.6199 H   0  0  0  0  0  0  0  0  0  0  0  0  # atno 7974 bound_to 7965
  154.4003  140.1496  156.3211 H   0  0  0  0  0  0  0  0  0  0  0  0  # atno 8008 bound_to 7997
  155.8528  140.3457  155.5683 H   0  0  0  0  0  0  0  0  0  0  0  0  # atno 8009 bound_to 7997
  155.7965  140.0864  157.1971 H   0  0  0  0  0  0  0  0  0  0  0  0  # atno 8010 bound_to 7997
  139.6895  143.9445  152.2378 H   0  0  0  0  0  0  0  0  0  0  0  0  # atno 10167 bound_to 10162
  156.2356  130.4176  149.8822 H   0  0  0  0  0  0  0  0  0  0  0  0  # atno 10718 bound_to 10713
  153.7622  135.6918  153.4923 H   0  0  0  0  0  0  0  0  0  0  0  0  # atno 10763 bound_to 10752
  153.1931  135.4464  155.0173 H   0  0  0  0  0  0  0  0  0  0  0  0  # atno 10764 bound_to 10752
  154.8149  135.3394  154.7136 H   0  0  0  0  0  0  0  0  0  0  0  0  # atno 10765 bound_to 10752
  141.1472  133.7952  157.0290 H   0  0  0  0  0  0  0  0  0  0  0  0  # atno 11005 bound_to 11000
  146.2238  139.5684  142.9601 LP  0  0  0  0  0  0  0  0  0  0  0  0  # atno 17320 bound_to 7965
  145.5654  141.0400  143.2203 LP  0  0  0  0  0  0  0  0  0  0  0  0  # atno 17321 bound_to 7965
  139.9257  144.6772  150.8415 LP  0  0  0  0  0  0  0  0  0  0  0  0  # atno 17342 bound_to 10162
  140.7678  143.3344  151.2341 LP  0  0  0  0  0  0  0  0  0  0  0  0  # atno 17343 bound_to 10162
  156.6421  130.8709  151.3516 LP  0  0  0  0  0  0  0  0  0  0  0  0  # atno 17370 bound_to 10713
  157.7153  130.9489  150.1232 LP  0  0  0  0  0  0  0  0  0  0  0  0  # atno 17371 bound_to 10713
  140.0766  134.9672  157.1556 LP  0  0  0  0  0  0  0  0  0  0  0  0  # atno 17394 bound_to 11000
  140.3635  134.2468  155.7184 LP  0  0  0  0  0  0  0  0  0  0  0  0  # atno 17395 bound_to 11000

$$$$
