AV-unprocessed.smi:276|AV-procd|sdf|2072|dock7
  -GOLD-   2262021333D 1   1.00000     0.00000
 Structure written by MMmdl.
 57 61  0  0  0  0  0  0  0  0  1 V2000
  152.5514  144.6090  158.5346 C   0  0  0  0  0  0  0  0  0  0  0  0
  151.8567  143.7771  157.6219 O   0  0  0  0  0  0  0  0  0  0  0  0
  151.0533  142.8056  158.2723 C   0  0  2  0  0  0  0  0  0  0  0  0
  151.8449  141.7742  159.0842 C   0  0  0  0  0  0  0  0  0  0  0  0
  150.8356  140.7290  158.5913 C   0  0  2  0  0  0  0  0  0  0  0  0
  151.4453  139.4214  158.3373 N   0  0  0  0  0  0  0  0  0  0  0  0
  152.4345  138.9762  159.3109 C   0  0  0  0  0  0  0  0  0  0  0  0
  150.5979  138.4113  158.0353 C   0  0  0  0  0  0  0  0  0  0  0  0
  149.7427  138.0170  159.0117 N   0  0  0  0  0  0  0  0  0  0  0  0
  148.8831  137.0189  158.7877 C   0  0  0  0  0  0  0  0  0  0  0  0
  148.7120  136.2984  157.6776 N   0  0  0  0  0  0  0  0  0  0  0  0
  149.5552  136.7067  156.6867 C   0  0  0  0  0  0  0  0  0  0  0  0
  150.5174  137.7523  156.7744 C   0  0  0  0  0  0  0  0  0  0  0  0
  151.1728  137.8912  155.5561 N   0  0  0  0  0  0  0  0  0  0  0  0
  150.6429  136.9699  154.7993 C   0  0  0  0  0  0  0  0  0  0  0  0
  149.6630  136.2130  155.3989 N   0  0  0  0  0  0  0  0  0  0  0  0
  148.9096  135.1313  154.7896 C   0  0  0  0  0  0  0  0  0  0  0  0
  149.7738  133.8786  154.5502 C   0  0  2  0  0  0  0  0  0  0  0  0
  149.0618  132.9188  153.7923 O   0  0  0  0  0  0  0  0  0  0  0  0
  150.3023  133.2585  155.8597 C   0  0  2  0  0  0  0  0  0  0  0  0
  151.1599  131.9976  155.7224 C   0  0  0  0  0  0  0  0  0  0  0  0
  151.0030  131.3863  157.0964 C   0  0  0  0  0  0  0  0  0  0  0  0
  149.5387  131.6889  157.4066 C   0  0  0  0  0  0  0  0  0  0  0  0
  149.2490  132.9262  156.7610 O   0  0  0  0  0  0  0  0  0  0  0  0
  150.6098  141.6461  157.3587 C   0  0  0  0  0  0  0  0  0  0  0  0
  149.2607  141.7055  156.6300 C   0  0  0  0  0  0  0  0  0  0  0  0
  149.9190  141.0611  155.4056 C   0  0  0  0  0  0  0  0  0  0  0  0
  151.2901  141.4103  155.9944 C   0  0  0  0  0  0  0  0  0  0  0  0
  153.1480  145.3370  157.9851 H   0  0  0  0  0  0  0  0  0  0  0  0
  153.2267  144.0304  159.1659 H   0  0  0  0  0  0  0  0  0  0  0  0
  151.8575  145.1558  159.1741 H   0  0  0  0  0  0  0  0  0  0  0  0
  150.2143  143.2319  158.8268 H   0  0  0  0  0  0  0  0  0  0  0  0
  152.8557  141.6200  158.7011 H   0  0  0  0  0  0  0  0  0  0  0  0
  151.8405  141.9412  160.1614 H   0  0  0  0  0  0  0  0  0  0  0  0
  149.9653  140.6986  159.2479 H   0  0  0  0  0  0  0  0  0  0  0  0
  151.9824  138.8669  160.2973 H   0  0  0  0  0  0  0  0  0  0  0  0
  153.2490  139.6961  159.3879 H   0  0  0  0  0  0  0  0  0  0  0  0
  152.8710  138.0180  159.0251 H   0  0  0  0  0  0  0  0  0  0  0  0
  148.2420  136.7594  159.6173 H   0  0  0  0  0  0  0  0  0  0  0  0
  150.9508  136.8189  153.7746 H   0  0  0  0  0  0  0  0  0  0  0  0
  148.0715  134.8911  155.4448 H   0  0  0  0  0  0  0  0  0  0  0  0
  148.4790  135.4878  153.8531 H   0  0  0  0  0  0  0  0  0  0  0  0
  150.6372  134.1663  153.9489 H   0  0  0  0  0  0  0  0  0  0  0  0
  148.1616  132.9173  154.0797 H   0  0  0  0  0  0  0  0  0  0  0  0
  150.9024  134.0116  156.3732 H   0  0  0  0  0  0  0  0  0  0  0  0
  150.7579  131.3151  154.9730 H   0  0  0  0  0  0  0  0  0  0  0  0
  152.1970  132.2140  155.4650 H   0  0  0  0  0  0  0  0  0  0  0  0
  151.2337  130.3209  157.1223 H   0  0  0  0  0  0  0  0  0  0  0  0
  151.6525  131.8954  157.8098 H   0  0  0  0  0  0  0  0  0  0  0  0
  148.8941  130.9189  156.9806 H   0  0  0  0  0  0  0  0  0  0  0  0
  149.3405  131.7418  158.4773 H   0  0  0  0  0  0  0  0  0  0  0  0
  148.4685  141.1094  157.0821 H   0  0  0  0  0  0  0  0  0  0  0  0
  148.9327  142.7280  156.4381 H   0  0  0  0  0  0  0  0  0  0  0  0
  149.7401  139.9877  155.3426 H   0  0  0  0  0  0  0  0  0  0  0  0
  149.6948  141.5579  154.4614 H   0  0  0  0  0  0  0  0  0  0  0  0
  151.6997  142.3192  155.5528 H   0  0  0  0  0  0  0  0  0  0  0  0
  152.0175  140.5999  155.9619 H   0  0  0  0  0  0  0  0  0  0  0  0
  1  2  1  0  0  0  0
  1 29  1  0  0  0  0
  1 30  1  0  0  0  0
  1 31  1  0  0  0  0
  2  3  1  0  0  0  0
  3 25  1  0  0  0  0
  3  4  1  0  0  0  0
  3 32  1  0  0  0  0
  4  5  1  0  0  0  0
  4 33  1  0  0  0  0
  4 34  1  0  0  0  0
  5  6  1  0  0  0  0
  5 25  1  0  0  0  0
  5 35  1  0  0  0  0
  6  7  1  0  0  0  0
  6  8  1  0  0  0  0
  7 36  1  0  0  0  0
  7 37  1  0  0  0  0
  7 38  1  0  0  0  0
  8 13  1  0  0  0  0
  8  9  2  0  0  0  0
  9 10  1  0  0  0  0
 10 11  2  0  0  0  0
 10 39  1  0  0  0  0
 11 12  1  0  0  0  0
 12 16  1  0  0  0  0
 12 13  2  0  0  0  0
 13 14  1  0  0  0  0
 14 15  2  0  0  0  0
 15 16  1  0  0  0  0
 15 40  1  0  0  0  0
 16 17  1  0  0  0  0
 17 18  1  0  0  0  0
 17 41  1  0  0  0  0
 17 42  1  0  0  0  0
 18 19  1  0  0  0  0
 18 20  1  0  0  0  0
 18 43  1  0  0  0  0
 19 44  1  0  0  0  0
 20 24  1  0  0  0  0
 20 21  1  0  0  0  0
 20 45  1  0  0  0  0
 21 22  1  0  0  0  0
 21 46  1  0  0  0  0
 21 47  1  0  0  0  0
 22 23  1  0  0  0  0
 22 48  1  0  0  0  0
 22 49  1  0  0  0  0
 23 24  1  0  0  0  0
 23 50  1  0  0  0  0
 23 51  1  0  0  0  0
 25 28  1  0  0  0  0
 25 26  1  0  0  0  0
 26 27  1  0  0  0  0
 26 52  1  0  0  0  0
 26 53  1  0  0  0  0
 27 28  1  0  0  0  0
 27 54  1  0  0  0  0
 27 55  1  0  0  0  0
 28 56  1  0  0  0  0
 28 57  1  0  0  0  0
M  END
> <s_m_source_file>
AV-unprocessed.smi

> <i_m_source_file_index>
276

> <i_lp_mmshare_version>
43012

> <i_f3d_flags>
0

> <s_epik_input>
W0NIMl0xW0NIMl1bQ0gyXUMxMltDQEhdKE9bQ0gzXSlbQ0gyXVtDQEhdMk4oW0NIM10pYyhuW2NIXW4zKWMoYzM0KW5bY0hdbjRbQ0gyXVtDQEhdKFtPSF0pW0NAQEhdNVtDSDJdW0NIMl1bQ0gyXU81

> <s_epik_cmdline>
J2VwaWtfcHl0aG9uJywgJy1waCcsICc3LjAnLCAnLXRuJywgJzgnLCAnLW1hJywgJzIwMCcsICctbWV0YWxfYmluZGluZycsICctaW1hZScsICc8aW5maWxlLm1hZT4nLCAnLW9tYWUnLCAnPG91dGZpbGUubWFlPic=

> <r_lp_tautomer_probability>
1

> <r_epik_Ionization_Penalty>
0.00204117

> <r_epik_Ionization_Penalty_Charging>
0

> <r_epik_Ionization_Penalty_Neutral>
0.00204117

> <r_epik_State_Penalty>
0.00127401

> <r_epik_Charging_Adjusted_Penalty>
0.00127401

> <i_epik_Tot_Q>
0

> <i_epik_Tot_abs_Q>
0

> <r_epik_Metal_State_Penalty>
-0

> <b_epik_Metal_Only>
0

> <s_lp_Force_Field>
OPLS_2005

> <r_lp_Energy>
58.4332

> <b_lp_Chiralities_Consistent>
1

> <s_lp_Variant>
AV-unprocessed.smi:276-3

> <Gold.Version>
5.8.1

> <Gold.Id.Protein>
6NUR|6NUR_protein|mol2

> <Gold.PLP.Fitness>
40.1739

> <Gold.PLP.PLP>
-38.0703

> <Gold.PLP.part.hbond>
-0.6764

> <Gold.PLP.part.metal>
0.0000

> <Gold.PLP.part.buried>
-7.6289

> <Gold.PLP.part.nonpolar>
-28.9554

> <Gold.PLP.part.repulsive>
0.1681

> <Gold.PLP.ligand.clash>
0.0000

> <Gold.PLP.ligand.torsion>
0.8796

> <Gold.PLP.Chemscore.Hbond>
0.0000

> <Gold.PLP.Chemscore.CHOScore>
1.0226

> <Gold.PLP.Chemscore.Metal>
0.0000

> <Gold.Chemscore.Hbonds>
donor molecule, donor type, donor heavy atom, donor atom, acceptor molecule, acceptor atom, score
      L1  C    15    40       P1  7948  0.07
      L1  C    15    40       P1  7949  0.99

> <Gold.PLP.Chemscore.Internal.Correction>
0.7949

> <Gold.Rescore>
     Score         DG    S(hbond)    S(metal)    S(lipo)     H(rot)  DE(clash)    DE(int)     intcor
      8.85      -9.86       0.00        0.00      96.90       2.72       0.04       0.97       ----

> <Gold.Chemscore.Fitness>
8.8523

> <Gold.Chemscore.DG>
-9.8608

> <Gold.Chemscore.ZeroCoef>
-5.4800

> <Gold.Chemscore.Hbond>
0.0000

> <Gold.Chemscore.Metal>
0.0000

> <Gold.Chemscore.Lipo>
96.8956

> <Gold.Chemscore.Internal_Hbond>
0.0000

> <Gold.Chemscore.DEClash>
0.0366

> <Gold.Chemscore.DEInternal>
0.9718

> <Gold.Chemscore.Rot>
2.7172

> <Gold.Chemscore.Internal.Correction>
   9.000000E+99

> <Gold.Chemscore.Hbond.Weighted>
-0.0000

> <Gold.Chemscore.Metal.Weighted>
-0.0000

> <Gold.Chemscore.Lipo.Weighted>
-11.3368

> <Gold.Chemscore.Internal_Hbond.Weighted>
0.0000

> <Gold.Chemscore.DEClash.Weighted>
0.0366

> <Gold.Chemscore.DEInternal.Weighted>
0.9718

> <Gold.Chemscore.Rot.Weighted>
6.9560

> <Gold.Chemscore.Internal.Correction.Weighted>
   9.000000E+99

> <Gold.Protein.RotatedTorsions>
[ 6907 6896 6895 6894 ] final   11.76 input  -60.11 | X-H torsion
[ 7974 7965 7964 7962 ] final   19.10 input  175.53 | X-H torsion
[ 8008 7997 7996 7995 ] final  -46.58 input   59.86 | X-H torsion
[ 10167 10162 10161 10158 ] final   71.21 input  -65.29 | X-H torsion
[ 10718 10713 10712 10709 ] final  -34.09 input   66.30 | X-H torsion
[ 10763 10752 10751 10750 ] final  175.00 input  -60.55 | X-H torsion
[ 11005 11000 10999 10996 ] final  -28.34 input  -57.11 | X-H torsion

> <Gold.Protein.ActiveResidues>
 VAL166  LYS551  ARG553  GLY616  TRP617  ASP618  TYR619  PRO620  LYS621  CYS622 
 ASP623  PHE694  ASN695  SER759  ASP760  ASP761  ALA762  ILE779  LEU786  VAL792 
 PHE793  MET794  SER795  GLU796  ALA797  LYS798  CYS799  TRP800  GLU811  SER814 

> <Gold.Protein.RotatedAtoms>
  151.7595  135.0813  160.0343 H   0  0  0  0  0  0  0  0  0  0  0  0  # atno 6907 bound_to 6896
  152.3363  133.6011  159.5853 H   0  0  0  0  0  0  0  0  0  0  0  0  # atno 6908 bound_to 6896
  150.7452  133.9707  159.3586 H   0  0  0  0  0  0  0  0  0  0  0  0  # atno 6909 bound_to 6896
  146.2161  139.8361  142.8650 H   0  0  0  0  0  0  0  0  0  0  0  0  # atno 7974 bound_to 7965
  154.4008  140.1368  156.4035 H   0  0  0  0  0  0  0  0  0  0  0  0  # atno 8008 bound_to 7997
  155.7802  140.3481  155.5273 H   0  0  0  0  0  0  0  0  0  0  0  0  # atno 8009 bound_to 7997
  155.8681  140.0967  157.1559 H   0  0  0  0  0  0  0  0  0  0  0  0  # atno 8010 bound_to 7997
  140.0486  144.5330  150.7380 H   0  0  0  0  0  0  0  0  0  0  0  0  # atno 10167 bound_to 10162
  156.3548  130.4314  149.7674 H   0  0  0  0  0  0  0  0  0  0  0  0  # atno 10718 bound_to 10713
  154.4616  135.2768  155.1709 H   0  0  0  0  0  0  0  0  0  0  0  0  # atno 10763 bound_to 10752
  154.3494  135.6153  153.5639 H   0  0  0  0  0  0  0  0  0  0  0  0  # atno 10764 bound_to 10752
  152.9855  135.5808  154.4979 H   0  0  0  0  0  0  0  0  0  0  0  0  # atno 10765 bound_to 10752
  140.9200  133.7405  156.0788 H   0  0  0  0  0  0  0  0  0  0  0  0  # atno 11005 bound_to 11000
  145.2947  141.0177  143.3643 LP  0  0  0  0  0  0  0  0  0  0  0  0  # atno 17320 bound_to 7965
  144.9051  139.4600  143.6614 LP  0  0  0  0  0  0  0  0  0  0  0  0  # atno 17321 bound_to 7965
  140.7227  143.2605  151.4225 LP  0  0  0  0  0  0  0  0  0  0  0  0  # atno 17342 bound_to 10162
  139.5967  144.1382  152.2152 LP  0  0  0  0  0  0  0  0  0  0  0  0  # atno 17343 bound_to 10162
  156.4860  130.8063  151.3075 LP  0  0  0  0  0  0  0  0  0  0  0  0  # atno 17370 bound_to 10713
  157.7466  130.9990  150.2875 LP  0  0  0  0  0  0  0  0  0  0  0  0  # atno 17371 bound_to 10713
  140.8000  134.3520  157.5442 LP  0  0  0  0  0  0  0  0  0  0  0  0  # atno 17394 bound_to 11000
  139.8773  134.9192  156.3221 LP  0  0  0  0  0  0  0  0  0  0  0  0  # atno 17395 bound_to 11000

$$$$
