AV-unprocessed.smi:2066|AV-procd|sdf|8420|dock5
  -GOLD-   2272011113D 1   1.00000     0.00000
 Structure written by MMmdl.
 40 41  0  0  0  0  0  0  0  0  2 V2000
  146.1021  141.1556  155.7743 C   0  0  0  0  0  0  0  0  0  0  0  0
  146.8448  141.1272  154.4156 C   0  0  0  0  0  0  0  0  0  0  0  0
  146.6402  142.5070  153.7354 C   0  0  0  0  0  0  0  0  0  0  0  0
  148.3784  140.9266  154.6227 C   0  0  0  0  0  0  0  0  0  0  0  0
  149.0130  141.9490  155.4555 N   0  0  0  0  0  0  0  0  0  0  0  0
  149.9033  141.7180  156.4316 C   0  0  0  0  0  0  0  0  0  0  0  0
  150.2829  140.5908  156.7504 O   0  0  0  0  0  0  0  0  0  0  0  0
  150.3089  142.8659  157.0015 N   0  0  0  0  0  0  0  0  0  0  0  0
  151.2255  143.0373  158.0718 C   0  0  0  0  0  0  0  0  0  0  0  0
  151.6162  142.0575  158.8950 N   0  0  0  0  0  0  0  0  0  0  0  0
  152.5232  142.5107  159.8562 C   0  0  0  0  0  0  0  0  0  0  0  0
  152.8132  143.8481  159.7499 C   0  0  0  0  0  0  0  0  0  0  0  0
  151.9522  144.5966  158.4313 S   0  0  0  0  0  0  0  0  0  0  0  0
  146.3321  140.0074  153.5412 N   0  3  0  0  0  0  0  0  0  0  0  0
  147.1762  139.6889  152.3528 C   0  0  0  0  0  0  0  0  0  0  0  0
  146.4664  138.6830  151.4340 C   0  0  0  0  0  0  0  0  0  0  0  0
  146.1942  137.4955  152.1629 O   0  0  0  0  0  0  0  0  0  0  0  0
  145.3207  137.7427  153.2547 C   0  0  0  0  0  0  0  0  0  0  0  0
  145.9633  138.7398  154.2357 C   0  0  0  0  0  0  0  0  0  0  0  0
  146.3670  142.0388  156.3560 H   0  0  0  0  0  0  0  0  0  0  0  0
  146.3441  140.2904  156.3918 H   0  0  0  0  0  0  0  0  0  0  0  0
  145.0203  141.1799  155.6436 H   0  0  0  0  0  0  0  0  0  0  0  0
  147.0900  143.3176  154.3089 H   0  0  0  0  0  0  0  0  0  0  0  0
  145.5863  142.7703  153.6451 H   0  0  0  0  0  0  0  0  0  0  0  0
  147.0840  142.5315  152.7395 H   0  0  0  0  0  0  0  0  0  0  0  0
  148.6067  139.9491  155.0447 H   0  0  0  0  0  0  0  0  0  0  0  0
  148.8798  140.9470  153.6545 H   0  0  0  0  0  0  0  0  0  0  0  0
  148.7607  142.9079  155.2653 H   0  0  0  0  0  0  0  0  0  0  0  0
  149.9158  143.7174  156.6285 H   0  0  0  0  0  0  0  0  0  0  0  0
  152.9137  141.8111  160.5800 H   0  0  0  0  0  0  0  0  0  0  0  0
  153.4781  144.4359  160.3651 H   0  0  0  0  0  0  0  0  0  0  0  0
  147.4079  140.5776  151.7704 H   0  0  0  0  0  0  0  0  0  0  0  0
  148.1277  139.2610  152.6710 H   0  0  0  0  0  0  0  0  0  0  0  0
  145.5441  139.1028  151.0288 H   0  0  0  0  0  0  0  0  0  0  0  0
  147.1046  138.4357  150.5855 H   0  0  0  0  0  0  0  0  0  0  0  0
  144.3640  138.1202  152.8901 H   0  0  0  0  0  0  0  0  0  0  0  0
  145.1153  136.7990  153.7606 H   0  0  0  0  0  0  0  0  0  0  0  0
  146.8468  138.2948  154.6949 H   0  0  0  0  0  0  0  0  0  0  0  0
  145.2358  138.9113  155.0273 H   0  0  0  0  0  0  0  0  0  0  0  0
  145.4605  140.3559  153.1683 H   0  0  0  0  0  0  0  0  0  0  0  0
  1  2  1  0  0  0  0
  1 20  1  0  0  0  0
  1 21  1  0  0  0  0
  1 22  1  0  0  0  0
  2  3  1  0  0  0  0
  2  4  1  0  0  0  0
  2 14  1  0  0  0  0
  3 23  1  0  0  0  0
  3 24  1  0  0  0  0
  3 25  1  0  0  0  0
  4  5  1  0  0  0  0
  4 26  1  0  0  0  0
  4 27  1  0  0  0  0
  5  6  1  0  0  0  0
  5 28  1  0  0  0  0
  6  7  2  0  0  0  0
  6  8  1  0  0  0  0
  8  9  1  0  0  0  0
  8 29  1  0  0  0  0
  9 13  1  0  0  0  0
  9 10  2  0  0  0  0
 10 11  1  0  0  0  0
 11 12  2  0  0  0  0
 11 30  1  0  0  0  0
 12 13  1  0  0  0  0
 12 31  1  0  0  0  0
 14 19  1  0  0  0  0
 14 15  1  0  0  0  0
 14 40  1  0  0  0  0
 15 16  1  0  0  0  0
 15 32  1  0  0  0  0
 15 33  1  0  0  0  0
 16 17  1  0  0  0  0
 16 34  1  0  0  0  0
 16 35  1  0  0  0  0
 17 18  1  0  0  0  0
 18 19  1  0  0  0  0
 18 36  1  0  0  0  0
 18 37  1  0  0  0  0
 19 38  1  0  0  0  0
 19 39  1  0  0  0  0
M  CHG  1  14   1
M  END
> <s_m_source_file>
AV-unprocessed.smi

> <i_m_source_file_index>
2066

> <i_lp_mmshare_version>
43012

> <i_f3d_flags>
0

> <s_epik_input>
W0NIMl0xW0NIMl1PW0NIMl1bQ0gyXU4xQyhbQ0gzXSkoW0NIM10pW0NIMl1bTkhdQyg9TylbTkhdYzJuW2NIXVtjSF1zMg==

> <s_epik_cmdline>
J2VwaWtfcHl0aG9uJywgJy1waCcsICc3LjAnLCAnLXRuJywgJzgnLCAnLW1hJywgJzIwMCcsICctbWV0YWxfYmluZGluZycsICctaW1hZScsICc8aW5maWxlLm1hZT4nLCAnLW9tYWUnLCAnPG91dGZpbGUubWFlPic=

> <r_lp_tautomer_probability>
0.999

> <r_epik_Ionization_Penalty>
0.695839

> <r_epik_Ionization_Penalty_Charging>
0.695697

> <r_epik_Ionization_Penalty_Neutral>
0.000141498

> <r_epik_State_Penalty>
0.717972

> <r_epik_Charging_Adjusted_Penalty>
1.41367

> <i_epik_Tot_Q>
1

> <i_epik_Tot_abs_Q>
1

> <r_epik_Metal_State_Penalty>
0.756569

> <b_epik_Metal_Only>
0

> <s_lp_Force_Field>
OPLS_2005

> <r_lp_Energy>
24.1099

> <b_lp_Chiralities_Consistent>
1

> <s_lp_Variant>
AV-unprocessed.smi:2066-2

> <Gold.Version>
5.8.1

> <Gold.Id.Protein>
6NUR|6NUR_protein|mol2

> <Gold.PLP.Fitness>
45.6616

> <Gold.PLP.PLP>
-34.9624

> <Gold.PLP.part.hbond>
-3.0000

> <Gold.PLP.part.metal>
0.0000

> <Gold.PLP.part.buried>
-1.5007

> <Gold.PLP.part.nonpolar>
-32.2405

> <Gold.PLP.part.repulsive>
1.1067

> <Gold.PLP.ligand.clash>
0.0000

> <Gold.PLP.ligand.torsion>
0.6950

> <Gold.PLP.Chemscore.Hbond>
4.0000

> <Gold.PLP.Chemscore.CHOScore>
0.0000

> <Gold.PLP.Chemscore.Metal>
0.0000

> <Gold.Chemscore.Hbonds>
donor molecule, donor type, donor heavy atom, donor atom, acceptor molecule, acceptor atom, score
      L1  H     5    28       P1  8028  1.00
      L1  H     8    29       P1  8028  1.00
      L1  H    14    40       P1 10175  2.00

> <Gold.PLP.Chemscore.Internal.Correction>
0.0893

> <Gold.Rescore>
     Score         DG    S(hbond)    S(metal)    S(lipo)     H(rot)  DE(clash)    DE(int)     intcor
     18.29     -20.64       2.93        0.00      81.47       1.62       0.42       1.93       ----

> <Gold.Chemscore.Fitness>
18.2920

> <Gold.Chemscore.DG>
-20.6446

> <Gold.Chemscore.ZeroCoef>
-5.4800

> <Gold.Chemscore.Hbond>
2.9311

> <Gold.Chemscore.Metal>
0.0000

> <Gold.Chemscore.Lipo>
81.4689

> <Gold.Chemscore.Internal_Hbond>
0.0000

> <Gold.Chemscore.DEClash>
0.4189

> <Gold.Chemscore.DEInternal>
1.9337

> <Gold.Chemscore.Rot>
1.6238

> <Gold.Chemscore.Internal.Correction>
   9.000000E+99

> <Gold.Chemscore.Hbonds>
donor molecule, donor type, donor heavy atom, donor atom, acceptor molecule, acceptor atom, score
      L1  H     5    28       P1  8028  0.96
      L1  H     8    29       P1  8028  0.99
      L1  H    14    40       P1 10175  0.97

> <Gold.Chemscore.Hbond.Weighted>
-9.7897

> <Gold.Chemscore.Metal.Weighted>
-0.0000

> <Gold.Chemscore.Lipo.Weighted>
-9.5319

> <Gold.Chemscore.Internal_Hbond.Weighted>
0.0000

> <Gold.Chemscore.DEClash.Weighted>
0.4189

> <Gold.Chemscore.DEInternal.Weighted>
1.9337

> <Gold.Chemscore.Rot.Weighted>
4.1570

> <Gold.Chemscore.Internal.Correction.Weighted>
   9.000000E+99

> <Gold.Protein.RotatedTorsions>
[ 6907 6896 6895 6894 ] final   33.01 input  -60.11 | X-H torsion
[ 7974 7965 7964 7962 ] final -155.75 input  175.53 | X-H torsion
[ 8008 7997 7996 7995 ] final   11.24 input   59.86 | X-H torsion
[ 10167 10162 10161 10158 ] final -141.84 input  -65.29 | X-H torsion
[ 10718 10713 10712 10709 ] final   -7.88 input   66.30 | X-H torsion
[ 10763 10752 10751 10750 ] final  -55.21 input  -60.55 | X-H torsion
[ 11005 11000 10999 10996 ] final   37.79 input  -57.11 | X-H torsion

> <Gold.Protein.ActiveResidues>
 VAL166  LYS551  ARG553  GLY616  TRP617  ASP618  TYR619  PRO620  LYS621  CYS622 
 ASP623  PHE694  ASN695  SER759  ASP760  ASP761  ALA762  ILE779  LEU786  VAL792 
 PHE793  MET794  SER795  GLU796  ALA797  LYS798  CYS799  TRP800  GLU811  SER814 

> <Gold.Protein.RotatedAtoms>
  152.0824  134.9462  160.0573 H   0  0  0  0  0  0  0  0  0  0  0  0  # atno 6907 bound_to 6896
  152.0745  133.4118  159.4482 H   0  0  0  0  0  0  0  0  0  0  0  0  # atno 6908 bound_to 6896
  150.6836  134.2973  159.4735 H   0  0  0  0  0  0  0  0  0  0  0  0  # atno 6909 bound_to 6896
  144.7625  140.4206  143.5966 H   0  0  0  0  0  0  0  0  0  0  0  0  # atno 7974 bound_to 7965
  154.8042  140.2857  155.5899 H   0  0  0  0  0  0  0  0  0  0  0  0  # atno 8008 bound_to 7997
  156.2981  140.2580  156.2846 H   0  0  0  0  0  0  0  0  0  0  0  0  # atno 8009 bound_to 7997
  154.9523  140.0379  157.2139 H   0  0  0  0  0  0  0  0  0  0  0  0  # atno 8010 bound_to 7997
  139.8146  143.7657  152.2664 H   0  0  0  0  0  0  0  0  0  0  0  0  # atno 10167 bound_to 10162
  156.7107  130.5121  149.5893 H   0  0  0  0  0  0  0  0  0  0  0  0  # atno 10718 bound_to 10713
  154.1871  135.6433  153.5050 H   0  0  0  0  0  0  0  0  0  0  0  0  # atno 10763 bound_to 10752
  153.0044  135.5420  154.6454 H   0  0  0  0  0  0  0  0  0  0  0  0  # atno 10764 bound_to 10752
  154.5833  135.2927  155.0683 H   0  0  0  0  0  0  0  0  0  0  0  0  # atno 10765 bound_to 10752
  140.2190  134.3663  155.8013 H   0  0  0  0  0  0  0  0  0  0  0  0  # atno 11005 bound_to 11000
  145.6573  139.1575  143.2828 LP  0  0  0  0  0  0  0  0  0  0  0  0  # atno 17320 bound_to 7965
  146.1702  140.6657  142.9237 LP  0  0  0  0  0  0  0  0  0  0  0  0  # atno 17321 bound_to 7965
  139.7816  144.7442  151.0080 LP  0  0  0  0  0  0  0  0  0  0  0  0  # atno 17342 bound_to 10162
  140.7816  143.4536  151.0377 LP  0  0  0  0  0  0  0  0  0  0  0  0  # atno 17343 bound_to 10162
  156.1663  130.6407  151.0782 LP  0  0  0  0  0  0  0  0  0  0  0  0  # atno 17370 bound_to 10713
  157.6937  131.0801  150.7032 LP  0  0  0  0  0  0  0  0  0  0  0  0  # atno 17371 bound_to 10713
  141.2224  133.7183  156.8545 LP  0  0  0  0  0  0  0  0  0  0  0  0  # atno 17394 bound_to 11000
  140.1869  134.8993  157.3015 LP  0  0  0  0  0  0  0  0  0  0  0  0  # atno 17395 bound_to 11000

$$$$
