AV-unprocessed.smi:1224|AV-procd|sdf|5133|dock6
  -GOLD-   22720 4193D 1   1.00000     0.00000
 Structure written by MMmdl.
 43 45  0  0  0  0  0  0  0  0  1 V2000
  146.9323  129.9228  152.1316 C   0  0  0  0  0  0  0  0  0  0  0  0
  146.4022  131.3375  151.9769 C   0  0  0  0  0  0  0  0  0  0  0  0
  145.4786  131.6166  150.9444 C   0  0  0  0  0  0  0  0  0  0  0  0
  144.9618  132.9188  150.7673 C   0  0  0  0  0  0  0  0  0  0  0  0
  144.0631  133.4100  149.8358 N   0  0  0  0  0  0  0  0  0  0  0  0
  143.9850  134.6900  150.1880 C   0  0  0  0  0  0  0  0  0  0  0  0
  144.7207  135.0847  151.2452 N   0  0  0  0  0  0  0  0  0  0  0  0
  144.7934  136.4184  151.8147 C   0  0  0  0  0  0  0  0  0  0  0  0
  146.2266  136.9862  151.8173 C   0  0  1  0  0  0  0  0  0  0  0  0
  146.4310  137.6216  150.5727 O   0  0  0  0  0  0  0  0  0  0  0  0
  146.4808  138.0155  152.9356 C   0  0  0  0  0  0  0  0  0  0  0  0
  147.8776  138.4385  152.9552 N   0  0  0  0  0  0  0  0  0  0  0  0
  148.3051  138.9406  154.2559 C   0  0  0  0  0  0  0  0  0  0  0  0
  149.7886  138.9002  154.4097 C   0  0  0  0  0  0  0  0  0  0  0  0
  150.6481  137.9085  154.0092 C   0  0  0  0  0  0  0  0  0  0  0  0
  152.0119  138.1916  154.3141 C   0  0  0  0  0  0  0  0  0  0  0  0
  152.1756  139.3966  154.9441 C   0  0  0  0  0  0  0  0  0  0  0  0
  150.6521  140.2101  155.1751 S   0  0  0  0  0  0  0  0  0  0  0  0
  145.3957  133.9419  151.6601 C   0  0  0  0  0  0  0  0  0  0  0  0
  146.3156  133.6772  152.6898 C   0  0  0  0  0  0  0  0  0  0  0  0
  146.8229  132.3710  152.8521 C   0  0  0  0  0  0  0  0  0  0  0  0
  147.8155  132.0954  153.9677 C   0  0  0  0  0  0  0  0  0  0  0  0
  146.5104  129.2546  151.3802 H   0  0  0  0  0  0  0  0  0  0  0  0
  146.6766  129.5247  153.1138 H   0  0  0  0  0  0  0  0  0  0  0  0
  148.0169  129.9066  152.0226 H   0  0  0  0  0  0  0  0  0  0  0  0
  145.1582  130.8302  150.2771 H   0  0  0  0  0  0  0  0  0  0  0  0
  143.3497  135.3795  149.6515 H   0  0  0  0  0  0  0  0  0  0  0  0
  144.1309  137.0666  151.2394 H   0  0  0  0  0  0  0  0  0  0  0  0
  144.3952  136.3866  152.8302 H   0  0  0  0  0  0  0  0  0  0  0  0
  146.9331  136.1593  151.9030 H   0  0  0  0  0  0  0  0  0  0  0  0
  145.6249  138.0462  150.3206 H   0  0  0  0  0  0  0  0  0  0  0  0
  145.8154  138.8730  152.8261 H   0  0  0  0  0  0  0  0  0  0  0  0
  146.2464  137.5700  153.9022 H   0  0  0  0  0  0  0  0  0  0  0  0
  148.4653  137.6543  152.6904 H   0  0  0  0  0  0  0  0  0  0  0  0
  147.9609  139.9668  154.3892 H   0  0  0  0  0  0  0  0  0  0  0  0
  147.8394  138.3558  155.0499 H   0  0  0  0  0  0  0  0  0  0  0  0
  150.3466  136.9979  153.5124 H   0  0  0  0  0  0  0  0  0  0  0  0
  152.8128  137.5113  154.0644 H   0  0  0  0  0  0  0  0  0  0  0  0
  153.0927  139.8545  155.2846 H   0  0  0  0  0  0  0  0  0  0  0  0
  146.6276  134.4735  153.3493 H   0  0  0  0  0  0  0  0  0  0  0  0
  148.0297  132.9976  154.5412 H   0  0  0  0  0  0  0  0  0  0  0  0
  148.7571  131.7275  153.5596 H   0  0  0  0  0  0  0  0  0  0  0  0
  147.4198  131.3478  154.6556 H   0  0  0  0  0  0  0  0  0  0  0  0
  1  2  1  0  0  0  0
  1 23  1  0  0  0  0
  1 24  1  0  0  0  0
  1 25  1  0  0  0  0
  2 21  1  0  0  0  0
  2  3  2  0  0  0  0
  3  4  1  0  0  0  0
  3 26  1  0  0  0  0
  4 19  2  0  0  0  0
  4  5  1  0  0  0  0
  5  6  2  0  0  0  0
  6  7  1  0  0  0  0
  6 27  1  0  0  0  0
  7  8  1  0  0  0  0
  7 19  1  0  0  0  0
  8  9  1  0  0  0  0
  8 28  1  0  0  0  0
  8 29  1  0  0  0  0
  9 10  1  0  0  0  0
  9 11  1  0  0  0  0
  9 30  1  0  0  0  0
 10 31  1  0  0  0  0
 11 12  1  0  0  0  0
 11 32  1  0  0  0  0
 11 33  1  0  0  0  0
 12 13  1  0  0  0  0
 12 34  1  0  0  0  0
 13 14  1  0  0  0  0
 13 35  1  0  0  0  0
 13 36  1  0  0  0  0
 14 18  1  0  0  0  0
 14 15  2  0  0  0  0
 15 16  1  0  0  0  0
 15 37  1  0  0  0  0
 16 17  2  0  0  0  0
 16 38  1  0  0  0  0
 17 18  1  0  0  0  0
 17 39  1  0  0  0  0
 19 20  1  0  0  0  0
 20 21  2  0  0  0  0
 20 40  1  0  0  0  0
 21 22  1  0  0  0  0
 22 41  1  0  0  0  0
 22 42  1  0  0  0  0
 22 43  1  0  0  0  0
M  END
> <s_m_source_file>
AV-unprocessed.smi

> <i_m_source_file_index>
1224

> <i_lp_mmshare_version>
43012

> <i_f3d_flags>
0

> <s_epik_input>
W0NIM11jKFtjSF0xKWMoW0NIM10pW2NIXWMoYzEyKW4oW2NIXW4yKVtDSDJdW0NASF0oW09IXSlbQ0gyXVtOSF1bQ0gyXWMzW2NIXVtjSF1bY0hdczM=

> <s_epik_cmdline>
J2VwaWtfcHl0aG9uJywgJy1waCcsICc3LjAnLCAnLXRuJywgJzgnLCAnLW1hJywgJzIwMCcsICctbWV0YWxfYmluZGluZycsICctaW1hZScsICc8aW5maWxlLm1hZT4nLCAnLW9tYWUnLCAnPG91dGZpbGUubWFlPic=

> <r_epik_Ionization_Penalty>
1.55566

> <r_epik_Ionization_Penalty_Charging>
0

> <r_epik_Ionization_Penalty_Neutral>
1.55566

> <r_epik_State_Penalty>
1.63945

> <r_epik_Charging_Adjusted_Penalty>
1.63945

> <i_epik_Tot_Q>
0

> <i_epik_Tot_abs_Q>
0

> <r_epik_Metal_State_Penalty>
1.52326

> <b_epik_Metal_Only>
0

> <s_lp_Force_Field>
OPLS_2005

> <r_lp_Energy>
15.3814

> <b_lp_Chiralities_Consistent>
1

> <s_lp_Variant>
AV-unprocessed.smi:1224-6

> <Gold.Version>
5.8.1

> <Gold.Id.Protein>
6NUR|6NUR_protein|mol2

> <Gold.PLP.Fitness>
49.5921

> <Gold.PLP.PLP>
-40.7733

> <Gold.PLP.part.hbond>
-4.9970

> <Gold.PLP.part.metal>
0.0000

> <Gold.PLP.part.buried>
2.0571

> <Gold.PLP.part.nonpolar>
-38.9524

> <Gold.PLP.part.repulsive>
0.2132

> <Gold.PLP.ligand.clash>
0.0000

> <Gold.PLP.ligand.torsion>
0.8297

> <Gold.PLP.Chemscore.Hbond>
2.9920

> <Gold.PLP.Chemscore.CHOScore>
0.4804

> <Gold.PLP.Chemscore.Metal>
0.0000

> <Gold.Chemscore.Hbonds>
donor molecule, donor type, donor heavy atom, donor atom, acceptor molecule, acceptor atom, score
      L1  H    10    31       P1 10171  1.00
      L1  H    12    34       P1  7948  1.00
      P1  H  7954  7966       L1    10  0.98
      L1  C     6    27       P1 10186  0.60

> <Gold.PLP.Chemscore.Internal.Correction>
0.0610

> <Gold.Rescore>
     Score         DG    S(hbond)    S(metal)    S(lipo)     H(rot)  DE(clash)    DE(int)     intcor
     19.82     -21.75       2.92        0.00     106.33       2.32       1.25       0.68       ----

> <Gold.Chemscore.Fitness>
19.8235

> <Gold.Chemscore.DG>
-21.7498

> <Gold.Chemscore.ZeroCoef>
-5.4800

> <Gold.Chemscore.Hbond>
2.9225

> <Gold.Chemscore.Metal>
0.0000

> <Gold.Chemscore.Lipo>
106.3327

> <Gold.Chemscore.Internal_Hbond>
0.0000

> <Gold.Chemscore.DEClash>
1.2458

> <Gold.Chemscore.DEInternal>
0.6805

> <Gold.Chemscore.Rot>
2.3173

> <Gold.Chemscore.Internal.Correction>
   9.000000E+99

> <Gold.Chemscore.Hbonds>
donor molecule, donor type, donor heavy atom, donor atom, acceptor molecule, acceptor atom, score
      L1  H    10    31       P1 10171  1.00
      L1  H    12    34       P1  7948  0.99
      P1  H  7954  7966       L1    10  0.92

> <Gold.Chemscore.Hbond.Weighted>
-9.7613

> <Gold.Chemscore.Metal.Weighted>
-0.0000

> <Gold.Chemscore.Lipo.Weighted>
-12.4409

> <Gold.Chemscore.Internal_Hbond.Weighted>
0.0000

> <Gold.Chemscore.DEClash.Weighted>
1.2458

> <Gold.Chemscore.DEInternal.Weighted>
0.6805

> <Gold.Chemscore.Rot.Weighted>
5.9324

> <Gold.Chemscore.Internal.Correction.Weighted>
   9.000000E+99

> <Gold.Protein.RotatedTorsions>
[ 6907 6896 6895 6894 ] final  135.70 input  -60.11 | X-H torsion
[ 7974 7965 7964 7962 ] final   85.69 input  175.53 | X-H torsion
[ 8008 7997 7996 7995 ] final    7.24 input   59.86 | X-H torsion
[ 10167 10162 10161 10158 ] final  -23.45 input  -65.29 | X-H torsion
[ 10718 10713 10712 10709 ] final  113.00 input   66.30 | X-H torsion
[ 10763 10752 10751 10750 ] final -127.40 input  -60.55 | X-H torsion
[ 11005 11000 10999 10996 ] final  -22.60 input  -57.11 | X-H torsion

> <Gold.Protein.ActiveResidues>
 VAL166  LYS551  ARG553  GLY616  TRP617  ASP618  TYR619  PRO620  LYS621  CYS622 
 ASP623  PHE694  ASN695  SER759  ASP760  ASP761  ALA762  ILE779  LEU786  VAL792 
 PHE793  MET794  SER795  GLU796  ALA797  LYS798  CYS799  TRP800  GLU811  SER814 

> <Gold.Protein.RotatedAtoms>
  152.2976  133.5622  159.5597 H   0  0  0  0  0  0  0  0  0  0  0  0  # atno 6907 bound_to 6896
  150.7263  134.0339  159.3751 H   0  0  0  0  0  0  0  0  0  0  0  0  # atno 6908 bound_to 6896
  151.8241  135.0643  160.0479 H   0  0  0  0  0  0  0  0  0  0  0  0  # atno 6909 bound_to 6896
  145.5822  139.2326  143.2346 H   0  0  0  0  0  0  0  0  0  0  0  0  # atno 7974 bound_to 7965
  154.7514  140.2767  155.6290 H   0  0  0  0  0  0  0  0  0  0  0  0  # atno 8008 bound_to 7997
  156.2896  140.2678  156.2194 H   0  0  0  0  0  0  0  0  0  0  0  0  # atno 8009 bound_to 7997
  155.0133  140.0372  157.2398 H   0  0  0  0  0  0  0  0  0  0  0  0  # atno 8010 bound_to 7997
  140.7288  143.4442  151.0612 H   0  0  0  0  0  0  0  0  0  0  0  0  # atno 10167 bound_to 10162
  157.6362  131.0977  150.6978 H   0  0  0  0  0  0  0  0  0  0  0  0  # atno 10718 bound_to 10713
  154.8752  135.3963  154.3588 H   0  0  0  0  0  0  0  0  0  0  0  0  # atno 10763 bound_to 10752
  153.4363  135.7026  153.6203 H   0  0  0  0  0  0  0  0  0  0  0  0  # atno 10764 bound_to 10752
  153.4803  135.3770  155.2408 H   0  0  0  0  0  0  0  0  0  0  0  0  # atno 10765 bound_to 10752
  140.8673  133.7745  156.0144 H   0  0  0  0  0  0  0  0  0  0  0  0  # atno 11005 bound_to 11000
  146.1708  140.6649  142.9234 LP  0  0  0  0  0  0  0  0  0  0  0  0  # atno 17320 bound_to 7965
  144.7389  140.4886  143.6884 LP  0  0  0  0  0  0  0  0  0  0  0  0  # atno 17321 bound_to 7965
  139.8112  143.7948  152.3171 LP  0  0  0  0  0  0  0  0  0  0  0  0  # atno 17342 bound_to 10162
  139.7999  144.7378  150.9839 LP  0  0  0  0  0  0  0  0  0  0  0  0  # atno 17343 bound_to 10162
  156.7309  130.4709  149.5500 LP  0  0  0  0  0  0  0  0  0  0  0  0  # atno 17370 bound_to 10713
  156.1603  130.6369  151.0710 LP  0  0  0  0  0  0  0  0  0  0  0  0  # atno 17371 bound_to 10713
  140.8614  134.2836  157.5232 LP  0  0  0  0  0  0  0  0  0  0  0  0  # atno 17394 bound_to 11000
  139.8710  134.9520  156.4102 LP  0  0  0  0  0  0  0  0  0  0  0  0  # atno 17395 bound_to 11000

$$$$
