#       Name:                AV-unprocessed.smi:193
#       Creating user name   scv26
#       Creation time:       Thu Mar 26 19:35:52 2020


#       File generated by GOLD software.
#

@<TRIPOS>MOLECULE
AV-unprocessed.smi:193
    70    74     1
SMALL
NO_CHARGES


@<TRIPOS>ATOM
      1 ****        -2.5423  -2.1820   1.2524 C.3            1 S1                 0.0000
      2 ****        -2.7699  -0.8164   1.9171 C.3            1 S1                 0.0000
      3 ****        -1.4316  -0.1283   2.2658 C.3            1 S1                 0.0000
      4 ****        -0.9165   0.7691   1.2328 N.3            1 S1                 0.0000
      5 ****         0.4305   0.6781   1.0913 C.ar           1 S1                 0.0000
      6 ****         1.2376   1.6668   1.5629 N.ar           1 S1                 0.0000
      7 ****         2.5651   1.5655   1.4497 C.ar           1 S1                 0.0000
      8 ****         3.2837   0.5786   0.9112 N.ar           1 S1                 0.0000
      9 ****         2.4805  -0.4157   0.4357 C.ar           1 S1                 0.0000
     10 ****         1.0582  -0.4478   0.4898 C.ar           1 S1                 0.0000
     11 ****         0.5894  -1.6219  -0.0853 N.2            1 S1                 0.0000
     12 ****         1.6714  -2.2495  -0.4564 C.2            1 S1                 0.0000
     13 ****         2.8518  -1.5920  -0.1923 N.pl3          1 S1                 0.0000
     14 ****         4.1951  -2.0584  -0.5021 C.3            1 S1                 0.0000
     15 ****         4.7354  -1.5711  -1.8704 C.3            1 S1                 0.0000
     16 ****         4.8775  -0.1629  -1.8039 O.3            1 S1                 0.0000
     17 ****         6.1222  -2.1852  -2.1490 C.3            1 S1                 0.0000
     18 ****         6.6256  -1.8644  -3.5676 C.3            1 S1                 0.0000
     19 ****         5.6691  -2.2899  -4.5305 O.3            1 S1                 0.0000
     20 ****         4.4269  -1.6077  -4.4096 C.3            1 S1                 0.0000
     21 ****         3.7875  -1.9087  -3.0422 C.3            1 S1                 0.0000
     22 ****        -1.4812   2.1198   1.2581 C.3            1 S1                 0.0000
     23 ****        -2.9123   2.1969   0.7080 C.3            1 S1                 0.0000
     24 ****        -3.8711   1.4152   1.4906 N.3            1 S1                 0.0000
     25 ****        -5.2024   1.8949   1.1497 C.3            1 S1                 0.0000
     26 ****        -6.2999   1.6801   2.1675 C.3            1 S1                 0.0000
     27 ****        -5.7472   3.0668   1.9377 C.3            1 S1                 0.0000
     28 ****        -6.5896   4.1260   1.2614 C.3            1 S1                 0.0000
     29 ****        -3.7827   0.0088   1.0936 C.3            1 S1                 0.0000
     30 ****        -2.1033  -2.0705   0.2613 H              1 S1                 0.0000
     31 ****        -3.4820  -2.7226   1.1366 H              1 S1                 0.0000
     32 ****        -1.8758  -2.8083   1.8460 H              1 S1                 0.0000
     33 ****        -3.2447  -1.0259   2.8767 H              1 S1                 0.0000
     34 ****        -1.5774   0.4646   3.1699 H              1 S1                 0.0000
     35 ****        -0.6939  -0.8823   2.5452 H              1 S1                 0.0000
     36 ****         3.1332   2.3921   1.8501 H              1 S1                 0.0000
     37 ****         1.6377  -3.2130  -0.9438 H              1 S1                 0.0000
     38 ****         4.8615  -1.7467   0.3035 H              1 S1                 0.0000
     39 ****         4.1815  -3.1489  -0.4766 H              1 S1                 0.0000
     40 ****         5.2309   0.1434  -2.6249 H              1 S1                 0.0000
     41 ****         6.8475  -1.8457  -1.4083 H              1 S1                 0.0000
     42 ****         6.0643  -3.2693  -2.0433 H              1 S1                 0.0000
     43 ****         6.8272  -0.7984  -3.6836 H              1 S1                 0.0000
     44 ****         7.5652  -2.3842  -3.7551 H              1 S1                 0.0000
     45 ****         4.5733  -0.5354  -4.5473 H              1 S1                 0.0000
     46 ****         3.7658  -1.9397  -5.2102 H              1 S1                 0.0000
     47 ****         3.5338  -2.9689  -3.0039 H              1 S1                 0.0000
     48 ****         2.8466  -1.3642  -2.9527 H              1 S1                 0.0000
     49 ****        -1.4511   2.5120   2.2756 H              1 S1                 0.0000
     50 ****        -0.8661   2.7880   0.6538 H              1 S1                 0.0000
     51 ****        -3.2060   3.2468   0.7507 H              1 S1                 0.0000
     52 ****        -2.9416   1.9243  -0.3481 H              1 S1                 0.0000
     53 ****        -5.5202   1.8440   0.1092 H              1 S1                 0.0000
     54 ****        -7.2961   1.4612   1.7887 H              1 S1                 0.0000
     55 ****        -6.0404   1.1876   3.1026 H              1 S1                 0.0000
     56 ****        -5.1061   3.4589   2.7254 H              1 S1                 0.0000
     57 ****        -7.2188   3.6849   0.4877 H              1 S1                 0.0000
     58 ****        -5.9467   4.8765   0.8012 H              1 S1                 0.0000
     59 ****        -7.2304   4.6173   1.9934 H              1 S1                 0.0000
     60 ****        -3.5713  -0.0743   0.0263 H              1 S1                 0.0000
     61 ****        -4.7555  -0.4668   1.2298 H              1 S1                 0.0000
     62 ****        -1.2737   0.4297   0.3626 LP             1 S1                 0.0000
     63 ****         0.8353   2.4732   1.9963 LP             1 S1                 0.0000
     64 ****         4.2824   0.5692   0.8625 LP             1 S1                 0.0000
     65 ****        -0.3599  -1.9183  -0.1908 LP             1 S1                 0.0000
     66 ****         5.4991   0.0782  -1.0586 LP             1 S1                 0.0000
     67 ****         3.9850   0.2586  -1.6431 LP             1 S1                 0.0000
     68 ****         5.5088  -3.2697  -4.4108 LP             1 S1                 0.0000
     69 ****         6.0387  -2.1218  -5.4444 LP             1 S1                 0.0000
     70 ****        -3.6838   1.5065   2.4686 LP             1 S1                 0.0000
@<TRIPOS>BOND
    1    1    2 1     
    2    1   30 1     
    3    1   31 1     
    4    1   32 1     
    5    2   29 1     
    6    2    3 1     
    7    2   33 1     
    8    3    4 1     
    9    3   34 1     
   10    3   35 1     
   11    4    5 1     
   12    4   22 1     
   13    5   10 ar    
   14    5    6 ar    
   15    6    7 ar    
   16    7    8 ar    
   17    7   36 1     
   18    8    9 ar    
   19    9   13 1     
   20    9   10 ar    
   21   10   11 1     
   22   11   12 2     
   23   12   13 1     
   24   12   37 1     
   25   13   14 1     
   26   14   15 1     
   27   14   38 1     
   28   14   39 1     
   29   15   21 1     
   30   15   16 1     
   31   15   17 1     
   32   16   40 1     
   33   17   18 1     
   34   17   41 1     
   35   17   42 1     
   36   18   19 1     
   37   18   43 1     
   38   18   44 1     
   39   19   20 1     
   40   20   21 1     
   41   20   45 1     
   42   20   46 1     
   43   21   47 1     
   44   21   48 1     
   45   22   23 1     
   46   22   49 1     
   47   22   50 1     
   48   23   24 1     
   49   23   51 1     
   50   23   52 1     
   51   24   25 1     
   52   24   29 1     
   53   25   27 1     
   54   25   26 1     
   55   25   53 1     
   56   26   27 1     
   57   26   54 1     
   58   26   55 1     
   59   27   28 1     
   60   27   56 1     
   61   28   57 1     
   62   28   58 1     
   63   28   59 1     
   64   29   60 1     
   65   29   61 1     
   66    4   62 1     
   67    6   63 1     
   68    8   64 1     
   69   11   65 1     
   70   16   66 1     
   71   16   67 1     
   72   19   68 1     
   73   19   69 1     
   74   24   70 1     
@<TRIPOS>SUBSTRUCTURE
      1 S1             1
@<TRIPOS>SET
LONE_PAIRS      STATIC     ATOMS    <user>   **** ""
9 62 63 64 65 66 67 68 69 70
DONOR_HYDROGENS      STATIC     ATOMS    <user>   **** ""
1 40
ATOM$BLUE        STATIC     ATOMS    COLORGROUP SYSTEM
9 62 63 64 65 66 67 68 69 70
ATOM$RED        STATIC     ATOMS    COLORGROUP SYSTEM
1 40
