#       Name:                AV-unprocessed.smi:883
#       Creating user name   scv26
#       Creation time:       Fri Mar 27 01:53:12 2020


#       File generated by GOLD software.
#

@<TRIPOS>MOLECULE
AV-unprocessed.smi:883
    33    35     1
SMALL
NO_CHARGES


@<TRIPOS>ATOM
      1 ****        -6.5239  -0.3691  -0.1108 N.1            1 S1                 0.0000
      2 ****        -5.3810  -0.4161   0.0634 C.1            1 S1                 0.0000
      3 ****        -3.9461  -0.4757   0.2817 C.ar           1 S1                 0.0000
      4 ****        -3.2936  -1.7109   0.4633 C.ar           1 S1                 0.0000
      5 ****        -1.8996  -1.7177   0.6667 C.ar           1 S1                 0.0000
      6 ****        -1.2072  -0.4884   0.6821 C.ar           1 S1                 0.0000
      7 ****         0.1803  -0.5041   0.8837 N.pl3          1 S1                 0.0000
      8 ****         0.9858   0.7018   0.7156 C.3            1 S1                 0.0000
      9 ****         2.4442   0.5128   1.1399 C.3            1 S1                 0.0000
     10 ****         3.2002   0.9871  -0.1095 C.3            1 S1                 0.0000
     11 ****         3.1322  -0.0511  -1.2366 C.3            1 S1                 0.0000
     12 ****         1.6804   0.0808  -1.6924 C.3            1 S1                 0.0000
     13 ****         1.1464   1.1693  -0.7453 C.3            1 S1                 0.0000
     14 ****         2.3089   1.9695  -0.6104 O.3            1 S1                 0.0000
     15 ****        -1.8347   0.7000   0.5130 N.ar           1 S1                 0.0000
     16 ****        -3.1709   0.7010   0.3166 C.ar           1 S1                 0.0000
     17 ****        -3.8455  -2.6399   0.4463 H              1 S1                 0.0000
     18 ****        -1.3752  -2.6518   0.8061 H              1 S1                 0.0000
     19 ****         0.6560  -1.3904   0.9705 H              1 S1                 0.0000
     20 ****         0.5548   1.5087   1.3102 H              1 S1                 0.0000
     21 ****         2.6723   1.1463   1.9977 H              1 S1                 0.0000
     22 ****         2.6976  -0.5153   1.4029 H              1 S1                 0.0000
     23 ****         4.2068   1.3528   0.0943 H              1 S1                 0.0000
     24 ****         3.8123   0.2103  -2.0481 H              1 S1                 0.0000
     25 ****         3.3801  -1.0557  -0.8928 H              1 S1                 0.0000
     26 ****         1.6393   0.4216  -2.7275 H              1 S1                 0.0000
     27 ****         1.1254  -0.8550  -1.6262 H              1 S1                 0.0000
     28 ****         0.2826   1.7071  -1.1369 H              1 S1                 0.0000
     29 ****        -3.6285   1.6708   0.1830 H              1 S1                 0.0000
     30 ****        -7.5116  -0.3284  -0.2614 LP             1 S1                 0.0000
     31 ****         2.6135   2.3389  -1.4884 LP             1 S1                 0.0000
     32 ****         2.1747   2.7190   0.0379 LP             1 S1                 0.0000
     33 ****        -1.3202   1.5573   0.5331 LP             1 S1                 0.0000
@<TRIPOS>BOND
    1    1    2 3     
    2    2    3 1     
    3    3   16 ar    
    4    3    4 ar    
    5    4    5 ar    
    6    4   17 1     
    7    5    6 ar    
    8    5   18 1     
    9    6    7 1     
   10    6   15 ar    
   11    7    8 1     
   12    7   19 1     
   13    8   13 1     
   14    8    9 1     
   15    8   20 1     
   16    9   10 1     
   17    9   21 1     
   18    9   22 1     
   19   10   14 1     
   20   10   11 1     
   21   10   23 1     
   22   11   12 1     
   23   11   24 1     
   24   11   25 1     
   25   12   13 1     
   26   12   26 1     
   27   12   27 1     
   28   13   14 1     
   29   13   28 1     
   30   15   16 ar    
   31   16   29 1     
   32    1   30 1     
   33   14   31 1     
   34   14   32 1     
   35   15   33 1     
@<TRIPOS>SUBSTRUCTURE
      1 S1             1
@<TRIPOS>SET
LONE_PAIRS      STATIC     ATOMS    <user>   **** ""
4 30 31 32 33
DONOR_HYDROGENS      STATIC     ATOMS    <user>   **** ""
1 19
ATOM$BLUE        STATIC     ATOMS    COLORGROUP SYSTEM
4 30 31 32 33
ATOM$RED        STATIC     ATOMS    COLORGROUP SYSTEM
1 19
