#       Name:                AV-unprocessed.smi:2527
#       Creating user name   scv26
#       Creation time:       Fri Mar 27 13:58:35 2020


#       File generated by GOLD software.
#

@<TRIPOS>MOLECULE
AV-unprocessed.smi:2527
    42    44     1
SMALL
NO_CHARGES


@<TRIPOS>ATOM
      1 ****        -1.9693   3.6446   1.6262 C.3            1 S1                 0.0000
      2 ****        -1.5905   2.2988   1.8516 O.3            1 S1                 0.0000
      3 ****        -2.2727   1.3921   0.9997 C.3            1 S1                 0.0000
      4 ****        -1.7876  -0.0387   1.2726 C.3            1 S1                 0.0000
      5 ****        -0.3526  -0.1769   1.0711 N.pl3          1 S1                 0.0000
      6 ****         0.3057  -0.4146  -0.0910 C.2            1 S1                 0.0000
      7 ****        -0.5678  -0.5920  -1.6197 S.3            1 S1                 0.0000
      8 ****         0.7362  -1.3188  -2.6560 C.3            1 S1                 0.0000
      9 ****         0.2702  -1.7074  -4.0292 C.2            1 S1                 0.0000
     10 ****        -0.2629  -2.9433  -4.2230 N.pl3          1 S1                -1.0000
     11 ****        -0.5688  -2.9573  -5.5326 C.2            1 S1                 0.0000
     12 ****        -1.0759  -3.8488  -6.2101 O.2            1 S1                 0.0000
     13 ****        -0.2115  -1.7689  -6.0248 N.am           1 S1                 0.0000
     14 ****         0.3193  -0.9757  -5.0792 N.2            1 S1                 0.0000
     15 ****         1.6347  -0.4882   0.0110 N.2            1 S1                 0.0000
     16 ****         1.8549  -0.2821   1.3580 C.ar           1 S1                 0.0000
     17 ****         3.0593  -0.2433   2.0962 C.ar           1 S1                 0.0000
     18 ****         3.0369  -0.0092   3.4869 C.ar           1 S1                 0.0000
     19 ****         4.5163   0.0353   4.3733 Cl             1 S1                 0.0000
     20 ****         1.8117   0.1899   4.1565 C.ar           1 S1                 0.0000
     21 ****         0.6005   0.1546   3.4391 C.ar           1 S1                 0.0000
     22 ****         0.6295  -0.0816   2.0516 C.ar           1 S1                 0.0000
     23 ****        -0.2977  -1.4398  -6.9752 H              1 S1                 0.0000
     24 ****        -1.4192   4.2977   2.3034 H              1 S1                 0.0000
     25 ****        -3.0348   3.7902   1.8088 H              1 S1                 0.0000
     26 ****        -1.7432   3.9519   0.6044 H              1 S1                 0.0000
     27 ****        -3.3479   1.4564   1.1719 H              1 S1                 0.0000
     28 ****        -2.0942   1.6537  -0.0444 H              1 S1                 0.0000
     29 ****        -2.0249  -0.3229   2.2981 H              1 S1                 0.0000
     30 ****        -2.3113  -0.7493   0.6330 H              1 S1                 0.0000
     31 ****         1.5530  -0.6015  -2.7418 H              1 S1                 0.0000
     32 ****         1.1427  -2.1927  -2.1450 H              1 S1                 0.0000
     33 ****         4.0013  -0.3934   1.5896 H              1 S1                 0.0000
     34 ****         1.8005   0.3709   5.2214 H              1 S1                 0.0000
     35 ****        -0.3388   0.3096   3.9487 H              1 S1                 0.0000
     36 ****        -1.7958   2.0627   2.8014 LP             1 S1                 0.0000
     37 ****        -0.6073   2.2113   1.6914 LP             1 S1                 0.0000
     38 ****        -0.3962  -3.6708  -3.5500 LP             1 S1                 0.0000
     39 ****        -1.3225  -4.7202  -5.7861 LP             1 S1                 0.0000
     40 ****        -1.2420  -3.7026  -7.1854 LP             1 S1                 0.0000
     41 ****         0.6673  -0.0428  -5.1724 LP             1 S1                 0.0000
     42 ****         2.3062  -0.6524  -0.7115 LP             1 S1                 0.0000
@<TRIPOS>BOND
    1    1    2 1     
    2    1   24 1     
    3    1   25 1     
    4    1   26 1     
    5    2    3 1     
    6    3    4 1     
    7    3   27 1     
    8    3   28 1     
    9    4    5 1     
   10    4   29 1     
   11    4   30 1     
   12    5   22 1     
   13    5    6 1     
   14    6    7 1     
   15    6   15 2     
   16    7    8 1     
   17    8   31 1     
   18    8   32 1     
   19    8    9 1     
   20    9   14 2     
   21    9   10 1     
   22   10   11 1     
   23   11   13 am    
   24   11   12 2     
   25   13   14 1     
   26   13   23 1     
   27   15   16 1     
   28   16   22 ar    
   29   16   17 ar    
   30   17   18 ar    
   31   17   33 1     
   32   18   19 1     
   33   18   20 ar    
   34   20   21 ar    
   35   20   34 1     
   36   21   22 ar    
   37   21   35 1     
   38    2   36 1     
   39    2   37 1     
   40   10   38 1     
   41   12   39 1     
   42   12   40 1     
   43   14   41 1     
   44   15   42 1     
@<TRIPOS>SUBSTRUCTURE
      1 S1             1
@<TRIPOS>SET
LONE_PAIRS      STATIC     ATOMS    <user>   **** ""
7 36 37 38 39 40 41 42
DONOR_HYDROGENS      STATIC     ATOMS    <user>   **** ""
1 23
ATOM$BLUE        STATIC     ATOMS    COLORGROUP SYSTEM
7 36 37 38 39 40 41 42
ATOM$RED        STATIC     ATOMS    COLORGROUP SYSTEM
1 23
