#       Name:                AV-unprocessed.smi:2880
#       Creating user name   scv26
#       Creation time:       Fri Mar 27 15:51:59 2020


#       File generated by GOLD software.
#

@<TRIPOS>MOLECULE
AV-unprocessed.smi:2880
    52    53     1
SMALL
NO_CHARGES


@<TRIPOS>ATOM
      1 ****        -4.8038   3.5049  -1.7560 C.3            1 S1                 0.0000
      2 ****        -3.6707   3.3585  -0.7199 C.3            1 S1                 0.0000
      3 ****        -2.4396   4.1350  -1.2448 C.3            1 S1                 0.0000
      4 ****        -4.1138   3.9688   0.6226 C.3            1 S1                 0.0000
      5 ****        -3.3721   1.9348  -0.5138 N.pl3          1 S1                 0.0000
      6 ****        -4.2625   0.8960  -0.2935 C.2            1 S1                 0.0000
      7 ****        -3.5416  -0.2458  -0.0881 C.2            1 S1                 0.0000
      8 ****        -2.1963   0.1996  -0.1808 C.2            1 S1                 0.0000
      9 ****        -1.1175  -0.7061  -0.0155 N.am           1 S1                 0.0000
     10 ****         0.1953  -0.4486  -0.1460 C.2            1 S1                 0.0000
     11 ****         0.6767   0.6433  -0.4499 O.2            1 S1                 0.0000
     12 ****         0.9298  -1.5450   0.0931 N.am           1 S1                 0.0000
     13 ****         2.3878  -1.6315   0.0171 C.3            1 S1                 0.0000
     14 ****         2.7726  -2.3435  -1.2958 C.3            1 S1                 0.0000
     15 ****         4.2896  -2.5392  -1.4174 C.3            1 S1                 0.0000
     16 ****         4.8394  -3.2981  -0.2036 C.3            1 S1                 0.0000
     17 ****         4.4812  -2.5760   1.1036 C.3            1 S1                 0.0000
     18 ****         2.9566  -2.3689   1.2578 C.3            1 S1                 0.0000
     19 ****         2.6270  -1.6287   2.5737 C.3            1 S1                 0.0000
     20 ****         2.9842  -2.4092   3.6953 O.3            1 S1                 0.0000
     21 ****        -2.0931   1.4991  -0.4131 N.2            1 S1                 0.0000
     22 ****        -5.0184   4.5545  -1.9604 H              1 S1                 0.0000
     23 ****        -5.7337   3.0508  -1.4136 H              1 S1                 0.0000
     24 ****        -4.5353   3.0353  -2.7031 H              1 S1                 0.0000
     25 ****        -2.0718   3.7136  -2.1812 H              1 S1                 0.0000
     26 ****        -1.6165   4.1260  -0.5289 H              1 S1                 0.0000
     27 ****        -2.6839   5.1809  -1.4334 H              1 S1                 0.0000
     28 ****        -4.3518   5.0279   0.5182 H              1 S1                 0.0000
     29 ****        -3.3294   3.8802   1.3753 H              1 S1                 0.0000
     30 ****        -5.0017   3.4714   1.0145 H              1 S1                 0.0000
     31 ****        -5.3312   1.0505  -0.2976 H              1 S1                 0.0000
     32 ****        -3.9199  -1.2387   0.1048 H              1 S1                 0.0000
     33 ****        -1.3730  -1.6538   0.2188 H              1 S1                 0.0000
     34 ****         0.4423  -2.3950   0.3355 H              1 S1                 0.0000
     35 ****         2.8210  -0.6296  -0.0002 H              1 S1                 0.0000
     36 ****         2.2810  -3.3163  -1.3454 H              1 S1                 0.0000
     37 ****         2.4094  -1.7714  -2.1505 H              1 S1                 0.0000
     38 ****         4.5225  -3.0826  -2.3335 H              1 S1                 0.0000
     39 ****         4.7805  -1.5685  -1.4984 H              1 S1                 0.0000
     40 ****         4.4336  -4.3104  -0.1873 H              1 S1                 0.0000
     41 ****         5.9216  -3.4000  -0.2880 H              1 S1                 0.0000
     42 ****         4.8718  -3.1504   1.9440 H              1 S1                 0.0000
     43 ****         4.9874  -1.6102   1.1325 H              1 S1                 0.0000
     44 ****         2.4882  -3.3540   1.3013 H              1 S1                 0.0000
     45 ****         3.1464  -0.6710   2.6198 H              1 S1                 0.0000
     46 ****         1.5609  -1.4160   2.6521 H              1 S1                 0.0000
     47 ****         2.7696  -1.9249   4.4779 H              1 S1                 0.0000
     48 ****         0.0761   1.4244  -0.6209 LP             1 S1                 0.0000
     49 ****         1.6682   0.7490  -0.5256 LP             1 S1                 0.0000
     50 ****         3.9657  -2.5997   3.6750 LP             1 S1                 0.0000
     51 ****         2.4770  -3.2709   3.6821 LP             1 S1                 0.0000
     52 ****        -1.2559   2.0397  -0.4959 LP             1 S1                 0.0000
@<TRIPOS>BOND
    1    1    2 1     
    2    1   22 1     
    3    1   23 1     
    4    1   24 1     
    5    2    3 1     
    6    2    4 1     
    7    2    5 1     
    8    3   25 1     
    9    3   26 1     
   10    3   27 1     
   11    4   28 1     
   12    4   29 1     
   13    4   30 1     
   14    5   21 1     
   15    5    6 1     
   16    6    7 2     
   17    6   31 1     
   18    7    8 1     
   19    7   32 1     
   20    8    9 1     
   21    8   21 2     
   22    9   10 am    
   23    9   33 1     
   24   10   11 2     
   25   10   12 am    
   26   12   13 1     
   27   12   34 1     
   28   13   18 1     
   29   13   14 1     
   30   13   35 1     
   31   14   15 1     
   32   14   36 1     
   33   14   37 1     
   34   15   16 1     
   35   15   38 1     
   36   15   39 1     
   37   16   17 1     
   38   16   40 1     
   39   16   41 1     
   40   17   18 1     
   41   17   42 1     
   42   17   43 1     
   43   18   19 1     
   44   18   44 1     
   45   19   20 1     
   46   19   45 1     
   47   19   46 1     
   48   20   47 1     
   49   11   48 1     
   50   11   49 1     
   51   20   50 1     
   52   20   51 1     
   53   21   52 1     
@<TRIPOS>SUBSTRUCTURE
      1 S1             1
@<TRIPOS>SET
LONE_PAIRS      STATIC     ATOMS    <user>   **** ""
5 48 49 50 51 52
DONOR_HYDROGENS      STATIC     ATOMS    <user>   **** ""
3 33 34 47
ATOM$BLUE        STATIC     ATOMS    COLORGROUP SYSTEM
5 48 49 50 51 52
ATOM$RED        STATIC     ATOMS    COLORGROUP SYSTEM
3 33 34 47
