AV-unprocessed.smi:1231|AV-procd|sdf|5164|dock4
  -GOLD-   22720 4233D 1   1.00000     0.00000
 Structure written by MMmdl.
 43 44  0  0  0  0  0  0  0  0  2 V2000
  149.1442  141.5805  154.4486 C   0  0  0  0  0  0  0  0  0  0  0  0
  149.6158  140.1725  154.8282 C   0  0  1  0  0  0  0  0  0  0  0  0
  149.0180  139.0923  153.9031 C   0  0  0  0  0  0  0  0  0  0  0  0
  149.5513  137.7472  154.2296 N   0  3  2  0  0  0  0  0  0  0  0  0
  148.9358  137.1431  155.4407 C   0  0  0  0  0  0  0  0  0  0  0  0
  147.5006  136.6433  155.1851 C   0  0  0  0  0  0  0  0  0  0  0  0
  147.3906  135.9740  153.8939 N   0  0  0  0  0  0  0  0  0  0  0  0
  146.4284  135.0980  153.5689 C   0  0  0  0  0  0  0  0  0  0  0  0
  145.5239  134.7742  154.3394 O   0  0  0  0  0  0  0  0  0  0  0  0
  146.5877  134.6374  152.3156 N   0  0  0  0  0  0  0  0  0  0  0  0
  145.7689  133.7160  151.6098 C   0  0  0  0  0  0  0  0  0  0  0  0
  146.4686  132.7761  150.8197 C   0  0  0  0  0  0  0  0  0  0  0  0
  145.7470  131.8188  150.0804 C   0  0  0  0  0  0  0  0  0  0  0  0
  144.3425  131.8268  150.1498 C   0  0  0  0  0  0  0  0  0  0  0  0
  143.7240  132.7977  150.9586 C   0  0  0  0  0  0  0  0  0  0  0  0
  144.4135  133.7163  151.6678 N   0  0  0  0  0  0  0  0  0  0  0  0
  151.0368  137.7681  154.2305 C   0  0  0  0  0  0  0  0  0  0  0  0
  151.5918  138.8938  155.1300 C   0  0  1  0  0  0  0  0  0  0  0  0
  153.1173  139.0026  155.0353 C   0  0  0  0  0  0  0  0  0  0  0  0
  151.0348  140.1381  154.7198 O   0  0  0  0  0  0  0  0  0  0  0  0
  148.0594  141.6639  154.5195 H   0  0  0  0  0  0  0  0  0  0  0  0
  149.4334  141.8327  153.4279 H   0  0  0  0  0  0  0  0  0  0  0  0
  149.5783  142.3291  155.1119 H   0  0  0  0  0  0  0  0  0  0  0  0
  149.3286  139.9822  155.8636 H   0  0  0  0  0  0  0  0  0  0  0  0
  147.9285  139.0944  153.9534 H   0  0  0  0  0  0  0  0  0  0  0  0
  149.2751  139.3183  152.8672 H   0  0  0  0  0  0  0  0  0  0  0  0
  149.5654  136.3410  155.8252 H   0  0  0  0  0  0  0  0  0  0  0  0
  148.8904  137.8953  156.2294 H   0  0  0  0  0  0  0  0  0  0  0  0
  147.2094  135.9351  155.9611 H   0  0  0  0  0  0  0  0  0  0  0  0
  146.7772  137.4581  155.2229 H   0  0  0  0  0  0  0  0  0  0  0  0
  148.0975  136.1866  153.2049 H   0  0  0  0  0  0  0  0  0  0  0  0
  147.3864  134.9853  151.8060 H   0  0  0  0  0  0  0  0  0  0  0  0
  147.5483  132.7833  150.7782 H   0  0  0  0  0  0  0  0  0  0  0  0
  146.2631  131.0919  149.4707 H   0  0  0  0  0  0  0  0  0  0  0  0
  143.7546  131.1084  149.5979 H   0  0  0  0  0  0  0  0  0  0  0  0
  142.6477  132.8393  151.0385 H   0  0  0  0  0  0  0  0  0  0  0  0
  151.4449  136.8030  154.5278 H   0  0  0  0  0  0  0  0  0  0  0  0
  151.3685  137.9316  153.2043 H   0  0  0  0  0  0  0  0  0  0  0  0
  151.3303  138.7105  156.1731 H   0  0  0  0  0  0  0  0  0  0  0  0
  153.5972  138.0747  155.3477 H   0  0  0  0  0  0  0  0  0  0  0  0
  153.4906  139.8016  155.6764 H   0  0  0  0  0  0  0  0  0  0  0  0
  153.4363  139.2177  154.0150 H   0  0  0  0  0  0  0  0  0  0  0  0
  149.2715  137.1478  153.4662 H   0  0  0  0  0  0  0  0  0  0  0  0
  1  2  1  0  0  0  0
  1 21  1  0  0  0  0
  1 22  1  0  0  0  0
  1 23  1  0  0  0  0
  2 20  1  0  0  0  0
  2  3  1  0  0  0  0
  2 24  1  0  0  0  0
  3  4  1  0  0  0  0
  3 25  1  0  0  0  0
  3 26  1  0  0  0  0
  4  5  1  0  0  0  0
  4 17  1  0  0  0  0
  4 43  1  0  0  0  0
  5  6  1  0  0  0  0
  5 27  1  0  0  0  0
  5 28  1  0  0  0  0
  6  7  1  0  0  0  0
  6 29  1  0  0  0  0
  6 30  1  0  0  0  0
  7  8  1  0  0  0  0
  7 31  1  0  0  0  0
  8  9  2  0  0  0  0
  8 10  1  0  0  0  0
 10 11  1  0  0  0  0
 10 32  1  0  0  0  0
 11 16  1  0  0  0  0
 11 12  2  0  0  0  0
 12 13  1  0  0  0  0
 12 33  1  0  0  0  0
 13 14  2  0  0  0  0
 13 34  1  0  0  0  0
 14 15  1  0  0  0  0
 14 35  1  0  0  0  0
 15 16  2  0  0  0  0
 15 36  1  0  0  0  0
 17 18  1  0  0  0  0
 17 37  1  0  0  0  0
 17 38  1  0  0  0  0
 18 19  1  0  0  0  0
 18 20  1  0  0  0  0
 18 39  1  0  0  0  0
 19 40  1  0  0  0  0
 19 41  1  0  0  0  0
 19 42  1  0  0  0  0
M  CHG  1   4   1
M  END
> <s_m_source_file>
AV-unprocessed.smi

> <i_m_source_file_index>
1231

> <i_lp_mmshare_version>
43012

> <i_f3d_flags>
0

> <s_epik_input>
W0NIM11bQ0BASF0xW0NIMl1OKFtDSDJdW0NASF0oTzEpW0NIM10pW0NIMl1bQ0gyXVtOSF1DKD1PKVtOSF1jMltjSF1bY0hdW2NIXVtjSF1uMg==

> <s_epik_cmdline>
J2VwaWtfcHl0aG9uJywgJy1waCcsICc3LjAnLCAnLXRuJywgJzgnLCAnLW1hJywgJzIwMCcsICctbWV0YWxfYmluZGluZycsICctaW1hZScsICc8aW5maWxlLm1hZT4nLCAnLW9tYWUnLCAnPG91dGZpbGUubWFlPic=

> <r_epik_Ionization_Penalty>
0.602565

> <r_epik_Ionization_Penalty_Charging>
0.602531

> <r_epik_Ionization_Penalty_Neutral>
3.43186e-05

> <r_epik_State_Penalty>
0.617039

> <r_epik_Charging_Adjusted_Penalty>
1.21957

> <i_epik_Tot_Q>
1

> <i_epik_Tot_abs_Q>
1

> <r_epik_Metal_State_Penalty>
0.617041

> <b_epik_Metal_Only>
0

> <s_lp_Force_Field>
OPLS_2005

> <r_lp_Energy>
17.2402

> <b_lp_Chiralities_Consistent>
1

> <s_lp_Variant>
AV-unprocessed.smi:1231-5

> <Gold.Version>
5.8.1

> <Gold.Id.Protein>
6NUR|6NUR_protein|mol2

> <Gold.PLP.Fitness>
52.8354

> <Gold.PLP.PLP>
-36.6651

> <Gold.PLP.part.hbond>
-3.9069

> <Gold.PLP.part.metal>
0.0000

> <Gold.PLP.part.buried>
-0.5060

> <Gold.PLP.part.nonpolar>
-32.4669

> <Gold.PLP.part.repulsive>
0.2919

> <Gold.PLP.ligand.clash>
0.0000

> <Gold.PLP.ligand.torsion>
0.7106

> <Gold.PLP.Chemscore.Hbond>
4.9120

> <Gold.PLP.Chemscore.CHOScore>
0.9395

> <Gold.PLP.Chemscore.Metal>
0.0000

> <Gold.Chemscore.Hbonds>
donor molecule, donor type, donor heavy atom, donor atom, acceptor molecule, acceptor atom, score
      L1  H     4    43       P1  7948  2.00
      L1  H     7    31       P1  7948  1.00
      L1  H    10    32       P1  7948  0.94
      P1  H  7989  7998       L1    20  1.00
      L1  C    15    36       P1 10186  0.50

> <Gold.PLP.Chemscore.Internal.Correction>
0.0368

> <Gold.Rescore>
     Score         DG    S(hbond)    S(metal)    S(lipo)     H(rot)  DE(clash)    DE(int)     intcor
     21.80     -23.38       3.60        0.00      84.14       1.55       0.32       1.26       ----

> <Gold.Chemscore.Fitness>
21.8017

> <Gold.Chemscore.DG>
-23.3786

> <Gold.Chemscore.ZeroCoef>
-5.4800

> <Gold.Chemscore.Hbond>
3.6031

> <Gold.Chemscore.Metal>
0.0000

> <Gold.Chemscore.Lipo>
84.1359

> <Gold.Chemscore.Internal_Hbond>
0.0000

> <Gold.Chemscore.DEClash>
0.3216

> <Gold.Chemscore.DEInternal>
1.2553

> <Gold.Chemscore.Rot>
1.5546

> <Gold.Chemscore.Internal.Correction>
   9.000000E+99

> <Gold.Chemscore.Hbonds>
donor molecule, donor type, donor heavy atom, donor atom, acceptor molecule, acceptor atom, score
      L1  H     4    43       P1  7948  0.98
      L1  H     7    31       P1  7948  0.98
      L1  H    10    32       P1  7948  0.77
      P1  H  7989  7998       L1    20  0.85

> <Gold.Chemscore.Hbond.Weighted>
-12.0344

> <Gold.Chemscore.Metal.Weighted>
-0.0000

> <Gold.Chemscore.Lipo.Weighted>
-9.8439

> <Gold.Chemscore.Internal_Hbond.Weighted>
0.0000

> <Gold.Chemscore.DEClash.Weighted>
0.3216

> <Gold.Chemscore.DEInternal.Weighted>
1.2553

> <Gold.Chemscore.Rot.Weighted>
3.9797

> <Gold.Chemscore.Internal.Correction.Weighted>
   9.000000E+99

> <Gold.Protein.RotatedTorsions>
[ 6907 6896 6895 6894 ] final  -73.65 input  -60.11 | X-H torsion
[ 7974 7965 7964 7962 ] final  131.48 input  175.53 | X-H torsion
[ 8008 7997 7996 7995 ] final   14.53 input   59.86 | X-H torsion
[ 10167 10162 10161 10158 ] final  158.83 input  -65.29 | X-H torsion
[ 10718 10713 10712 10709 ] final   26.88 input   66.30 | X-H torsion
[ 10763 10752 10751 10750 ] final  173.27 input  -60.55 | X-H torsion
[ 11005 11000 10999 10996 ] final  -17.25 input  -57.11 | X-H torsion

> <Gold.Protein.ActiveResidues>
 VAL166  LYS551  ARG553  GLY616  TRP617  ASP618  TYR619  PRO620  LYS621  CYS622 
 ASP623  PHE694  ASN695  SER759  ASP760  ASP761  ALA762  ILE779  LEU786  VAL792 
 PHE793  MET794  SER795  GLU796  ALA797  LYS798  CYS799  TRP800  GLU811  SER814 

> <Gold.Protein.RotatedAtoms>
  150.7122  134.4985  159.5549 H   0  0  0  0  0  0  0  0  0  0  0  0  # atno 6907 bound_to 6896
  152.2587  134.8054  160.0443 H   0  0  0  0  0  0  0  0  0  0  0  0  # atno 6908 bound_to 6896
  151.8775  133.3453  159.3792 H   0  0  0  0  0  0  0  0  0  0  0  0  # atno 6909 bound_to 6896
  145.0069  139.4258  143.5264 H   0  0  0  0  0  0  0  0  0  0  0  0  # atno 7974 bound_to 7965
  154.8497  140.2927  155.5606 H   0  0  0  0  0  0  0  0  0  0  0  0  # atno 8008 bound_to 7997
  156.3016  140.2498  156.3386 H   0  0  0  0  0  0  0  0  0  0  0  0  # atno 8009 bound_to 7997
  154.9034  140.0390  157.1895 H   0  0  0  0  0  0  0  0  0  0  0  0  # atno 8010 bound_to 7997
  139.4829  144.4787  151.8474 H   0  0  0  0  0  0  0  0  0  0  0  0  # atno 10167 bound_to 10162
  157.2128  130.6942  149.6236 H   0  0  0  0  0  0  0  0  0  0  0  0  # atno 10718 bound_to 10713
  154.4377  135.2761  155.1869 H   0  0  0  0  0  0  0  0  0  0  0  0  # atno 10763 bound_to 10752
  154.3749  135.6100  153.5763 H   0  0  0  0  0  0  0  0  0  0  0  0  # atno 10764 bound_to 10752
  152.9839  135.5866  154.4699 H   0  0  0  0  0  0  0  0  0  0  0  0  # atno 10765 bound_to 10752
  140.8149  133.8112  155.9601 H   0  0  0  0  0  0  0  0  0  0  0  0  # atno 11005 bound_to 11000
  146.3463  139.9490  142.8731 LP  0  0  0  0  0  0  0  0  0  0  0  0  # atno 17320 bound_to 7965
  145.2076  140.9882  143.4119 LP  0  0  0  0  0  0  0  0  0  0  0  0  # atno 17321 bound_to 7965
  140.4261  144.2178  150.5887 LP  0  0  0  0  0  0  0  0  0  0  0  0  # atno 17342 bound_to 10162
  140.4825  143.2374  151.8934 LP  0  0  0  0  0  0  0  0  0  0  0  0  # atno 17343 bound_to 10162
  155.9689  130.4545  150.5854 LP  0  0  0  0  0  0  0  0  0  0  0  0  # atno 17370 bound_to 10713
  157.3655  131.0757  151.1601 LP  0  0  0  0  0  0  0  0  0  0  0  0  # atno 17371 bound_to 10713
  140.9159  134.2202  157.4957 LP  0  0  0  0  0  0  0  0  0  0  0  0  # atno 17394 bound_to 11000
  139.8711  134.9771  156.4945 LP  0  0  0  0  0  0  0  0  0  0  0  0  # atno 17395 bound_to 11000

$$$$
