AV-unprocessed.smi:1443|AV-procd|sdf|5877|dock3
  -GOLD-   22720 5553D 1   1.00000     0.00000
 Structure written by MMmdl.
 27 28  0  0  0  0  0  0  0  0  1 V2000
  153.6671  138.8005  154.3904 C   0  0  0  0  0  0  0  0  0  0  0  0
  152.0481  138.1713  153.8666 S   0  0  0  0  0  0  0  0  0  0  0  0
  150.8945  139.4618  154.2052 C   0  0  0  0  0  0  0  0  0  0  0  0
  149.7282  139.5322  153.5381 N   0  0  0  0  0  0  0  0  0  0  0  0
  148.8682  140.8763  154.0978 S   0  0  0  0  0  0  0  0  0  0  0  0
  150.1454  141.2684  155.2111 C   0  0  0  0  0  0  0  0  0  0  0  0
  150.0842  142.3949  156.0823 N   0  0  0  0  0  0  0  0  0  0  0  0
  150.6900  142.6370  157.2651 C   0  0  0  0  0  0  0  0  0  0  0  0
  151.4486  141.8109  157.7699 O   0  0  0  0  0  0  0  0  0  0  0  0
  150.4134  143.8192  157.8378 N   0  0  0  0  0  0  0  0  0  0  0  0
  150.9312  144.2946  159.0776 C   0  0  2  0  0  0  0  0  0  0  0  0
  152.1685  145.1628  159.0093 C   0  0  0  0  0  0  0  0  0  0  0  0
  152.2720  143.7567  159.5357 C   0  0  1  0  0  0  0  0  0  0  0  0
  152.5553  143.5179  161.0029 C   0  0  0  0  0  0  0  0  0  0  0  0
  151.1542  140.4008  155.1316 N   0  0  0  0  0  0  0  0  0  0  0  0
  154.4392  138.0548  154.2012 H   0  0  0  0  0  0  0  0  0  0  0  0
  153.6608  139.0294  155.4563 H   0  0  0  0  0  0  0  0  0  0  0  0
  153.9206  139.7076  153.8413 H   0  0  0  0  0  0  0  0  0  0  0  0
  149.4911  143.1436  155.7552 H   0  0  0  0  0  0  0  0  0  0  0  0
  149.7790  144.4343  157.3484 H   0  0  0  0  0  0  0  0  0  0  0  0
  150.2137  144.5462  159.8576 H   0  0  0  0  0  0  0  0  0  0  0  0
  152.5990  145.3621  158.0294 H   0  0  0  0  0  0  0  0  0  0  0  0
  152.2446  145.9804  159.7236 H   0  0  0  0  0  0  0  0  0  0  0  0
  152.7532  143.0363  158.8763 H   0  0  0  0  0  0  0  0  0  0  0  0
  152.0560  144.2647  161.6212 H   0  0  0  0  0  0  0  0  0  0  0  0
  153.6276  143.5708  161.1902 H   0  0  0  0  0  0  0  0  0  0  0  0
  152.1989  142.5302  161.2955 H   0  0  0  0  0  0  0  0  0  0  0  0
  1  2  1  0  0  0  0
  1 16  1  0  0  0  0
  1 17  1  0  0  0  0
  1 18  1  0  0  0  0
  2  3  1  0  0  0  0
  3 15  1  0  0  0  0
  3  4  2  0  0  0  0
  4  5  1  0  0  0  0
  5  6  1  0  0  0  0
  6  7  1  0  0  0  0
  6 15  2  0  0  0  0
  7  8  1  0  0  0  0
  7 19  1  0  0  0  0
  8  9  2  0  0  0  0
  8 10  1  0  0  0  0
 10 11  1  0  0  0  0
 10 20  1  0  0  0  0
 11 13  1  0  0  0  0
 11 12  1  0  0  0  0
 11 21  1  0  0  0  0
 12 13  1  0  0  0  0
 12 22  1  0  0  0  0
 12 23  1  0  0  0  0
 13 14  1  0  0  0  0
 13 24  1  0  0  0  0
 14 25  1  0  0  0  0
 14 26  1  0  0  0  0
 14 27  1  0  0  0  0
M  END
> <s_m_source_file>
AV-unprocessed.smi

> <i_m_source_file_index>
1443

> <i_lp_mmshare_version>
43012

> <i_f3d_flags>
0

> <s_epik_input>
W0NIM11TYzFuc2MobjEpW05IXUMoPU8pW05IXVtDQEBIXTJbQ0gyXVtDQEhdMltDSDNd

> <s_epik_cmdline>
J2VwaWtfcHl0aG9uJywgJy1waCcsICc3LjAnLCAnLXRuJywgJzgnLCAnLW1hJywgJzIwMCcsICctbWV0YWxfYmluZGluZycsICctaW1hZScsICc8aW5maWxlLm1hZT4nLCAnLW9tYWUnLCAnPG91dGZpbGUubWFlPic=

> <r_lp_tautomer_probability>
1

> <r_epik_Ionization_Penalty>
2.74658e-05

> <r_epik_Ionization_Penalty_Charging>
0

> <r_epik_Ionization_Penalty_Neutral>
2.74658e-05

> <r_epik_State_Penalty>
-0

> <r_epik_Charging_Adjusted_Penalty>
0

> <i_epik_Tot_Q>
0

> <i_epik_Tot_abs_Q>
0

> <r_epik_Metal_State_Penalty>
-0

> <b_epik_Metal_Only>
0

> <s_lp_Force_Field>
OPLS_2005

> <r_lp_Energy>
20.7527

> <b_lp_Chiralities_Consistent>
1

> <s_lp_Variant>
AV-unprocessed.smi:1443-1

> <Gold.Version>
5.8.1

> <Gold.Id.Protein>
6NUR|6NUR_protein|mol2

> <Gold.PLP.Fitness>
39.1067

> <Gold.PLP.PLP>
-35.1190

> <Gold.PLP.part.hbond>
-2.9242

> <Gold.PLP.part.metal>
0.0000

> <Gold.PLP.part.buried>
-4.8986

> <Gold.PLP.part.nonpolar>
-30.9137

> <Gold.PLP.part.repulsive>
2.8699

> <Gold.PLP.ligand.clash>
0.0000

> <Gold.PLP.ligand.torsion>
0.8234

> <Gold.PLP.Chemscore.Hbond>
1.8664

> <Gold.PLP.Chemscore.CHOScore>
0.0000

> <Gold.PLP.Chemscore.Metal>
0.0000

> <Gold.Chemscore.Hbonds>
donor molecule, donor type, donor heavy atom, donor atom, acceptor molecule, acceptor atom, score
      L1  H     7    19       P1  8028  1.00
      L1  H    10    20       P1  8028  0.85

> <Gold.PLP.Chemscore.Internal.Correction>
0.0354

> <Gold.Rescore>
     Score         DG    S(hbond)    S(metal)    S(lipo)     H(rot)  DE(clash)    DE(int)     intcor
     11.54     -16.23       1.53        0.00      75.89       1.27       1.69       3.00       ----

> <Gold.Chemscore.Fitness>
11.5376

> <Gold.Chemscore.DG>
-16.2331

> <Gold.Chemscore.ZeroCoef>
-5.4800

> <Gold.Chemscore.Hbond>
1.5342

> <Gold.Chemscore.Metal>
0.0000

> <Gold.Chemscore.Lipo>
75.8942

> <Gold.Chemscore.Internal_Hbond>
0.0000

> <Gold.Chemscore.DEClash>
1.6934

> <Gold.Chemscore.DEInternal>
3.0021

> <Gold.Chemscore.Rot>
1.2699

> <Gold.Chemscore.Internal.Correction>
   9.000000E+99

> <Gold.Chemscore.Hbonds>
donor molecule, donor type, donor heavy atom, donor atom, acceptor molecule, acceptor atom, score
      L1  H     7    19       P1  8028  0.99
      L1  H    10    20       P1  8028  0.19

> <Gold.Chemscore.Hbond.Weighted>
-5.1244

> <Gold.Chemscore.Metal.Weighted>
-0.0000

> <Gold.Chemscore.Lipo.Weighted>
-8.8796

> <Gold.Chemscore.Internal_Hbond.Weighted>
0.0000

> <Gold.Chemscore.DEClash.Weighted>
1.6934

> <Gold.Chemscore.DEInternal.Weighted>
3.0021

> <Gold.Chemscore.Rot.Weighted>
3.2509

> <Gold.Chemscore.Internal.Correction.Weighted>
   9.000000E+99

> <Gold.Protein.RotatedTorsions>
[ 6907 6896 6895 6894 ] final  -53.75 input  -60.11 | X-H torsion
[ 7974 7965 7964 7962 ] final  121.86 input  175.53 | X-H torsion
[ 8008 7997 7996 7995 ] final   17.80 input   59.86 | X-H torsion
[ 10167 10162 10161 10158 ] final  -97.05 input  -65.29 | X-H torsion
[ 10718 10713 10712 10709 ] final -139.59 input   66.30 | X-H torsion
[ 10763 10752 10751 10750 ] final  164.42 input  -60.55 | X-H torsion
[ 11005 11000 10999 10996 ] final  -87.58 input  -57.11 | X-H torsion

> <Gold.Protein.ActiveResidues>
 VAL166  LYS551  ARG553  GLY616  TRP617  ASP618  TYR619  PRO620  LYS621  CYS622 
 ASP623  PHE694  ASN695  SER759  ASP760  ASP761  ALA762  ILE779  LEU786  VAL792 
 PHE793  MET794  SER795  GLU796  ALA797  LYS798  CYS799  TRP800  GLU811  SER814 

> <Gold.Protein.RotatedAtoms>
  150.8399  134.7687  159.6923 H   0  0  0  0  0  0  0  0  0  0  0  0  # atno 6907 bound_to 6896
  152.4488  134.5434  159.9855 H   0  0  0  0  0  0  0  0  0  0  0  0  # atno 6908 bound_to 6896
  151.5576  133.3370  159.3001 H   0  0  0  0  0  0  0  0  0  0  0  0  # atno 6909 bound_to 6896
  145.1143  139.3431  143.4747 H   0  0  0  0  0  0  0  0  0  0  0  0  # atno 7974 bound_to 7965
  154.8966  140.2994  155.5341 H   0  0  0  0  0  0  0  0  0  0  0  0  # atno 8008 bound_to 7997
  156.3019  140.2414  156.3924 H   0  0  0  0  0  0  0  0  0  0  0  0  # atno 8009 bound_to 7997
  154.8564  140.0407  157.1626 H   0  0  0  0  0  0  0  0  0  0  0  0  # atno 8010 bound_to 7997
  140.2874  143.3243  152.0380 H   0  0  0  0  0  0  0  0  0  0  0  0  # atno 10167 bound_to 10162
  156.3125  130.7490  151.1569 H   0  0  0  0  0  0  0  0  0  0  0  0  # atno 10718 bound_to 10713
  154.3087  135.2757  155.2576 H   0  0  0  0  0  0  0  0  0  0  0  0  # atno 10763 bound_to 10752
  154.4981  135.5815  153.6514 H   0  0  0  0  0  0  0  0  0  0  0  0  # atno 10764 bound_to 10752
  152.9891  135.6151  154.3262 H   0  0  0  0  0  0  0  0  0  0  0  0  # atno 10765 bound_to 10752
  141.1615  133.7519  156.9326 H   0  0  0  0  0  0  0  0  0  0  0  0  # atno 11005 bound_to 11000
  146.3524  140.1075  142.8605 LP  0  0  0  0  0  0  0  0  0  0  0  0  # atno 17320 bound_to 7965
  145.0812  140.9222  143.4824 LP  0  0  0  0  0  0  0  0  0  0  0  0  # atno 17321 bound_to 7965
  139.4947  144.6549  151.6594 LP  0  0  0  0  0  0  0  0  0  0  0  0  # atno 17342 bound_to 10162
  140.5761  144.0026  150.6242 LP  0  0  0  0  0  0  0  0  0  0  0  0  # atno 17343 bound_to 10162
  157.7394  131.0529  150.5233 LP  0  0  0  0  0  0  0  0  0  0  0  0  # atno 17370 bound_to 10713
  156.5374  130.4199  149.6171 LP  0  0  0  0  0  0  0  0  0  0  0  0  # atno 17371 bound_to 10713
  140.1376  134.9315  157.2422 LP  0  0  0  0  0  0  0  0  0  0  0  0  # atno 17394 bound_to 11000
  140.2876  134.3277  155.7324 LP  0  0  0  0  0  0  0  0  0  0  0  0  # atno 17395 bound_to 11000

$$$$
