AV-unprocessed.smi:2492|AV-procd|sdf|9812|dock4
  -GOLD-   2272013443D 1   1.00000     0.00000
 Structure written by MMmdl.
 33 34  0  0  0  0  0  0  0  0  1 V2000
  150.9373  142.0728  157.8641 C   0  0  0  0  0  0  0  0  0  0  0  0
  151.1575  140.2741  157.8983 S   0  0  0  0  0  0  0  0  0  0  0  0
  151.5494  139.9667  156.1522 C   0  0  1  0  0  0  0  0  0  0  0  0
  152.6442  138.9181  155.9738 C   0  0  0  0  0  0  0  0  0  0  0  0
  152.4835  138.4533  154.5262 C   0  0  0  0  0  0  0  0  0  0  0  0
  150.9835  138.5966  154.1982 C   0  0  1  0  0  0  0  0  0  0  0  0
  150.3359  137.2938  154.0666 N   0  0  0  0  0  0  0  0  0  0  0  0
  150.5394  136.2489  154.8819 C   0  0  0  0  0  0  0  0  0  0  0  0
  151.3060  136.2788  155.8451 O   0  0  0  0  0  0  0  0  0  0  0  0
  149.8022  135.1886  154.5107 N   0  0  0  0  0  0  0  0  0  0  0  0
  149.7537  133.9111  155.1240 C   0  0  0  0  0  0  0  0  0  0  0  0
  150.4245  133.5258  156.2097 N   0  0  0  0  0  0  0  0  0  0  0  0
  150.0000  132.2383  156.3300 C   0  0  0  0  0  0  0  0  0  0  0  0
  150.4688  131.3371  157.4212 C   0  0  0  0  0  0  0  0  0  0  0  0
  149.1344  131.8229  155.4119 N   0  0  0  0  0  0  0  0  0  0  0  0
  148.9642  132.9486  154.5924 O   0  0  0  0  0  0  0  0  0  0  0  0
  150.3675  139.4018  155.3578 C   0  0  0  0  0  0  0  0  0  0  0  0
  150.7258  142.4434  158.8672 H   0  0  0  0  0  0  0  0  0  0  0  0
  150.1056  142.3459  157.2146 H   0  0  0  0  0  0  0  0  0  0  0  0
  151.8409  142.5609  157.4986 H   0  0  0  0  0  0  0  0  0  0  0  0
  151.8808  140.9000  155.6944 H   0  0  0  0  0  0  0  0  0  0  0  0
  153.6408  139.3100  156.1789 H   0  0  0  0  0  0  0  0  0  0  0  0
  152.4710  138.0770  156.6469 H   0  0  0  0  0  0  0  0  0  0  0  0
  153.0574  139.1103  153.8713 H   0  0  0  0  0  0  0  0  0  0  0  0
  152.8677  137.4429  154.3801 H   0  0  0  0  0  0  0  0  0  0  0  0
  150.8679  139.1585  153.2693 H   0  0  0  0  0  0  0  0  0  0  0  0
  149.6881  137.1830  153.3002 H   0  0  0  0  0  0  0  0  0  0  0  0
  149.2097  135.3064  153.7022 H   0  0  0  0  0  0  0  0  0  0  0  0
  150.0363  130.3412  157.3191 H   0  0  0  0  0  0  0  0  0  0  0  0
  150.1803  131.7408  158.3919 H   0  0  0  0  0  0  0  0  0  0  0  0
  151.5549  131.2455  157.3927 H   0  0  0  0  0  0  0  0  0  0  0  0
  149.7756  138.7493  156.0024 H   0  0  0  0  0  0  0  0  0  0  0  0
  149.7027  140.1888  155.0000 H   0  0  0  0  0  0  0  0  0  0  0  0
  1  2  1  0  0  0  0
  1 18  1  0  0  0  0
  1 19  1  0  0  0  0
  1 20  1  0  0  0  0
  2  3  1  0  0  0  0
  3 17  1  0  0  0  0
  3  4  1  0  0  0  0
  3 21  1  0  0  0  0
  4  5  1  0  0  0  0
  4 22  1  0  0  0  0
  4 23  1  0  0  0  0
  5  6  1  0  0  0  0
  5 24  1  0  0  0  0
  5 25  1  0  0  0  0
  6  7  1  0  0  0  0
  6 17  1  0  0  0  0
  6 26  1  0  0  0  0
  7  8  1  0  0  0  0
  7 27  1  0  0  0  0
  8  9  2  0  0  0  0
  8 10  1  0  0  0  0
 10 11  1  0  0  0  0
 10 28  1  0  0  0  0
 11 16  1  0  0  0  0
 11 12  2  0  0  0  0
 12 13  1  0  0  0  0
 13 14  1  0  0  0  0
 13 15  2  0  0  0  0
 14 29  1  0  0  0  0
 14 30  1  0  0  0  0
 14 31  1  0  0  0  0
 15 16  1  0  0  0  0
 17 32  1  0  0  0  0
 17 33  1  0  0  0  0
M  END
> <s_m_source_file>
AV-unprocessed.smi

> <i_m_source_file_index>
2492

> <i_lp_mmshare_version>
43012

> <i_f3d_flags>
0

> <s_epik_input>
W0NIM11TW0NAQEhdMVtDSDJdW0NIMl1bQ0BIXShbQ0gyXTEpW05IXUMoPU8pW05IXWMybmMoW0NIM10pbm8y

> <s_epik_cmdline>
J2VwaWtfcHl0aG9uJywgJy1waCcsICc3LjAnLCAnLXRuJywgJzgnLCAnLW1hJywgJzIwMCcsICctbWV0YWxfYmluZGluZycsICctaW1hZScsICc8aW5maWxlLm1hZT4nLCAnLW9tYWUnLCAnPG91dGZpbGUubWFlPic=

> <r_lp_tautomer_probability>
1

> <r_epik_Ionization_Penalty>
3.56659e-05

> <r_epik_Ionization_Penalty_Charging>
0

> <r_epik_Ionization_Penalty_Neutral>
3.56659e-05

> <r_epik_State_Penalty>
-0

> <r_epik_Charging_Adjusted_Penalty>
0

> <i_epik_Tot_Q>
0

> <i_epik_Tot_abs_Q>
0

> <r_epik_Metal_State_Penalty>
0.0146047

> <b_epik_Metal_Only>
0

> <s_lp_Force_Field>
OPLS_2005

> <r_lp_Energy>
14.0642

> <b_lp_Chiralities_Consistent>
1

> <s_lp_Variant>
AV-unprocessed.smi:2492-2

> <Gold.Version>
5.8.1

> <Gold.Id.Protein>
6NUR|6NUR_protein|mol2

> <Gold.PLP.Fitness>
34.4532

> <Gold.PLP.PLP>
-27.2416

> <Gold.PLP.part.hbond>
-4.2601

> <Gold.PLP.part.metal>
0.0000

> <Gold.PLP.part.buried>
-2.7242

> <Gold.PLP.part.nonpolar>
-19.7503

> <Gold.PLP.part.repulsive>
0.2555

> <Gold.PLP.ligand.clash>
0.0000

> <Gold.PLP.ligand.torsion>
0.7895

> <Gold.PLP.Chemscore.Hbond>
2.9280

> <Gold.PLP.Chemscore.CHOScore>
0.0000

> <Gold.PLP.Chemscore.Metal>
0.0000

> <Gold.Chemscore.Hbonds>
donor molecule, donor type, donor heavy atom, donor atom, acceptor molecule, acceptor atom, score
      L1  H     7    27       P1  7948  1.00
      L1  H    10    28       P1  7948  0.89
      P1  H 10752 10764       L1     9  0.78

> <Gold.PLP.Chemscore.Internal.Correction>
0.0067

> <Gold.Rescore>
     Score         DG    S(hbond)    S(metal)    S(lipo)     H(rot)  DE(clash)    DE(int)     intcor
     11.10     -15.85       2.18        0.00      54.55       1.28       0.03       4.71       ----

> <Gold.Chemscore.Fitness>
11.1028

> <Gold.Chemscore.DG>
-15.8522

> <Gold.Chemscore.ZeroCoef>
-5.4800

> <Gold.Chemscore.Hbond>
2.1770

> <Gold.Chemscore.Metal>
0.0000

> <Gold.Chemscore.Lipo>
54.5455

> <Gold.Chemscore.Internal_Hbond>
0.0000

> <Gold.Chemscore.DEClash>
0.0347

> <Gold.Chemscore.DEInternal>
4.7146

> <Gold.Chemscore.Rot>
1.2815

> <Gold.Chemscore.Internal.Correction>
   9.000000E+99

> <Gold.Chemscore.Hbonds>
donor molecule, donor type, donor heavy atom, donor atom, acceptor molecule, acceptor atom, score
      L1  H     7    27       P1  7948  0.63
      L1  H    10    28       P1  7948  0.32
      P1  H 10752 10764       L1     9  0.20

> <Gold.Chemscore.Hbond.Weighted>
-7.2711

> <Gold.Chemscore.Metal.Weighted>
-0.0000

> <Gold.Chemscore.Lipo.Weighted>
-6.3818

> <Gold.Chemscore.Internal_Hbond.Weighted>
0.0000

> <Gold.Chemscore.DEClash.Weighted>
0.0347

> <Gold.Chemscore.DEInternal.Weighted>
4.7146

> <Gold.Chemscore.Rot.Weighted>
3.2808

> <Gold.Chemscore.Internal.Correction.Weighted>
   9.000000E+99

> <Gold.Protein.RotatedTorsions>
[ 6907 6896 6895 6894 ] final   86.82 input  -60.11 | X-H torsion
[ 7974 7965 7964 7962 ] final -164.81 input  175.53 | X-H torsion
[ 8008 7997 7996 7995 ] final  -50.18 input   59.86 | X-H torsion
[ 10167 10162 10161 10158 ] final -107.88 input  -65.29 | X-H torsion
[ 10718 10713 10712 10709 ] final  106.67 input   66.30 | X-H torsion
[ 10763 10752 10751 10750 ] final  -36.72 input  -60.55 | X-H torsion
[ 11005 11000 10999 10996 ] final   29.84 input  -57.11 | X-H torsion

> <Gold.Protein.ActiveResidues>
 VAL166  LYS551  ARG553  GLY616  TRP617  ASP618  TYR619  PRO620  LYS621  CYS622 
 ASP623  PHE694  ASN695  SER759  ASP760  ASP761  ALA762  ILE779  LEU786  VAL792 
 PHE793  MET794  SER795  GLU796  ALA797  LYS798  CYS799  TRP800  GLU811  SER814 

> <Gold.Protein.RotatedAtoms>
  152.5401  134.2372  159.8847 H   0  0  0  0  0  0  0  0  0  0  0  0  # atno 6907 bound_to 6896
  151.2341  133.4427  159.2612 H   0  0  0  0  0  0  0  0  0  0  0  0  # atno 6908 bound_to 6896
  151.0687  134.9798  159.8354 H   0  0  0  0  0  0  0  0  0  0  0  0  # atno 6909 bound_to 6896
  144.7286  140.2906  143.6221 H   0  0  0  0  0  0  0  0  0  0  0  0  # atno 7974 bound_to 7965
  154.4057  140.1278  156.4624 H   0  0  0  0  0  0  0  0  0  0  0  0  # atno 8008 bound_to 7997
  155.7260  140.3492  155.5018 H   0  0  0  0  0  0  0  0  0  0  0  0  # atno 8009 bound_to 7997
  155.9171  140.1046  157.1225 H   0  0  0  0  0  0  0  0  0  0  0  0  # atno 8010 bound_to 7997
  140.1722  143.4034  152.1346 H   0  0  0  0  0  0  0  0  0  0  0  0  # atno 10167 bound_to 10162
  157.6659  131.0856  150.6041 H   0  0  0  0  0  0  0  0  0  0  0  0  # atno 10718 bound_to 10713
  153.8843  135.6818  153.4765 H   0  0  0  0  0  0  0  0  0  0  0  0  # atno 10763 bound_to 10752
  153.1216  135.4737  154.9202 H   0  0  0  0  0  0  0  0  0  0  0  0  # atno 10764 bound_to 10752
  154.7653  135.3222  154.8250 H   0  0  0  0  0  0  0  0  0  0  0  0  # atno 10765 bound_to 10752
  140.3007  134.2760  155.7754 H   0  0  0  0  0  0  0  0  0  0  0  0  # atno 11005 bound_to 11000
  145.7859  139.1908  143.2131 LP  0  0  0  0  0  0  0  0  0  0  0  0  # atno 17320 bound_to 7965
  146.0796  140.7779  142.9648 LP  0  0  0  0  0  0  0  0  0  0  0  0  # atno 17321 bound_to 7965
  139.5333  144.7183  151.4980 LP  0  0  0  0  0  0  0  0  0  0  0  0  # atno 17342 bound_to 10162
  140.6575  143.8569  150.6851 LP  0  0  0  0  0  0  0  0  0  0  0  0  # atno 17343 bound_to 10162
  156.6342  130.4440  149.5775 LP  0  0  0  0  0  0  0  0  0  0  0  0  # atno 17370 bound_to 10713
  156.2258  130.6765  151.1415 LP  0  0  0  0  0  0  0  0  0  0  0  0  # atno 17371 bound_to 10713
  141.2128  133.7644  156.9762 LP  0  0  0  0  0  0  0  0  0  0  0  0  # atno 17394 bound_to 11000
  140.1112  134.9475  157.2068 LP  0  0  0  0  0  0  0  0  0  0  0  0  # atno 17395 bound_to 11000

$$$$
