#       Name:                AV-unprocessed.smi:2357
#       Creating user name   scv26
#       Creation time:       Fri Mar 27 13:03:35 2020


#       File generated by GOLD software.
#

@<TRIPOS>MOLECULE
AV-unprocessed.smi:2357
    44    45     1
SMALL
NO_CHARGES


@<TRIPOS>ATOM
      1 ****        -5.6509  -0.7356  -1.8106 C.3            1 S1                 0.0000
      2 ****        -4.1336  -0.7576  -1.8043 C.2            1 S1                 0.0000
      3 ****        -3.3904   0.4849  -1.7755 C.2            1 S1                 0.0000
      4 ****        -2.0497   0.4475  -1.7701 C.2            1 S1                 0.0000
      5 ****        -1.3387  -0.7653  -1.7915 N.am           1 S1                 0.0000
      6 ****         0.1313  -0.6753  -1.7734 C.3            1 S1                 0.0000
      7 ****         0.7348  -0.7468  -0.3628 C.2            1 S1                 0.0000
      8 ****         0.0325  -0.9913   0.6197 O.2            1 S1                 0.0000
      9 ****         2.0555  -0.5263  -0.2815 N.am           1 S1                 0.0000
     10 ****         2.8336  -0.5349   0.9521 C.3            1 S1                 0.0000
     11 ****         2.6439   0.7621   1.7568 C.3            1 S1                 0.0000
     12 ****         3.4113   0.7855   3.0750 C.3            1 S1                 0.0000
     13 ****         3.4701   2.2692   3.3622 C.3            1 S1                 0.0000
     14 ****         3.6164   2.8732   1.9649 C.3            1 S1                 0.0000
     15 ****         3.1624   1.8810   1.0462 O.3            1 S1                 0.0000
     16 ****        -1.9736  -1.9759  -1.8140 C.2            1 S1                 0.0000
     17 ****        -1.3452  -3.0361  -1.8249 O.2            1 S1                 0.0000
     18 ****        -3.4445  -1.9238  -1.8220 C.2            1 S1                 0.0000
     19 ****        -4.1079  -3.1876  -1.8484 C.1            1 S1                 0.0000
     20 ****        -4.6662  -4.2015  -1.8746 N.1            1 S1                 0.0000
     21 ****        -6.0305   0.2866  -1.8112 H              1 S1                 0.0000
     22 ****        -6.0424  -1.2411  -0.9273 H              1 S1                 0.0000
     23 ****        -6.0370  -1.2397  -2.6971 H              1 S1                 0.0000
     24 ****        -3.9049   1.4346  -1.7538 H              1 S1                 0.0000
     25 ****        -1.4392   1.3385  -1.7418 H              1 S1                 0.0000
     26 ****         0.5733  -1.4650  -2.3836 H              1 S1                 0.0000
     27 ****         0.4527   0.2567  -2.2411 H              1 S1                 0.0000
     28 ****         2.5588  -0.3308  -1.1348 H              1 S1                 0.0000
     29 ****         2.5521  -1.3986   1.5566 H              1 S1                 0.0000
     30 ****         3.8849  -0.6664   0.6950 H              1 S1                 0.0000
     31 ****         1.5864   0.9421   1.9580 H              1 S1                 0.0000
     32 ****         2.9199   0.2157   3.8642 H              1 S1                 0.0000
     33 ****         4.4191   0.3896   2.9411 H              1 S1                 0.0000
     34 ****         2.5323   2.5960   3.8136 H              1 S1                 0.0000
     35 ****         4.2843   2.5438   4.0336 H              1 S1                 0.0000
     36 ****         3.0410   3.7935   1.8613 H              1 S1                 0.0000
     37 ****         4.6599   3.1001   1.7451 H              1 S1                 0.0000
     38 ****        -0.9488  -1.1474   0.5065 LP             1 S1                 0.0000
     39 ****         0.4437  -1.0337   1.5302 LP             1 S1                 0.0000
     40 ****         2.4440   2.2684   0.4683 LP             1 S1                 0.0000
     41 ****         3.9270   1.5847   0.4738 LP             1 S1                 0.0000
     42 ****        -0.3453  -3.0248  -1.8173 LP             1 S1                 0.0000
     43 ****        -1.8353  -3.9077  -1.8414 LP             1 S1                 0.0000
     44 ****        -5.1485  -5.0773  -1.8973 LP             1 S1                 0.0000
@<TRIPOS>BOND
    1    1    2 1     
    2    1   21 1     
    3    1   22 1     
    4    1   23 1     
    5    2   18 2     
    6    2    3 1     
    7    3    4 2     
    8    3   24 1     
    9    4    5 1     
   10    4   25 1     
   11    5    6 1     
   12    5   16 am    
   13    6    7 1     
   14    6   26 1     
   15    6   27 1     
   16    7    8 2     
   17    7    9 am    
   18    9   10 1     
   19    9   28 1     
   20   10   11 1     
   21   10   29 1     
   22   10   30 1     
   23   11   15 1     
   24   11   12 1     
   25   11   31 1     
   26   12   13 1     
   27   12   32 1     
   28   12   33 1     
   29   13   14 1     
   30   13   34 1     
   31   13   35 1     
   32   14   15 1     
   33   14   36 1     
   34   14   37 1     
   35   16   17 2     
   36   16   18 1     
   37   18   19 1     
   38   19   20 3     
   39    8   38 1     
   40    8   39 1     
   41   15   40 1     
   42   15   41 1     
   43   17   42 1     
   44   17   43 1     
   45   20   44 1     
@<TRIPOS>SUBSTRUCTURE
      1 S1             1
@<TRIPOS>SET
LONE_PAIRS      STATIC     ATOMS    <user>   **** ""
7 38 39 40 41 42 43 44
DONOR_HYDROGENS      STATIC     ATOMS    <user>   **** ""
1 28
ATOM$BLUE        STATIC     ATOMS    COLORGROUP SYSTEM
7 38 39 40 41 42 43 44
ATOM$RED        STATIC     ATOMS    COLORGROUP SYSTEM
1 28
