AV-unprocessed.smi:285|AV-procd|sdf|2171|dock8
  -GOLD-   2262021533D 1   1.00000     0.00000
 Structure written by MMmdl.
 31 33  0  0  0  0  0  0  0  0  1 V2000
  154.2818  140.6079  160.8504 N   0  0  0  0  0  0  0  0  0  0  0  0
  153.3715  141.2685  160.1210 C   0  0  0  0  0  0  0  0  0  0  0  0
  152.8994  142.4453  160.5945 N   0  0  0  0  0  0  0  0  0  0  0  0
  151.9922  143.1251  159.8857 C   0  0  0  0  0  0  0  0  0  0  0  0
  151.4421  142.8095  158.7100 N   0  0  0  0  0  0  0  0  0  0  0  0
  151.9173  141.6213  158.2329 C   0  0  0  0  0  0  0  0  0  0  0  0
  152.8821  140.7929  158.8783 C   0  0  0  0  0  0  0  0  0  0  0  0
  153.1349  139.6628  158.1109 N   0  0  0  0  0  0  0  0  0  0  0  0
  152.3566  139.8363  157.0794 C   0  0  0  0  0  0  0  0  0  0  0  0
  152.3231  138.5532  155.6722 Br  0  0  0  0  0  0  0  0  0  0  0  0
  151.5863  140.9772  157.0570 N   0  0  0  0  0  0  0  0  0  0  0  0
  150.6142  141.4361  156.0187 C   0  0  2  0  0  0  0  0  0  0  0  0
  149.1838  141.3726  156.5316 C   0  0  0  0  0  0  0  0  0  0  0  0
  148.4440  141.3058  155.2137 C   0  0  2  0  0  0  0  0  0  0  0  0
  147.1324  140.8054  155.3811 O   0  0  0  0  0  0  0  0  0  0  0  0
  149.3768  140.4342  154.3441 C   0  0  2  0  0  0  0  0  0  0  0  0
  149.0576  138.9261  154.3149 C   0  0  0  0  0  0  0  0  0  0  0  0
  150.0608  138.2144  153.6196 O   0  0  0  0  0  0  0  0  0  0  0  0
  150.6765  140.5765  154.9252 O   0  0  0  0  0  0  0  0  0  0  0  0
  154.6502  139.7279  160.5185 H   0  0  0  0  0  0  0  0  0  0  0  0
  154.5978  140.9908  161.7296 H   0  0  0  0  0  0  0  0  0  0  0  0
  151.6593  144.0551  160.3223 H   0  0  0  0  0  0  0  0  0  0  0  0
  150.9251  142.4383  155.7242 H   0  0  0  0  0  0  0  0  0  0  0  0
  149.0358  140.4631  157.1162 H   0  0  0  0  0  0  0  0  0  0  0  0
  148.9377  142.2432  157.1401 H   0  0  0  0  0  0  0  0  0  0  0  0
  148.3854  142.3075  154.7855 H   0  0  0  0  0  0  0  0  0  0  0  0
  146.7802  141.1521  156.1870 H   0  0  0  0  0  0  0  0  0  0  0  0
  149.4129  140.8207  153.3247 H   0  0  0  0  0  0  0  0  0  0  0  0
  149.0258  138.5347  155.3320 H   0  0  0  0  0  0  0  0  0  0  0  0
  148.0811  138.7335  153.8695 H   0  0  0  0  0  0  0  0  0  0  0  0
  149.6621  137.7792  152.8816 H   0  0  0  0  0  0  0  0  0  0  0  0
  1  2  1  0  0  0  0
  1 20  1  0  0  0  0
  1 21  1  0  0  0  0
  2  7  1  0  0  0  0
  2  3  2  0  0  0  0
  3  4  1  0  0  0  0
  4  5  2  0  0  0  0
  4 22  1  0  0  0  0
  5  6  1  0  0  0  0
  6 11  1  0  0  0  0
  6  7  2  0  0  0  0
  7  8  1  0  0  0  0
  8  9  2  0  0  0  0
  9 10  1  0  0  0  0
  9 11  1  0  0  0  0
 11 12  1  0  0  0  0
 12 19  1  0  0  0  0
 12 13  1  0  0  0  0
 12 23  1  0  0  0  0
 13 14  1  0  0  0  0
 13 24  1  0  0  0  0
 13 25  1  0  0  0  0
 14 15  1  0  0  0  0
 14 16  1  0  0  0  0
 14 26  1  0  0  0  0
 15 27  1  0  0  0  0
 16 17  1  0  0  0  0
 16 19  1  0  0  0  0
 16 28  1  0  0  0  0
 17 18  1  0  0  0  0
 17 29  1  0  0  0  0
 17 30  1  0  0  0  0
 18 31  1  0  0  0  0
M  END
> <s_m_source_file>
AV-unprocessed.smi

> <i_m_source_file_index>
285

> <i_lp_mmshare_version>
43012

> <i_f3d_flags>
0

> <s_epik_input>
bjFbY0hdbmMoW05IMl0pYyhjMTIpbmMoQnIpbjJbQ0BASF0zW0NIMl1bQ0BASF0oW09IXSlbQ0BIXShPMylbQ0gyXVtPSF0=

> <s_epik_cmdline>
J2VwaWtfcHl0aG9uJywgJy1waCcsICc3LjAnLCAnLXRuJywgJzgnLCAnLW1hJywgJzIwMCcsICctbWV0YWxfYmluZGluZycsICctaW1hZScsICc8aW5maWxlLm1hZT4nLCAnLW9tYWUnLCAnPG91dGZpbGUubWFlPic=

> <r_lp_tautomer_probability>
1

> <r_epik_Ionization_Penalty>
0.000103242

> <r_epik_Ionization_Penalty_Charging>
0

> <r_epik_Ionization_Penalty_Neutral>
0.000103242

> <r_epik_State_Penalty>
-0

> <r_epik_Charging_Adjusted_Penalty>
0

> <i_epik_Tot_Q>
0

> <i_epik_Tot_abs_Q>
0

> <r_epik_Metal_State_Penalty>
-0

> <b_epik_Metal_Only>
0

> <s_epik_Chemistry_Notes>
This compound contains an acetal/aminal-like group ( X-CH(R)-Y where X, Y are N, S, or O) that may be acid/base labile, releasing an aldehyde.

> <s_lp_Force_Field>
OPLS_2005

> <r_lp_Energy>
36.2712

> <b_lp_Chiralities_Consistent>
1

> <s_lp_Variant>
AV-unprocessed.smi:285-7

> <Gold.Version>
5.8.1

> <Gold.Id.Protein>
6NUR|6NUR_protein|mol2

> <Gold.PLP.Fitness>
40.9481

> <Gold.PLP.PLP>
-32.6864

> <Gold.PLP.part.hbond>
-4.0207

> <Gold.PLP.part.metal>
0.0000

> <Gold.PLP.part.buried>
-4.3479

> <Gold.PLP.part.nonpolar>
-24.7527

> <Gold.PLP.part.repulsive>
0.1389

> <Gold.PLP.ligand.clash>
0.0000

> <Gold.PLP.ligand.torsion>
0.1347

> <Gold.PLP.Chemscore.Hbond>
2.8400

> <Gold.PLP.Chemscore.CHOScore>
0.0000

> <Gold.PLP.Chemscore.Metal>
0.0000

> <Gold.Chemscore.Hbonds>
donor molecule, donor type, donor heavy atom, donor atom, acceptor molecule, acceptor atom, score
      L1  H    18    31       P1  7948  1.00
      P1  H  7989  7998       L1    19  0.99
      P1  H  7997  8009       L1     8  0.78

> <Gold.PLP.Chemscore.Internal.Correction>
0.0110

> <Gold.Rescore>
     Score         DG    S(hbond)    S(metal)    S(lipo)     H(rot)  DE(clash)    DE(int)     intcor
      5.57      -7.43       1.66        0.00      36.19       3.06       0.33       1.52       ----

> <Gold.Chemscore.Fitness>
5.5720

> <Gold.Chemscore.DG>
-7.4312

> <Gold.Chemscore.ZeroCoef>
-5.4800

> <Gold.Chemscore.Hbond>
1.6625

> <Gold.Chemscore.Metal>
0.0000

> <Gold.Chemscore.Lipo>
36.1870

> <Gold.Chemscore.Internal_Hbond>
0.0000

> <Gold.Chemscore.DEClash>
0.3350

> <Gold.Chemscore.DEInternal>
1.5242

> <Gold.Chemscore.Rot>
3.0607

> <Gold.Chemscore.Internal.Correction>
   9.000000E+99

> <Gold.Chemscore.Hbonds>
donor molecule, donor type, donor heavy atom, donor atom, acceptor molecule, acceptor atom, score
      L1  H    18    31       P1  7948  0.64
      P1  H  7989  7998       L1    19  0.24
      P1  H  7997  8009       L1     8  0.07

> <Gold.Chemscore.Hbond.Weighted>
-5.5526

> <Gold.Chemscore.Metal.Weighted>
-0.0000

> <Gold.Chemscore.Lipo.Weighted>
-4.2339

> <Gold.Chemscore.Internal_Hbond.Weighted>
0.0000

> <Gold.Chemscore.DEClash.Weighted>
0.3350

> <Gold.Chemscore.DEInternal.Weighted>
1.5242

> <Gold.Chemscore.Rot.Weighted>
7.8354

> <Gold.Chemscore.Internal.Correction.Weighted>
   9.000000E+99

> <Gold.Protein.RotatedTorsions>
[ 6907 6896 6895 6894 ] final  125.14 input  -60.11 | X-H torsion
[ 7974 7965 7964 7962 ] final  -59.72 input  175.53 | X-H torsion
[ 8008 7997 7996 7995 ] final  133.97 input   59.86 | X-H torsion
[ 10167 10162 10161 10158 ] final  -40.08 input  -65.29 | X-H torsion
[ 10718 10713 10712 10709 ] final  179.54 input   66.30 | X-H torsion
[ 10763 10752 10751 10750 ] final  -91.41 input  -60.55 | X-H torsion
[ 11005 11000 10999 10996 ] final   61.87 input  -57.11 | X-H torsion

> <Gold.Protein.ActiveResidues>
 VAL166  LYS551  ARG553  GLY616  TRP617  ASP618  TYR619  PRO620  LYS621  CYS622 
 ASP623  PHE694  ASN695  SER759  ASP760  ASP761  ALA762  ILE779  LEU786  VAL792 
 PHE793  MET794  SER795  GLU796  ALA797  LYS798  CYS799  TRP800  GLU811  SER814 

> <Gold.Protein.RotatedAtoms>
  152.4018  133.6829  159.6322 H   0  0  0  0  0  0  0  0  0  0  0  0  # atno 6907 bound_to 6896
  150.7908  133.8778  159.3286 H   0  0  0  0  0  0  0  0  0  0  0  0  # atno 6908 bound_to 6896
  151.6542  135.0999  160.0218 H   0  0  0  0  0  0  0  0  0  0  0  0  # atno 6909 bound_to 6896
  145.8241  140.8522  143.0117 H   0  0  0  0  0  0  0  0  0  0  0  0  # atno 7974 bound_to 7965
  156.2996  140.2508  156.3341 H   0  0  0  0  0  0  0  0  0  0  0  0  # atno 8008 bound_to 7997
  154.9117  140.0403  157.1969 H   0  0  0  0  0  0  0  0  0  0  0  0  # atno 8009 bound_to 7997
  154.8398  140.2889  155.5671 H   0  0  0  0  0  0  0  0  0  0  0  0  # atno 8010 bound_to 7997
  140.7045  143.3175  151.2873 H   0  0  0  0  0  0  0  0  0  0  0  0  # atno 10167 bound_to 10162
  156.8742  130.9794  151.3070 H   0  0  0  0  0  0  0  0  0  0  0  0  # atno 10718 bound_to 10713
  154.6757  135.5269  153.8196 H   0  0  0  0  0  0  0  0  0  0  0  0  # atno 10763 bound_to 10752
  153.0531  135.6540  154.0655 H   0  0  0  0  0  0  0  0  0  0  0  0  # atno 10764 bound_to 10752
  154.0548  135.2966  155.3314 H   0  0  0  0  0  0  0  0  0  0  0  0  # atno 10765 bound_to 10752
  140.0131  134.6266  155.9750 H   0  0  0  0  0  0  0  0  0  0  0  0  # atno 11005 bound_to 11000
  144.6745  140.0576  143.7477 LP  0  0  0  0  0  0  0  0  0  0  0  0  # atno 17320 bound_to 7965
  145.9643  139.2823  143.1137 LP  0  0  0  0  0  0  0  0  0  0  0  0  # atno 17321 bound_to 7965
  139.6618  144.0175  152.2697 LP  0  0  0  0  0  0  0  0  0  0  0  0  # atno 17342 bound_to 10162
  139.9745  144.6471  150.7958 LP  0  0  0  0  0  0  0  0  0  0  0  0  # atno 17343 bound_to 10162
  157.6178  130.8632  149.9058 LP  0  0  0  0  0  0  0  0  0  0  0  0  # atno 17370 bound_to 10713
  156.0711  130.3685  150.0775 LP  0  0  0  0  0  0  0  0  0  0  0  0  # atno 17371 bound_to 10713
  141.1724  133.6538  156.4703 LP  0  0  0  0  0  0  0  0  0  0  0  0  # atno 17394 bound_to 11000
  140.4519  134.6921  157.5043 LP  0  0  0  0  0  0  0  0  0  0  0  0  # atno 17395 bound_to 11000

$$$$
