AV-unprocessed.smi:2382|AV-procd|sdf|9459|dock2
  -GOLD-   2272013 83D 1   1.00000     0.00000
 Structure written by MMmdl.
 38 39  0  0  0  0  0  0  0  0  2 V2000
  151.0500  139.0858  154.2514 C   0  0  0  0  0  0  0  0  0  0  0  0
  149.6479  139.4821  153.9305 C   0  0  0  0  0  0  0  0  0  0  0  0
  148.7703  138.7121  153.2329 N   0  3  0  0  0  0  0  0  0  0  0  0
  147.5939  139.3450  153.1115 N   0  0  0  0  0  0  0  0  0  0  0  0
  146.5048  138.6843  152.3920 C   0  0  0  0  0  0  0  0  0  0  0  0
  147.6461  140.5588  153.7301 C   0  0  0  0  0  0  0  0  0  0  0  0
  146.5115  141.5279  153.7999 C   0  0  0  0  0  0  0  0  0  0  0  0
  148.9459  140.6514  154.2428 C   0  0  0  0  0  0  0  0  0  0  0  0
  149.5053  141.8123  155.0114 C   0  0  0  0  0  0  0  0  0  0  0  0
  150.0372  141.3875  156.3898 C   0  0  0  0  0  0  0  0  0  0  0  0
  150.4790  142.5356  157.1716 N   0  0  0  0  0  0  0  0  0  0  0  0
  151.4740  142.5124  158.0724 C   0  0  0  0  0  0  0  0  0  0  0  0
  152.1465  141.5120  158.3211 O   0  0  0  0  0  0  0  0  0  0  0  0
  151.7062  143.7099  158.6331 N   0  0  0  0  0  0  0  0  0  0  0  0
  152.8463  144.2318  159.3795 C   0  0  0  0  0  0  0  0  0  0  0  0
  152.1291  145.5802  159.3502 C   0  0  0  0  0  0  0  0  0  0  0  0
  151.1992  145.0269  158.2718 C   0  0  0  0  0  0  0  0  0  0  0  0
  151.2697  139.2918  155.2994 H   0  0  0  0  0  0  0  0  0  0  0  0
  151.7493  139.6484  153.6325 H   0  0  0  0  0  0  0  0  0  0  0  0
  151.2002  138.0213  154.0687 H   0  0  0  0  0  0  0  0  0  0  0  0
  145.9128  139.4338  151.8656 H   0  0  0  0  0  0  0  0  0  0  0  0
  145.8740  138.1572  153.1084 H   0  0  0  0  0  0  0  0  0  0  0  0
  146.9110  137.9758  151.6685 H   0  0  0  0  0  0  0  0  0  0  0  0
  146.6458  142.2182  154.6326 H   0  0  0  0  0  0  0  0  0  0  0  0
  145.5678  141.0013  153.9438 H   0  0  0  0  0  0  0  0  0  0  0  0
  146.4538  142.1035  152.8761 H   0  0  0  0  0  0  0  0  0  0  0  0
  150.3045  142.2814  154.4364 H   0  0  0  0  0  0  0  0  0  0  0  0
  148.7443  142.5836  155.1354 H   0  0  0  0  0  0  0  0  0  0  0  0
  149.2555  140.8742  156.9503 H   0  0  0  0  0  0  0  0  0  0  0  0
  150.8586  140.6771  156.2812 H   0  0  0  0  0  0  0  0  0  0  0  0
  149.9965  143.4095  157.0200 H   0  0  0  0  0  0  0  0  0  0  0  0
  152.9643  143.8202  160.3825 H   0  0  0  0  0  0  0  0  0  0  0  0
  153.7821  144.2202  158.8185 H   0  0  0  0  0  0  0  0  0  0  0  0
  151.6096  145.8045  160.2833 H   0  0  0  0  0  0  0  0  0  0  0  0
  152.7514  146.4139  159.0233 H   0  0  0  0  0  0  0  0  0  0  0  0
  151.4653  145.3380  157.2605 H   0  0  0  0  0  0  0  0  0  0  0  0
  150.1402  145.1813  158.4818 H   0  0  0  0  0  0  0  0  0  0  0  0
  148.9138  137.7921  152.8358 H   0  0  0  0  0  0  0  0  0  0  0  0
  1  2  1  0  0  0  0
  1 18  1  0  0  0  0
  1 19  1  0  0  0  0
  1 20  1  0  0  0  0
  2  8  1  0  0  0  0
  2  3  2  0  0  0  0
  3  4  1  0  0  0  0
  3 38  1  0  0  0  0
  4  5  1  0  0  0  0
  4  6  1  0  0  0  0
  5 21  1  0  0  0  0
  5 22  1  0  0  0  0
  5 23  1  0  0  0  0
  6  7  1  0  0  0  0
  6  8  2  0  0  0  0
  7 24  1  0  0  0  0
  7 25  1  0  0  0  0
  7 26  1  0  0  0  0
  8  9  1  0  0  0  0
  9 10  1  0  0  0  0
  9 27  1  0  0  0  0
  9 28  1  0  0  0  0
 10 11  1  0  0  0  0
 10 29  1  0  0  0  0
 10 30  1  0  0  0  0
 11 12  1  0  0  0  0
 11 31  1  0  0  0  0
 12 13  2  0  0  0  0
 12 14  1  0  0  0  0
 14 17  1  0  0  0  0
 14 15  1  0  0  0  0
 15 16  1  0  0  0  0
 15 32  1  0  0  0  0
 15 33  1  0  0  0  0
 16 17  1  0  0  0  0
 16 34  1  0  0  0  0
 16 35  1  0  0  0  0
 17 36  1  0  0  0  0
 17 37  1  0  0  0  0
M  CHG  1   3   1
M  END
> <s_m_source_file>
AV-unprocessed.smi

> <i_m_source_file_index>
2382

> <i_lp_mmshare_version>
43012

> <i_f3d_flags>
0

> <s_epik_input>
W0NIM11jMW5uKFtDSDNdKWMoW0NIM10pYzFbQ0gyXVtDSDJdW05IXUMoPU8pTjJbQ0gyXVtDSDJdW0NIMl0y

> <s_epik_cmdline>
J2VwaWtfcHl0aG9uJywgJy1waCcsICc3LjAnLCAnLXRuJywgJzgnLCAnLW1hJywgJzIwMCcsICctbWV0YWxfYmluZGluZycsICctaW1hZScsICc8aW5maWxlLm1hZT4nLCAnLW9tYWUnLCAnPG91dGZpbGUubWFlPic=

> <r_lp_tautomer_probability>
1

> <r_epik_Ionization_Penalty>
2.28506

> <r_epik_Ionization_Penalty_Charging>
2.285

> <r_epik_Ionization_Penalty_Neutral>
5.95173e-05

> <r_epik_State_Penalty>
2.43458

> <r_epik_Charging_Adjusted_Penalty>
4.71958

> <i_epik_Tot_Q>
1

> <i_epik_Tot_abs_Q>
1

> <r_epik_Metal_State_Penalty>
2.44703

> <b_epik_Metal_Only>
0

> <s_lp_Force_Field>
OPLS_2005

> <r_lp_Energy>
26.6321

> <b_lp_Chiralities_Consistent>
1

> <s_lp_Variant>
AV-unprocessed.smi:2382-2

> <Gold.Version>
5.8.1

> <Gold.Id.Protein>
6NUR|6NUR_protein|mol2

> <Gold.PLP.Fitness>
48.3080

> <Gold.PLP.PLP>
-40.2763

> <Gold.PLP.part.hbond>
-2.9781

> <Gold.PLP.part.metal>
0.0000

> <Gold.PLP.part.buried>
1.5229

> <Gold.PLP.part.nonpolar>
-38.7272

> <Gold.PLP.part.repulsive>
0.0824

> <Gold.PLP.ligand.clash>
0.0000

> <Gold.PLP.ligand.torsion>
0.2924

> <Gold.PLP.Chemscore.Hbond>
2.8125

> <Gold.PLP.Chemscore.CHOScore>
0.0000

> <Gold.PLP.Chemscore.Metal>
0.0000

> <Gold.Chemscore.Hbonds>
donor molecule, donor type, donor heavy atom, donor atom, acceptor molecule, acceptor atom, score
      L1  H     3    38       P1  7948  2.00
      L1  H    11    31       P1  8028  0.61

> <Gold.PLP.Chemscore.Internal.Correction>
0.1790

> <Gold.Rescore>
     Score         DG    S(hbond)    S(metal)    S(lipo)     H(rot)  DE(clash)    DE(int)     intcor
     18.73     -19.27       1.76        0.00      99.10       1.45       0.35       0.19       ----

> <Gold.Chemscore.Fitness>
18.7313

> <Gold.Chemscore.DG>
-19.2660

> <Gold.Chemscore.ZeroCoef>
-5.4800

> <Gold.Chemscore.Hbond>
1.7638

> <Gold.Chemscore.Metal>
0.0000

> <Gold.Chemscore.Lipo>
99.1019

> <Gold.Chemscore.Internal_Hbond>
0.0000

> <Gold.Chemscore.DEClash>
0.3467

> <Gold.Chemscore.DEInternal>
0.1880

> <Gold.Chemscore.Rot>
1.4453

> <Gold.Chemscore.Internal.Correction>
   9.000000E+99

> <Gold.Chemscore.Hbonds>
donor molecule, donor type, donor heavy atom, donor atom, acceptor molecule, acceptor atom, score
      L1  H     3    38       P1  7948  1.00
      L1  H    11    31       P1  8028  0.58

> <Gold.Chemscore.Hbond.Weighted>
-5.8910

> <Gold.Chemscore.Metal.Weighted>
-0.0000

> <Gold.Chemscore.Lipo.Weighted>
-11.5949

> <Gold.Chemscore.Internal_Hbond.Weighted>
0.0000

> <Gold.Chemscore.DEClash.Weighted>
0.3467

> <Gold.Chemscore.DEInternal.Weighted>
0.1880

> <Gold.Chemscore.Rot.Weighted>
3.6999

> <Gold.Chemscore.Internal.Correction.Weighted>
   9.000000E+99

> <Gold.Protein.RotatedTorsions>
[ 6907 6896 6895 6894 ] final    3.01 input  -60.11 | X-H torsion
[ 7974 7965 7964 7962 ] final  -38.48 input  175.53 | X-H torsion
[ 8008 7997 7996 7995 ] final  134.47 input   59.86 | X-H torsion
[ 10167 10162 10161 10158 ] final  160.43 input  -65.29 | X-H torsion
[ 10718 10713 10712 10709 ] final  179.86 input   66.30 | X-H torsion
[ 10763 10752 10751 10750 ] final    0.05 input  -60.55 | X-H torsion
[ 11005 11000 10999 10996 ] final -130.26 input  -57.11 | X-H torsion

> <Gold.Protein.ActiveResidues>
 VAL166  LYS551  ARG553  GLY616  TRP617  ASP618  TYR619  PRO620  LYS621  CYS622 
 ASP623  PHE694  ASN695  SER759  ASP760  ASP761  ALA762  ILE779  LEU786  VAL792 
 PHE793  MET794  SER795  GLU796  ALA797  LYS798  CYS799  TRP800  GLU811  SER814 

> <Gold.Protein.RotatedAtoms>
  151.6181  135.1034  160.0095 H   0  0  0  0  0  0  0  0  0  0  0  0  # atno 6907 bound_to 6896
  152.4172  133.7053  159.6458 H   0  0  0  0  0  0  0  0  0  0  0  0  # atno 6908 bound_to 6896
  150.8060  133.8435  159.3226 H   0  0  0  0  0  0  0  0  0  0  0  0  # atno 6909 bound_to 6896
  146.0482  140.6517  142.9054 H   0  0  0  0  0  0  0  0  0  0  0  0  # atno 7974 bound_to 7965
  156.2999  140.2495  156.3423 H   0  0  0  0  0  0  0  0  0  0  0  0  # atno 8008 bound_to 7997
  154.9043  140.0405  157.1930 H   0  0  0  0  0  0  0  0  0  0  0  0  # atno 8009 bound_to 7997
  154.8469  140.2899  155.5627 H   0  0  0  0  0  0  0  0  0  0  0  0  # atno 8010 bound_to 7997
  139.4840  144.4635  151.8673 H   0  0  0  0  0  0  0  0  0  0  0  0  # atno 10167 bound_to 10162
  156.8695  130.9779  151.3075 H   0  0  0  0  0  0  0  0  0  0  0  0  # atno 10718 bound_to 10713
  153.3257  135.6972  153.6991 H   0  0  0  0  0  0  0  0  0  0  0  0  # atno 10763 bound_to 10752
  153.5814  135.3497  155.2877 H   0  0  0  0  0  0  0  0  0  0  0  0  # atno 10764 bound_to 10752
  154.8607  135.4296  154.2433 H   0  0  0  0  0  0  0  0  0  0  0  0  # atno 10765 bound_to 10752
  140.9361  134.1255  157.4192 H   0  0  0  0  0  0  0  0  0  0  0  0  # atno 11005 bound_to 11000
  144.7109  140.4034  143.7081 LP  0  0  0  0  0  0  0  0  0  0  0  0  # atno 17320 bound_to 7965
  145.6769  139.1610  143.2723 LP  0  0  0  0  0  0  0  0  0  0  0  0  # atno 17321 bound_to 7965
  140.4099  144.2383  150.5889 LP  0  0  0  0  0  0  0  0  0  0  0  0  # atno 17342 bound_to 10162
  140.4977  143.2327  151.8726 LP  0  0  0  0  0  0  0  0  0  0  0  0  # atno 17343 bound_to 10162
  157.6204  130.8650  149.9099 LP  0  0  0  0  0  0  0  0  0  0  0  0  # atno 17370 bound_to 10713
  156.0734  130.3682  150.0728 LP  0  0  0  0  0  0  0  0  0  0  0  0  # atno 17371 bound_to 10713
  139.8808  135.0021  156.6108 LP  0  0  0  0  0  0  0  0  0  0  0  0  # atno 17394 bound_to 11000
  140.7797  133.8670  155.8558 LP  0  0  0  0  0  0  0  0  0  0  0  0  # atno 17395 bound_to 11000

$$$$
