#       Name:                AV-unprocessed.smi:1135
#       Creating user name   scv26
#       Creation time:       Fri Mar 27 03:43:22 2020


#       File generated by GOLD software.
#

@<TRIPOS>MOLECULE
AV-unprocessed.smi:1135
    48    49     1
SMALL
NO_CHARGES


@<TRIPOS>ATOM
      1 ****        -2.2772   2.2617  -4.2218 C.3            1 S1                 0.0000
      2 ****        -2.4690   1.7265  -2.7958 C.3            1 S1                 0.0000
      3 ****        -1.7383   2.6007  -1.7607 C.3            1 S1                 0.0000
      4 ****        -1.9191   2.0575  -0.3305 C.3            1 S1                 0.0000
      5 ****        -1.4663   0.5853  -0.1790 C.3            1 S1                 0.0000
      6 ****        -1.8248   0.1024   1.2444 C.3            1 S1                 0.0000
      7 ****        -0.0081   0.5434  -0.3660 N.am           1 S1                 0.0000
      8 ****         0.8082  -0.5204  -0.2935 C.2            1 S1                 0.0000
      9 ****         0.4355  -1.6758  -0.0897 O.2            1 S1                 0.0000
     10 ****         2.0946  -0.1671  -0.4307 N.am           1 S1                 0.0000
     11 ****         3.2345  -1.0736  -0.3049 C.3            1 S1                 0.0000
     12 ****         3.8171  -1.0973   1.1236 C.3            1 S1                 0.0000
     13 ****         2.8054  -1.4680   2.1951 C.ar           1 S1                 0.0000
     14 ****         2.2173  -0.5013   3.0404 C.ar           1 S1                 0.0000
     15 ****         1.2555  -0.9079   3.9882 C.ar           1 S1                 0.0000
     16 ****         0.9061  -2.2713   4.0753 C.ar           1 S1                 0.0000
     17 ****         1.5278  -3.1947   3.2104 C.ar           1 S1                 0.0000
     18 ****         2.4434  -2.7659   2.3140 N.pl3          1 S1                 1.0000
     19 ****        -2.2037  -0.2706  -1.2430 C.3            1 S1                 0.0000
     20 ****        -2.0128   0.2613  -2.6749 C.3            1 S1                 0.0000
     21 ****        -1.2262   2.2498  -4.5119 H              1 S1                 0.0000
     22 ****        -2.6352   3.2881  -4.3072 H              1 S1                 0.0000
     23 ****        -2.8292   1.6599  -4.9442 H              1 S1                 0.0000
     24 ****        -3.5364   1.7645  -2.5727 H              1 S1                 0.0000
     25 ****        -0.6770   2.6560  -2.0059 H              1 S1                 0.0000
     26 ****        -2.1146   3.6230  -1.8084 H              1 S1                 0.0000
     27 ****        -1.3771   2.6927   0.3715 H              1 S1                 0.0000
     28 ****        -2.9722   2.1440  -0.0585 H              1 S1                 0.0000
     29 ****        -2.8912   0.2163   1.4417 H              1 S1                 0.0000
     30 ****        -1.2897   0.6739   2.0039 H              1 S1                 0.0000
     31 ****        -1.5860  -0.9502   1.3953 H              1 S1                 0.0000
     32 ****         0.4279   1.4364  -0.5438 H              1 S1                 0.0000
     33 ****         2.3044   0.8056  -0.6026 H              1 S1                 0.0000
     34 ****         2.9525  -2.0824  -0.6110 H              1 S1                 0.0000
     35 ****         4.0040  -0.7508  -1.0064 H              1 S1                 0.0000
     36 ****         4.6485  -1.8021   1.1673 H              1 S1                 0.0000
     37 ****         4.2386  -0.1197   1.3613 H              1 S1                 0.0000
     38 ****         2.4878   0.5411   2.9548 H              1 S1                 0.0000
     39 ****         0.7883  -0.1823   4.6377 H              1 S1                 0.0000
     40 ****         0.1706  -2.6033   4.7932 H              1 S1                 0.0000
     41 ****         1.3184  -4.2544   3.2050 H              1 S1                 0.0000
     42 ****        -1.8901  -1.3132  -1.1955 H              1 S1                 0.0000
     43 ****        -3.2711  -0.2797  -1.0178 H              1 S1                 0.0000
     44 ****        -2.5782  -0.3601  -3.3701 H              1 S1                 0.0000
     45 ****        -0.9660   0.1703  -2.9680 H              1 S1                 0.0000
     46 ****         2.8715  -3.4505   1.6902 H              1 S1                 0.0000
     47 ****        -0.5369  -1.8728   0.0353 LP             1 S1                 0.0000
     48 ****         1.1052  -2.4173  -0.0491 LP             1 S1                 0.0000
@<TRIPOS>BOND
    1    1    2 1     
    2    1   21 1     
    3    1   22 1     
    4    1   23 1     
    5    2   20 1     
    6    2    3 1     
    7    2   24 1     
    8    3    4 1     
    9    3   25 1     
   10    3   26 1     
   11    4    5 1     
   12    4   27 1     
   13    4   28 1     
   14    5    6 1     
   15    5    7 1     
   16    5   19 1     
   17    6   29 1     
   18    6   30 1     
   19    6   31 1     
   20    7    8 am    
   21    7   32 1     
   22    8    9 2     
   23    8   10 am    
   24   10   11 1     
   25   10   33 1     
   26   11   12 1     
   27   11   34 1     
   28   11   35 1     
   29   12   13 1     
   30   12   36 1     
   31   12   37 1     
   32   13   18 ar    
   33   13   14 ar    
   34   14   15 ar    
   35   14   38 1     
   36   15   16 ar    
   37   15   39 1     
   38   16   17 ar    
   39   16   40 1     
   40   17   18 ar    
   41   17   41 1     
   42   18   46 1     
   43   19   20 1     
   44   19   42 1     
   45   19   43 1     
   46   20   44 1     
   47   20   45 1     
   48    9   47 1     
   49    9   48 1     
@<TRIPOS>SUBSTRUCTURE
      1 S1             1
@<TRIPOS>SET
LONE_PAIRS      STATIC     ATOMS    <user>   **** ""
2 47 48
DONOR_HYDROGENS      STATIC     ATOMS    <user>   **** ""
3 32 33 46
ATOM$BLUE        STATIC     ATOMS    COLORGROUP SYSTEM
2 47 48
ATOM$RED        STATIC     ATOMS    COLORGROUP SYSTEM
3 32 33 46
