AV-unprocessed.smi:1113|AV-procd|sdf|4798|dock7
  -GOLD-   22720 3343D 1   1.00000     0.00000
 Structure written by MMmdl.
 40 41  0  0  0  0  0  0  0  0  1 V2000
  145.6639  135.1775  151.9552 C   0  0  0  0  0  0  0  0  0  0  0  0
  145.6193  136.2281  153.0722 C   0  0  2  0  0  0  0  0  0  0  0  0
  144.2700  136.3714  153.4669 O   0  0  0  0  0  0  0  0  0  0  0  0
  146.1491  137.5950  152.5972 C   0  0  0  0  0  0  0  0  0  0  0  0
  147.5114  137.8371  153.0606 N   0  0  0  0  0  0  0  0  0  0  0  0
  147.8615  138.7397  153.9874 C   0  0  0  0  0  0  0  0  0  0  0  0
  147.0539  139.4653  154.5673 O   0  0  0  0  0  0  0  0  0  0  0  0
  149.1926  138.7545  154.1706 N   0  0  0  0  0  0  0  0  0  0  0  0
  149.9553  139.5590  155.0595 C   0  0  0  0  0  0  0  0  0  0  0  0
  151.3363  139.3806  155.3116 C   0  0  0  0  0  0  0  0  0  0  0  0
  151.9845  140.2597  156.2003 C   0  0  0  0  0  0  0  0  0  0  0  0
  151.2372  141.2920  156.8034 C   0  0  0  0  0  0  0  0  0  0  0  0
  151.8801  142.1702  157.6871 N   0  0  0  0  0  0  0  0  0  0  0  0
  151.0908  143.3538  158.0052 C   0  0  0  0  0  0  0  0  0  0  0  0
  151.9150  144.3178  158.8763 C   0  0  0  0  0  0  0  0  0  0  0  0
  152.3693  143.6380  160.0433 O   0  0  0  0  0  0  0  0  0  0  0  0
  153.2018  142.5263  159.7243 C   0  0  0  0  0  0  0  0  0  0  0  0
  152.4095  141.5156  158.8771 C   0  0  0  0  0  0  0  0  0  0  0  0
  149.9185  141.4758  156.5577 N   0  0  0  0  0  0  0  0  0  0  0  0
  149.3034  140.6301  155.7043 C   0  0  0  0  0  0  0  0  0  0  0  0
  146.6878  135.0077  151.6208 H   0  0  0  0  0  0  0  0  0  0  0  0
  145.0789  135.4897  151.0894 H   0  0  0  0  0  0  0  0  0  0  0  0
  145.2685  134.2208  152.2986 H   0  0  0  0  0  0  0  0  0  0  0  0
  146.1996  135.8628  153.9206 H   0  0  0  0  0  0  0  0  0  0  0  0
  144.1375  137.2571  153.7678 H   0  0  0  0  0  0  0  0  0  0  0  0
  146.1364  137.6428  151.5068 H   0  0  0  0  0  0  0  0  0  0  0  0
  145.5025  138.4034  152.9410 H   0  0  0  0  0  0  0  0  0  0  0  0
  148.2415  137.2901  152.6281 H   0  0  0  0  0  0  0  0  0  0  0  0
  149.7303  138.1587  153.5582 H   0  0  0  0  0  0  0  0  0  0  0  0
  151.9125  138.6034  154.8341 H   0  0  0  0  0  0  0  0  0  0  0  0
  153.0379  140.1444  156.4096 H   0  0  0  0  0  0  0  0  0  0  0  0
  150.7823  143.8510  157.0847 H   0  0  0  0  0  0  0  0  0  0  0  0
  150.1830  143.0616  158.5349 H   0  0  0  0  0  0  0  0  0  0  0  0
  152.7658  144.7143  158.3195 H   0  0  0  0  0  0  0  0  0  0  0  0
  151.3049  145.1699  159.1756 H   0  0  0  0  0  0  0  0  0  0  0  0
  154.0923  142.8661  159.1930 H   0  0  0  0  0  0  0  0  0  0  0  0
  153.5411  142.0587  160.6484 H   0  0  0  0  0  0  0  0  0  0  0  0
  151.5910  141.1007  159.4670 H   0  0  0  0  0  0  0  0  0  0  0  0
  153.0528  140.6842  158.5862 H   0  0  0  0  0  0  0  0  0  0  0  0
  148.2526  140.8145  155.5347 H   0  0  0  0  0  0  0  0  0  0  0  0
  1  2  1  0  0  0  0
  1 21  1  0  0  0  0
  1 22  1  0  0  0  0
  1 23  1  0  0  0  0
  2  3  1  0  0  0  0
  2  4  1  0  0  0  0
  2 24  1  0  0  0  0
  3 25  1  0  0  0  0
  4  5  1  0  0  0  0
  4 26  1  0  0  0  0
  4 27  1  0  0  0  0
  5  6  1  0  0  0  0
  5 28  1  0  0  0  0
  6  7  2  0  0  0  0
  6  8  1  0  0  0  0
  8  9  1  0  0  0  0
  8 29  1  0  0  0  0
  9 20  1  0  0  0  0
  9 10  2  0  0  0  0
 10 11  1  0  0  0  0
 10 30  1  0  0  0  0
 11 12  2  0  0  0  0
 11 31  1  0  0  0  0
 12 13  1  0  0  0  0
 12 19  1  0  0  0  0
 13 18  1  0  0  0  0
 13 14  1  0  0  0  0
 14 15  1  0  0  0  0
 14 32  1  0  0  0  0
 14 33  1  0  0  0  0
 15 16  1  0  0  0  0
 15 34  1  0  0  0  0
 15 35  1  0  0  0  0
 16 17  1  0  0  0  0
 17 18  1  0  0  0  0
 17 36  1  0  0  0  0
 17 37  1  0  0  0  0
 18 38  1  0  0  0  0
 18 39  1  0  0  0  0
 19 20  2  0  0  0  0
 20 40  1  0  0  0  0
M  END
> <s_m_source_file>
AV-unprocessed.smi

> <i_m_source_file_index>
1113

> <i_lp_mmshare_version>
43012

> <i_f3d_flags>
0

> <s_epik_input>
W0NIM11bQ0BIXShbT0hdKVtDSDJdW05IXUMoPU8pW05IXWMxW2NIXVtjSF1jKG5bY0hdMSlOMltDSDJdW0NIMl1PW0NIMl1bQ0gyXTI=

> <s_epik_cmdline>
J2VwaWtfcHl0aG9uJywgJy1waCcsICc3LjAnLCAnLXRuJywgJzgnLCAnLW1hJywgJzIwMCcsICctbWV0YWxfYmluZGluZycsICctaW1hZScsICc8aW5maWxlLm1hZT4nLCAnLW9tYWUnLCAnPG91dGZpbGUubWFlPic=

> <r_lp_tautomer_probability>
1

> <r_epik_Ionization_Penalty>
0.00204837

> <r_epik_Ionization_Penalty_Charging>
0

> <r_epik_Ionization_Penalty_Neutral>
0.00204837

> <r_epik_State_Penalty>
0.00137592

> <r_epik_Charging_Adjusted_Penalty>
0.00137592

> <i_epik_Tot_Q>
0

> <i_epik_Tot_abs_Q>
0

> <r_epik_Metal_State_Penalty>
-0

> <b_epik_Metal_Only>
0

> <s_lp_Force_Field>
OPLS_2005

> <r_lp_Energy>
20.5006

> <b_lp_Chiralities_Consistent>
1

> <s_lp_Variant>
AV-unprocessed.smi:1113-1

> <Gold.Version>
5.8.1

> <Gold.Id.Protein>
6NUR|6NUR_protein|mol2

> <Gold.PLP.Fitness>
45.7481

> <Gold.PLP.PLP>
-41.2437

> <Gold.PLP.part.hbond>
-5.0000

> <Gold.PLP.part.metal>
0.0000

> <Gold.PLP.part.buried>
-1.0663

> <Gold.PLP.part.nonpolar>
-36.2386

> <Gold.PLP.part.repulsive>
0.4795

> <Gold.PLP.ligand.clash>
0.0000

> <Gold.PLP.ligand.torsion>
0.8059

> <Gold.PLP.Chemscore.Hbond>
2.0000

> <Gold.PLP.Chemscore.CHOScore>
0.0000

> <Gold.PLP.Chemscore.Metal>
0.0000

> <Gold.Chemscore.Hbonds>
donor molecule, donor type, donor heavy atom, donor atom, acceptor molecule, acceptor atom, score
      L1  H     5    28       P1  7948  0.86

> <Gold.PLP.Chemscore.Internal.Correction>
0.1162

> <Gold.Rescore>
     Score         DG    S(hbond)    S(metal)    S(lipo)     H(rot)  DE(clash)    DE(int)     intcor
     15.11     -17.30       1.99        0.00      89.61       2.08       0.06       2.12       ----

> <Gold.Chemscore.Fitness>
15.1079

> <Gold.Chemscore.DG>
-17.2968

> <Gold.Chemscore.ZeroCoef>
-5.4800

> <Gold.Chemscore.Hbond>
1.9933

> <Gold.Chemscore.Metal>
0.0000

> <Gold.Chemscore.Lipo>
89.6063

> <Gold.Chemscore.Internal_Hbond>
0.0000

> <Gold.Chemscore.DEClash>
0.0644

> <Gold.Chemscore.DEInternal>
2.1245

> <Gold.Chemscore.Rot>
2.0799

> <Gold.Chemscore.Internal.Correction>
   9.000000E+99

> <Gold.Chemscore.Hbonds>
donor molecule, donor type, donor heavy atom, donor atom, acceptor molecule, acceptor atom, score
      L1  H     5    28       P1  7948  0.84

> <Gold.Chemscore.Hbond.Weighted>
-6.6575

> <Gold.Chemscore.Metal.Weighted>
-0.0000

> <Gold.Chemscore.Lipo.Weighted>
-10.4839

> <Gold.Chemscore.Internal_Hbond.Weighted>
0.0000

> <Gold.Chemscore.DEClash.Weighted>
0.0644

> <Gold.Chemscore.DEInternal.Weighted>
2.1245

> <Gold.Chemscore.Rot.Weighted>
5.3246

> <Gold.Chemscore.Internal.Correction.Weighted>
   9.000000E+99

> <Gold.Protein.RotatedTorsions>
[ 6907 6896 6895 6894 ] final -168.65 input  -60.11 | X-H torsion
[ 7974 7965 7964 7962 ] final  -18.38 input  175.53 | X-H torsion
[ 8008 7997 7996 7995 ] final   61.88 input   59.86 | X-H torsion
[ 10167 10162 10161 10158 ] final  125.12 input  -65.29 | X-H torsion
[ 10718 10713 10712 10709 ] final  111.97 input   66.30 | X-H torsion
[ 10763 10752 10751 10750 ] final   63.11 input  -60.55 | X-H torsion
[ 11005 11000 10999 10996 ] final -158.72 input  -57.11 | X-H torsion

> <Gold.Protein.ActiveResidues>
 VAL166  LYS551  ARG553  GLY616  TRP617  ASP618  TYR619  PRO620  LYS621  CYS622 
 ASP623  PHE694  ASN695  SER759  ASP760  ASP761  ALA762  ILE779  LEU786  VAL792 
 PHE793  MET794  SER795  GLU796  ALA797  LYS798  CYS799  TRP800  GLU811  SER814 

> <Gold.Protein.RotatedAtoms>
  151.4790  133.3551  159.2835 H   0  0  0  0  0  0  0  0  0  0  0  0  # atno 6907 bound_to 6896
  150.8910  134.8315  159.7304 H   0  0  0  0  0  0  0  0  0  0  0  0  # atno 6908 bound_to 6896
  152.4822  134.4700  159.9684 H   0  0  0  0  0  0  0  0  0  0  0  0  # atno 6909 bound_to 6896
  146.1895  140.3913  142.8463 H   0  0  0  0  0  0  0  0  0  0  0  0  # atno 7974 bound_to 7965
  155.6055  140.3494  155.4606 H   0  0  0  0  0  0  0  0  0  0  0  0  # atno 8008 bound_to 7997
  156.0195  140.1250  157.0396 H   0  0  0  0  0  0  0  0  0  0  0  0  # atno 8009 bound_to 7997
  154.4310  140.1065  156.5929 H   0  0  0  0  0  0  0  0  0  0  0  0  # atno 8010 bound_to 7997
  139.5703  144.6935  151.3796 H   0  0  0  0  0  0  0  0  0  0  0  0  # atno 10167 bound_to 10162
  157.6417  131.0960  150.6826 H   0  0  0  0  0  0  0  0  0  0  0  0  # atno 10718 bound_to 10713
  153.0006  135.5441  154.6300 H   0  0  0  0  0  0  0  0  0  0  0  0  # atno 10763 bound_to 10752
  154.5579  135.2831  155.0949 H   0  0  0  0  0  0  0  0  0  0  0  0  # atno 10764 bound_to 10752
  154.2163  135.6458  153.5183 H   0  0  0  0  0  0  0  0  0  0  0  0  # atno 10765 bound_to 10752
  140.6505  134.4455  157.5235 H   0  0  0  0  0  0  0  0  0  0  0  0  # atno 11005 bound_to 11000
  144.8459  140.6929  143.6199 LP  0  0  0  0  0  0  0  0  0  0  0  0  # atno 17320 bound_to 7965
  145.3837  139.1631  143.4267 LP  0  0  0  0  0  0  0  0  0  0  0  0  # atno 17321 bound_to 7965
  140.6988  143.7684  150.7369 LP  0  0  0  0  0  0  0  0  0  0  0  0  # atno 17342 bound_to 10162
  140.1188  143.4631  152.2325 LP  0  0  0  0  0  0  0  0  0  0  0  0  # atno 17343 bound_to 10162
  156.7149  130.4663  149.5537 LP  0  0  0  0  0  0  0  0  0  0  0  0  # atno 17370 bound_to 10713
  156.1704  130.6433  151.0831 LP  0  0  0  0  0  0  0  0  0  0  0  0  # atno 17371 bound_to 10713
  139.9047  134.8475  156.1752 LP  0  0  0  0  0  0  0  0  0  0  0  0  # atno 17394 bound_to 11000
  141.0540  133.6874  156.1825 LP  0  0  0  0  0  0  0  0  0  0  0  0  # atno 17395 bound_to 11000

$$$$
