#       Name:                AV-unprocessed.smi:2801
#       Creating user name   scv26
#       Creation time:       Fri Mar 27 15:23:18 2020


#       File generated by GOLD software.
#

@<TRIPOS>MOLECULE
AV-unprocessed.smi:2801
    39    39     1
SMALL
NO_CHARGES


@<TRIPOS>ATOM
      1 ****        -3.8993   0.0113  -1.0481 C.3            1 S1                 0.0000
      2 ****        -2.3772   0.1581  -0.9931 C.3            1 S1                 0.0000
      3 ****        -1.7961  -1.1395  -0.9506 O.3            1 S1                 0.0000
      4 ****        -0.3705  -1.1725  -0.9689 C.3            1 S1                 0.0000
      5 ****         0.0653  -2.6187  -1.2718 C.3            1 S1                 0.0000
      6 ****        -0.2957  -3.0626  -2.6949 C.3            1 S1                 0.0000
      7 ****         0.1861  -0.6965   0.3832 C.2            1 S1                 0.0000
      8 ****        -0.0553  -1.3460   1.4002 O.2            1 S1                 0.0000
      9 ****         0.8906   0.4501   0.3513 N.am           1 S1                 0.0000
     10 ****         1.5338   1.1473   1.4130 C.ar           1 S1                 0.0000
     11 ****         1.8518   0.5658   2.6647 C.ar           1 S1                 0.0000
     12 ****         2.5069   1.3543   3.6314 C.ar           1 S1                 0.0000
     13 ****         2.8582   2.6411   3.4290 N.ar           1 S1                 0.0000
     14 ****         2.5667   3.1901   2.2319 C.ar           1 S1                 0.0000
     15 ****         1.9139   2.4921   1.1950 C.ar           1 S1                 0.0000
     16 ****         1.6601   3.1204   0.0079 O.3            1 S1                 0.0000
     17 ****        -4.3836   0.9871  -1.0863 H              1 S1                 0.0000
     18 ****        -4.2737  -0.5133  -0.1688 H              1 S1                 0.0000
     19 ****        -4.2066  -0.5506  -1.9304 H              1 S1                 0.0000
     20 ****        -2.0258   0.6964  -1.8745 H              1 S1                 0.0000
     21 ****        -2.1000   0.7441  -0.1162 H              1 S1                 0.0000
     22 ****         0.0000  -0.5242  -1.7657 H              1 S1                 0.0000
     23 ****         1.1447  -2.7125  -1.1434 H              1 S1                 0.0000
     24 ****        -0.3888  -3.3042  -0.5549 H              1 S1                 0.0000
     25 ****         0.0370  -4.0841  -2.8791 H              1 S1                 0.0000
     26 ****         0.1752  -2.4205  -3.4396 H              1 S1                 0.0000
     27 ****        -1.3733  -3.0304  -2.8575 H              1 S1                 0.0000
     28 ****         0.9357   0.9107  -0.5462 H              1 S1                 0.0000
     29 ****         1.6231  -0.4611   2.9013 H              1 S1                 0.0000
     30 ****         2.7611   0.9360   4.5939 H              1 S1                 0.0000
     31 ****         2.8666   4.2187   2.0957 H              1 S1                 0.0000
     32 ****         1.9677   4.0141  -0.0092 H              1 S1                 0.0000
     33 ****        -2.1267  -1.6517  -1.7433 LP             1 S1                 0.0000
     34 ****        -2.1042  -1.5882  -0.1117 LP             1 S1                 0.0000
     35 ****        -0.6095  -2.1764   1.3434 LP             1 S1                 0.0000
     36 ****         0.3029  -1.0434   2.2835 LP             1 S1                 0.0000
     37 ****         3.3190   3.1697   4.1420 LP             1 S1                 0.0000
     38 ****         0.6724   3.1200  -0.1483 LP             1 S1                 0.0000
     39 ****         2.1136   2.6130  -0.7248 LP             1 S1                 0.0000
@<TRIPOS>BOND
    1    1    2 1     
    2    1   17 1     
    3    1   18 1     
    4    1   19 1     
    5    2    3 1     
    6    2   20 1     
    7    2   21 1     
    8    3    4 1     
    9    4    5 1     
   10    4    7 1     
   11    4   22 1     
   12    5    6 1     
   13    5   23 1     
   14    5   24 1     
   15    6   25 1     
   16    6   26 1     
   17    6   27 1     
   18    7    8 2     
   19    7    9 am    
   20    9   10 1     
   21    9   28 1     
   22   10   15 ar    
   23   10   11 ar    
   24   11   12 ar    
   25   11   29 1     
   26   12   13 ar    
   27   12   30 1     
   28   13   14 ar    
   29   14   15 ar    
   30   14   31 1     
   31   15   16 1     
   32   16   32 1     
   33    3   33 1     
   34    3   34 1     
   35    8   35 1     
   36    8   36 1     
   37   13   37 1     
   38   16   38 1     
   39   16   39 1     
@<TRIPOS>SUBSTRUCTURE
      1 S1             1
@<TRIPOS>SET
LONE_PAIRS      STATIC     ATOMS    <user>   **** ""
7 33 34 35 36 37 38 39
DONOR_HYDROGENS      STATIC     ATOMS    <user>   **** ""
2 28 32
ATOM$BLUE        STATIC     ATOMS    COLORGROUP SYSTEM
7 33 34 35 36 37 38 39
ATOM$RED        STATIC     ATOMS    COLORGROUP SYSTEM
2 28 32
