AV-unprocessed.smi:1794|AV-procd|sdf|7234|dock9
  -GOLD-   22720 8483D 1   1.00000     0.00000
 Structure written by MMmdl.
 55 57  0  0  0  0  0  0  0  0  2 V2000
  151.4551  138.3988  154.4281 C   0  0  0  0  0  0  0  0  0  0  0  0
  150.0873  138.6396  155.1103 C   0  0  0  0  0  0  0  0  0  0  0  0
  149.0641  138.9482  153.9864 C   0  0  0  0  0  0  0  0  0  0  0  0
  149.6418  137.2905  155.7491 C   0  0  0  0  0  0  0  0  0  0  0  0
  149.4023  136.2558  154.7436 N   0  0  0  0  0  0  0  0  0  0  0  0
  149.3645  134.9353  154.9684 C   0  0  0  0  0  0  0  0  0  0  0  0
  149.6213  134.4138  156.0532 O   0  0  0  0  0  0  0  0  0  0  0  0
  148.9819  134.2703  153.8666 N   0  0  0  0  0  0  0  0  0  0  0  0
  148.7038  132.8804  153.7452 C   0  0  0  0  0  0  0  0  0  0  0  0
  149.4629  131.9018  154.4355 C   0  0  0  0  0  0  0  0  0  0  0  0
  149.1521  130.5374  154.2783 C   0  0  0  0  0  0  0  0  0  0  0  0
  148.0941  130.1723  153.4265 C   0  0  0  0  0  0  0  0  0  0  0  0
  147.4013  131.1274  152.7718 N   0  3  0  0  0  0  0  0  0  0  0  0
  147.6542  132.4546  152.8869 C   0  0  0  0  0  0  0  0  0  0  0  0
  146.8806  133.3659  152.1382 N   0  0  0  0  0  0  0  0  0  0  0  0
  146.6273  132.9407  150.7641 C   0  0  0  0  0  0  0  0  0  0  0  0
  145.2040  133.3902  150.4265 C   0  0  0  0  0  0  0  0  0  0  0  0
  144.5204  133.4255  151.7880 C   0  0  0  0  0  0  0  0  0  0  0  0
  145.6444  133.9007  152.7064 C   0  0  0  0  0  0  0  0  0  0  0  0
  150.1269  139.7355  156.1191 N   0  0  0  0  0  0  0  0  0  0  0  0
  148.8751  139.9556  156.8520 C   0  0  0  0  0  0  0  0  0  0  0  0
  149.0342  141.0119  157.9601 C   0  0  0  0  0  0  0  0  0  0  0  0
  149.5153  142.2300  157.4040 O   0  0  0  0  0  0  0  0  0  0  0  0
  150.7552  142.0673  156.7262 C   0  0  0  0  0  0  0  0  0  0  0  0
  150.5938  141.0285  155.6050 C   0  0  0  0  0  0  0  0  0  0  0  0
  151.3835  137.6132  153.6749 H   0  0  0  0  0  0  0  0  0  0  0  0
  152.2185  138.0815  155.1384 H   0  0  0  0  0  0  0  0  0  0  0  0
  151.8247  139.2893  153.9201 H   0  0  0  0  0  0  0  0  0  0  0  0
  148.8999  138.0816  153.3450 H   0  0  0  0  0  0  0  0  0  0  0  0
  149.4040  139.7490  153.3294 H   0  0  0  0  0  0  0  0  0  0  0  0
  148.0948  139.2436  154.3898 H   0  0  0  0  0  0  0  0  0  0  0  0
  150.4237  136.9164  156.4111 H   0  0  0  0  0  0  0  0  0  0  0  0
  148.7766  137.4235  156.3993 H   0  0  0  0  0  0  0  0  0  0  0  0
  149.1796  136.5824  153.8149 H   0  0  0  0  0  0  0  0  0  0  0  0
  148.7209  134.8390  153.0748 H   0  0  0  0  0  0  0  0  0  0  0  0
  150.2868  132.1777  155.0764 H   0  0  0  0  0  0  0  0  0  0  0  0
  149.7211  129.7826  154.8010 H   0  0  0  0  0  0  0  0  0  0  0  0
  147.7879  129.1525  153.2436 H   0  0  0  0  0  0  0  0  0  0  0  0
  147.3524  133.3769  150.0763 H   0  0  0  0  0  0  0  0  0  0  0  0
  146.7029  131.8545  150.6860 H   0  0  0  0  0  0  0  0  0  0  0  0
  145.2243  134.3937  149.9992 H   0  0  0  0  0  0  0  0  0  0  0  0
  144.7075  132.7296  149.7150 H   0  0  0  0  0  0  0  0  0  0  0  0
  143.6469  134.0774  151.8123 H   0  0  0  0  0  0  0  0  0  0  0  0
  144.2048  132.4207  152.0727 H   0  0  0  0  0  0  0  0  0  0  0  0
  145.4640  133.6248  153.7454 H   0  0  0  0  0  0  0  0  0  0  0  0
  145.7116  134.9889  152.6762 H   0  0  0  0  0  0  0  0  0  0  0  0
  148.0882  140.2749  156.1686 H   0  0  0  0  0  0  0  0  0  0  0  0
  148.5327  139.0362  157.3232 H   0  0  0  0  0  0  0  0  0  0  0  0
  148.0766  141.1970  158.4465 H   0  0  0  0  0  0  0  0  0  0  0  0
  149.7221  140.6608  158.7309 H   0  0  0  0  0  0  0  0  0  0  0  0
  151.0629  143.0273  156.3122 H   0  0  0  0  0  0  0  0  0  0  0  0
  151.5292  141.7582  157.4306 H   0  0  0  0  0  0  0  0  0  0  0  0
  151.5506  140.9303  155.0987 H   0  0  0  0  0  0  0  0  0  0  0  0
  149.8898  141.4170  154.8688 H   0  0  0  0  0  0  0  0  0  0  0  0
  146.6463  130.8331  152.1520 H   0  0  0  0  0  0  0  0  0  0  0  0
  1  2  1  0  0  0  0
  1 26  1  0  0  0  0
  1 27  1  0  0  0  0
  1 28  1  0  0  0  0
  2  3  1  0  0  0  0
  2  4  1  0  0  0  0
  2 20  1  0  0  0  0
  3 29  1  0  0  0  0
  3 30  1  0  0  0  0
  3 31  1  0  0  0  0
  4  5  1  0  0  0  0
  4 32  1  0  0  0  0
  4 33  1  0  0  0  0
  5  6  1  0  0  0  0
  5 34  1  0  0  0  0
  6  7  2  0  0  0  0
  6  8  1  0  0  0  0
  8  9  1  0  0  0  0
  8 35  1  0  0  0  0
  9 14  1  0  0  0  0
  9 10  2  0  0  0  0
 10 11  1  0  0  0  0
 10 36  1  0  0  0  0
 11 12  2  0  0  0  0
 11 37  1  0  0  0  0
 12 13  1  0  0  0  0
 12 38  1  0  0  0  0
 13 14  2  0  0  0  0
 13 55  1  0  0  0  0
 14 15  1  0  0  0  0
 15 19  1  0  0  0  0
 15 16  1  0  0  0  0
 16 17  1  0  0  0  0
 16 39  1  0  0  0  0
 16 40  1  0  0  0  0
 17 18  1  0  0  0  0
 17 41  1  0  0  0  0
 17 42  1  0  0  0  0
 18 19  1  0  0  0  0
 18 43  1  0  0  0  0
 18 44  1  0  0  0  0
 19 45  1  0  0  0  0
 19 46  1  0  0  0  0
 20 25  1  0  0  0  0
 20 21  1  0  0  0  0
 21 22  1  0  0  0  0
 21 47  1  0  0  0  0
 21 48  1  0  0  0  0
 22 23  1  0  0  0  0
 22 49  1  0  0  0  0
 22 50  1  0  0  0  0
 23 24  1  0  0  0  0
 24 25  1  0  0  0  0
 24 51  1  0  0  0  0
 24 52  1  0  0  0  0
 25 53  1  0  0  0  0
 25 54  1  0  0  0  0
M  CHG  1  13   1
M  END
> <s_m_source_file>
AV-unprocessed.smi

> <i_m_source_file_index>
1794

> <i_lp_mmshare_version>
43012

> <i_f3d_flags>
0

> <s_epik_input>
W0NIMl0xW0NIMl1PW0NIMl1bQ0gyXU4xQyhbQ0gzXSkoW0NIM10pW0NIMl1bTkhdQyg9TylbTkhdYzJbY0hdW2NIXVtjSF1uYzJOM1tDSDJdW0NIMl1bQ0gyXVtDSDJdMw==

> <s_epik_cmdline>
J2VwaWtfcHl0aG9uJywgJy1waCcsICc3LjAnLCAnLXRuJywgJzgnLCAnLW1hJywgJzIwMCcsICctbWV0YWxfYmluZGluZycsICctaW1hZScsICc8aW5maWxlLm1hZT4nLCAnLW9tYWUnLCAnPG91dGZpbGUubWFlPic=

> <r_epik_Ionization_Penalty>
1.36967

> <r_epik_Ionization_Penalty_Charging>
1.10366

> <r_epik_Ionization_Penalty_Neutral>
0.266011

> <r_epik_State_Penalty>
1.45237

> <r_epik_Charging_Adjusted_Penalty>
2.55603

> <i_epik_Tot_Q>
1

> <i_epik_Tot_abs_Q>
1

> <r_epik_Metal_State_Penalty>
1.53539

> <b_epik_Metal_Only>
0

> <s_lp_Force_Field>
OPLS_2005

> <r_lp_Energy>
75.8074

> <b_lp_Chiralities_Consistent>
1

> <s_lp_Variant>
AV-unprocessed.smi:1794-3

> <Gold.Version>
5.8.1

> <Gold.Id.Protein>
6NUR|6NUR_protein|mol2

> <Gold.PLP.Fitness>
42.6328

> <Gold.PLP.PLP>
-38.6006

> <Gold.PLP.part.hbond>
-3.0000

> <Gold.PLP.part.metal>
0.0000

> <Gold.PLP.part.buried>
-3.2630

> <Gold.PLP.part.nonpolar>
-31.7196

> <Gold.PLP.part.repulsive>
0.3328

> <Gold.PLP.ligand.clash>
0.0000

> <Gold.PLP.ligand.torsion>
1.0853

> <Gold.PLP.Chemscore.Hbond>
2.0000

> <Gold.PLP.Chemscore.CHOScore>
0.0000

> <Gold.PLP.Chemscore.Metal>
0.0000

> <Gold.Chemscore.Hbonds>
donor molecule, donor type, donor heavy atom, donor atom, acceptor molecule, acceptor atom, score
      L1  H     5    34       P1  7948  0.99
      L1  H     8    35       P1  7948  1.00

> <Gold.PLP.Chemscore.Internal.Correction>
0.2028

> <Gold.Rescore>
     Score         DG    S(hbond)    S(metal)    S(lipo)     H(rot)  DE(clash)    DE(int)     intcor
     14.10     -16.39       1.47        0.00      85.95       1.58       0.09       2.19       ----

> <Gold.Chemscore.Fitness>
14.0985

> <Gold.Chemscore.DG>
-16.3855

> <Gold.Chemscore.ZeroCoef>
-5.4800

> <Gold.Chemscore.Hbond>
1.4654

> <Gold.Chemscore.Metal>
0.0000

> <Gold.Chemscore.Lipo>
85.9493

> <Gold.Chemscore.Internal_Hbond>
0.0000

> <Gold.Chemscore.DEClash>
0.0934

> <Gold.Chemscore.DEInternal>
2.1937

> <Gold.Chemscore.Rot>
1.5800

> <Gold.Chemscore.Internal.Correction>
   9.000000E+99

> <Gold.Chemscore.Hbonds>
donor molecule, donor type, donor heavy atom, donor atom, acceptor molecule, acceptor atom, score
      L1  H     5    34       P1  7948  0.90
      L1  H     8    35       P1  7948  0.29

> <Gold.Chemscore.Hbond.Weighted>
-4.8944

> <Gold.Chemscore.Metal.Weighted>
-0.0000

> <Gold.Chemscore.Lipo.Weighted>
-10.0561

> <Gold.Chemscore.Internal_Hbond.Weighted>
0.0000

> <Gold.Chemscore.DEClash.Weighted>
0.0934

> <Gold.Chemscore.DEInternal.Weighted>
2.1937

> <Gold.Chemscore.Rot.Weighted>
4.0449

> <Gold.Chemscore.Internal.Correction.Weighted>
   9.000000E+99

> <Gold.Protein.RotatedTorsions>
[ 6907 6896 6895 6894 ] final   -3.96 input  -60.11 | X-H torsion
[ 7974 7965 7964 7962 ] final  101.41 input  175.53 | X-H torsion
[ 8008 7997 7996 7995 ] final   65.18 input   59.86 | X-H torsion
[ 10167 10162 10161 10158 ] final  -41.36 input  -65.29 | X-H torsion
[ 10718 10713 10712 10709 ] final  175.22 input   66.30 | X-H torsion
[ 10763 10752 10751 10750 ] final   76.37 input  -60.55 | X-H torsion
[ 11005 11000 10999 10996 ] final  -73.79 input  -57.11 | X-H torsion

> <Gold.Protein.ActiveResidues>
 VAL166  LYS551  ARG553  GLY616  TRP617  ASP618  TYR619  PRO620  LYS621  CYS622 
 ASP623  PHE694  ASN695  SER759  ASP760  ASP761  ALA762  ILE779  LEU786  VAL792 
 PHE793  MET794  SER795  GLU796  ALA797  LYS798  CYS799  TRP800  GLU811  SER814 

> <Gold.Protein.RotatedAtoms>
  151.5054  135.1063  159.9839 H   0  0  0  0  0  0  0  0  0  0  0  0  # atno 6907 bound_to 6896
  152.4684  133.7971  159.6943 H   0  0  0  0  0  0  0  0  0  0  0  0  # atno 6908 bound_to 6896
  150.8680  133.7483  159.2996 H   0  0  0  0  0  0  0  0  0  0  0  0  # atno 6909 bound_to 6896
  145.3727  139.2395  143.3446 H   0  0  0  0  0  0  0  0  0  0  0  0  # atno 7974 bound_to 7965
  155.6577  140.3497  155.4771 H   0  0  0  0  0  0  0  0  0  0  0  0  # atno 8008 bound_to 7997
  155.9795  140.1171  157.0763 H   0  0  0  0  0  0  0  0  0  0  0  0  # atno 8009 bound_to 7997
  154.4187  140.1141  156.5402 H   0  0  0  0  0  0  0  0  0  0  0  0  # atno 8010 bound_to 7997
  140.7005  143.3099  151.3056 H   0  0  0  0  0  0  0  0  0  0  0  0  # atno 10167 bound_to 10162
  156.9380  130.9992  151.2974 H   0  0  0  0  0  0  0  0  0  0  0  0  # atno 10718 bound_to 10713
  153.0721  135.4954  154.8326 H   0  0  0  0  0  0  0  0  0  0  0  0  # atno 10763 bound_to 10752
  154.7036  135.3006  154.9306 H   0  0  0  0  0  0  0  0  0  0  0  0  # atno 10764 bound_to 10752
  154.0021  135.6765  153.4813 H   0  0  0  0  0  0  0  0  0  0  0  0  # atno 10765 bound_to 10752
  141.1627  133.6890  156.7265 H   0  0  0  0  0  0  0  0  0  0  0  0  # atno 11005 bound_to 11000
  146.2878  140.4381  142.8751 LP  0  0  0  0  0  0  0  0  0  0  0  0  # atno 17320 bound_to 7965
  144.8565  140.7077  143.6135 LP  0  0  0  0  0  0  0  0  0  0  0  0  # atno 17321 bound_to 7965
  139.6518  144.0349  152.2631 LP  0  0  0  0  0  0  0  0  0  0  0  0  # atno 17342 bound_to 10162
  139.9887  144.6377  150.7834 LP  0  0  0  0  0  0  0  0  0  0  0  0  # atno 17343 bound_to 10162
  157.5803  130.8372  149.8514 LP  0  0  0  0  0  0  0  0  0  0  0  0  # atno 17370 bound_to 10713
  156.0417  130.3737  150.1419 LP  0  0  0  0  0  0  0  0  0  0  0  0  # atno 17371 bound_to 10713
  140.2777  134.8342  157.3905 LP  0  0  0  0  0  0  0  0  0  0  0  0  # atno 17394 bound_to 11000
  140.1462  134.4908  155.7994 LP  0  0  0  0  0  0  0  0  0  0  0  0  # atno 17395 bound_to 11000

$$$$
