AV-unprocessed.smi:298|AV-procd|sdf|2264|dock2
  -GOLD-   2262022153D 1   1.00000     0.00000
 Structure written by MMmdl.
 39 41  0  0  0  0  0  0  0  0  2 V2000
  152.0322  145.2731  160.2722 C   0  0  0  0  0  0  0  0  0  0  0  0
  151.9484  144.0129  159.4278 C   0  0  0  0  0  0  0  0  0  0  0  0
  151.1911  144.0491  158.2351 C   0  0  0  0  0  0  0  0  0  0  0  0
  151.1350  142.8815  157.4832 C   0  0  0  0  0  0  0  0  0  0  0  0
  150.4882  142.5987  156.2780 N   0  3  0  0  0  0  0  0  0  0  0  0
  150.7259  141.3046  155.9263 C   0  0  0  0  0  0  0  0  0  0  0  0
  151.5151  140.7567  156.8897 N   0  0  0  0  0  0  0  0  0  0  0  0
  152.0559  139.3951  157.0036 C   0  0  0  0  0  0  0  0  0  0  0  0
  152.7798  138.9218  155.7231 C   0  0  1  0  0  0  0  0  0  0  0  0
  153.7785  137.9724  156.0444 O   0  0  0  0  0  0  0  0  0  0  0  0
  151.8248  138.3291  154.6626 C   0  0  0  0  0  0  0  0  0  0  0  0
  150.9658  137.2714  155.1720 N   0  0  0  0  0  0  0  0  0  0  0  0
  149.6353  137.1421  155.1321 C   0  0  0  0  0  0  0  0  0  0  0  0
  149.1816  136.0409  155.7179 N   0  0  0  0  0  0  0  0  0  0  0  0
  150.3733  135.5045  156.1110 C   0  0  0  0  0  0  0  0  0  0  0  0
  150.4387  134.2499  156.8406 C   0  0  0  0  0  0  0  0  0  0  0  0
  150.4914  133.2511  157.4226 N   0  0  0  0  0  0  0  0  0  0  0  0
  151.4744  136.1878  155.8079 N   0  0  0  0  0  0  0  0  0  0  0  0
  151.7972  141.7043  157.8813 C   0  0  0  0  0  0  0  0  0  0  0  0
  152.5496  141.6521  159.0527 C   0  0  0  0  0  0  0  0  0  0  0  0
  152.6195  142.8292  159.8310 C   0  0  0  0  0  0  0  0  0  0  0  0
  153.4346  142.8008  161.1128 C   0  0  0  0  0  0  0  0  0  0  0  0
  151.4789  146.0954  159.8179 H   0  0  0  0  0  0  0  0  0  0  0  0
  153.0689  145.5915  160.3843 H   0  0  0  0  0  0  0  0  0  0  0  0
  151.6136  145.0979  161.2637 H   0  0  0  0  0  0  0  0  0  0  0  0
  150.6794  144.9472  157.9211 H   0  0  0  0  0  0  0  0  0  0  0  0
  150.3541  140.8039  155.0437 H   0  0  0  0  0  0  0  0  0  0  0  0
  152.7065  139.3528  157.8769 H   0  0  0  0  0  0  0  0  0  0  0  0
  151.2189  138.7305  157.2205 H   0  0  0  0  0  0  0  0  0  0  0  0
  153.2954  139.7741  155.2792 H   0  0  0  0  0  0  0  0  0  0  0  0
  153.9840  138.0514  156.9632 H   0  0  0  0  0  0  0  0  0  0  0  0
  151.1833  139.1202  154.2721 H   0  0  0  0  0  0  0  0  0  0  0  0
  152.3871  137.9433  153.8109 H   0  0  0  0  0  0  0  0  0  0  0  0
  148.9851  137.8737  154.6749 H   0  0  0  0  0  0  0  0  0  0  0  0
  153.0680  140.7545  159.3572 H   0  0  0  0  0  0  0  0  0  0  0  0
  153.8510  141.8102  161.2986 H   0  0  0  0  0  0  0  0  0  0  0  0
  152.8140  143.0655  161.9693 H   0  0  0  0  0  0  0  0  0  0  0  0
  154.2643  143.5055  161.0536 H   0  0  0  0  0  0  0  0  0  0  0  0
  149.9250  143.2398  155.7338 H   0  0  0  0  0  0  0  0  0  0  0  0
  1  2  1  0  0  0  0
  1 23  1  0  0  0  0
  1 24  1  0  0  0  0
  1 25  1  0  0  0  0
  2 21  1  0  0  0  0
  2  3  2  0  0  0  0
  3  4  1  0  0  0  0
  3 26  1  0  0  0  0
  4 19  2  0  0  0  0
  4  5  1  0  0  0  0
  5  6  2  0  0  0  0
  5 39  1  0  0  0  0
  6  7  1  0  0  0  0
  6 27  1  0  0  0  0
  7  8  1  0  0  0  0
  7 19  1  0  0  0  0
  8  9  1  0  0  0  0
  8 28  1  0  0  0  0
  8 29  1  0  0  0  0
  9 10  1  0  0  0  0
  9 11  1  0  0  0  0
  9 30  1  0  0  0  0
 10 31  1  0  0  0  0
 11 12  1  0  0  0  0
 11 32  1  0  0  0  0
 11 33  1  0  0  0  0
 12 18  1  0  0  0  0
 12 13  1  0  0  0  0
 13 14  2  0  0  0  0
 13 34  1  0  0  0  0
 14 15  1  0  0  0  0
 15 16  1  0  0  0  0
 15 18  2  0  0  0  0
 16 17  3  0  0  0  0
 19 20  1  0  0  0  0
 20 21  2  0  0  0  0
 20 35  1  0  0  0  0
 21 22  1  0  0  0  0
 22 36  1  0  0  0  0
 22 37  1  0  0  0  0
 22 38  1  0  0  0  0
M  CHG  1   5   1
M  END
> <s_m_source_file>
AV-unprocessed.smi

> <i_m_source_file_index>
298

> <i_lp_mmshare_version>
43012

> <i_f3d_flags>
0

> <s_epik_input>
W0NIM11jKFtjSF0xKWMoW0NIM10pW2NIXWMoYzEyKW4oW2NIXW4yKVtDSDJdW0NASF0oW09IXSlbQ0gyXW4zW2NIXW5jKG4zKUMjTg==

> <s_epik_cmdline>
J2VwaWtfcHl0aG9uJywgJy1waCcsICc3LjAnLCAnLXRuJywgJzgnLCAnLW1hJywgJzIwMCcsICctbWV0YWxfYmluZGluZycsICctaW1hZScsICc8aW5maWxlLm1hZT4nLCAnLW9tYWUnLCAnPG91dGZpbGUubWFlPic=

> <r_epik_Ionization_Penalty>
1.12076

> <r_epik_Ionization_Penalty_Charging>
1.12075

> <r_epik_Ionization_Penalty_Neutral>
1.54565e-06

> <r_epik_State_Penalty>
1.17957

> <r_epik_Charging_Adjusted_Penalty>
2.30033

> <i_epik_Tot_Q>
1

> <i_epik_Tot_abs_Q>
1

> <r_epik_Metal_State_Penalty>
1.26402

> <b_epik_Metal_Only>
0

> <s_lp_Force_Field>
OPLS_2005

> <r_lp_Energy>
17.1818

> <b_lp_Chiralities_Consistent>
1

> <s_lp_Variant>
AV-unprocessed.smi:298-4

> <Gold.Version>
5.8.1

> <Gold.Id.Protein>
6NUR|6NUR_protein|mol2

> <Gold.PLP.Fitness>
57.2813

> <Gold.PLP.PLP>
-46.3066

> <Gold.PLP.part.hbond>
-4.2489

> <Gold.PLP.part.metal>
0.0000

> <Gold.PLP.part.buried>
-5.2048

> <Gold.PLP.part.nonpolar>
-38.0548

> <Gold.PLP.part.repulsive>
0.2505

> <Gold.PLP.ligand.clash>
0.0000

> <Gold.PLP.ligand.torsion>
0.4539

> <Gold.PLP.Chemscore.Hbond>
3.9520

> <Gold.PLP.Chemscore.CHOScore>
0.0000

> <Gold.PLP.Chemscore.Metal>
0.0000

> <Gold.Chemscore.Hbonds>
donor molecule, donor type, donor heavy atom, donor atom, acceptor molecule, acceptor atom, score
      L1  H     5    39       P1  8028  1.98
      P1  H  6896  6907       L1    17  1.00
      P1  H 10752 10763       L1    18  1.00

> <Gold.PLP.Chemscore.Internal.Correction>
0.0266

> <Gold.Rescore>
     Score         DG    S(hbond)    S(metal)    S(lipo)     H(rot)  DE(clash)    DE(int)     intcor
     16.44     -18.62       2.58        0.00     106.34       3.09       0.78       1.39       ----

> <Gold.Chemscore.Fitness>
16.4411

> <Gold.Chemscore.DG>
-18.6174

> <Gold.Chemscore.ZeroCoef>
-5.4800

> <Gold.Chemscore.Hbond>
2.5759

> <Gold.Chemscore.Metal>
0.0000

> <Gold.Chemscore.Lipo>
106.3438

> <Gold.Chemscore.Internal_Hbond>
0.0000

> <Gold.Chemscore.DEClash>
0.7814

> <Gold.Chemscore.DEInternal>
1.3948

> <Gold.Chemscore.Rot>
3.0892

> <Gold.Chemscore.Internal.Correction>
   9.000000E+99

> <Gold.Chemscore.Hbonds>
donor molecule, donor type, donor heavy atom, donor atom, acceptor molecule, acceptor atom, score
      L1  H     5    39       P1  8028  0.94
      P1  H  6896  6907       L1    17  0.72
      P1  H 10752 10763       L1    18  0.70

> <Gold.Chemscore.Hbond.Weighted>
-8.6036

> <Gold.Chemscore.Metal.Weighted>
-0.0000

> <Gold.Chemscore.Lipo.Weighted>
-12.4422

> <Gold.Chemscore.Internal_Hbond.Weighted>
0.0000

> <Gold.Chemscore.DEClash.Weighted>
0.7814

> <Gold.Chemscore.DEInternal.Weighted>
1.3948

> <Gold.Chemscore.Rot.Weighted>
7.9084

> <Gold.Chemscore.Internal.Correction.Weighted>
   9.000000E+99

> <Gold.Protein.RotatedTorsions>
[ 6907 6896 6895 6894 ] final -139.48 input  -60.11 | X-H torsion
[ 7974 7965 7964 7962 ] final  -92.66 input  175.53 | X-H torsion
[ 8008 7997 7996 7995 ] final -154.11 input   59.86 | X-H torsion
[ 10167 10162 10161 10158 ] final -157.90 input  -65.29 | X-H torsion
[ 10718 10713 10712 10709 ] final -140.01 input   66.30 | X-H torsion
[ 10763 10752 10751 10750 ] final   73.66 input  -60.55 | X-H torsion
[ 11005 11000 10999 10996 ] final -111.78 input  -57.11 | X-H torsion

> <Gold.Protein.ActiveResidues>
 VAL166  LYS551  ARG553  GLY616  TRP617  ASP618  TYR619  PRO620  LYS621  CYS622 
 ASP623  PHE694  ASN695  SER759  ASP760  ASP761  ALA762  ILE779  LEU786  VAL792 
 PHE793  MET794  SER795  GLU796  ALA797  LYS798  CYS799  TRP800  GLU811  SER814 

> <Gold.Protein.RotatedAtoms>
  151.0483  133.5646  159.2644 H   0  0  0  0  0  0  0  0  0  0  0  0  # atno 6907 bound_to 6896
  151.2666  135.0670  159.9128 H   0  0  0  0  0  0  0  0  0  0  0  0  # atno 6908 bound_to 6896
  152.5377  134.0220  159.8040 H   0  0  0  0  0  0  0  0  0  0  0  0  # atno 6909 bound_to 6896
  145.3969  140.9534  143.2309 H   0  0  0  0  0  0  0  0  0  0  0  0  # atno 7974 bound_to 7965
  155.6813  140.0744  157.2484 H   0  0  0  0  0  0  0  0  0  0  0  0  # atno 8008 bound_to 7997
  154.4105  140.1681  156.2037 H   0  0  0  0  0  0  0  0  0  0  0  0  # atno 8009 bound_to 7997
  155.9533  140.3375  155.6429 H   0  0  0  0  0  0  0  0  0  0  0  0  # atno 8010 bound_to 7997
  139.6734  143.9706  152.2296 H   0  0  0  0  0  0  0  0  0  0  0  0  # atno 10167 bound_to 10162
  156.3174  130.7515  151.1605 H   0  0  0  0  0  0  0  0  0  0  0  0  # atno 10718 bound_to 10713
  153.0536  135.5054  154.7927 H   0  0  0  0  0  0  0  0  0  0  0  0  # atno 10763 bound_to 10752
  154.6770  135.2962  154.9667 H   0  0  0  0  0  0  0  0  0  0  0  0  # atno 10764 bound_to 10752
  154.0466  135.6709  153.4848 H   0  0  0  0  0  0  0  0  0  0  0  0  # atno 10765 bound_to 10752
  141.0714  133.9373  157.2477 H   0  0  0  0  0  0  0  0  0  0  0  0  # atno 11005 bound_to 11000
  144.8401  139.5486  143.6904 LP  0  0  0  0  0  0  0  0  0  0  0  0  # atno 17320 bound_to 7965
  146.2770  139.6779  142.9256 LP  0  0  0  0  0  0  0  0  0  0  0  0  # atno 17321 bound_to 7965
  139.9476  144.6641  150.8204 LP  0  0  0  0  0  0  0  0  0  0  0  0  # atno 17342 bound_to 10162
  140.7626  143.3203  151.2637 LP  0  0  0  0  0  0  0  0  0  0  0  0  # atno 17343 bound_to 10162
  157.7404  131.0517  150.5165 LP  0  0  0  0  0  0  0  0  0  0  0  0  # atno 17370 bound_to 10713
  156.5313  130.4185  149.6200 LP  0  0  0  0  0  0  0  0  0  0  0  0  # atno 17371 bound_to 10713
  139.9527  135.0172  156.9041 LP  0  0  0  0  0  0  0  0  0  0  0  0  # atno 17394 bound_to 11000
  140.5665  134.0485  155.7416 LP  0  0  0  0  0  0  0  0  0  0  0  0  # atno 17395 bound_to 11000

$$$$
