#       Name:                AV-unprocessed.smi:295
#       Creating user name   scv26
#       Creation time:       Thu Mar 26 22:14:13 2020


#       File generated by GOLD software.
#

@<TRIPOS>MOLECULE
AV-unprocessed.smi:295
    40    41     1
SMALL
NO_CHARGES


@<TRIPOS>ATOM
      1 ****        -1.4716   0.0420  -2.9705 C.3            1 S1                 0.0000
      2 ****        -1.7745  -0.7153  -1.6663 C.3            1 S1                 0.0000
      3 ****        -1.0900  -2.0975  -1.6407 C.3            1 S1                 0.0000
      4 ****        -1.4429  -2.8800  -0.3654 C.3            1 S1                 0.0000
      5 ****        -1.0987  -2.0773   0.8982 C.3            1 S1                 0.0000
      6 ****        -1.7753  -0.6952   0.8818 C.3            1 S1                 0.0000
      7 ****        -1.4384   0.1035  -0.3938 C.3            1 S1                 0.0000
      8 ****        -0.0318   0.5064  -0.3607 N.am           1 S1                 0.0000
      9 ****         0.4468   1.7449  -0.5600 C.2            1 S1                 0.0000
     10 ****        -0.2575   2.7107  -0.8516 O.2            1 S1                 0.0000
     11 ****         1.9592   1.9188  -0.4103 C.3            1 S1                 0.0000
     12 ****         2.3774   1.7145   0.9652 N.pl3          1 S1                 0.0000
     13 ****         2.7835   0.6064   1.5945 C.2            1 S1                 0.0000
     14 ****         3.0710   0.7888   2.8772 N.2            1 S1                 0.0000
     15 ****         2.7998   2.1235   2.9669 C.2            1 S1                 0.0000
     16 ****         2.9528   2.8470   4.2177 C.1            1 S1                 0.0000
     17 ****         3.0744   3.4231   5.2140 N.1            1 S1                 0.0000
     18 ****         2.3836   2.7334   1.8591 N.2            1 S1                 0.0000
     19 ****        -0.4024   0.2100  -3.1017 H              1 S1                 0.0000
     20 ****        -1.9662   1.0136  -2.9835 H              1 S1                 0.0000
     21 ****        -1.8241  -0.5177  -3.8372 H              1 S1                 0.0000
     22 ****        -2.8514  -0.8909  -1.6539 H              1 S1                 0.0000
     23 ****        -1.3904  -2.6767  -2.5145 H              1 S1                 0.0000
     24 ****        -0.0079  -1.9793  -1.7095 H              1 S1                 0.0000
     25 ****        -2.5074  -3.1180  -0.3672 H              1 S1                 0.0000
     26 ****        -0.9139  -3.8334  -0.3560 H              1 S1                 0.0000
     27 ****        -1.4098  -2.6309   1.7846 H              1 S1                 0.0000
     28 ****        -0.0171  -1.9600   0.9747 H              1 S1                 0.0000
     29 ****        -2.8561  -0.8278   0.9457 H              1 S1                 0.0000
     30 ****        -1.4880  -0.1289   1.7687 H              1 S1                 0.0000
     31 ****        -2.0671   0.9956  -0.3894 H              1 S1                 0.0000
     32 ****         0.6329  -0.2201  -0.1387 H              1 S1                 0.0000
     33 ****         2.4782   1.2029  -1.0487 H              1 S1                 0.0000
     34 ****         2.2598   2.9168  -0.7331 H              1 S1                 0.0000
     35 ****         2.8626  -0.3538   1.1058 H              1 S1                 0.0000
     36 ****        -1.2458   2.5965  -0.9526 LP             1 S1                 0.0000
     37 ****         0.1584   3.6099  -0.9877 LP             1 S1                 0.0000
     38 ****         3.3905   0.1424   3.5700 LP             1 S1                 0.0000
     39 ****         3.1795   3.9209   6.0749 LP             1 S1                 0.0000
     40 ****         2.1392   3.6934   1.7221 LP             1 S1                 0.0000
@<TRIPOS>BOND
    1    1    2 1     
    2    1   19 1     
    3    1   20 1     
    4    1   21 1     
    5    2    7 1     
    6    2    3 1     
    7    2   22 1     
    8    3    4 1     
    9    3   23 1     
   10    3   24 1     
   11    4    5 1     
   12    4   25 1     
   13    4   26 1     
   14    5    6 1     
   15    5   27 1     
   16    5   28 1     
   17    6    7 1     
   18    6   29 1     
   19    6   30 1     
   20    7    8 1     
   21    7   31 1     
   22    8    9 am    
   23    8   32 1     
   24    9   10 2     
   25    9   11 1     
   26   11   12 1     
   27   11   33 1     
   28   11   34 1     
   29   12   18 1     
   30   12   13 1     
   31   13   14 2     
   32   13   35 1     
   33   14   15 1     
   34   15   16 1     
   35   15   18 2     
   36   16   17 3     
   37   10   36 1     
   38   10   37 1     
   39   14   38 1     
   40   17   39 1     
   41   18   40 1     
@<TRIPOS>SUBSTRUCTURE
      1 S1             1
@<TRIPOS>SET
LONE_PAIRS      STATIC     ATOMS    <user>   **** ""
5 36 37 38 39 40
DONOR_HYDROGENS      STATIC     ATOMS    <user>   **** ""
1 32
ATOM$BLUE        STATIC     ATOMS    COLORGROUP SYSTEM
5 36 37 38 39 40
ATOM$RED        STATIC     ATOMS    COLORGROUP SYSTEM
1 32
