AV-unprocessed.smi:2449|AV-procd|sdf|9664|dock4
  -GOLD-   2272013303D 1   1.00000     0.00000
 Structure written by MMmdl.
 36 36  0  0  0  0  0  0  0  0  2 V2000
  153.4498  142.5622  160.4662 C   0  0  0  0  0  0  0  0  0  0  0  0
  152.8856  142.7065  159.0489 C   0  0  0  0  0  0  0  0  0  0  0  0
  151.4225  143.1950  159.0479 C   0  0  0  0  0  0  0  0  0  0  0  0
  151.2204  144.7360  159.0075 C   0  0  0  0  0  0  0  0  0  0  0  0
  152.1073  145.4076  160.0788 C   0  0  0  0  0  0  0  0  0  0  0  0
  151.6329  145.2913  157.6302 C   0  0  0  0  0  0  0  0  0  0  0  0
  149.8143  145.1051  159.2157 N   0  0  0  0  0  0  0  0  0  0  0  0
  149.0412  144.8776  160.2925 C   0  0  0  0  0  0  0  0  0  0  0  0
  149.4392  144.3305  161.3213 O   0  0  0  0  0  0  0  0  0  0  0  0
  147.5913  145.3665  160.1916 C   0  0  0  0  0  0  0  0  0  0  0  0
  146.6198  144.2941  160.4581 N   0  0  0  0  0  0  0  0  0  0  0  0
  145.7671  144.4413  161.5663 C   0  0  0  0  0  0  0  0  0  0  0  0
  144.8536  143.5059  161.8889 C   0  0  0  0  0  0  0  0  0  0  0  0
  144.7610  142.3144  161.0539 C   0  0  0  0  0  0  0  0  0  0  0  0
  143.9306  141.4513  161.3314 O   0  0  0  0  0  0  0  0  0  0  0  0
  145.6126  142.2162  159.9913 N   0  5  0  0  0  0  0  0  0  0  0  0
  146.5382  143.1750  159.6763 C   0  0  0  0  0  0  0  0  0  0  0  0
  147.2984  143.0657  158.7133 O   0  0  0  0  0  0  0  0  0  0  0  0
  154.4848  142.2209  160.4386 H   0  0  0  0  0  0  0  0  0  0  0  0
  152.8767  141.8372  161.0445 H   0  0  0  0  0  0  0  0  0  0  0  0
  153.4262  143.5130  160.9993 H   0  0  0  0  0  0  0  0  0  0  0  0
  153.5143  143.3992  158.4903 H   0  0  0  0  0  0  0  0  0  0  0  0
  152.9646  141.7428  158.5459 H   0  0  0  0  0  0  0  0  0  0  0  0
  150.9110  142.7400  158.1992 H   0  0  0  0  0  0  0  0  0  0  0  0
  150.9199  142.7945  159.9292 H   0  0  0  0  0  0  0  0  0  0  0  0
  153.1643  145.2212  159.8859 H   0  0  0  0  0  0  0  0  0  0  0  0
  151.8962  145.0346  161.0808 H   0  0  0  0  0  0  0  0  0  0  0  0
  151.9635  146.4887  160.0941 H   0  0  0  0  0  0  0  0  0  0  0  0
  152.6606  145.0217  157.3847 H   0  0  0  0  0  0  0  0  0  0  0  0
  151.5672  146.3799  157.6068 H   0  0  0  0  0  0  0  0  0  0  0  0
  150.9943  144.9161  156.8304 H   0  0  0  0  0  0  0  0  0  0  0  0
  149.3668  145.5632  158.4351 H   0  0  0  0  0  0  0  0  0  0  0  0
  147.4610  146.1870  160.8981 H   0  0  0  0  0  0  0  0  0  0  0  0
  147.4064  145.8028  159.2080 H   0  0  0  0  0  0  0  0  0  0  0  0
  145.9042  145.3489  162.1357 H   0  0  0  0  0  0  0  0  0  0  0  0
  144.2078  143.6328  162.7454 H   0  0  0  0  0  0  0  0  0  0  0  0
  1  2  1  0  0  0  0
  1 19  1  0  0  0  0
  1 20  1  0  0  0  0
  1 21  1  0  0  0  0
  2  3  1  0  0  0  0
  2 22  1  0  0  0  0
  2 23  1  0  0  0  0
  3  4  1  0  0  0  0
  3 24  1  0  0  0  0
  3 25  1  0  0  0  0
  4  5  1  0  0  0  0
  4  6  1  0  0  0  0
  4  7  1  0  0  0  0
  5 26  1  0  0  0  0
  5 27  1  0  0  0  0
  5 28  1  0  0  0  0
  6 29  1  0  0  0  0
  6 30  1  0  0  0  0
  6 31  1  0  0  0  0
  7  8  1  0  0  0  0
  7 32  1  0  0  0  0
  8  9  2  0  0  0  0
  8 10  1  0  0  0  0
 10 11  1  0  0  0  0
 10 33  1  0  0  0  0
 10 34  1  0  0  0  0
 11 17  1  0  0  0  0
 11 12  1  0  0  0  0
 12 13  2  0  0  0  0
 12 35  1  0  0  0  0
 13 14  1  0  0  0  0
 13 36  1  0  0  0  0
 14 15  2  0  0  0  0
 14 16  1  0  0  0  0
 16 17  1  0  0  0  0
 17 18  2  0  0  0  0
M  CHG  1  16  -1
M  END
> <s_m_source_file>
AV-unprocessed.smi

> <i_m_source_file_index>
2449

> <i_lp_mmshare_version>
43012

> <i_f3d_flags>
0

> <s_epik_input>
W0NIM11bQ0gyXVtDSDJdQyhbQ0gzXSkoW0NIM10pW05IXUMoPU8pW0NIMl1uMVtjSF1bY0hdYyg9TylbbkhdYzE9Tw==

> <s_epik_cmdline>
J2VwaWtfcHl0aG9uJywgJy1waCcsICc3LjAnLCAnLXRuJywgJzgnLCAnLW1hJywgJzIwMCcsICctbWV0YWxfYmluZGluZycsICctaW1hZScsICc8aW5maWxlLm1hZT4nLCAnLW9tYWUnLCAnPG91dGZpbGUubWFlPic=

> <r_lp_tautomer_probability>
0.999537

> <r_epik_Ionization_Penalty>
3.14746

> <r_epik_Ionization_Penalty_Charging>
2.94994e-08

> <r_epik_Ionization_Penalty_Neutral>
3.14746

> <r_epik_State_Penalty>
3.14658

> <r_epik_Charging_Adjusted_Penalty>
3.14658

> <i_epik_Tot_Q>
-1

> <i_epik_Tot_abs_Q>
1

> <r_epik_Metal_State_Penalty>
0.466037

> <b_epik_Metal_Only>
1

> <s_lp_Force_Field>
OPLS_2005

> <r_lp_Energy>
14.91

> <b_lp_Chiralities_Consistent>
1

> <s_lp_Variant>
AV-unprocessed.smi:2449-2

> <Gold.Version>
5.8.1

> <Gold.Id.Protein>
6NUR|6NUR_protein|mol2

> <Gold.PLP.Fitness>
47.1521

> <Gold.PLP.PLP>
-38.6682

> <Gold.PLP.part.hbond>
-4.5709

> <Gold.PLP.part.metal>
0.0000

> <Gold.PLP.part.buried>
-6.4877

> <Gold.PLP.part.nonpolar>
-27.6231

> <Gold.PLP.part.repulsive>
0.6184

> <Gold.PLP.ligand.clash>
0.0000

> <Gold.PLP.ligand.torsion>
0.2978

> <Gold.PLP.Chemscore.Hbond>
3.0120

> <Gold.PLP.Chemscore.CHOScore>
0.0000

> <Gold.PLP.Chemscore.Metal>
0.0000

> <Gold.Chemscore.Hbonds>
donor molecule, donor type, donor heavy atom, donor atom, acceptor molecule, acceptor atom, score
      L1  H     7    32       P1  8029  1.00
      P1  H  6933  6944       L1     9  0.27
      P1  H  6934  6946       L1    16  1.61

> <Gold.PLP.Chemscore.Internal.Correction>
0.0436

> <Gold.Rescore>
     Score         DG    S(hbond)    S(metal)    S(lipo)     H(rot)  DE(clash)    DE(int)     intcor
     11.73     -14.88       1.37        0.00      86.87       2.08       1.66       1.48       ----

> <Gold.Chemscore.Fitness>
11.7298

> <Gold.Chemscore.DG>
-14.8763

> <Gold.Chemscore.ZeroCoef>
-5.4800

> <Gold.Chemscore.Hbond>
1.3668

> <Gold.Chemscore.Metal>
0.0000

> <Gold.Chemscore.Lipo>
86.8651

> <Gold.Chemscore.Internal_Hbond>
0.0000

> <Gold.Chemscore.DEClash>
1.6631

> <Gold.Chemscore.DEInternal>
1.4835

> <Gold.Chemscore.Rot>
2.0828

> <Gold.Chemscore.Internal.Correction>
   9.000000E+99

> <Gold.Chemscore.Hbonds>
donor molecule, donor type, donor heavy atom, donor atom, acceptor molecule, acceptor atom, score
      L1  H     7    32       P1  8029  0.89
      P1  H  6933  6944       L1     9  0.19
      P1  H  6934  6946       L1    16  0.03

> <Gold.Chemscore.Hbond.Weighted>
-4.5650

> <Gold.Chemscore.Metal.Weighted>
-0.0000

> <Gold.Chemscore.Lipo.Weighted>
-10.1632

> <Gold.Chemscore.Internal_Hbond.Weighted>
0.0000

> <Gold.Chemscore.DEClash.Weighted>
1.6631

> <Gold.Chemscore.DEInternal.Weighted>
1.4835

> <Gold.Chemscore.Rot.Weighted>
5.3319

> <Gold.Chemscore.Internal.Correction.Weighted>
   9.000000E+99

> <Gold.Protein.RotatedTorsions>
[ 6907 6896 6895 6894 ] final -172.02 input  -60.11 | X-H torsion
[ 7974 7965 7964 7962 ] final -133.05 input  175.53 | X-H torsion
[ 8008 7997 7996 7995 ] final   29.21 input   59.86 | X-H torsion
[ 10167 10162 10161 10158 ] final   25.45 input  -65.29 | X-H torsion
[ 10718 10713 10712 10709 ] final  118.32 input   66.30 | X-H torsion
[ 10763 10752 10751 10750 ] final   73.66 input  -60.55 | X-H torsion
[ 11005 11000 10999 10996 ] final  -51.93 input  -57.11 | X-H torsion

> <Gold.Protein.ActiveResidues>
 VAL166  LYS551  ARG553  GLY616  TRP617  ASP618  TYR619  PRO620  LYS621  CYS622 
 ASP623  PHE694  ASN695  SER759  ASP760  ASP761  ALA762  ILE779  LEU786  VAL792 
 PHE793  MET794  SER795  GLU796  ALA797  LYS798  CYS799  TRP800  GLU811  SER814 

> <Gold.Protein.RotatedAtoms>
  151.5332  133.3445  159.2921 H   0  0  0  0  0  0  0  0  0  0  0  0  # atno 6907 bound_to 6896
  150.8580  134.7927  159.7072 H   0  0  0  0  0  0  0  0  0  0  0  0  # atno 6908 bound_to 6896
  152.4608  134.5196  159.9830 H   0  0  0  0  0  0  0  0  0  0  0  0  # atno 6909 bound_to 6896
  144.9229  140.7035  143.4954 H   0  0  0  0  0  0  0  0  0  0  0  0  # atno 7974 bound_to 7965
  155.0709  140.3200  155.4631 H   0  0  0  0  0  0  0  0  0  0  0  0  # atno 8008 bound_to 7997
  156.2791  140.2112  156.5782 H   0  0  0  0  0  0  0  0  0  0  0  0  # atno 8009 bound_to 7997
  154.7055  140.0503  157.0487 H   0  0  0  0  0  0  0  0  0  0  0  0  # atno 8010 bound_to 7997
  140.5105  144.0168  150.6371 H   0  0  0  0  0  0  0  0  0  0  0  0  # atno 10167 bound_to 10162
  157.6038  131.1047  150.7740 H   0  0  0  0  0  0  0  0  0  0  0  0  # atno 10718 bound_to 10713
  153.0536  135.5055  154.7926 H   0  0  0  0  0  0  0  0  0  0  0  0  # atno 10763 bound_to 10752
  154.6769  135.2962  154.9668 H   0  0  0  0  0  0  0  0  0  0  0  0  # atno 10764 bound_to 10752
  154.0467  135.6709  153.4848 H   0  0  0  0  0  0  0  0  0  0  0  0  # atno 10765 bound_to 10752
  141.0897  133.6635  156.3950 H   0  0  0  0  0  0  0  0  0  0  0  0  # atno 11005 bound_to 11000
  145.3267  139.1772  143.4558 LP  0  0  0  0  0  0  0  0  0  0  0  0  # atno 17320 bound_to 7965
  146.3213  140.3292  142.8639 LP  0  0  0  0  0  0  0  0  0  0  0  0  # atno 17321 bound_to 7965
  140.3489  143.2975  152.0508 LP  0  0  0  0  0  0  0  0  0  0  0  0  # atno 17342 bound_to 10162
  139.4895  144.6388  151.6919 LP  0  0  0  0  0  0  0  0  0  0  0  0  # atno 17343 bound_to 10162
  156.8133  130.4959  149.5353 LP  0  0  0  0  0  0  0  0  0  0  0  0  # atno 17370 bound_to 10713
  156.1118  130.6046  151.0059 LP  0  0  0  0  0  0  0  0  0  0  0  0  # atno 17371 bound_to 10713
  140.5280  134.6240  157.5340 LP  0  0  0  0  0  0  0  0  0  0  0  0  # atno 17394 bound_to 11000
  139.9721  134.7275  156.0021 LP  0  0  0  0  0  0  0  0  0  0  0  0  # atno 17395 bound_to 11000

$$$$
