#       Name:                AV-unprocessed.smi:91
#       Creating user name   scv26
#       Creation time:       Thu Mar 26 17:27:09 2020


#       File generated by GOLD software.
#

@<TRIPOS>MOLECULE
AV-unprocessed.smi:91
    72    75     1
SMALL
NO_CHARGES


@<TRIPOS>ATOM
      1 ****        -4.7496  -0.9636   5.9642 C.3            1 S1                 0.0000
      2 ****        -4.2226  -0.3817   4.7851 O.3            1 S1                 0.0000
      3 ****        -4.6430  -1.0551   3.6090 C.3            1 S1                 0.0000
      4 ****        -4.0471  -0.3693   2.3721 C.3            1 S1                 0.0000
      5 ****        -2.5102  -0.2817   2.4167 C.3            1 S1                 0.0000
      6 ****        -2.0260   0.4880   1.2809 N.3            1 S1                 0.0000
      7 ****        -0.6828   0.4665   1.1527 C.ar           1 S1                 0.0000
      8 ****         0.0971   1.1685   2.0166 N.ar           1 S1                 0.0000
      9 ****         1.4271   1.1418   1.8854 C.ar           1 S1                 0.0000
     10 ****         2.1642   0.4938   0.9797 N.ar           1 S1                 0.0000
     11 ****         1.3796  -0.2106   0.1138 C.ar           1 S1                 0.0000
     12 ****        -0.0409  -0.2804   0.1316 C.ar           1 S1                 0.0000
     13 ****        -0.4937  -1.0917  -0.9009 N.2            1 S1                 0.0000
     14 ****         0.6001  -1.4767  -1.5013 C.2            1 S1                 0.0000
     15 ****         1.7695  -0.9896  -0.9615 N.pl3          1 S1                 0.0000
     16 ****         3.1179  -1.2525  -1.4341 C.3            1 S1                 0.0000
     17 ****         3.4893  -0.4495  -2.7057 C.3            1 S1                 0.0000
     18 ****         3.1990   1.0654  -2.5684 C.3            1 S1                 0.0000
     19 ****         3.9704   1.6501  -1.5392 O.3            1 S1                 0.0000
     20 ****         4.9485  -0.7279  -3.1480 C.3            1 S1                 0.0000
     21 ****         5.2560  -2.1825  -3.4577 C.3            1 S1                 0.0000
     22 ****         6.5419  -2.0694  -4.2681 C.3            1 S1                 0.0000
     23 ****         6.4243  -0.8542  -4.9986 O.3            1 S1                 0.0000
     24 ****         5.3582  -0.0703  -4.4707 C.3            1 S1                 0.0000
     25 ****        -2.6163   1.8192   1.2217 C.3            1 S1                 0.0000
     26 ****        -4.1578   1.7340   1.1696 C.3            1 S1                 0.0000
     27 ****        -4.7632   3.1280   1.3946 C.3            1 S1                 0.0000
     28 ****        -4.6591   1.1740  -0.1785 C.3            1 S1                 0.0000
     29 ****        -4.6220   0.9345   2.2636 O.3            1 S1                 0.0000
     30 ****        -4.3954  -0.4116   6.8348 H              1 S1                 0.0000
     31 ****        -4.4290  -2.0008   6.0697 H              1 S1                 0.0000
     32 ****        -5.8398  -0.9317   5.9666 H              1 S1                 0.0000
     33 ****        -4.3158  -2.0953   3.6466 H              1 S1                 0.0000
     34 ****        -5.7322  -1.0584   3.5434 H              1 S1                 0.0000
     35 ****        -4.3428  -0.9566   1.5027 H              1 S1                 0.0000
     36 ****        -2.1832   0.1980   3.3403 H              1 S1                 0.0000
     37 ****        -2.0769  -1.2829   2.4022 H              1 S1                 0.0000
     38 ****         1.9793   1.7241   2.6081 H              1 S1                 0.0000
     39 ****         0.5847  -2.1271  -2.3639 H              1 S1                 0.0000
     40 ****         3.8184  -1.0300  -0.6285 H              1 S1                 0.0000
     41 ****         3.1977  -2.3234  -1.6211 H              1 S1                 0.0000
     42 ****         2.8391  -0.8111  -3.5036 H              1 S1                 0.0000
     43 ****         3.4122   1.5872  -3.5011 H              1 S1                 0.0000
     44 ****         2.1443   1.2471  -2.3616 H              1 S1                 0.0000
     45 ****         3.7215   1.2556  -0.7166 H              1 S1                 0.0000
     46 ****         5.6357  -0.3936  -2.3689 H              1 S1                 0.0000
     47 ****         5.3791  -2.7981  -2.5663 H              1 S1                 0.0000
     48 ****         4.4661  -2.6196  -4.0703 H              1 S1                 0.0000
     49 ****         7.4036  -1.9935  -3.6034 H              1 S1                 0.0000
     50 ****         6.6972  -2.9216  -4.9300 H              1 S1                 0.0000
     51 ****         4.5354  -0.0919  -5.1865 H              1 S1                 0.0000
     52 ****         5.6643   0.9682  -4.3412 H              1 S1                 0.0000
     53 ****        -2.3094   2.3832   2.1041 H              1 S1                 0.0000
     54 ****        -2.2366   2.3574   0.3516 H              1 S1                 0.0000
     55 ****        -4.4501   3.8268   0.6182 H              1 S1                 0.0000
     56 ****        -4.4560   3.5418   2.3557 H              1 S1                 0.0000
     57 ****        -5.8530   3.0908   1.3875 H              1 S1                 0.0000
     58 ****        -4.4015   1.8452  -0.9982 H              1 S1                 0.0000
     59 ****        -5.7431   1.0580  -0.1768 H              1 S1                 0.0000
     60 ****        -4.2233   0.2041  -0.4164 H              1 S1                 0.0000
     61 ****        -3.2241  -0.4118   4.8318 LP             1 S1                 0.0000
     62 ****        -4.5254   0.5701   4.7347 LP             1 S1                 0.0000
     63 ****        -2.3535   0.0194   0.4605 LP             1 S1                 0.0000
     64 ****        -0.3233   1.7041   2.7490 LP             1 S1                 0.0000
     65 ****         3.1631   0.5214   0.9411 LP             1 S1                 0.0000
     66 ****        -1.4381  -1.3264  -1.1311 LP             1 S1                 0.0000
     67 ****         3.7986   2.6347  -1.5068 LP             1 S1                 0.0000
     68 ****         4.9418   1.4868  -1.7114 LP             1 S1                 0.0000
     69 ****         6.2388  -1.0616  -5.9591 LP             1 S1                 0.0000
     70 ****         7.2796  -0.3409  -4.9276 LP             1 S1                 0.0000
     71 ****        -4.4231   1.4285   3.1100 LP             1 S1                 0.0000
     72 ****        -5.6112   0.8260   2.1656 LP             1 S1                 0.0000
@<TRIPOS>BOND
    1    1    2 1     
    2    1   30 1     
    3    1   31 1     
    4    1   32 1     
    5    2    3 1     
    6    3    4 1     
    7    3   33 1     
    8    3   34 1     
    9    4   29 1     
   10    4    5 1     
   11    4   35 1     
   12    5    6 1     
   13    5   36 1     
   14    5   37 1     
   15    6    7 1     
   16    6   25 1     
   17    7   12 ar    
   18    7    8 ar    
   19    8    9 ar    
   20    9   10 ar    
   21    9   38 1     
   22   10   11 ar    
   23   11   15 1     
   24   11   12 ar    
   25   12   13 1     
   26   13   14 2     
   27   14   15 1     
   28   14   39 1     
   29   15   16 1     
   30   16   17 1     
   31   16   40 1     
   32   16   41 1     
   33   17   18 1     
   34   17   20 1     
   35   17   42 1     
   36   18   19 1     
   37   18   43 1     
   38   18   44 1     
   39   19   45 1     
   40   20   24 1     
   41   20   21 1     
   42   20   46 1     
   43   21   22 1     
   44   21   47 1     
   45   21   48 1     
   46   22   23 1     
   47   22   49 1     
   48   22   50 1     
   49   23   24 1     
   50   24   51 1     
   51   24   52 1     
   52   25   26 1     
   53   25   53 1     
   54   25   54 1     
   55   26   27 1     
   56   26   28 1     
   57   26   29 1     
   58   27   55 1     
   59   27   56 1     
   60   27   57 1     
   61   28   58 1     
   62   28   59 1     
   63   28   60 1     
   64    2   61 1     
   65    2   62 1     
   66    6   63 1     
   67    8   64 1     
   68   10   65 1     
   69   13   66 1     
   70   19   67 1     
   71   19   68 1     
   72   23   69 1     
   73   23   70 1     
   74   29   71 1     
   75   29   72 1     
@<TRIPOS>SUBSTRUCTURE
      1 S1             1
@<TRIPOS>SET
LONE_PAIRS      STATIC     ATOMS    <user>   **** ""
12 61 62 63 64 65 66 67 68 69 70 71 72
DONOR_HYDROGENS      STATIC     ATOMS    <user>   **** ""
1 45
ATOM$BLUE        STATIC     ATOMS    COLORGROUP SYSTEM
12 61 62 63 64 65 66 67 68 69 70 71 72
ATOM$RED        STATIC     ATOMS    COLORGROUP SYSTEM
1 45
