AV-unprocessed.smi:3056|AV-procd|sdf|11652|dock7
  -GOLD-   2272017 53D 1   1.00000     0.00000
 Structure written by MMmdl.
 48 49  0  0  0  0  0  0  0  0  2 V2000
  152.0521  140.3405  158.8530 C   0  0  0  0  0  0  0  0  0  0  0  0
  151.5274  140.2686  157.4479 C   0  0  0  0  0  0  0  0  0  0  0  0
  151.3785  141.3329  156.5144 C   0  0  0  0  0  0  0  0  0  0  0  0
  150.8797  140.9341  155.3556 N   0  0  0  0  0  0  0  0  0  0  0  0
  150.6945  139.6048  155.5038 N   0  0  0  0  0  0  0  0  0  0  0  0
  150.1353  138.8252  154.4064 C   0  0  1  0  0  0  0  0  0  0  0  0
  150.3215  137.3232  154.6885 C   0  0  0  0  0  0  0  0  0  0  0  0
  148.6603  139.2136  154.1194 C   0  0  1  0  0  0  0  0  0  0  0  0
  148.4252  140.7351  154.1124 C   0  0  0  0  0  0  0  0  0  0  0  0
  148.2205  138.6617  152.8183 N   0  3  0  0  0  0  0  0  0  0  0  0
  146.7586  138.6814  152.5915 C   0  0  0  0  0  0  0  0  0  0  0  0
  146.3289  137.7550  151.4442 C   0  0  0  0  0  0  0  0  0  0  0  0
  146.6037  138.0779  150.2871 O   0  0  0  0  0  0  0  0  0  0  0  0
  145.6605  136.6137  151.7371 N   0  0  0  0  0  0  0  0  0  0  0  0
  145.2187  135.5996  150.7742 C   0  0  0  0  0  0  0  0  0  0  0  0
  145.9493  134.2817  151.0862 C   0  0  0  0  0  0  0  0  0  0  0  0
  145.6874  133.8938  152.4325 O   0  0  0  0  0  0  0  0  0  0  0  0
  146.0920  134.8690  153.3917 C   0  0  2  0  0  0  0  0  0  0  0  0
  145.7845  134.3230  154.7903 C   0  0  0  0  0  0  0  0  0  0  0  0
  145.3530  136.1921  153.1069 C   0  0  0  0  0  0  0  0  0  0  0  0
  151.0770  139.1779  156.7599 C   0  0  0  0  0  0  0  0  0  0  0  0
  152.6783  141.2196  159.0071 H   0  0  0  0  0  0  0  0  0  0  0  0
  152.6571  139.4689  159.1036 H   0  0  0  0  0  0  0  0  0  0  0  0
  151.2428  140.3909  159.5814 H   0  0  0  0  0  0  0  0  0  0  0  0
  151.6151  142.3786  156.6451 H   0  0  0  0  0  0  0  0  0  0  0  0
  150.7201  139.0603  153.5146 H   0  0  0  0  0  0  0  0  0  0  0  0
  150.0517  136.7175  153.8236 H   0  0  0  0  0  0  0  0  0  0  0  0
  149.7108  136.9940  155.5298 H   0  0  0  0  0  0  0  0  0  0  0  0
  151.3616  137.0967  154.9253 H   0  0  0  0  0  0  0  0  0  0  0  0
  148.0338  138.8007  154.9122 H   0  0  0  0  0  0  0  0  0  0  0  0
  148.6238  141.1823  155.0866 H   0  0  0  0  0  0  0  0  0  0  0  0
  147.3904  140.9696  153.8607 H   0  0  0  0  0  0  0  0  0  0  0  0
  149.0651  141.2310  153.3815 H   0  0  0  0  0  0  0  0  0  0  0  0
  148.6514  139.2045  152.0834 H   0  0  0  0  0  0  0  0  0  0  0  0
  146.2530  138.3771  153.5083 H   0  0  0  0  0  0  0  0  0  0  0  0
  146.4529  139.7027  152.3592 H   0  0  0  0  0  0  0  0  0  0  0  0
  144.1411  135.4605  150.8710 H   0  0  0  0  0  0  0  0  0  0  0  0
  145.3910  135.8709  149.7341 H   0  0  0  0  0  0  0  0  0  0  0  0
  145.6048  133.4915  150.4190 H   0  0  0  0  0  0  0  0  0  0  0  0
  147.0240  134.3866  150.9298 H   0  0  0  0  0  0  0  0  0  0  0  0
  147.1692  135.0237  153.3071 H   0  0  0  0  0  0  0  0  0  0  0  0
  146.0939  135.0267  155.5634 H   0  0  0  0  0  0  0  0  0  0  0  0
  146.3105  133.3844  154.9663 H   0  0  0  0  0  0  0  0  0  0  0  0
  144.7178  134.1357  154.9156 H   0  0  0  0  0  0  0  0  0  0  0  0
  145.6320  136.9383  153.8522 H   0  0  0  0  0  0  0  0  0  0  0  0
  144.2752  136.0545  153.2071 H   0  0  0  0  0  0  0  0  0  0  0  0
  150.9957  138.1433  157.0593 H   0  0  0  0  0  0  0  0  0  0  0  0
  148.5500  137.7100  152.7408 H   0  0  0  0  0  0  0  0  0  0  0  0
  1  2  1  0  0  0  0
  1 22  1  0  0  0  0
  1 23  1  0  0  0  0
  1 24  1  0  0  0  0
  2 21  2  0  0  0  0
  2  3  1  0  0  0  0
  3  4  2  0  0  0  0
  3 25  1  0  0  0  0
  4  5  1  0  0  0  0
  5  6  1  0  0  0  0
  5 21  1  0  0  0  0
  6  7  1  0  0  0  0
  6  8  1  0  0  0  0
  6 26  1  0  0  0  0
  7 27  1  0  0  0  0
  7 28  1  0  0  0  0
  7 29  1  0  0  0  0
  8  9  1  0  0  0  0
  8 10  1  0  0  0  0
  8 30  1  0  0  0  0
  9 31  1  0  0  0  0
  9 32  1  0  0  0  0
  9 33  1  0  0  0  0
 10 11  1  0  0  0  0
 10 34  1  0  0  0  0
 10 48  1  0  0  0  0
 11 12  1  0  0  0  0
 11 35  1  0  0  0  0
 11 36  1  0  0  0  0
 12 13  2  0  0  0  0
 12 14  1  0  0  0  0
 14 20  1  0  0  0  0
 14 15  1  0  0  0  0
 15 16  1  0  0  0  0
 15 37  1  0  0  0  0
 15 38  1  0  0  0  0
 16 17  1  0  0  0  0
 16 39  1  0  0  0  0
 16 40  1  0  0  0  0
 17 18  1  0  0  0  0
 18 19  1  0  0  0  0
 18 20  1  0  0  0  0
 18 41  1  0  0  0  0
 19 42  1  0  0  0  0
 19 43  1  0  0  0  0
 19 44  1  0  0  0  0
 20 45  1  0  0  0  0
 20 46  1  0  0  0  0
 21 47  1  0  0  0  0
M  CHG  1  10   1
M  END
> <s_m_source_file>
AV-unprocessed.smi

> <i_m_source_file_index>
3056

> <i_lp_mmshare_version>
43012

> <i_f3d_flags>
0

> <s_epik_input>
W0NIM11jMVtjSF1ubihbY0hdMSlbQ0BIXShbQ0gzXSlbQ0BIXShbQ0gzXSlbTkhdW0NIMl1DKD1PKU4yW0NIMl1bQ0gyXU9bQ0BASF0oW0NIM10pW0NIMl0y

> <s_epik_cmdline>
J2VwaWtfcHl0aG9uJywgJy1waCcsICc3LjAnLCAnLXRuJywgJzgnLCAnLW1hJywgJzIwMCcsICctbWV0YWxfYmluZGluZycsICctaW1hZScsICc8aW5maWxlLm1hZT4nLCAnLW9tYWUnLCAnPG91dGZpbGUubWFlPic=

> <r_lp_tautomer_probability>
1

> <r_epik_Ionization_Penalty>
0.233715

> <r_epik_Ionization_Penalty_Charging>
0.233698

> <r_epik_Ionization_Penalty_Neutral>
1.68157e-05

> <r_epik_State_Penalty>
0.225221

> <r_epik_Charging_Adjusted_Penalty>
0.458919

> <i_epik_Tot_Q>
1

> <i_epik_Tot_abs_Q>
1

> <r_epik_Metal_State_Penalty>
0.225535

> <b_epik_Metal_Only>
0

> <s_lp_Force_Field>
OPLS_2005

> <r_lp_Energy>
28.8948

> <b_lp_Chiralities_Consistent>
1

> <s_lp_Variant>
AV-unprocessed.smi:3056-8

> <Gold.Version>
5.8.1

> <Gold.Id.Protein>
6NUR|6NUR_protein|mol2

> <Gold.PLP.Fitness>
46.1886

> <Gold.PLP.PLP>
-33.7806

> <Gold.PLP.part.hbond>
-3.8578

> <Gold.PLP.part.metal>
0.0000

> <Gold.PLP.part.buried>
-1.6056

> <Gold.PLP.part.nonpolar>
-31.4402

> <Gold.PLP.part.repulsive>
2.7341

> <Gold.PLP.ligand.clash>
0.0000

> <Gold.PLP.ligand.torsion>
0.6184

> <Gold.PLP.Chemscore.Hbond>
4.5144

> <Gold.PLP.Chemscore.CHOScore>
0.0000

> <Gold.PLP.Chemscore.Metal>
0.0000

> <Gold.Chemscore.Hbonds>
donor molecule, donor type, donor heavy atom, donor atom, acceptor molecule, acceptor atom, score
      L1  H    10    34       P1  7957  1.00
      L1  H    10    48       P1  7948  2.00
      P1  H  7954  7966       L1    13  0.80
      P1  H  7989  7998       L1     4  0.66

> <Gold.PLP.Chemscore.Internal.Correction>
0.1016

> <Gold.Rescore>
     Score         DG    S(hbond)    S(metal)    S(lipo)     H(rot)  DE(clash)    DE(int)     intcor
     16.85     -21.14       3.60        0.00      69.05       1.74       2.00       2.29       ----

> <Gold.Chemscore.Fitness>
16.8501

> <Gold.Chemscore.DG>
-21.1394

> <Gold.Chemscore.ZeroCoef>
-5.4800

> <Gold.Chemscore.Hbond>
3.5998

> <Gold.Chemscore.Metal>
0.0000

> <Gold.Chemscore.Lipo>
69.0489

> <Gold.Chemscore.Internal_Hbond>
0.0000

> <Gold.Chemscore.DEClash>
1.9984

> <Gold.Chemscore.DEInternal>
2.2909

> <Gold.Chemscore.Rot>
1.7354

> <Gold.Chemscore.Internal.Correction>
   9.000000E+99

> <Gold.Chemscore.Hbonds>
donor molecule, donor type, donor heavy atom, donor atom, acceptor molecule, acceptor atom, score
      L1  H    10    34       P1  7957  0.95
      L1  H    10    48       P1  7948  0.97
      P1  H  7954  7966       L1    13  0.71
      P1  H  7989  7998       L1     4  0.13

> <Gold.Chemscore.Hbond.Weighted>
-12.0233

> <Gold.Chemscore.Metal.Weighted>
-0.0000

> <Gold.Chemscore.Lipo.Weighted>
-8.0787

> <Gold.Chemscore.Internal_Hbond.Weighted>
0.0000

> <Gold.Chemscore.DEClash.Weighted>
1.9984

> <Gold.Chemscore.DEInternal.Weighted>
2.2909

> <Gold.Chemscore.Rot.Weighted>
4.4426

> <Gold.Chemscore.Internal.Correction.Weighted>
   9.000000E+99

> <Gold.Protein.RotatedTorsions>
[ 6907 6896 6895 6894 ] final  -53.98 input  -60.11 | X-H torsion
[ 7974 7965 7964 7962 ] final -128.22 input  175.53 | X-H torsion
[ 8008 7997 7996 7995 ] final  -46.91 input   59.86 | X-H torsion
[ 10167 10162 10161 10158 ] final   14.96 input  -65.29 | X-H torsion
[ 10718 10713 10712 10709 ] final -164.28 input   66.30 | X-H torsion
[ 10763 10752 10751 10750 ] final   56.63 input  -60.55 | X-H torsion
[ 11005 11000 10999 10996 ] final -143.98 input  -57.11 | X-H torsion

> <Gold.Protein.ActiveResidues>
 VAL166  LYS551  ARG553  GLY616  TRP617  ASP618  TYR619  PRO620  LYS621  CYS622 
 ASP623  PHE694  ASN695  SER759  ASP760  ASP761  ALA762  ILE779  LEU786  VAL792 
 PHE793  MET794  SER795  GLU796  ALA797  LYS798  CYS799  TRP800  GLU811  SER814 

> <Gold.Protein.RotatedAtoms>
  150.8378  134.7658  159.6907 H   0  0  0  0  0  0  0  0  0  0  0  0  # atno 6907 bound_to 6896
  152.4471  134.5467  159.9865 H   0  0  0  0  0  0  0  0  0  0  0  0  # atno 6908 bound_to 6896
  151.5614  133.3365  159.3007 H   0  0  0  0  0  0  0  0  0  0  0  0  # atno 6909 bound_to 6896
  144.9693  140.7528  143.4680 H   0  0  0  0  0  0  0  0  0  0  0  0  # atno 7974 bound_to 7965
  154.4011  140.1359  156.4089 H   0  0  0  0  0  0  0  0  0  0  0  0  # atno 8008 bound_to 7997
  155.7753  140.3483  155.5248 H   0  0  0  0  0  0  0  0  0  0  0  0  # atno 8009 bound_to 7997
  155.8727  140.0974  157.1529 H   0  0  0  0  0  0  0  0  0  0  0  0  # atno 8010 bound_to 7997
  140.5900  143.8814  150.6865 H   0  0  0  0  0  0  0  0  0  0  0  0  # atno 10167 bound_to 10162
  156.6368  130.8952  151.2988 H   0  0  0  0  0  0  0  0  0  0  0  0  # atno 10718 bound_to 10713
  152.9835  135.5670  154.5259 H   0  0  0  0  0  0  0  0  0  0  0  0  # atno 10763 bound_to 10752
  154.4739  135.2786  155.1624 H   0  0  0  0  0  0  0  0  0  0  0  0  # atno 10764 bound_to 10752
  154.3160  135.6278  153.5540 H   0  0  0  0  0  0  0  0  0  0  0  0  # atno 10765 bound_to 10752
  140.8070  134.2789  157.4956 H   0  0  0  0  0  0  0  0  0  0  0  0  # atno 11005 bound_to 11000
  145.2583  139.2003  143.4905 LP  0  0  0  0  0  0  0  0  0  0  0  0  # atno 17320 bound_to 7965
  146.3377  140.2509  142.8598 LP  0  0  0  0  0  0  0  0  0  0  0  0  # atno 17321 bound_to 7965
  140.2334  143.3718  152.1546 LP  0  0  0  0  0  0  0  0  0  0  0  0  # atno 17342 bound_to 10162
  139.5221  144.7055  151.5367 LP  0  0  0  0  0  0  0  0  0  0  0  0  # atno 17343 bound_to 10162
  157.7183  130.9525  150.1339 LP  0  0  0  0  0  0  0  0  0  0  0  0  # atno 17370 bound_to 10713
  156.2190  130.3672  149.8578 LP  0  0  0  0  0  0  0  0  0  0  0  0  # atno 17371 bound_to 10713
  139.8717  134.9462  156.3931 LP  0  0  0  0  0  0  0  0  0  0  0  0  # atno 17394 bound_to 11000
  140.9236  133.7628  155.9937 LP  0  0  0  0  0  0  0  0  0  0  0  0  # atno 17395 bound_to 11000

$$$$
