AV-unprocessed.smi:626|AV-procd|sdf|3110|dock9
  -GOLD-   22720 0 33D 1   1.00000     0.00000
 Structure written by MMmdl.
 34 36  0  0  0  0  0  0  0  0  1 V2000
  149.9540  135.8532  156.5368 C   0  0  0  0  0  0  0  0  0  0  0  0
  150.0742  137.2513  156.1540 N   0  0  0  0  0  0  0  0  0  0  0  0
  150.9108  137.7069  155.2096 C   0  0  0  0  0  0  0  0  0  0  0  0
  151.6631  136.9771  154.5638 O   0  0  0  0  0  0  0  0  0  0  0  0
  150.8942  139.2142  154.9474 C   0  0  0  0  0  0  0  0  0  0  0  0
  151.3102  139.9689  156.1696 C   0  0  0  0  0  0  0  0  0  0  0  0
  152.4417  139.6865  156.8042 N   0  0  0  0  0  0  0  0  0  0  0  0
  152.4440  140.5882  157.8777 O   0  0  0  0  0  0  0  0  0  0  0  0
  151.3221  141.3365  157.7417 C   0  0  0  0  0  0  0  0  0  0  0  0
  150.9995  142.3309  158.8187 C   0  0  1  0  0  0  0  0  0  0  0  0
  152.1396  142.6113  159.8239 C   0  0  0  0  0  0  0  0  0  0  0  0
  152.2208  144.1502  159.8177 C   0  0  1  0  0  0  0  0  0  0  0  0
  152.8499  144.6219  158.4923 C   0  0  0  0  0  0  0  0  0  0  0  0
  151.7200  144.3819  157.4728 C   0  0  0  0  0  0  0  0  0  0  0  0
  150.6115  143.7496  158.3391 C   0  0  2  0  0  0  0  0  0  0  0  0
  150.7607  144.5483  159.6307 C   0  0  0  0  0  0  0  0  0  0  0  0
  150.5570  140.9620  156.7166 N   0  0  0  0  0  0  0  0  0  0  0  0
  149.2108  135.7466  157.3270 H   0  0  0  0  0  0  0  0  0  0  0  0
  150.9047  135.4691  156.9089 H   0  0  0  0  0  0  0  0  0  0  0  0
  149.6398  135.2440  155.6883 H   0  0  0  0  0  0  0  0  0  0  0  0
  149.4910  137.9160  156.6417 H   0  0  0  0  0  0  0  0  0  0  0  0
  151.5698  139.4522  154.1244 H   0  0  0  0  0  0  0  0  0  0  0  0
  149.8963  139.5280  154.6376 H   0  0  0  0  0  0  0  0  0  0  0  0
  150.1553  141.9244  159.3783 H   0  0  0  0  0  0  0  0  0  0  0  0
  151.8773  142.2350  160.8133 H   0  0  0  0  0  0  0  0  0  0  0  0
  153.0928  142.1603  159.5456 H   0  0  0  0  0  0  0  0  0  0  0  0
  152.7035  144.5663  160.7023 H   0  0  0  0  0  0  0  0  0  0  0  0
  153.1073  145.6810  158.5359 H   0  0  0  0  0  0  0  0  0  0  0  0
  153.7561  144.0675  158.2458 H   0  0  0  0  0  0  0  0  0  0  0  0
  151.3798  145.3316  157.0578 H   0  0  0  0  0  0  0  0  0  0  0  0
  152.0285  143.7582  156.6350 H   0  0  0  0  0  0  0  0  0  0  0  0
  149.6239  143.7978  157.8795 H   0  0  0  0  0  0  0  0  0  0  0  0
  150.1109  144.2003  160.4359 H   0  0  0  0  0  0  0  0  0  0  0  0
  150.6184  145.6223  159.4964 H   0  0  0  0  0  0  0  0  0  0  0  0
  1  2  1  0  0  0  0
  1 18  1  0  0  0  0
  1 19  1  0  0  0  0
  1 20  1  0  0  0  0
  2  3  1  0  0  0  0
  2 21  1  0  0  0  0
  3  4  2  0  0  0  0
  3  5  1  0  0  0  0
  5  6  1  0  0  0  0
  5 22  1  0  0  0  0
  5 23  1  0  0  0  0
  6 17  1  0  0  0  0
  6  7  2  0  0  0  0
  7  8  1  0  0  0  0
  8  9  1  0  0  0  0
  9 10  1  0  0  0  0
  9 17  2  0  0  0  0
 10 15  1  0  0  0  0
 10 11  1  0  0  0  0
 10 24  1  0  0  0  0
 11 12  1  0  0  0  0
 11 25  1  0  0  0  0
 11 26  1  0  0  0  0
 12 16  1  0  0  0  0
 12 13  1  0  0  0  0
 12 27  1  0  0  0  0
 13 14  1  0  0  0  0
 13 28  1  0  0  0  0
 13 29  1  0  0  0  0
 14 15  1  0  0  0  0
 14 30  1  0  0  0  0
 14 31  1  0  0  0  0
 15 16  1  0  0  0  0
 15 32  1  0  0  0  0
 16 33  1  0  0  0  0
 16 34  1  0  0  0  0
M  END
> <s_m_source_file>
AV-unprocessed.smi

> <i_m_source_file_index>
626

> <i_lp_mmshare_version>
43012

> <i_f3d_flags>
0

> <s_epik_input>
W0NIM11bTkhdQyg9TylbQ0gyXWMxbm9jKG4xKVtDQEhdKFtDSDJdW0NAQEhdMjMpW0NAQEhdKFtDSDJdMylbQ0gyXVtDSDJdMg==

> <s_epik_cmdline>
J2VwaWtfcHl0aG9uJywgJy1waCcsICc3LjAnLCAnLXRuJywgJzgnLCAnLW1hJywgJzIwMCcsICctbWV0YWxfYmluZGluZycsICctaW1hZScsICc8aW5maWxlLm1hZT4nLCAnLW9tYWUnLCAnPG91dGZpbGUubWFlPic=

> <r_lp_tautomer_probability>
1

> <r_epik_Ionization_Penalty>
1.02916e-07

> <r_epik_Ionization_Penalty_Charging>
0

> <r_epik_Ionization_Penalty_Neutral>
1.02916e-07

> <r_epik_State_Penalty>
-0

> <r_epik_Charging_Adjusted_Penalty>
0

> <i_epik_Tot_Q>
0

> <i_epik_Tot_abs_Q>
0

> <r_epik_Metal_State_Penalty>
-0

> <b_epik_Metal_Only>
0

> <s_lp_Force_Field>
OPLS_2005

> <r_lp_Energy>
49.0627

> <b_lp_Chiralities_Consistent>
1

> <s_lp_Variant>
AV-unprocessed.smi:626-2

> <Gold.Version>
5.8.1

> <Gold.Id.Protein>
6NUR|6NUR_protein|mol2

> <Gold.PLP.Fitness>
41.2932

> <Gold.PLP.PLP>
-36.2426

> <Gold.PLP.part.hbond>
-3.0000

> <Gold.PLP.part.metal>
0.0000

> <Gold.PLP.part.buried>
-2.7890

> <Gold.PLP.part.nonpolar>
-30.7943

> <Gold.PLP.part.repulsive>
0.2261

> <Gold.PLP.ligand.clash>
0.0000

> <Gold.PLP.ligand.torsion>
0.2061

> <Gold.PLP.Chemscore.Hbond>
1.7936

> <Gold.PLP.Chemscore.CHOScore>
0.0000

> <Gold.PLP.Chemscore.Metal>
0.0000

> <Gold.Chemscore.Hbonds>
donor molecule, donor type, donor heavy atom, donor atom, acceptor molecule, acceptor atom, score
      P1  H  7997  8008       L1     7  0.64
      P1  H 10752 10765       L1     4  1.00

> <Gold.PLP.Chemscore.Internal.Correction>
0.0820

> <Gold.Rescore>
     Score         DG    S(hbond)    S(metal)    S(lipo)     H(rot)  DE(clash)    DE(int)     intcor
     15.40     -15.65       1.18        0.00      88.37       1.61       0.08       0.17       ----

> <Gold.Chemscore.Fitness>
15.3977

> <Gold.Chemscore.DG>
-15.6477

> <Gold.Chemscore.ZeroCoef>
-5.4800

> <Gold.Chemscore.Hbond>
1.1842

> <Gold.Chemscore.Metal>
0.0000

> <Gold.Chemscore.Lipo>
88.3680

> <Gold.Chemscore.Internal_Hbond>
0.0000

> <Gold.Chemscore.DEClash>
0.0760

> <Gold.Chemscore.DEInternal>
0.1739

> <Gold.Chemscore.Rot>
1.6119

> <Gold.Chemscore.Internal.Correction>
   9.000000E+99

> <Gold.Chemscore.Hbonds>
donor molecule, donor type, donor heavy atom, donor atom, acceptor molecule, acceptor atom, score
      P1  H  7997  8008       L1     7  0.07
      P1  H 10752 10765       L1     4  0.98

> <Gold.Chemscore.Hbond.Weighted>
-3.9553

> <Gold.Chemscore.Metal.Weighted>
-0.0000

> <Gold.Chemscore.Lipo.Weighted>
-10.3391

> <Gold.Chemscore.Internal_Hbond.Weighted>
0.0000

> <Gold.Chemscore.DEClash.Weighted>
0.0760

> <Gold.Chemscore.DEInternal.Weighted>
0.1739

> <Gold.Chemscore.Rot.Weighted>
4.1266

> <Gold.Chemscore.Internal.Correction.Weighted>
   9.000000E+99

> <Gold.Protein.RotatedTorsions>
[ 6907 6896 6895 6894 ] final  -76.36 input  -60.11 | X-H torsion
[ 7974 7965 7964 7962 ] final -104.12 input  175.53 | X-H torsion
[ 8008 7997 7996 7995 ] final  -31.77 input   59.86 | X-H torsion
[ 10167 10162 10161 10158 ] final  138.16 input  -65.29 | X-H torsion
[ 10718 10713 10712 10709 ] final  127.32 input   66.30 | X-H torsion
[ 10763 10752 10751 10750 ] final  155.02 input  -60.55 | X-H torsion
[ 11005 11000 10999 10996 ] final   46.72 input  -57.11 | X-H torsion

> <Gold.Protein.ActiveResidues>
 VAL166  LYS551  ARG553  GLY616  TRP617  ASP618  TYR619  PRO620  LYS621  CYS622 
 ASP623  PHE694  ASN695  SER759  ASP760  ASP761  ALA762  ILE779  LEU786  VAL792 
 PHE793  MET794  SER795  GLU796  ALA797  LYS798  CYS799  TRP800  GLU811  SER814 

> <Gold.Protein.RotatedAtoms>
  150.7030  134.4584  159.5368 H   0  0  0  0  0  0  0  0  0  0  0  0  # atno 6907 bound_to 6896
  152.2263  134.8362  160.0488 H   0  0  0  0  0  0  0  0  0  0  0  0  # atno 6908 bound_to 6896
  151.9194  133.3546  159.3928 H   0  0  0  0  0  0  0  0  0  0  0  0  # atno 6909 bound_to 6896
  145.2472  140.9226  143.3116 H   0  0  0  0  0  0  0  0  0  0  0  0  # atno 7974 bound_to 7965
  154.4202  140.1755  156.1619 H   0  0  0  0  0  0  0  0  0  0  0  0  # atno 8008 bound_to 7997
  155.9831  140.3376  155.6657 H   0  0  0  0  0  0  0  0  0  0  0  0  # atno 8009 bound_to 7997
  155.6474  140.0686  157.2589 H   0  0  0  0  0  0  0  0  0  0  0  0  # atno 8010 bound_to 7997
  139.5120  144.6369  151.5673 H   0  0  0  0  0  0  0  0  0  0  0  0  # atno 10167 bound_to 10162
  157.5343  131.1098  150.8960 H   0  0  0  0  0  0  0  0  0  0  0  0  # atno 10718 bound_to 10713
  154.1617  135.2809  155.3107 H   0  0  0  0  0  0  0  0  0  0  0  0  # atno 10763 bound_to 10752
  154.6142  135.5489  153.7508 H   0  0  0  0  0  0  0  0  0  0  0  0  # atno 10764 bound_to 10752
  153.0190  135.6423  154.1759 H   0  0  0  0  0  0  0  0  0  0  0  0  # atno 10765 bound_to 10752
  140.1344  134.4664  155.8497 H   0  0  0  0  0  0  0  0  0  0  0  0  # atno 11005 bound_to 11000
  144.9535  139.4057  143.6391 LP  0  0  0  0  0  0  0  0  0  0  0  0  # atno 17320 bound_to 7965
  146.3312  139.8554  142.8865 LP  0  0  0  0  0  0  0  0  0  0  0  0  # atno 17321 bound_to 7965
  140.6121  143.9416  150.6461 LP  0  0  0  0  0  0  0  0  0  0  0  0  # atno 17342 bound_to 10162
  140.2662  143.3488  152.1278 LP  0  0  0  0  0  0  0  0  0  0  0  0  # atno 17343 bound_to 10162
  156.9532  130.5427  149.5283 LP  0  0  0  0  0  0  0  0  0  0  0  0  # atno 17370 bound_to 10713
  156.0446  130.5524  150.8852 LP  0  0  0  0  0  0  0  0  0  0  0  0  # atno 17371 bound_to 10713
  141.2176  133.6808  156.7129 LP  0  0  0  0  0  0  0  0  0  0  0  0  # atno 17394 bound_to 11000
  140.2801  134.8323  157.3926 LP  0  0  0  0  0  0  0  0  0  0  0  0  # atno 17395 bound_to 11000

$$$$
