#       Name:                AV-unprocessed.smi:102
#       Creating user name   scv26
#       Creation time:       Thu Mar 26 17:52:17 2020


#       File generated by GOLD software.
#

@<TRIPOS>MOLECULE
AV-unprocessed.smi:102
    56    57     1
SMALL
NO_CHARGES


@<TRIPOS>ATOM
      1 ****        -4.4551   3.2935   2.1833 C.3            1 S1                 0.0000
      2 ****        -4.1427   1.9337   1.5723 C.2            1 S1                 0.0000
      3 ****        -5.0331   1.2064   1.1316 O.2            1 S1                 0.0000
      4 ****        -2.8306   1.6558   1.5843 O.3            1 S1                 0.0000
      5 ****        -2.3713   0.4257   1.0488 C.3            1 S1                 0.0000
      6 ****        -0.8390   0.3764   1.1192 C.3            1 S1                 0.0000
      7 ****        -0.2488   1.1902   0.1182 O.3            1 S1                 0.0000
      8 ****         1.0777   0.7963  -0.0281 C.3            1 S1                 0.0000
      9 ****         1.4774   1.0402  -1.4671 N.am           1 S1                 0.0000
     10 ****         1.0225   0.1936  -2.4648 C.2            1 S1                 0.0000
     11 ****         1.2957   0.4256  -3.7644 C.2            1 S1                 0.0000
     12 ****         0.8399  -0.4189  -4.7056 F              1 S1                 0.0000
     13 ****         2.0691   1.6069  -4.1390 C.2            1 S1                 0.0000
     14 ****         2.3447   1.7982  -5.3225 O.2            1 S1                 0.0000
     15 ****         2.4482   2.4600  -3.1443 N.pl3          1 S1                -1.0000
     16 ****         2.1581   2.2373  -1.8284 C.2            1 S1                 0.0000
     17 ****         2.4653   3.0291  -0.9376 O.2            1 S1                 0.0000
     18 ****         1.1881  -0.6845   0.3893 C.3            1 S1                 0.0000
     19 ****         2.1052  -0.8445   1.4636 O.3            1 S1                 0.0000
     20 ****         3.4181  -0.9884   1.2117 C.2            1 S1                 0.0000
     21 ****         4.2392  -1.1464   2.4843 C.3            1 S1                 0.0000
     22 ****         3.9470  -0.9949   0.1000 O.2            1 S1                 0.0000
     23 ****        -0.2243  -1.0059   0.8686 C.3            1 S1                 0.0000
     24 ****        -0.9404  -1.7155  -0.1374 O.3            1 S1                 0.0000
     25 ****        -0.8078  -3.0479  -0.2560 C.2            1 S1                 0.0000
     26 ****        -1.6477  -3.6140  -1.3930 C.3            1 S1                 0.0000
     27 ****        -0.0981  -3.7712   0.4430 O.2            1 S1                 0.0000
     28 ****        -3.7959   4.0569   1.7693 H              1 S1                 0.0000
     29 ****        -4.3161   3.2631   3.2641 H              1 S1                 0.0000
     30 ****        -5.4865   3.5790   1.9752 H              1 S1                 0.0000
     31 ****        -2.7935  -0.3908   1.6362 H              1 S1                 0.0000
     32 ****        -2.7121   0.3018   0.0198 H              1 S1                 0.0000
     33 ****        -0.5005   0.7316   2.0944 H              1 S1                 0.0000
     34 ****         1.7090   1.4223   0.6030 H              1 S1                 0.0000
     35 ****         0.4240  -0.6677  -2.2112 H              1 S1                 0.0000
     36 ****         1.4772  -1.3243  -0.4446 H              1 S1                 0.0000
     37 ****         3.8914  -2.0074   3.0552 H              1 S1                 0.0000
     38 ****         4.1470  -0.2561   3.1064 H              1 S1                 0.0000
     39 ****         5.2925  -1.2931   2.2444 H              1 S1                 0.0000
     40 ****        -0.2213  -1.5887   1.7914 H              1 S1                 0.0000
     41 ****        -2.7056  -3.4212  -1.2142 H              1 S1                 0.0000
     42 ****        -1.5017  -4.6910  -1.4791 H              1 S1                 0.0000
     43 ****        -1.3651  -3.1501  -2.3383 H              1 S1                 0.0000
     44 ****        -5.9869   1.5043   1.1701 LP             1 S1                 0.0000
     45 ****        -4.8025   0.3178   0.7351 LP             1 S1                 0.0000
     46 ****        -0.2894   2.1506   0.3939 LP             1 S1                 0.0000
     47 ****        -0.7358   1.0709  -0.7471 LP             1 S1                 0.0000
     48 ****         2.0398   1.1479  -6.0184 LP             1 S1                 0.0000
     49 ****         2.8737   2.6040  -5.5888 LP             1 S1                 0.0000
     50 ****         2.9602   3.2833  -3.3890 LP             1 S1                 0.0000
     51 ****         2.2363   2.8245   0.0140 LP             1 S1                 0.0000
     52 ****         2.9439   3.8770  -1.1656 LP             1 S1                 0.0000
     53 ****         3.3865  -0.8862  -0.7210 LP             1 S1                 0.0000
     54 ****         4.9371  -1.1089   0.0180 LP             1 S1                 0.0000
     55 ****         0.4485  -3.3737   1.1800 LP             1 S1                 0.0000
     56 ****        -0.0682  -4.7564   0.2737 LP             1 S1                 0.0000
@<TRIPOS>BOND
    1    1    2 1     
    2    1   28 1     
    3    1   29 1     
    4    1   30 1     
    5    2    3 2     
    6    2    4 1     
    7    4    5 1     
    8    5    6 1     
    9    5   31 1     
   10    5   32 1     
   11    6   23 1     
   12    6    7 1     
   13    6   33 1     
   14    7    8 1     
   15    8    9 1     
   16    8   18 1     
   17    8   34 1     
   18    9   16 am    
   19    9   10 1     
   20   10   11 2     
   21   10   35 1     
   22   11   12 1     
   23   11   13 1     
   24   13   14 2     
   25   13   15 1     
   26   15   16 1     
   27   16   17 2     
   28   18   19 1     
   29   18   23 1     
   30   18   36 1     
   31   19   20 1     
   32   20   21 1     
   33   20   22 2     
   34   21   37 1     
   35   21   38 1     
   36   21   39 1     
   37   23   24 1     
   38   23   40 1     
   39   24   25 1     
   40   25   26 1     
   41   25   27 2     
   42   26   41 1     
   43   26   42 1     
   44   26   43 1     
   45    3   44 1     
   46    3   45 1     
   47    7   46 1     
   48    7   47 1     
   49   14   48 1     
   50   14   49 1     
   51   15   50 1     
   52   17   51 1     
   53   17   52 1     
   54   22   53 1     
   55   22   54 1     
   56   27   55 1     
   57   27   56 1     
@<TRIPOS>SUBSTRUCTURE
      1 S1             1
@<TRIPOS>SET
LONE_PAIRS      STATIC     ATOMS    <user>   **** ""
13 44 45 46 47 48 49 50 51 52 53 54 55 56
ATOM$BLUE        STATIC     ATOMS    COLORGROUP SYSTEM
13 44 45 46 47 48 49 50 51 52 53 54 55 56
