AV-unprocessed.smi:2438|AV-procd|sdf|9595|dock7
  -GOLD-   2272013223D 1   1.00000     0.00000
 Structure written by MMmdl.
 43 44  0  0  0  0  0  0  0  0  1 V2000
  146.6364  135.3372  157.4213 C   0  0  0  0  0  0  0  0  0  0  0  0
  147.5443  136.4754  157.3803 N   0  0  0  0  0  0  0  0  0  0  0  0
  148.6658  136.4361  158.3105 C   0  0  0  0  0  0  0  0  0  0  0  0
  146.8798  137.7121  157.2548 C   0  0  0  0  0  0  0  0  0  0  0  0
  146.8919  138.5506  158.3195 N   0  0  0  0  0  0  0  0  0  0  0  0
  146.2449  139.7108  158.1999 C   0  0  0  0  0  0  0  0  0  0  0  0
  145.5820  140.1462  157.1287 N   0  0  0  0  0  0  0  0  0  0  0  0
  145.5579  139.3288  156.0556 C   0  0  0  0  0  0  0  0  0  0  0  0
  146.1969  138.0639  156.0605 C   0  0  0  0  0  0  0  0  0  0  0  0
  146.2332  137.1993  154.9311 N   0  0  0  0  0  0  0  0  0  0  0  0
  145.4542  137.2309  153.8378 C   0  0  0  0  0  0  0  0  0  0  0  0
  144.5675  138.0562  153.6206 O   0  0  0  0  0  0  0  0  0  0  0  0
  145.7490  136.2216  153.0067 N   0  0  0  0  0  0  0  0  0  0  0  0
  145.0745  135.9389  151.7405 C   0  0  2  0  0  0  0  0  0  0  0  0
  143.5427  135.8760  151.9178 C   0  0  0  0  0  0  0  0  0  0  0  0
  143.1042  134.6327  152.7081 C   0  0  0  0  0  0  0  0  0  0  0  0
  143.6377  133.3449  152.0614 C   0  0  0  0  0  0  0  0  0  0  0  0
  145.1739  133.3732  151.9156 C   0  0  1  0  0  0  0  0  0  0  0  0
  145.7182  132.0764  151.2812 C   0  0  0  0  0  0  0  0  0  0  0  0
  145.4215  131.0172  152.0348 F   0  0  0  0  0  0  0  0  0  0  0  0
  145.1893  131.9055  150.0695 F   0  0  0  0  0  0  0  0  0  0  0  0
  147.0424  132.1542  151.1488 F   0  0  0  0  0  0  0  0  0  0  0  0
  145.6124  134.6299  151.1282 C   0  0  0  0  0  0  0  0  0  0  0  0
  146.0121  135.2872  156.5294 H   0  0  0  0  0  0  0  0  0  0  0  0
  145.9832  135.4016  158.2924 H   0  0  0  0  0  0  0  0  0  0  0  0
  147.1973  134.4044  157.4865 H   0  0  0  0  0  0  0  0  0  0  0  0
  149.3056  137.3108  158.1875 H   0  0  0  0  0  0  0  0  0  0  0  0
  149.2739  135.5493  158.1301 H   0  0  0  0  0  0  0  0  0  0  0  0
  148.3147  136.4042  159.3426 H   0  0  0  0  0  0  0  0  0  0  0  0
  146.2633  140.3663  159.0577 H   0  0  0  0  0  0  0  0  0  0  0  0
  145.0450  139.7158  155.1889 H   0  0  0  0  0  0  0  0  0  0  0  0
  146.8610  136.4125  155.0104 H   0  0  0  0  0  0  0  0  0  0  0  0
  146.4920  135.5924  153.2734 H   0  0  0  0  0  0  0  0  0  0  0  0
  145.3094  136.7492  151.0477 H   0  0  0  0  0  0  0  0  0  0  0  0
  143.1741  136.7788  152.4061 H   0  0  0  0  0  0  0  0  0  0  0  0
  143.0721  135.8543  150.9341 H   0  0  0  0  0  0  0  0  0  0  0  0
  143.4611  134.7028  153.7363 H   0  0  0  0  0  0  0  0  0  0  0  0
  142.0158  134.5957  152.7635 H   0  0  0  0  0  0  0  0  0  0  0  0
  143.3332  132.4875  152.6621 H   0  0  0  0  0  0  0  0  0  0  0  0
  143.1757  133.2134  151.0822 H   0  0  0  0  0  0  0  0  0  0  0  0
  145.5982  133.4412  152.9185 H   0  0  0  0  0  0  0  0  0  0  0  0
  145.2555  134.5504  150.1006 H   0  0  0  0  0  0  0  0  0  0  0  0
  146.7004  134.6750  151.0644 H   0  0  0  0  0  0  0  0  0  0  0  0
  1  2  1  0  0  0  0
  1 24  1  0  0  0  0
  1 25  1  0  0  0  0
  1 26  1  0  0  0  0
  2  3  1  0  0  0  0
  2  4  1  0  0  0  0
  3 27  1  0  0  0  0
  3 28  1  0  0  0  0
  3 29  1  0  0  0  0
  4  9  1  0  0  0  0
  4  5  2  0  0  0  0
  5  6  1  0  0  0  0
  6  7  2  0  0  0  0
  6 30  1  0  0  0  0
  7  8  1  0  0  0  0
  8  9  2  0  0  0  0
  8 31  1  0  0  0  0
  9 10  1  0  0  0  0
 10 11  1  0  0  0  0
 10 32  1  0  0  0  0
 11 12  2  0  0  0  0
 11 13  1  0  0  0  0
 13 14  1  0  0  0  0
 13 33  1  0  0  0  0
 14 23  1  0  0  0  0
 14 15  1  0  0  0  0
 14 34  1  0  0  0  0
 15 16  1  0  0  0  0
 15 35  1  0  0  0  0
 15 36  1  0  0  0  0
 16 17  1  0  0  0  0
 16 37  1  0  0  0  0
 16 38  1  0  0  0  0
 17 18  1  0  0  0  0
 17 39  1  0  0  0  0
 17 40  1  0  0  0  0
 18 19  1  0  0  0  0
 18 23  1  0  0  0  0
 18 41  1  0  0  0  0
 19 20  1  0  0  0  0
 19 21  1  0  0  0  0
 19 22  1  0  0  0  0
 23 42  1  0  0  0  0
 23 43  1  0  0  0  0
M  END
> <s_m_source_file>
AV-unprocessed.smi

> <i_m_source_file_index>
2438

> <i_lp_mmshare_version>
43012

> <i_f3d_flags>
0

> <s_epik_input>
W0NIM11OKFtDSDNdKWMxbltjSF1uW2NIXWMxW05IXUMoPU8pW05IXVtDQEBIXTJbQ0gyXVtDSDJdW0NIMl1bQ0BASF0oQyhGKShGKUYpW0NIMl0y

> <s_epik_cmdline>
J2VwaWtfcHl0aG9uJywgJy1waCcsICc3LjAnLCAnLXRuJywgJzgnLCAnLW1hJywgJzIwMCcsICctbWV0YWxfYmluZGluZycsICctaW1hZScsICc8aW5maWxlLm1hZT4nLCAnLW9tYWUnLCAnPG91dGZpbGUubWFlPic=

> <r_lp_tautomer_probability>
1

> <r_epik_Ionization_Penalty>
0.01759

> <r_epik_Ionization_Penalty_Charging>
0

> <r_epik_Ionization_Penalty_Neutral>
0.01759

> <r_epik_State_Penalty>
0.0133536

> <r_epik_Charging_Adjusted_Penalty>
0.0133536

> <i_epik_Tot_Q>
0

> <i_epik_Tot_abs_Q>
0

> <r_epik_Metal_State_Penalty>
0.0129828

> <b_epik_Metal_Only>
0

> <s_lp_Force_Field>
OPLS_2005

> <r_lp_Energy>
11.7103

> <b_lp_Chiralities_Consistent>
1

> <s_lp_Variant>
AV-unprocessed.smi:2438-1

> <Gold.Version>
5.8.1

> <Gold.Id.Protein>
6NUR|6NUR_protein|mol2

> <Gold.PLP.Fitness>
39.5219

> <Gold.PLP.PLP>
-28.8602

> <Gold.PLP.part.hbond>
-2.0118

> <Gold.PLP.part.metal>
0.0000

> <Gold.PLP.part.buried>
0.3782

> <Gold.PLP.part.nonpolar>
-33.8037

> <Gold.PLP.part.repulsive>
5.6534

> <Gold.PLP.ligand.clash>
0.0000

> <Gold.PLP.ligand.torsion>
0.5712

> <Gold.PLP.Chemscore.Hbond>
1.9760

> <Gold.PLP.Chemscore.CHOScore>
1.8435

> <Gold.PLP.Chemscore.Metal>
0.0000

> <Gold.PLP.Chemscore.Internal.Correction>
0.3456

> <Gold.Rescore>
     Score         DG    S(hbond)    S(metal)    S(lipo)     H(rot)  DE(clash)    DE(int)     intcor
      9.41     -15.35       1.93        0.00      57.59       1.30       2.73       3.21       ----

> <Gold.Chemscore.Fitness>
9.4069

> <Gold.Chemscore.DG>
-15.3542

> <Gold.Chemscore.ZeroCoef>
-5.4800

> <Gold.Chemscore.Hbond>
1.9344

> <Gold.Chemscore.Metal>
0.0000

> <Gold.Chemscore.Lipo>
57.5880

> <Gold.Chemscore.Internal_Hbond>
0.0000

> <Gold.Chemscore.DEClash>
2.7348

> <Gold.Chemscore.DEInternal>
3.2125

> <Gold.Chemscore.Rot>
1.2987

> <Gold.Chemscore.Internal.Correction>
   9.000000E+99

> <Gold.Chemscore.Hbond.Weighted>
-6.4609

> <Gold.Chemscore.Metal.Weighted>
-0.0000

> <Gold.Chemscore.Lipo.Weighted>
-6.7378

> <Gold.Chemscore.Internal_Hbond.Weighted>
0.0000

> <Gold.Chemscore.DEClash.Weighted>
2.7348

> <Gold.Chemscore.DEInternal.Weighted>
3.2125

> <Gold.Chemscore.Rot.Weighted>
3.3246

> <Gold.Chemscore.Internal.Correction.Weighted>
   9.000000E+99

> <Gold.Protein.RotatedTorsions>
[ 6907 6896 6895 6894 ] final  133.37 input  -60.11 | X-H torsion
[ 7974 7965 7964 7962 ] final  -75.49 input  175.53 | X-H torsion
[ 8008 7997 7996 7995 ] final   43.43 input   59.86 | X-H torsion
[ 10167 10162 10161 10158 ] final -107.84 input  -65.29 | X-H torsion
[ 10718 10713 10712 10709 ] final   49.66 input   66.30 | X-H torsion
[ 10763 10752 10751 10750 ] final  110.04 input  -60.55 | X-H torsion
[ 11005 11000 10999 10996 ] final -120.06 input  -57.11 | X-H torsion

> <Gold.Protein.ActiveResidues>
 VAL166  LYS551  ARG553  GLY616  TRP617  ASP618  TYR619  PRO620  LYS621  CYS622 
 ASP623  PHE694  ASN695  SER759  ASP760  ASP761  ALA762  ILE779  LEU786  VAL792 
 PHE793  MET794  SER795  GLU796  ALA797  LYS798  CYS799  TRP800  GLU811  SER814 

> <Gold.Protein.RotatedAtoms>
  152.3226  133.5870  159.5754 H   0  0  0  0  0  0  0  0  0  0  0  0  # atno 6907 bound_to 6896
  150.7379  133.9988  159.3640 H   0  0  0  0  0  0  0  0  0  0  0  0  # atno 6908 bound_to 6896
  151.7871  135.0746  160.0433 H   0  0  0  0  0  0  0  0  0  0  0  0  # atno 6909 bound_to 6896
  145.6253  140.9352  143.1116 H   0  0  0  0  0  0  0  0  0  0  0  0  # atno 7974 bound_to 7965
  155.3026  140.3386  155.4247 H   0  0  0  0  0  0  0  0  0  0  0  0  # atno 8008 bound_to 7997
  156.1994  140.1727  156.7970 H   0  0  0  0  0  0  0  0  0  0  0  0  # atno 8009 bound_to 7997
  154.5539  140.0700  156.8697 H   0  0  0  0  0  0  0  0  0  0  0  0  # atno 8010 bound_to 7997
  140.1726  143.4031  152.1343 H   0  0  0  0  0  0  0  0  0  0  0  0  # atno 10167 bound_to 10162
  157.4808  130.8314  149.8091 H   0  0  0  0  0  0  0  0  0  0  0  0  # atno 10718 bound_to 10713
  153.4434  135.3761  155.2241 H   0  0  0  0  0  0  0  0  0  0  0  0  # atno 10763 bound_to 10752
  154.8754  135.3868  154.4126 H   0  0  0  0  0  0  0  0  0  0  0  0  # atno 10764 bound_to 10752
  153.4674  135.7087  153.6077 H   0  0  0  0  0  0  0  0  0  0  0  0  # atno 10765 bound_to 10752
  141.0171  134.0179  157.3334 H   0  0  0  0  0  0  0  0  0  0  0  0  # atno 11005 bound_to 11000
  144.7215  139.8015  143.7380 LP  0  0  0  0  0  0  0  0  0  0  0  0  # atno 17320 bound_to 7965
  146.1399  139.4454  143.0115 LP  0  0  0  0  0  0  0  0  0  0  0  0  # atno 17321 bound_to 7965
  139.5331  144.7181  151.4986 LP  0  0  0  0  0  0  0  0  0  0  0  0  # atno 17342 bound_to 10162
  140.6572  143.8574  150.6848 LP  0  0  0  0  0  0  0  0  0  0  0  0  # atno 17343 bound_to 10162
  156.0121  130.3829  150.2231 LP  0  0  0  0  0  0  0  0  0  0  0  0  # atno 17370 bound_to 10713
  157.0417  131.0037  151.3281 LP  0  0  0  0  0  0  0  0  0  0  0  0  # atno 17371 bound_to 10713
  139.9123  135.0192  156.7744 LP  0  0  0  0  0  0  0  0  0  0  0  0  # atno 17394 bound_to 11000
  140.6636  133.9623  155.7818 LP  0  0  0  0  0  0  0  0  0  0  0  0  # atno 17395 bound_to 11000

$$$$
