AV-unprocessed.smi:1470|AV-procd|sdf|5960|dock8
  -GOLD-   22720 6 43D 1   1.00000     0.00000
 Structure written by MMmdl.
 42 43  0  0  0  0  0  0  0  0  1 V2000
  144.7824  134.8119  150.7628 C   0  0  0  0  0  0  0  0  0  0  0  0
  145.4964  136.0272  150.6243 O   0  0  0  0  0  0  0  0  0  0  0  0
  145.5574  136.7663  151.8329 C   0  0  0  0  0  0  0  0  0  0  0  0
  146.1868  138.1430  151.5709 C   0  0  0  0  0  0  0  0  0  0  0  0
  147.4626  138.2949  152.2623 N   0  0  0  0  0  0  0  0  0  0  0  0
  147.7041  139.1627  153.2552 C   0  0  0  0  0  0  0  0  0  0  0  0
  146.8544  139.9257  153.7143 O   0  0  0  0  0  0  0  0  0  0  0  0
  148.9733  139.0670  153.6867 N   0  0  0  0  0  0  0  0  0  0  0  0
  149.6253  139.8541  154.6732 C   0  0  0  0  0  0  0  0  0  0  0  0
  150.9230  139.4822  155.0734 C   0  0  0  0  0  0  0  0  0  0  0  0
  151.5972  140.2620  156.0320 C   0  0  0  0  0  0  0  0  0  0  0  0
  150.9584  141.4071  156.5631 C   0  0  0  0  0  0  0  0  0  0  0  0
  151.6159  142.2045  157.5253 N   0  0  0  0  0  0  0  0  0  0  0  0
  151.3660  143.6484  157.4974 C   0  0  0  0  0  0  0  0  0  0  0  0
  152.4170  144.4117  158.3212 C   0  0  0  0  0  0  0  0  0  0  0  0
  152.5085  143.8558  159.7497 C   0  0  0  0  0  0  0  0  0  0  0  0
  152.7800  142.3448  159.7076 C   0  0  0  0  0  0  0  0  0  0  0  0
  151.7223  141.6153  158.8618 C   0  0  0  0  0  0  0  0  0  0  0  0
  149.7168  141.7754  156.1623 N   0  0  0  0  0  0  0  0  0  0  0  0
  149.0720  141.0234  155.2457 C   0  0  0  0  0  0  0  0  0  0  0  0
  144.7678  134.2860  149.8082 H   0  0  0  0  0  0  0  0  0  0  0  0
  143.7497  134.9930  151.0635 H   0  0  0  0  0  0  0  0  0  0  0  0
  145.2532  134.1597  151.4995 H   0  0  0  0  0  0  0  0  0  0  0  0
  144.5478  136.8984  152.2249 H   0  0  0  0  0  0  0  0  0  0  0  0
  146.1303  136.2236  152.5868 H   0  0  0  0  0  0  0  0  0  0  0  0
  146.2941  138.3216  150.4997 H   0  0  0  0  0  0  0  0  0  0  0  0
  145.5197  138.9195  151.9455 H   0  0  0  0  0  0  0  0  0  0  0  0
  148.2195  137.7022  151.9544 H   0  0  0  0  0  0  0  0  0  0  0  0
  149.5258  138.3216  153.2893 H   0  0  0  0  0  0  0  0  0  0  0  0
  151.4002  138.6087  154.6536 H   0  0  0  0  0  0  0  0  0  0  0  0
  152.5960  139.9850  156.3351 H   0  0  0  0  0  0  0  0  0  0  0  0
  151.3871  144.0143  156.4700 H   0  0  0  0  0  0  0  0  0  0  0  0
  150.3678  143.8464  157.8910 H   0  0  0  0  0  0  0  0  0  0  0  0
  153.3903  144.3301  157.8354 H   0  0  0  0  0  0  0  0  0  0  0  0
  152.1710  145.4735  158.3464 H   0  0  0  0  0  0  0  0  0  0  0  0
  153.2968  144.3658  160.3041 H   0  0  0  0  0  0  0  0  0  0  0  0
  151.5757  144.0482  160.2810 H   0  0  0  0  0  0  0  0  0  0  0  0
  153.7703  142.1635  159.2874 H   0  0  0  0  0  0  0  0  0  0  0  0
  152.7936  141.9387  160.7192 H   0  0  0  0  0  0  0  0  0  0  0  0
  150.7484  141.6824  159.3483 H   0  0  0  0  0  0  0  0  0  0  0  0
  151.9746  140.5567  158.8177 H   0  0  0  0  0  0  0  0  0  0  0  0
  148.1010  141.3954  154.9580 H   0  0  0  0  0  0  0  0  0  0  0  0
  1  2  1  0  0  0  0
  1 21  1  0  0  0  0
  1 22  1  0  0  0  0
  1 23  1  0  0  0  0
  2  3  1  0  0  0  0
  3  4  1  0  0  0  0
  3 24  1  0  0  0  0
  3 25  1  0  0  0  0
  4  5  1  0  0  0  0
  4 26  1  0  0  0  0
  4 27  1  0  0  0  0
  5  6  1  0  0  0  0
  5 28  1  0  0  0  0
  6  7  2  0  0  0  0
  6  8  1  0  0  0  0
  8  9  1  0  0  0  0
  8 29  1  0  0  0  0
  9 20  1  0  0  0  0
  9 10  2  0  0  0  0
 10 11  1  0  0  0  0
 10 30  1  0  0  0  0
 11 12  2  0  0  0  0
 11 31  1  0  0  0  0
 12 13  1  0  0  0  0
 12 19  1  0  0  0  0
 13 18  1  0  0  0  0
 13 14  1  0  0  0  0
 14 15  1  0  0  0  0
 14 32  1  0  0  0  0
 14 33  1  0  0  0  0
 15 16  1  0  0  0  0
 15 34  1  0  0  0  0
 15 35  1  0  0  0  0
 16 17  1  0  0  0  0
 16 36  1  0  0  0  0
 16 37  1  0  0  0  0
 17 18  1  0  0  0  0
 17 38  1  0  0  0  0
 17 39  1  0  0  0  0
 18 40  1  0  0  0  0
 18 41  1  0  0  0  0
 19 20  2  0  0  0  0
 20 42  1  0  0  0  0
M  END
> <s_m_source_file>
AV-unprocessed.smi

> <i_m_source_file_index>
1470

> <i_lp_mmshare_version>
43012

> <i_f3d_flags>
0

> <s_epik_input>
W0NIM11PW0NIMl1bQ0gyXVtOSF1DKD1PKVtOSF1jMVtjSF1bY0hdYyhuW2NIXTEpTjJbQ0gyXVtDSDJdW0NIMl1bQ0gyXVtDSDJdMg==

> <s_epik_cmdline>
J2VwaWtfcHl0aG9uJywgJy1waCcsICc3LjAnLCAnLXRuJywgJzgnLCAnLW1hJywgJzIwMCcsICctbWV0YWxfYmluZGluZycsICctaW1hZScsICc8aW5maWxlLm1hZT4nLCAnLW9tYWUnLCAnPG91dGZpbGUubWFlPic=

> <r_lp_tautomer_probability>
1

> <r_epik_Ionization_Penalty>
0.104129

> <r_epik_Ionization_Penalty_Charging>
0

> <r_epik_Ionization_Penalty_Neutral>
0.104129

> <r_epik_State_Penalty>
0.0879167

> <r_epik_Charging_Adjusted_Penalty>
0.0879167

> <i_epik_Tot_Q>
0

> <i_epik_Tot_abs_Q>
0

> <r_epik_Metal_State_Penalty>
0.0753231

> <b_epik_Metal_Only>
0

> <s_lp_Force_Field>
OPLS_2005

> <r_lp_Energy>
19.434

> <b_lp_Chiralities_Consistent>
1

> <s_lp_Variant>
AV-unprocessed.smi:1470-1

> <Gold.Version>
5.8.1

> <Gold.Id.Protein>
6NUR|6NUR_protein|mol2

> <Gold.PLP.Fitness>
44.1879

> <Gold.PLP.PLP>
-42.5712

> <Gold.PLP.part.hbond>
-3.0007

> <Gold.PLP.part.metal>
0.0000

> <Gold.PLP.part.buried>
-0.4996

> <Gold.PLP.part.nonpolar>
-41.0476

> <Gold.PLP.part.repulsive>
0.7522

> <Gold.PLP.ligand.clash>
0.0000

> <Gold.PLP.ligand.torsion>
0.9125

> <Gold.PLP.Chemscore.Hbond>
1.0000

> <Gold.PLP.Chemscore.CHOScore>
0.0000

> <Gold.PLP.Chemscore.Metal>
0.0000

> <Gold.Chemscore.Hbonds>
donor molecule, donor type, donor heavy atom, donor atom, acceptor molecule, acceptor atom, score
      L1  H     5    28       P1  7948  1.00

> <Gold.PLP.Chemscore.Internal.Correction>
0.4417

> <Gold.Rescore>
     Score         DG    S(hbond)    S(metal)    S(lipo)     H(rot)  DE(clash)    DE(int)     intcor
     14.50     -16.85       0.99        0.00     104.00       1.61       0.29       2.06       ----

> <Gold.Chemscore.Fitness>
14.5025

> <Gold.Chemscore.DG>
-16.8490

> <Gold.Chemscore.ZeroCoef>
-5.4800

> <Gold.Chemscore.Hbond>
0.9937

> <Gold.Chemscore.Metal>
0.0000

> <Gold.Chemscore.Lipo>
103.9989

> <Gold.Chemscore.Internal_Hbond>
0.0000

> <Gold.Chemscore.DEClash>
0.2898

> <Gold.Chemscore.DEInternal>
2.0567

> <Gold.Chemscore.Rot>
1.6086

> <Gold.Chemscore.Internal.Correction>
   9.000000E+99

> <Gold.Chemscore.Hbonds>
donor molecule, donor type, donor heavy atom, donor atom, acceptor molecule, acceptor atom, score
      L1  H     5    28       P1  7948  0.96

> <Gold.Chemscore.Hbond.Weighted>
-3.3190

> <Gold.Chemscore.Metal.Weighted>
-0.0000

> <Gold.Chemscore.Lipo.Weighted>
-12.1679

> <Gold.Chemscore.Internal_Hbond.Weighted>
0.0000

> <Gold.Chemscore.DEClash.Weighted>
0.2898

> <Gold.Chemscore.DEInternal.Weighted>
2.0567

> <Gold.Chemscore.Rot.Weighted>
4.1179

> <Gold.Chemscore.Internal.Correction.Weighted>
   9.000000E+99

> <Gold.Protein.RotatedTorsions>
[ 6907 6896 6895 6894 ] final  -24.46 input  -60.11 | X-H torsion
[ 7974 7965 7964 7962 ] final -136.94 input  175.53 | X-H torsion
[ 8008 7997 7996 7995 ] final  171.35 input   59.86 | X-H torsion
[ 10167 10162 10161 10158 ] final -122.68 input  -65.29 | X-H torsion
[ 10718 10713 10712 10709 ] final    8.45 input   66.30 | X-H torsion
[ 10763 10752 10751 10750 ] final   -2.25 input  -60.55 | X-H torsion
[ 11005 11000 10999 10996 ] final  122.42 input  -57.11 | X-H torsion

> <Gold.Protein.ActiveResidues>
 VAL166  LYS551  ARG553  GLY616  TRP617  ASP618  TYR619  PRO620  LYS621  CYS622 
 ASP623  PHE694  ASN695  SER759  ASP760  ASP761  ALA762  ILE779  LEU786  VAL792 
 PHE793  MET794  SER795  GLU796  ALA797  LYS798  CYS799  TRP800  GLU811  SER814 

> <Gold.Protein.RotatedAtoms>
  151.1892  135.0395  159.8825 H   0  0  0  0  0  0  0  0  0  0  0  0  # atno 6907 bound_to 6896
  152.5440  134.0975  159.8313 H   0  0  0  0  0  0  0  0  0  0  0  0  # atno 6908 bound_to 6896
  151.1102  133.5132  159.2638 H   0  0  0  0  0  0  0  0  0  0  0  0  # atno 6909 bound_to 6896
  144.8884  140.6607  143.5161 H   0  0  0  0  0  0  0  0  0  0  0  0  # atno 7974 bound_to 7965
  156.1280  140.1514  156.9108 H   0  0  0  0  0  0  0  0  0  0  0  0  # atno 8008 bound_to 7997
  154.4886  140.0858  156.7584 H   0  0  0  0  0  0  0  0  0  0  0  0  # atno 8009 bound_to 7997
  155.4309  140.3427  155.4282 H   0  0  0  0  0  0  0  0  0  0  0  0  # atno 8010 bound_to 7997
  140.0116  143.5435  152.2260 H   0  0  0  0  0  0  0  0  0  0  0  0  # atno 10167 bound_to 10162
  156.9519  130.5900  149.5657 H   0  0  0  0  0  0  0  0  0  0  0  0  # atno 10718 bound_to 10713
  153.3555  135.6988  153.6754 H   0  0  0  0  0  0  0  0  0  0  0  0  # atno 10763 bound_to 10752
  153.5464  135.3562  155.2741 H   0  0  0  0  0  0  0  0  0  0  0  0  # atno 10764 bound_to 10752
  154.8660  135.4216  154.2800 H   0  0  0  0  0  0  0  0  0  0  0  0  # atno 10765 bound_to 10752
  139.9267  134.9641  156.8106 H   0  0  0  0  0  0  0  0  0  0  0  0  # atno 11005 bound_to 11000
  145.3827  139.1633  143.4272 LP  0  0  0  0  0  0  0  0  0  0  0  0  # atno 17320 bound_to 7965
  146.3039  140.3909  142.8694 LP  0  0  0  0  0  0  0  0  0  0  0  0  # atno 17321 bound_to 7965
  139.6201  144.7627  151.2760 LP  0  0  0  0  0  0  0  0  0  0  0  0  # atno 17342 bound_to 10162
  140.7379  143.6664  150.8119 LP  0  0  0  0  0  0  0  0  0  0  0  0  # atno 17343 bound_to 10162
  156.0359  130.5447  150.8652 LP  0  0  0  0  0  0  0  0  0  0  0  0  # atno 17370 bound_to 10713
  157.5716  131.0946  150.9408 LP  0  0  0  0  0  0  0  0  0  0  0  0  # atno 17371 bound_to 10713
  140.6315  133.9901  155.7664 LP  0  0  0  0  0  0  0  0  0  0  0  0  # atno 17394 bound_to 11000
  141.0830  134.0034  157.3357 LP  0  0  0  0  0  0  0  0  0  0  0  0  # atno 17395 bound_to 11000

$$$$
