AV-unprocessed.smi:1718|AV-procd|sdf|6926|dock9
  -GOLD-   22720 8133D 1   1.00000     0.00000
 Structure written by MMmdl.
 39 40  0  0  0  0  0  0  0  0  2 V2000
  150.5736  138.9109  154.3988 C   0  0  0  0  0  0  0  0  0  0  0  0
  151.2901  138.0274  155.4314 C   0  0  2  0  0  0  0  0  0  0  0  0
  150.2895  137.3092  156.1487 O   0  0  0  0  0  0  0  0  0  0  0  0
  149.4868  136.4271  155.3698 C   0  0  0  0  0  0  0  0  0  0  0  0
  150.2108  135.0841  155.2057 C   0  0  2  0  0  0  0  0  0  0  0  0
  149.4332  134.0125  154.4260 C   0  0  0  0  0  0  0  0  0  0  0  0
  149.5201  132.7776  155.3097 C   0  0  0  0  0  0  0  0  0  0  0  0
  150.6427  133.1146  156.2843 C   0  0  0  0  0  0  0  0  0  0  0  0
  150.4902  134.5105  156.4762 O   0  0  0  0  0  0  0  0  0  0  0  0
  152.1460  138.8649  156.3962 C   0  0  0  0  0  0  0  0  0  0  0  0
  153.3671  138.7122  156.4093 O   0  0  0  0  0  0  0  0  0  0  0  0
  151.4607  139.7483  157.1487 N   0  0  0  0  0  0  0  0  0  0  0  0
  151.9220  140.6777  158.0969 C   0  0  0  0  0  0  0  0  0  0  0  0
  151.6642  142.0150  158.0736 C   0  0  0  0  0  0  0  0  0  0  0  0
  152.1780  142.9263  159.0887 C   0  0  0  0  0  0  0  0  0  0  0  0
  151.8269  144.4022  159.1524 C   0  0  0  0  0  0  0  0  0  0  0  0
  150.5064  144.5832  159.1144 F   0  0  0  0  0  0  0  0  0  0  0  0
  152.2855  144.9289  160.2870 F   0  0  0  0  0  0  0  0  0  0  0  0
  152.3720  145.0684  158.1344 F   0  0  0  0  0  0  0  0  0  0  0  0
  152.9279  142.2742  160.0479 C   0  0  0  0  0  0  0  0  0  0  0  0
  153.2534  140.9655  160.1287 N   0  5  0  0  0  0  0  0  0  0  0  0
  152.7661  140.1222  159.1754 C   0  0  0  0  0  0  0  0  0  0  0  0
  153.0151  138.9161  159.1951 O   0  0  0  0  0  0  0  0  0  0  0  0
  151.2843  139.5068  153.8249 H   0  0  0  0  0  0  0  0  0  0  0  0
  149.8682  139.5937  154.8740 H   0  0  0  0  0  0  0  0  0  0  0  0
  150.0118  138.2989  153.6929 H   0  0  0  0  0  0  0  0  0  0  0  0
  151.9240  137.3209  154.8917 H   0  0  0  0  0  0  0  0  0  0  0  0
  148.5286  136.2668  155.8657 H   0  0  0  0  0  0  0  0  0  0  0  0
  149.2779  136.8472  154.3855 H   0  0  0  0  0  0  0  0  0  0  0  0
  151.1687  135.2532  154.7107 H   0  0  0  0  0  0  0  0  0  0  0  0
  148.3935  134.2883  154.2462 H   0  0  0  0  0  0  0  0  0  0  0  0
  149.8998  133.8365  153.4561 H   0  0  0  0  0  0  0  0  0  0  0  0
  148.5851  132.6516  155.8571 H   0  0  0  0  0  0  0  0  0  0  0  0
  149.7091  131.8627  154.7474 H   0  0  0  0  0  0  0  0  0  0  0  0
  150.5650  132.5669  157.2239 H   0  0  0  0  0  0  0  0  0  0  0  0
  151.6194  132.9094  155.8430 H   0  0  0  0  0  0  0  0  0  0  0  0
  150.4650  139.7882  156.9862 H   0  0  0  0  0  0  0  0  0  0  0  0
  151.0763  142.4549  157.2860 H   0  0  0  0  0  0  0  0  0  0  0  0
  153.3207  142.8972  160.8795 H   0  0  0  0  0  0  0  0  0  0  0  0
  1  2  1  0  0  0  0
  1 24  1  0  0  0  0
  1 25  1  0  0  0  0
  1 26  1  0  0  0  0
  2  3  1  0  0  0  0
  2 10  1  0  0  0  0
  2 27  1  0  0  0  0
  3  4  1  0  0  0  0
  4  5  1  0  0  0  0
  4 28  1  0  0  0  0
  4 29  1  0  0  0  0
  5  9  1  0  0  0  0
  5  6  1  0  0  0  0
  5 30  1  0  0  0  0
  6  7  1  0  0  0  0
  6 31  1  0  0  0  0
  6 32  1  0  0  0  0
  7  8  1  0  0  0  0
  7 33  1  0  0  0  0
  7 34  1  0  0  0  0
  8  9  1  0  0  0  0
  8 35  1  0  0  0  0
  8 36  1  0  0  0  0
 10 11  2  0  0  0  0
 10 12  1  0  0  0  0
 12 13  1  0  0  0  0
 12 37  1  0  0  0  0
 13 22  1  0  0  0  0
 13 14  2  0  0  0  0
 14 15  1  0  0  0  0
 14 38  1  0  0  0  0
 15 16  1  0  0  0  0
 15 20  2  0  0  0  0
 16 17  1  0  0  0  0
 16 18  1  0  0  0  0
 16 19  1  0  0  0  0
 20 21  1  0  0  0  0
 20 39  1  0  0  0  0
 21 22  1  0  0  0  0
 22 23  2  0  0  0  0
M  CHG  1  21  -1
M  END
> <s_m_source_file>
AV-unprocessed.smi

> <i_m_source_file_index>
1718

> <i_lp_mmshare_version>
43012

> <i_f3d_flags>
0

> <s_epik_input>
TzFbQ0gyXVtDSDJdW0NIMl1bQ0BIXTFbQ0gyXU9bQ0BASF0oW0NIM10pQyg9TylbTkhdYzJbY0hdYyhDKEYpKEYpRilbY0hdW25IXWMyPU8=

> <s_epik_cmdline>
J2VwaWtfcHl0aG9uJywgJy1waCcsICc3LjAnLCAnLXRuJywgJzgnLCAnLW1hJywgJzIwMCcsICctbWV0YWxfYmluZGluZycsICctaW1hZScsICc8aW5maWxlLm1hZT4nLCAnLW9tYWUnLCAnPG91dGZpbGUubWFlPic=

> <r_epik_Ionization_Penalty>
2.5466

> <r_epik_Ionization_Penalty_Charging>
0.0575837

> <r_epik_Ionization_Penalty_Neutral>
2.48901

> <r_epik_State_Penalty>
2.6532

> <r_epik_Charging_Adjusted_Penalty>
2.71078

> <i_epik_Tot_Q>
-1

> <i_epik_Tot_abs_Q>
1

> <r_epik_Metal_State_Penalty>
0.516196

> <b_epik_Metal_Only>
0

> <s_lp_Force_Field>
OPLS_2005

> <r_lp_Energy>
37.3435

> <b_lp_Chiralities_Consistent>
1

> <s_lp_Variant>
AV-unprocessed.smi:1718-5

> <Gold.Version>
5.8.1

> <Gold.Id.Protein>
6NUR|6NUR_protein|mol2

> <Gold.PLP.Fitness>
47.0291

> <Gold.PLP.PLP>
-45.8817

> <Gold.PLP.part.hbond>
-1.0000

> <Gold.PLP.part.metal>
0.0000

> <Gold.PLP.part.buried>
-7.8429

> <Gold.PLP.part.nonpolar>
-37.3332

> <Gold.PLP.part.repulsive>
0.0964

> <Gold.PLP.ligand.clash>
0.2995

> <Gold.PLP.ligand.torsion>
0.7825

> <Gold.PLP.Chemscore.Hbond>
0.9600

> <Gold.PLP.Chemscore.CHOScore>
0.0000

> <Gold.PLP.Chemscore.Metal>
0.0000

> <Gold.Chemscore.Hbonds>
donor molecule, donor type, donor heavy atom, donor atom, acceptor molecule, acceptor atom, score
      P1  H  7997  8010       L1    11  0.94

> <Gold.PLP.Chemscore.Internal.Correction>
0.1319

> <Gold.Rescore>
     Score         DG    S(hbond)    S(metal)    S(lipo)     H(rot)  DE(clash)    DE(int)     intcor
     10.61     -14.47       0.97        0.00      89.57       1.85       0.72       3.14       ----

> <Gold.Chemscore.Fitness>
10.6143

> <Gold.Chemscore.DG>
-14.4727

> <Gold.Chemscore.ZeroCoef>
-5.4800

> <Gold.Chemscore.Hbond>
0.9693

> <Gold.Chemscore.Metal>
0.0000

> <Gold.Chemscore.Lipo>
89.5706

> <Gold.Chemscore.Internal_Hbond>
0.0000

> <Gold.Chemscore.DEClash>
0.7156

> <Gold.Chemscore.DEInternal>
3.1428

> <Gold.Chemscore.Rot>
1.8455

> <Gold.Chemscore.Internal.Correction>
   9.000000E+99

> <Gold.Chemscore.Hbonds>
donor molecule, donor type, donor heavy atom, donor atom, acceptor molecule, acceptor atom, score
      P1  H  7997  8010       L1    11  0.88

> <Gold.Chemscore.Hbond.Weighted>
-3.2375

> <Gold.Chemscore.Metal.Weighted>
-0.0000

> <Gold.Chemscore.Lipo.Weighted>
-10.4798

> <Gold.Chemscore.Internal_Hbond.Weighted>
0.0000

> <Gold.Chemscore.DEClash.Weighted>
0.7156

> <Gold.Chemscore.DEInternal.Weighted>
3.1428

> <Gold.Chemscore.Rot.Weighted>
4.7245

> <Gold.Chemscore.Internal.Correction.Weighted>
   9.000000E+99

> <Gold.Protein.RotatedTorsions>
[ 6907 6896 6895 6894 ] final   46.55 input  -60.11 | X-H torsion
[ 7974 7965 7964 7962 ] final    6.87 input  175.53 | X-H torsion
[ 8008 7997 7996 7995 ] final   77.37 input   59.86 | X-H torsion
[ 10167 10162 10161 10158 ] final -113.81 input  -65.29 | X-H torsion
[ 10718 10713 10712 10709 ] final  -41.84 input   66.30 | X-H torsion
[ 10763 10752 10751 10750 ] final   96.80 input  -60.55 | X-H torsion
[ 11005 11000 10999 10996 ] final  -52.31 input  -57.11 | X-H torsion

> <Gold.Protein.ActiveResidues>
 VAL166  LYS551  ARG553  GLY616  TRP617  ASP618  TYR619  PRO620  LYS621  CYS622 
 ASP623  PHE694  ASN695  SER759  ASP760  ASP761  ALA762  ILE779  LEU786  VAL792 
 PHE793  MET794  SER795  GLU796  ALA797  LYS798  CYS799  TRP800  GLU811  SER814 

> <Gold.Protein.RotatedAtoms>
  152.2577  134.8067  160.0435 H   0  0  0  0  0  0  0  0  0  0  0  0  # atno 6907 bound_to 6896
  151.8725  133.3473  159.3747 H   0  0  0  0  0  0  0  0  0  0  0  0  # atno 6908 bound_to 6896
  150.7105  134.5026  159.5613 H   0  0  0  0  0  0  0  0  0  0  0  0  # atno 6909 bound_to 6896
  146.2431  140.0168  142.8401 H   0  0  0  0  0  0  0  0  0  0  0  0  # atno 7974 bound_to 7965
  155.8407  140.3462  155.5630 H   0  0  0  0  0  0  0  0  0  0  0  0  # atno 8008 bound_to 7997
  155.8144  140.0903  157.1905 H   0  0  0  0  0  0  0  0  0  0  0  0  # atno 8009 bound_to 7997
  154.4005  140.1442  156.3412 H   0  0  0  0  0  0  0  0  0  0  0  0  # atno 8010 bound_to 7997
  140.1078  143.4555  152.1772 H   0  0  0  0  0  0  0  0  0  0  0  0  # atno 10167 bound_to 10162
  156.2660  130.4202  149.8490 H   0  0  0  0  0  0  0  0  0  0  0  0  # atno 10718 bound_to 10713
  153.2692  135.4206  155.0971 H   0  0  0  0  0  0  0  0  0  0  0  0  # atno 10763 bound_to 10752
  154.8450  135.3468  154.6268 H   0  0  0  0  0  0  0  0  0  0  0  0  # atno 10764 bound_to 10752
  153.6688  135.7044  153.5211 H   0  0  0  0  0  0  0  0  0  0  0  0  # atno 10765 bound_to 10752
  141.0918  133.6631  156.4006 H   0  0  0  0  0  0  0  0  0  0  0  0  # atno 11005 bound_to 11000
  145.1277  140.9500  143.4563 LP  0  0  0  0  0  0  0  0  0  0  0  0  # atno 17320 bound_to 7965
  145.0418  139.3254  143.5973 LP  0  0  0  0  0  0  0  0  0  0  0  0  # atno 17321 bound_to 7965
  139.5636  144.7421  151.4086 LP  0  0  0  0  0  0  0  0  0  0  0  0  # atno 17342 bound_to 10162
  140.6943  143.7788  150.7302 LP  0  0  0  0  0  0  0  0  0  0  0  0  # atno 17343 bound_to 10162
  156.5988  130.8538  151.3427 LP  0  0  0  0  0  0  0  0  0  0  0  0  # atno 17370 bound_to 10713
  157.7267  130.9633  150.1668 LP  0  0  0  0  0  0  0  0  0  0  0  0  # atno 17371 bound_to 10713
  140.5235  134.6282  157.5326 LP  0  0  0  0  0  0  0  0  0  0  0  0  # atno 17394 bound_to 11000
  139.9745  134.7238  155.9976 LP  0  0  0  0  0  0  0  0  0  0  0  0  # atno 17395 bound_to 11000

$$$$
