#       Name:                AV-unprocessed.smi:1725
#       Creating user name   scv26
#       Creation time:       Fri Mar 27 08:16:34 2020


#       File generated by GOLD software.
#

@<TRIPOS>MOLECULE
AV-unprocessed.smi:1725
    42    43     1
SMALL
NO_CHARGES


@<TRIPOS>ATOM
      1 ****        -0.3592  -2.7843   2.1374 C.3            1 S1                 0.0000
      2 ****         0.0821  -1.9829   0.9038 C.3            1 S1                 0.0000
      3 ****         1.5068  -1.9694   0.8892 O.3            1 S1                 0.0000
      4 ****         2.0976  -1.5545  -0.3359 C.3            1 S1                 0.0000
      5 ****         3.6025  -1.6399  -0.2028 C.3            1 S1                 0.0000
      6 ****         4.4736  -1.7511  -1.4333 C.3            1 S1                 0.0000
      7 ****         4.3332  -2.9291  -0.5029 C.3            1 S1                 0.0000
      8 ****        -0.4631  -0.5461   0.9462 C.2            1 S1                 0.0000
      9 ****        -0.2449   0.1526   1.9356 O.2            1 S1                 0.0000
     10 ****        -1.1324  -0.1486  -0.1544 N.am           1 S1                 0.0000
     11 ****        -1.7596   1.0787  -0.4296 C.2            1 S1                 0.0000
     12 ****        -2.0352   2.0389   0.4916 C.2            1 S1                 0.0000
     13 ****        -2.6995   3.2807   0.1369 C.2            1 S1                 0.0000
     14 ****        -2.9767   4.3433   1.1882 C.3            1 S1                 0.0000
     15 ****        -3.5516   5.4253   0.6613 F              1 S1                 0.0000
     16 ****        -3.7841   3.8554   2.1292 F              1 S1                 0.0000
     17 ****        -1.8400   4.7162   1.7753 F              1 S1                 0.0000
     18 ****        -3.0420   3.4325  -1.1559 C.2            1 S1                 0.0000
     19 ****        -2.7723   2.4464  -2.1073 N.am           1 S1                 0.0000
     20 ****        -2.1526   1.2760  -1.8351 C.2            1 S1                 0.0000
     21 ****        -1.9507   0.4575  -2.7314 O.2            1 S1                 0.0000
     22 ****        -3.0642   2.6324  -3.0562 H              1 S1                 0.0000
     23 ****        -1.4460  -2.8220   2.2180 H              1 S1                 0.0000
     24 ****         0.0313  -2.3515   3.0592 H              1 S1                 0.0000
     25 ****         0.0014  -3.8114   2.0789 H              1 S1                 0.0000
     26 ****        -0.2855  -2.4969   0.0133 H              1 S1                 0.0000
     27 ****         1.7625  -2.1923  -1.1553 H              1 S1                 0.0000
     28 ****         1.8293  -0.5264  -0.5801 H              1 S1                 0.0000
     29 ****         4.0057  -1.0385   0.6099 H              1 S1                 0.0000
     30 ****         3.9796  -1.8149  -2.4008 H              1 S1                 0.0000
     31 ****         5.4208  -1.2158  -1.4281 H              1 S1                 0.0000
     32 ****         5.1854  -3.1794   0.1258 H              1 S1                 0.0000
     33 ****         3.7455  -3.7765  -0.8504 H              1 S1                 0.0000
     34 ****        -1.1740  -0.8161  -0.9114 H              1 S1                 0.0000
     35 ****        -1.7854   1.9088   1.5315 H              1 S1                 0.0000
     36 ****        -3.5388   4.3026  -1.5592 H              1 S1                 0.0000
     37 ****         1.8267  -2.8957   1.0884 LP             1 S1                 0.0000
     38 ****         1.8173  -1.3476   1.6082 LP             1 S1                 0.0000
     39 ****         0.2823  -0.2157   2.7013 LP             1 S1                 0.0000
     40 ****        -0.5948   1.0886   1.9737 LP             1 S1                 0.0000
     41 ****        -1.4926  -0.4071  -2.5251 LP             1 S1                 0.0000
     42 ****        -2.2447   0.6569  -3.6662 LP             1 S1                 0.0000
@<TRIPOS>BOND
    1    1    2 1     
    2    1   23 1     
    3    1   24 1     
    4    1   25 1     
    5    2    3 1     
    6    2    8 1     
    7    2   26 1     
    8    3    4 1     
    9    4    5 1     
   10    4   27 1     
   11    4   28 1     
   12    5    7 1     
   13    5    6 1     
   14    5   29 1     
   15    6    7 1     
   16    6   30 1     
   17    6   31 1     
   18    7   32 1     
   19    7   33 1     
   20    8    9 2     
   21    8   10 am    
   22   10   11 1     
   23   10   34 1     
   24   11   20 1     
   25   11   12 2     
   26   12   13 1     
   27   12   35 1     
   28   13   14 1     
   29   13   18 2     
   30   14   15 1     
   31   14   16 1     
   32   14   17 1     
   33   18   19 1     
   34   18   36 1     
   35   19   22 1     
   36   19   20 am    
   37   20   21 2     
   38    3   37 1     
   39    3   38 1     
   40    9   39 1     
   41    9   40 1     
   42   21   41 1     
   43   21   42 1     
@<TRIPOS>SUBSTRUCTURE
      1 S1             1
@<TRIPOS>SET
LONE_PAIRS      STATIC     ATOMS    <user>   **** ""
6 37 38 39 40 41 42
DONOR_HYDROGENS      STATIC     ATOMS    <user>   **** ""
2 34 22
ATOM$BLUE        STATIC     ATOMS    COLORGROUP SYSTEM
6 37 38 39 40 41 42
ATOM$RED        STATIC     ATOMS    COLORGROUP SYSTEM
2 34 22
