AV-unprocessed.smi:3056|AV-procd|sdf|11651|dock3
  -GOLD-   2272017 53D 1   1.00000     0.00000
 Structure written by MMmdl.
 48 49  0  0  0  0  0  0  0  0  2 V2000
  144.6986  132.2645  150.3351 C   0  0  0  0  0  0  0  0  0  0  0  0
  144.2977  133.5635  150.9729 C   0  0  0  0  0  0  0  0  0  0  0  0
  144.6629  134.8810  150.5774 C   0  0  0  0  0  0  0  0  0  0  0  0
  144.1359  135.8137  151.3532 N   0  0  0  0  0  0  0  0  0  0  0  0
  143.4259  135.1319  152.2779 N   0  0  0  0  0  0  0  0  0  0  0  0
  142.6852  135.8644  153.3009 C   0  0  2  0  0  0  0  0  0  0  0  0
  141.2892  135.2551  153.5221 C   0  0  0  0  0  0  0  0  0  0  0  0
  142.6686  137.3972  153.0524 C   0  0  1  0  0  0  0  0  0  0  0  0
  141.5951  138.1163  153.8856 C   0  0  0  0  0  0  0  0  0  0  0  0
  143.9866  138.0142  153.3247 N   0  3  0  0  0  0  0  0  0  0  0  0
  144.3900  138.0398  154.7475 C   0  0  0  0  0  0  0  0  0  0  0  0
  145.8981  137.8176  154.9328 C   0  0  0  0  0  0  0  0  0  0  0  0
  146.3436  136.6718  154.8499 O   0  0  0  0  0  0  0  0  0  0  0  0
  146.6926  138.8870  155.1772 N   0  0  0  0  0  0  0  0  0  0  0  0
  148.1511  138.8638  155.3260 C   0  0  0  0  0  0  0  0  0  0  0  0
  148.7658  139.6675  154.1668 C   0  0  0  0  0  0  0  0  0  0  0  0
  148.2466  140.9952  154.1755 O   0  0  0  0  0  0  0  0  0  0  0  0
  146.8254  141.0524  154.0610 C   0  0  2  0  0  0  0  0  0  0  0  0
  146.4031  142.5253  154.0608 C   0  0  0  0  0  0  0  0  0  0  0  0
  146.1944  140.2642  155.2265 C   0  0  0  0  0  0  0  0  0  0  0  0
  143.5029  133.7689  152.0645 C   0  0  0  0  0  0  0  0  0  0  0  0
  145.0813  132.4099  149.3247 H   0  0  0  0  0  0  0  0  0  0  0  0
  143.8579  131.5744  150.2629 H   0  0  0  0  0  0  0  0  0  0  0  0
  145.4802  131.7621  150.9052 H   0  0  0  0  0  0  0  0  0  0  0  0
  145.2895  135.1853  149.7519 H   0  0  0  0  0  0  0  0  0  0  0  0
  143.2179  135.7137  154.2420 H   0  0  0  0  0  0  0  0  0  0  0  0
  140.7596  135.7696  154.3243 H   0  0  0  0  0  0  0  0  0  0  0  0
  141.3651  134.2041  153.8029 H   0  0  0  0  0  0  0  0  0  0  0  0
  140.6713  135.3099  152.6260 H   0  0  0  0  0  0  0  0  0  0  0  0
  142.4133  137.5667  152.0048 H   0  0  0  0  0  0  0  0  0  0  0  0
  140.6087  137.6863  153.7092 H   0  0  0  0  0  0  0  0  0  0  0  0
  141.5414  139.1737  153.6250 H   0  0  0  0  0  0  0  0  0  0  0  0
  141.7994  138.0519  154.9547 H   0  0  0  0  0  0  0  0  0  0  0  0
  144.6902  137.4935  152.8205 H   0  0  0  0  0  0  0  0  0  0  0  0
  144.1183  138.9992  155.1872 H   0  0  0  0  0  0  0  0  0  0  0  0
  143.8401  137.2600  155.2763 H   0  0  0  0  0  0  0  0  0  0  0  0
  148.4210  139.3194  156.2799 H   0  0  0  0  0  0  0  0  0  0  0  0
  148.5794  137.8633  155.3452 H   0  0  0  0  0  0  0  0  0  0  0  0
  149.8498  139.7128  154.2714 H   0  0  0  0  0  0  0  0  0  0  0  0
  148.5563  139.1908  153.2078 H   0  0  0  0  0  0  0  0  0  0  0  0
  146.5276  140.6045  153.1110 H   0  0  0  0  0  0  0  0  0  0  0  0
  145.3221  142.6238  153.9587 H   0  0  0  0  0  0  0  0  0  0  0  0
  146.8649  143.0633  153.2325 H   0  0  0  0  0  0  0  0  0  0  0  0
  146.6989  143.0207  154.9859 H   0  0  0  0  0  0  0  0  0  0  0  0
  145.1066  140.3231  155.1689 H   0  0  0  0  0  0  0  0  0  0  0  0
  146.4700  140.7128  156.1822 H   0  0  0  0  0  0  0  0  0  0  0  0
  142.9922  133.0602  152.6997 H   0  0  0  0  0  0  0  0  0  0  0  0
  143.9796  138.9589  152.9675 H   0  0  0  0  0  0  0  0  0  0  0  0
  1  2  1  0  0  0  0
  1 22  1  0  0  0  0
  1 23  1  0  0  0  0
  1 24  1  0  0  0  0
  2 21  2  0  0  0  0
  2  3  1  0  0  0  0
  3  4  2  0  0  0  0
  3 25  1  0  0  0  0
  4  5  1  0  0  0  0
  5  6  1  0  0  0  0
  5 21  1  0  0  0  0
  6  7  1  0  0  0  0
  6  8  1  0  0  0  0
  6 26  1  0  0  0  0
  7 27  1  0  0  0  0
  7 28  1  0  0  0  0
  7 29  1  0  0  0  0
  8  9  1  0  0  0  0
  8 10  1  0  0  0  0
  8 30  1  0  0  0  0
  9 31  1  0  0  0  0
  9 32  1  0  0  0  0
  9 33  1  0  0  0  0
 10 11  1  0  0  0  0
 10 34  1  0  0  0  0
 10 48  1  0  0  0  0
 11 12  1  0  0  0  0
 11 35  1  0  0  0  0
 11 36  1  0  0  0  0
 12 13  2  0  0  0  0
 12 14  1  0  0  0  0
 14 20  1  0  0  0  0
 14 15  1  0  0  0  0
 15 16  1  0  0  0  0
 15 37  1  0  0  0  0
 15 38  1  0  0  0  0
 16 17  1  0  0  0  0
 16 39  1  0  0  0  0
 16 40  1  0  0  0  0
 17 18  1  0  0  0  0
 18 19  1  0  0  0  0
 18 20  1  0  0  0  0
 18 41  1  0  0  0  0
 19 42  1  0  0  0  0
 19 43  1  0  0  0  0
 19 44  1  0  0  0  0
 20 45  1  0  0  0  0
 20 46  1  0  0  0  0
 21 47  1  0  0  0  0
M  CHG  1  10   1
M  END
> <s_m_source_file>
AV-unprocessed.smi

> <i_m_source_file_index>
3056

> <i_lp_mmshare_version>
43012

> <i_f3d_flags>
0

> <s_epik_input>
W0NIM11jMVtjSF1ubihbY0hdMSlbQ0BIXShbQ0gzXSlbQ0BIXShbQ0gzXSlbTkhdW0NIMl1DKD1PKU4yW0NIMl1bQ0gyXU9bQ0BASF0oW0NIM10pW0NIMl0y

> <s_epik_cmdline>
J2VwaWtfcHl0aG9uJywgJy1waCcsICc3LjAnLCAnLXRuJywgJzgnLCAnLW1hJywgJzIwMCcsICctbWV0YWxfYmluZGluZycsICctaW1hZScsICc8aW5maWxlLm1hZT4nLCAnLW9tYWUnLCAnPG91dGZpbGUubWFlPic=

> <r_lp_tautomer_probability>
1

> <r_epik_Ionization_Penalty>
0.233715

> <r_epik_Ionization_Penalty_Charging>
0.233698

> <r_epik_Ionization_Penalty_Neutral>
1.68157e-05

> <r_epik_State_Penalty>
0.225221

> <r_epik_Charging_Adjusted_Penalty>
0.458919

> <i_epik_Tot_Q>
1

> <i_epik_Tot_abs_Q>
1

> <r_epik_Metal_State_Penalty>
0.225535

> <b_epik_Metal_Only>
0

> <s_lp_Force_Field>
OPLS_2005

> <r_lp_Energy>
29.3518

> <b_lp_Chiralities_Consistent>
1

> <s_lp_Variant>
AV-unprocessed.smi:3056-7

> <Gold.Version>
5.8.1

> <Gold.Id.Protein>
6NUR|6NUR_protein|mol2

> <Gold.PLP.Fitness>
42.5979

> <Gold.PLP.PLP>
-32.7815

> <Gold.PLP.part.hbond>
-1.0000

> <Gold.PLP.part.metal>
0.0000

> <Gold.PLP.part.buried>
-5.8752

> <Gold.PLP.part.nonpolar>
-26.7227

> <Gold.PLP.part.repulsive>
0.4028

> <Gold.PLP.ligand.clash>
0.0000

> <Gold.PLP.ligand.torsion>
1.1754

> <Gold.PLP.Chemscore.Hbond>
2.0000

> <Gold.PLP.Chemscore.CHOScore>
2.0000

> <Gold.PLP.Chemscore.Metal>
0.0000

> <Gold.Chemscore.Hbonds>
donor molecule, donor type, donor heavy atom, donor atom, acceptor molecule, acceptor atom, score
      L1  H    10    48       P1 10175  2.00
      L1  C     3    25       P1  7921  1.00
      L1  C    21    47       P1 10957  1.00

> <Gold.PLP.Chemscore.Internal.Correction>
0.1672

> <Gold.Rescore>
     Score         DG    S(hbond)    S(metal)    S(lipo)     H(rot)  DE(clash)    DE(int)     intcor
     12.13     -13.20       1.00        0.00      75.45       1.74       0.14       0.93       ----

> <Gold.Chemscore.Fitness>
12.1326

> <Gold.Chemscore.DG>
-13.2049

> <Gold.Chemscore.ZeroCoef>
-5.4800

> <Gold.Chemscore.Hbond>
0.9999

> <Gold.Chemscore.Metal>
0.0000

> <Gold.Chemscore.Lipo>
75.4505

> <Gold.Chemscore.Internal_Hbond>
0.0000

> <Gold.Chemscore.DEClash>
0.1384

> <Gold.Chemscore.DEInternal>
0.9338

> <Gold.Chemscore.Rot>
1.7354

> <Gold.Chemscore.Internal.Correction>
   9.000000E+99

> <Gold.Chemscore.Hbonds>
donor molecule, donor type, donor heavy atom, donor atom, acceptor molecule, acceptor atom, score
      L1  H    10    48       P1 10175  0.99

> <Gold.Chemscore.Hbond.Weighted>
-3.3398

> <Gold.Chemscore.Metal.Weighted>
-0.0000

> <Gold.Chemscore.Lipo.Weighted>
-8.8277

> <Gold.Chemscore.Internal_Hbond.Weighted>
0.0000

> <Gold.Chemscore.DEClash.Weighted>
0.1384

> <Gold.Chemscore.DEInternal.Weighted>
0.9338

> <Gold.Chemscore.Rot.Weighted>
4.4426

> <Gold.Chemscore.Internal.Correction.Weighted>
   9.000000E+99

> <Gold.Protein.RotatedTorsions>
[ 6907 6896 6895 6894 ] final   56.80 input  -60.11 | X-H torsion
[ 7974 7965 7964 7962 ] final  -20.58 input  175.53 | X-H torsion
[ 8008 7997 7996 7995 ] final  -55.22 input   59.86 | X-H torsion
[ 10167 10162 10161 10158 ] final -120.92 input  -65.29 | X-H torsion
[ 10718 10713 10712 10709 ] final -162.13 input   66.30 | X-H torsion
[ 10763 10752 10751 10750 ] final   83.26 input  -60.55 | X-H torsion
[ 11005 11000 10999 10996 ] final -147.17 input  -57.11 | X-H torsion

> <Gold.Protein.ActiveResidues>
 VAL166  LYS551  ARG553  GLY616  TRP617  ASP618  TYR619  PRO620  LYS621  CYS622 
 ASP623  PHE694  ASN695  SER759  ASP760  ASP761  ALA762  ILE779  LEU786  VAL792 
 PHE793  MET794  SER795  GLU796  ALA797  LYS798  CYS799  TRP800  GLU811  SER814 

> <Gold.Protein.RotatedAtoms>
  152.3671  134.6789  160.0188 H   0  0  0  0  0  0  0  0  0  0  0  0  # atno 6907 bound_to 6896
  151.7093  133.3306  159.3295 H   0  0  0  0  0  0  0  0  0  0  0  0  # atno 6908 bound_to 6896
  150.7646  134.6481  159.6318 H   0  0  0  0  0  0  0  0  0  0  0  0  # atno 6909 bound_to 6896
  146.1780  140.4222  142.8506 H   0  0  0  0  0  0  0  0  0  0  0  0  # atno 7974 bound_to 7965
  154.4188  140.1158  156.5441 H   0  0  0  0  0  0  0  0  0  0  0  0  # atno 8008 bound_to 7997
  155.6477  140.3496  155.4718 H   0  0  0  0  0  0  0  0  0  0  0  0  # atno 8009 bound_to 7997
  155.9818  140.1162  157.0709 H   0  0  0  0  0  0  0  0  0  0  0  0  # atno 8010 bound_to 7997
  140.0306  143.5252  152.2178 H   0  0  0  0  0  0  0  0  0  0  0  0  # atno 10167 bound_to 10162
  156.6060  130.8830  151.2925 H   0  0  0  0  0  0  0  0  0  0  0  0  # atno 10718 bound_to 10713
  153.1275  135.4698  154.9295 H   0  0  0  0  0  0  0  0  0  0  0  0  # atno 10763 bound_to 10752
  154.7633  135.3137  154.8337 H   0  0  0  0  0  0  0  0  0  0  0  0  # atno 10764 bound_to 10752
  153.8887  135.6887  153.4816 H   0  0  0  0  0  0  0  0  0  0  0  0  # atno 10765 bound_to 10752
  140.7744  134.3152  157.5065 H   0  0  0  0  0  0  0  0  0  0  0  0  # atno 11005 bound_to 11000
  144.8268  140.6641  143.6317 LP  0  0  0  0  0  0  0  0  0  0  0  0  # atno 17320 bound_to 7965
  145.4156  139.1572  143.4102 LP  0  0  0  0  0  0  0  0  0  0  0  0  # atno 17321 bound_to 7965
  139.6078  144.7601  151.3021 LP  0  0  0  0  0  0  0  0  0  0  0  0  # atno 17342 bound_to 10162
  140.7303  143.6882  150.7944 LP  0  0  0  0  0  0  0  0  0  0  0  0  # atno 17343 bound_to 10162
  157.7267  130.9633  150.1667 LP  0  0  0  0  0  0  0  0  0  0  0  0  # atno 17370 bound_to 10713
  156.2429  130.3693  149.8317 LP  0  0  0  0  0  0  0  0  0  0  0  0  # atno 17371 bound_to 10713
  139.8751  134.9280  156.3440 LP  0  0  0  0  0  0  0  0  0  0  0  0  # atno 17394 bound_to 11000
  140.9543  133.7430  156.0314 LP  0  0  0  0  0  0  0  0  0  0  0  0  # atno 17395 bound_to 11000

$$$$
