AV-unprocessed.smi:2837|AV-procd|sdf|10924|dock3
  -GOLD-   2272015373D 1   1.00000     0.00000
 Structure written by MMmdl.
 33 35  0  0  0  0  0  0  0  0  2 V2000
  136.1195  137.6037  154.9952 F   0  0  0  0  0  0  0  0  0  0  0  0
  137.4683  137.7139  154.9362 C   0  0  0  0  0  0  0  0  0  0  0  0
  137.9906  136.7866  155.7760 F   0  0  0  0  0  0  0  0  0  0  0  0
  137.8911  137.4933  153.6629 O   0  0  0  0  0  0  0  0  0  0  0  0
  139.2389  137.5162  153.3834 C   0  0  0  0  0  0  0  0  0  0  0  0
  139.9480  136.2972  153.4128 C   0  0  0  0  0  0  0  0  0  0  0  0
  141.3329  136.2816  153.1482 C   0  0  0  0  0  0  0  0  0  0  0  0
  141.9993  137.4967  152.8623 C   0  0  0  0  0  0  0  0  0  0  0  0
  143.3695  137.6055  152.5873 N   0  0  0  0  0  0  0  0  0  0  0  0
  144.2370  136.4343  152.5756 C   0  0  2  0  0  0  0  0  0  0  0  0
  145.6352  136.7232  152.0121 C   0  0  0  0  0  0  0  0  0  0  0  0
  145.7363  135.7010  150.8731 C   0  0  1  0  0  0  0  0  0  0  0  0
  145.8317  134.2596  151.3912 C   0  0  0  0  0  0  0  0  0  0  0  0
  144.4040  134.0060  151.8739 C   0  0  0  0  0  0  0  0  0  0  0  0
  143.7323  135.3583  151.5990 C   0  0  2  0  0  0  0  0  0  0  0  0
  144.4008  135.7248  150.4028 O   0  0  0  0  0  0  0  0  0  0  0  0
  141.2870  138.6447  152.8518 N   0  3  0  0  0  0  0  0  0  0  0  0
  139.9602  138.7012  153.0996 C   0  0  0  0  0  0  0  0  0  0  0  0
  137.7362  138.7125  155.2825 H   0  0  0  0  0  0  0  0  0  0  0  0
  139.4307  135.3757  153.6362 H   0  0  0  0  0  0  0  0  0  0  0  0
  141.8605  135.3401  153.1710 H   0  0  0  0  0  0  0  0  0  0  0  0
  143.7956  138.5186  152.5150 H   0  0  0  0  0  0  0  0  0  0  0  0
  144.2862  136.0184  153.5827 H   0  0  0  0  0  0  0  0  0  0  0  0
  145.7085  137.7359  151.6123 H   0  0  0  0  0  0  0  0  0  0  0  0
  146.4232  136.5958  152.7550 H   0  0  0  0  0  0  0  0  0  0  0  0
  146.4825  135.9517  150.1186 H   0  0  0  0  0  0  0  0  0  0  0  0
  146.0899  133.5717  150.5851 H   0  0  0  0  0  0  0  0  0  0  0  0
  146.5734  134.1525  152.1835 H   0  0  0  0  0  0  0  0  0  0  0  0
  143.9371  133.2167  151.2835 H   0  0  0  0  0  0  0  0  0  0  0  0
  144.3550  133.7193  152.9249 H   0  0  0  0  0  0  0  0  0  0  0  0
  142.6468  135.2957  151.5130 H   0  0  0  0  0  0  0  0  0  0  0  0
  139.5284  139.6911  153.0682 H   0  0  0  0  0  0  0  0  0  0  0  0
  141.7760  139.5173  152.6499 H   0  0  0  0  0  0  0  0  0  0  0  0
  1  2  1  0  0  0  0
  2  3  1  0  0  0  0
  2  4  1  0  0  0  0
  2 19  1  0  0  0  0
  4  5  1  0  0  0  0
  5 18  1  0  0  0  0
  5  6  2  0  0  0  0
  6  7  1  0  0  0  0
  6 20  1  0  0  0  0
  7  8  2  0  0  0  0
  7 21  1  0  0  0  0
  8  9  1  0  0  0  0
  8 17  1  0  0  0  0
  9 10  1  0  0  0  0
  9 22  1  0  0  0  0
 10 15  1  0  0  0  0
 10 11  1  0  0  0  0
 10 23  1  0  0  0  0
 11 12  1  0  0  0  0
 11 24  1  0  0  0  0
 11 25  1  0  0  0  0
 12 16  1  0  0  0  0
 12 13  1  0  0  0  0
 12 26  1  0  0  0  0
 13 14  1  0  0  0  0
 13 27  1  0  0  0  0
 13 28  1  0  0  0  0
 14 15  1  0  0  0  0
 14 29  1  0  0  0  0
 14 30  1  0  0  0  0
 15 16  1  0  0  0  0
 15 31  1  0  0  0  0
 17 18  2  0  0  0  0
 17 33  1  0  0  0  0
 18 32  1  0  0  0  0
M  CHG  1  17   1
M  END
> <s_m_source_file>
AV-unprocessed.smi

> <i_m_source_file_index>
2837

> <i_lp_mmshare_version>
43012

> <i_f3d_flags>
0

> <s_epik_input>
RltDSF0oRilPYzFbY0hdW2NIXWMobltjSF0xKVtOSF1bQ0BIXShbQ0gyXVtDQEBIXTIzKVtDQEBIXShPMylbQ0gyXVtDSDJdMg==

> <s_epik_cmdline>
J2VwaWtfcHl0aG9uJywgJy1waCcsICc3LjAnLCAnLXRuJywgJzgnLCAnLW1hJywgJzIwMCcsICctbWV0YWxfYmluZGluZycsICctaW1hZScsICc8aW5maWxlLm1hZT4nLCAnLW9tYWUnLCAnPG91dGZpbGUubWFlPic=

> <r_lp_tautomer_probability>
0.999429

> <r_epik_Ionization_Penalty>
2.29716

> <r_epik_Ionization_Penalty_Charging>
2.29716

> <r_epik_Ionization_Penalty_Neutral>
1.42285e-06

> <r_epik_State_Penalty>
2.44762

> <r_epik_Charging_Adjusted_Penalty>
4.74478

> <i_epik_Tot_Q>
1

> <i_epik_Tot_abs_Q>
1

> <r_epik_Metal_State_Penalty>
6.53078

> <b_epik_Metal_Only>
0

> <s_lp_Force_Field>
OPLS_2005

> <r_lp_Energy>
46.2914

> <b_lp_Chiralities_Consistent>
1

> <s_lp_Variant>
AV-unprocessed.smi:2837-5

> <Gold.Version>
5.8.1

> <Gold.Id.Protein>
6NUR|6NUR_protein|mol2

> <Gold.PLP.Fitness>
45.4598

> <Gold.PLP.PLP>
-34.5574

> <Gold.PLP.part.hbond>
-4.0000

> <Gold.PLP.part.metal>
0.0000

> <Gold.PLP.part.buried>
-7.0227

> <Gold.PLP.part.nonpolar>
-25.3314

> <Gold.PLP.part.repulsive>
0.9975

> <Gold.PLP.ligand.clash>
0.0000

> <Gold.PLP.ligand.torsion>
0.4168

> <Gold.PLP.Chemscore.Hbond>
3.9040

> <Gold.PLP.Chemscore.CHOScore>
0.0000

> <Gold.PLP.Chemscore.Metal>
0.0000

> <Gold.Chemscore.Hbonds>
donor molecule, donor type, donor heavy atom, donor atom, acceptor molecule, acceptor atom, score
      L1  H     9    22       P1 10175  2.00
      L1  H    17    33       P1 10175  1.87

> <Gold.PLP.Chemscore.Internal.Correction>
0.0240

> <Gold.Rescore>
     Score         DG    S(hbond)    S(metal)    S(lipo)     H(rot)  DE(clash)    DE(int)     intcor
     13.53     -13.99       1.43        0.00      61.06       1.34       0.15       0.32       ----

> <Gold.Chemscore.Fitness>
13.5325

> <Gold.Chemscore.DG>
-13.9940

> <Gold.Chemscore.ZeroCoef>
-5.4800

> <Gold.Chemscore.Hbond>
1.4347

> <Gold.Chemscore.Metal>
0.0000

> <Gold.Chemscore.Lipo>
61.0624

> <Gold.Chemscore.Internal_Hbond>
0.0000

> <Gold.Chemscore.DEClash>
0.1460

> <Gold.Chemscore.DEInternal>
0.3154

> <Gold.Chemscore.Rot>
1.3368

> <Gold.Chemscore.Internal.Correction>
   9.000000E+99

> <Gold.Chemscore.Hbonds>
donor molecule, donor type, donor heavy atom, donor atom, acceptor molecule, acceptor atom, score
      L1  H     9    22       P1 10175  0.94
      L1  H    17    33       P1 10175  0.29

> <Gold.Chemscore.Hbond.Weighted>
-4.7920

> <Gold.Chemscore.Metal.Weighted>
-0.0000

> <Gold.Chemscore.Lipo.Weighted>
-7.1443

> <Gold.Chemscore.Internal_Hbond.Weighted>
0.0000

> <Gold.Chemscore.DEClash.Weighted>
0.1460

> <Gold.Chemscore.DEInternal.Weighted>
0.3154

> <Gold.Chemscore.Rot.Weighted>
3.4223

> <Gold.Chemscore.Internal.Correction.Weighted>
   9.000000E+99

> <Gold.Protein.RotatedTorsions>
[ 6907 6896 6895 6894 ] final   68.62 input  -60.11 | X-H torsion
[ 7974 7965 7964 7962 ] final -110.10 input  175.53 | X-H torsion
[ 8008 7997 7996 7995 ] final   99.04 input   59.86 | X-H torsion
[ 10167 10162 10161 10158 ] final   20.36 input  -65.29 | X-H torsion
[ 10718 10713 10712 10709 ] final  -93.01 input   66.30 | X-H torsion
[ 10763 10752 10751 10750 ] final   -3.70 input  -60.55 | X-H torsion
[ 11005 11000 10999 10996 ] final  -34.65 input  -57.11 | X-H torsion

> <Gold.Protein.ActiveResidues>
 VAL166  LYS551  ARG553  GLY616  TRP617  ASP618  TYR619  PRO620  LYS621  CYS622 
 ASP623  PHE694  ASN695  SER759  ASP760  ASP761  ALA762  ILE779  LEU786  VAL792 
 PHE793  MET794  SER795  GLU796  ALA797  LYS798  CYS799  TRP800  GLU811  SER814 

> <Gold.Protein.RotatedAtoms>
  152.4632  134.5135  159.9760 H   0  0  0  0  0  0  0  0  0  0  0  0  # atno 6907 bound_to 6896
  151.5179  133.3466  159.2904 H   0  0  0  0  0  0  0  0  0  0  0  0  # atno 6908 bound_to 6896
  150.8605  134.7984  159.7141 H   0  0  0  0  0  0  0  0  0  0  0  0  # atno 6909 bound_to 6896
  145.1723  140.8932  143.3528 H   0  0  0  0  0  0  0  0  0  0  0  0  # atno 7974 bound_to 7965
  156.1065  140.3235  155.8013 H   0  0  0  0  0  0  0  0  0  0  0  0  # atno 8008 bound_to 7997
  155.4747  140.0549  157.2992 H   0  0  0  0  0  0  0  0  0  0  0  0  # atno 8009 bound_to 7997
  154.4731  140.2020  155.9960 H   0  0  0  0  0  0  0  0  0  0  0  0  # atno 8010 bound_to 7997
  140.5509  143.9510  150.6577 H   0  0  0  0  0  0  0  0  0  0  0  0  # atno 10167 bound_to 10162
  156.0008  130.5010  150.5712 H   0  0  0  0  0  0  0  0  0  0  0  0  # atno 10718 bound_to 10713
  153.3749  135.6996  153.6609 H   0  0  0  0  0  0  0  0  0  0  0  0  # atno 10763 bound_to 10752
  153.5245  135.3605  155.2647 H   0  0  0  0  0  0  0  0  0  0  0  0  # atno 10764 bound_to 10752
  154.8686  135.4165  154.3035 H   0  0  0  0  0  0  0  0  0  0  0  0  # atno 10765 bound_to 10752
  140.9733  133.7097  156.1561 H   0  0  0  0  0  0  0  0  0  0  0  0  # atno 11005 bound_to 11000
  145.0220  139.3416  143.6067 LP  0  0  0  0  0  0  0  0  0  0  0  0  # atno 17320 bound_to 7965
  146.3466  139.9524  142.8727 LP  0  0  0  0  0  0  0  0  0  0  0  0  # atno 17321 bound_to 7965
  140.2936  143.3307  152.1039 LP  0  0  0  0  0  0  0  0  0  0  0  0  # atno 17342 bound_to 10162
  139.5027  144.6740  151.6173 LP  0  0  0  0  0  0  0  0  0  0  0  0  # atno 17343 bound_to 10162
  157.3607  131.0749  151.1639 LP  0  0  0  0  0  0  0  0  0  0  0  0  # atno 17370 bound_to 10713
  157.2425  130.6576  149.5896 LP  0  0  0  0  0  0  0  0  0  0  0  0  # atno 17371 bound_to 10713
  140.7296  134.4269  157.5567 LP  0  0  0  0  0  0  0  0  0  0  0  0  # atno 17394 bound_to 11000
  139.8921  134.8764  156.2288 LP  0  0  0  0  0  0  0  0  0  0  0  0  # atno 17395 bound_to 11000

$$$$
