AV-unprocessed.smi:155|AV-procd|sdf|1274|dock2
  -GOLD-   2262018533D 1   1.00000     0.00000
 Structure written by MMmdl.
 63 66  0  0  0  0  0  0  0  0  2 V2000
  144.5814  134.0925  162.7975 C   0  0  0  0  0  0  0  0  0  0  0  0
  145.4817  135.0453  162.1581 N   0  0  0  0  0  0  0  0  0  0  0  0
  144.9536  136.3846  162.3861 C   0  0  0  0  0  0  0  0  0  0  0  0
  146.8390  134.9708  162.7017 C   0  0  0  0  0  0  0  0  0  0  0  0
  147.8251  135.9354  162.0038 C   0  0  0  0  0  0  0  0  0  0  0  0
  147.8490  135.7856  160.5248 N   0  3  1  0  0  0  0  0  0  0  0  0
  147.5968  134.3957  160.0611 C   0  0  0  0  0  0  0  0  0  0  0  0
  148.6121  134.0037  158.9735 C   0  0  0  0  0  0  0  0  0  0  0  0
  148.4085  134.7204  157.6245 C   0  0  0  0  0  0  0  0  0  0  0  0
  148.3379  136.1762  157.7477 N   0  0  0  0  0  0  0  0  0  0  0  0
  149.4621  136.9515  157.8298 C   0  0  0  0  0  0  0  0  0  0  0  0
  150.6663  136.3172  157.8158 N   0  0  0  0  0  0  0  0  0  0  0  0
  151.8107  137.0013  157.8713 C   0  0  0  0  0  0  0  0  0  0  0  0
  151.9874  138.3191  157.9372 N   0  0  0  0  0  0  0  0  0  0  0  0
  150.7930  138.9741  157.9568 C   0  0  0  0  0  0  0  0  0  0  0  0
  149.4957  138.3803  157.9140 C   0  0  0  0  0  0  0  0  0  0  0  0
  148.5364  139.3886  157.9509 N   0  0  0  0  0  0  0  0  0  0  0  0
  149.2187  140.4985  158.0079 C   0  0  0  0  0  0  0  0  0  0  0  0
  150.5829  140.3400  158.0130 N   0  0  0  0  0  0  0  0  0  0  0  0
  151.5794  141.3952  158.0682 C   0  0  0  0  0  0  0  0  0  0  0  0
  152.3895  141.3697  159.3785 C   0  0  1  0  0  0  0  0  0  0  0  0
  153.5678  140.5995  159.2296 O   0  0  0  0  0  0  0  0  0  0  0  0
  152.7365  142.7801  159.8962 C   0  0  1  0  0  0  0  0  0  0  0  0
  153.1967  143.7920  158.8325 C   0  0  0  0  0  0  0  0  0  0  0  0
  152.2288  144.9513  158.9926 C   0  0  0  0  0  0  0  0  0  0  0  0
  151.7230  144.7774  160.4190 C   0  0  0  0  0  0  0  0  0  0  0  0
  151.6162  143.3697  160.5499 O   0  0  0  0  0  0  0  0  0  0  0  0
  147.0725  136.7008  158.2722 C   0  0  0  0  0  0  0  0  0  0  0  0
  147.0275  136.8052  159.8141 C   0  0  0  0  0  0  0  0  0  0  0  0
  144.8641  133.0667  162.5693 H   0  0  0  0  0  0  0  0  0  0  0  0
  143.5616  134.2252  162.4342 H   0  0  0  0  0  0  0  0  0  0  0  0
  144.5736  134.2171  163.8810 H   0  0  0  0  0  0  0  0  0  0  0  0
  145.5749  137.1341  161.8944 H   0  0  0  0  0  0  0  0  0  0  0  0
  144.9111  136.6206  163.4507 H   0  0  0  0  0  0  0  0  0  0  0  0
  143.9469  136.4762  161.9762 H   0  0  0  0  0  0  0  0  0  0  0  0
  146.7861  135.2854  163.7451 H   0  0  0  0  0  0  0  0  0  0  0  0
  147.1942  133.9409  162.7225 H   0  0  0  0  0  0  0  0  0  0  0  0
  147.5580  136.9539  162.2893 H   0  0  0  0  0  0  0  0  0  0  0  0
  148.8345  135.7738  162.3842 H   0  0  0  0  0  0  0  0  0  0  0  0
  147.7141  133.6899  160.8838 H   0  0  0  0  0  0  0  0  0  0  0  0
  146.5694  134.2751  159.7140 H   0  0  0  0  0  0  0  0  0  0  0  0
  149.6204  134.1774  159.3480 H   0  0  0  0  0  0  0  0  0  0  0  0
  148.5454  132.9293  158.8000 H   0  0  0  0  0  0  0  0  0  0  0  0
  149.1704  134.4281  156.9040 H   0  0  0  0  0  0  0  0  0  0  0  0
  147.4731  134.3735  157.1844 H   0  0  0  0  0  0  0  0  0  0  0  0
  152.7134  136.4082  157.8562 H   0  0  0  0  0  0  0  0  0  0  0  0
  148.7435  141.4682  158.0477 H   0  0  0  0  0  0  0  0  0  0  0  0
  152.2392  141.2969  157.2054 H   0  0  0  0  0  0  0  0  0  0  0  0
  151.0688  142.3530  157.9601 H   0  0  0  0  0  0  0  0  0  0  0  0
  151.7905  140.8715  160.1415 H   0  0  0  0  0  0  0  0  0  0  0  0
  154.1316  140.7720  159.9684 H   0  0  0  0  0  0  0  0  0  0  0  0
  153.5260  142.6915  160.6442 H   0  0  0  0  0  0  0  0  0  0  0  0
  154.2162  144.1158  159.0453 H   0  0  0  0  0  0  0  0  0  0  0  0
  153.1855  143.3955  157.8169 H   0  0  0  0  0  0  0  0  0  0  0  0
  152.6926  145.9228  158.8200 H   0  0  0  0  0  0  0  0  0  0  0  0
  151.4000  144.8399  158.2921 H   0  0  0  0  0  0  0  0  0  0  0  0
  152.4467  145.1594  161.1408 H   0  0  0  0  0  0  0  0  0  0  0  0
  150.7667  145.2718  160.5916 H   0  0  0  0  0  0  0  0  0  0  0  0
  146.8272  137.6604  157.8156 H   0  0  0  0  0  0  0  0  0  0  0  0
  146.2735  136.0320  157.9507 H   0  0  0  0  0  0  0  0  0  0  0  0
  145.9917  136.7558  160.1523 H   0  0  0  0  0  0  0  0  0  0  0  0
  147.3885  137.7950  160.0885 H   0  0  0  0  0  0  0  0  0  0  0  0
  148.8080  135.9682  160.2659 H   0  0  0  0  0  0  0  0  0  0  0  0
  1  2  1  0  0  0  0
  1 30  1  0  0  0  0
  1 31  1  0  0  0  0
  1 32  1  0  0  0  0
  2  3  1  0  0  0  0
  2  4  1  0  0  0  0
  3 33  1  0  0  0  0
  3 34  1  0  0  0  0
  3 35  1  0  0  0  0
  4  5  1  0  0  0  0
  4 36  1  0  0  0  0
  4 37  1  0  0  0  0
  5  6  1  0  0  0  0
  5 38  1  0  0  0  0
  5 39  1  0  0  0  0
  6 29  1  0  0  0  0
  6  7  1  0  0  0  0
  6 63  1  0  0  0  0
  7  8  1  0  0  0  0
  7 40  1  0  0  0  0
  7 41  1  0  0  0  0
  8  9  1  0  0  0  0
  8 42  1  0  0  0  0
  8 43  1  0  0  0  0
  9 10  1  0  0  0  0
  9 44  1  0  0  0  0
  9 45  1  0  0  0  0
 10 11  1  0  0  0  0
 10 28  1  0  0  0  0
 11 16  1  0  0  0  0
 11 12  2  0  0  0  0
 12 13  1  0  0  0  0
 13 14  2  0  0  0  0
 13 46  1  0  0  0  0
 14 15  1  0  0  0  0
 15 19  1  0  0  0  0
 15 16  2  0  0  0  0
 16 17  1  0  0  0  0
 17 18  2  0  0  0  0
 18 19  1  0  0  0  0
 18 47  1  0  0  0  0
 19 20  1  0  0  0  0
 20 21  1  0  0  0  0
 20 48  1  0  0  0  0
 20 49  1  0  0  0  0
 21 22  1  0  0  0  0
 21 23  1  0  0  0  0
 21 50  1  0  0  0  0
 22 51  1  0  0  0  0
 23 27  1  0  0  0  0
 23 24  1  0  0  0  0
 23 52  1  0  0  0  0
 24 25  1  0  0  0  0
 24 53  1  0  0  0  0
 24 54  1  0  0  0  0
 25 26  1  0  0  0  0
 25 55  1  0  0  0  0
 25 56  1  0  0  0  0
 26 27  1  0  0  0  0
 26 57  1  0  0  0  0
 26 58  1  0  0  0  0
 28 29  1  0  0  0  0
 28 59  1  0  0  0  0
 28 60  1  0  0  0  0
 29 61  1  0  0  0  0
 29 62  1  0  0  0  0
M  CHG  1   6   1
M  END
> <s_m_source_file>
AV-unprocessed.smi

> <i_m_source_file_index>
155

> <i_lp_mmshare_version>
43012

> <i_f3d_flags>
0

> <s_epik_input>
W0NIM11OKFtDSDNdKVtDSDJdW0NIMl1OMVtDSDJdW0NIMl1bQ0gyXU4oW0NIMl1bQ0gyXTEpYyhuW2NIXW4yKWMoYzIzKW5bY0hdbjNbQ0gyXVtDQEhdKFtPSF0pW0NAQEhdNFtDSDJdW0NIMl1bQ0gyXU80

> <s_epik_cmdline>
J2VwaWtfcHl0aG9uJywgJy1waCcsICc3LjAnLCAnLXRuJywgJzgnLCAnLW1hJywgJzIwMCcsICctbWV0YWxfYmluZGluZycsICctaW1hZScsICc8aW5maWxlLm1hZT4nLCAnLW9tYWUnLCAnPG91dGZpbGUubWFlPic=

> <r_epik_Ionization_Penalty>
0.0619615

> <r_epik_Ionization_Penalty_Charging>
0.0161638

> <r_epik_Ionization_Penalty_Neutral>
0.0457976

> <r_epik_State_Penalty>
0.403408

> <r_epik_Charging_Adjusted_Penalty>
0.419572

> <i_epik_Tot_Q>
1

> <i_epik_Tot_abs_Q>
1

> <r_epik_Metal_State_Penalty>
0.404222

> <b_epik_Metal_Only>
0

> <s_lp_Force_Field>
OPLS_2005

> <r_lp_Energy>
52.3262

> <b_lp_Chiralities_Consistent>
1

> <s_lp_Variant>
AV-unprocessed.smi:155-8

> <Gold.Version>
5.8.1

> <Gold.Id.Protein>
6NUR|6NUR_protein|mol2

> <Gold.PLP.Fitness>
44.3500

> <Gold.PLP.PLP>
-46.6079

> <Gold.PLP.part.hbond>
-1.4359

> <Gold.PLP.part.metal>
0.0000

> <Gold.PLP.part.buried>
-6.9998

> <Gold.PLP.part.nonpolar>
-38.0314

> <Gold.PLP.part.repulsive>
0.2275

> <Gold.PLP.ligand.clash>
0.0000

> <Gold.PLP.ligand.torsion>
1.4678

> <Gold.PLP.Chemscore.Hbond>
0.0981

> <Gold.PLP.Chemscore.CHOScore>
0.0000

> <Gold.PLP.Chemscore.Metal>
0.0000

> <Gold.PLP.Chemscore.Internal.Correction>
0.3834

> <Gold.Rescore>
     Score         DG    S(hbond)    S(metal)    S(lipo)     H(rot)  DE(clash)    DE(int)     intcor
     10.99     -12.40       0.00        0.00     116.69       2.63       0.19       1.23       ----

> <Gold.Chemscore.Fitness>
10.9854

> <Gold.Chemscore.DG>
-12.3970

> <Gold.Chemscore.ZeroCoef>
-5.4800

> <Gold.Chemscore.Hbond>
0.0008

> <Gold.Chemscore.Metal>
0.0000

> <Gold.Chemscore.Lipo>
116.6945

> <Gold.Chemscore.Internal_Hbond>
0.0000

> <Gold.Chemscore.DEClash>
0.1860

> <Gold.Chemscore.DEInternal>
1.2256

> <Gold.Chemscore.Rot>
2.6324

> <Gold.Chemscore.Internal.Correction>
   9.000000E+99

> <Gold.Chemscore.Hbond.Weighted>
-0.0026

> <Gold.Chemscore.Metal.Weighted>
-0.0000

> <Gold.Chemscore.Lipo.Weighted>
-13.6533

> <Gold.Chemscore.Internal_Hbond.Weighted>
0.0000

> <Gold.Chemscore.DEClash.Weighted>
0.1860

> <Gold.Chemscore.DEInternal.Weighted>
1.2256

> <Gold.Chemscore.Rot.Weighted>
6.7389

> <Gold.Chemscore.Internal.Correction.Weighted>
   9.000000E+99

> <Gold.Protein.RotatedTorsions>
[ 6907 6896 6895 6894 ] final   97.84 input  -60.11 | X-H torsion
[ 7974 7965 7964 7962 ] final  -32.34 input  175.53 | X-H torsion
[ 8008 7997 7996 7995 ] final   88.00 input   59.86 | X-H torsion
[ 10167 10162 10161 10158 ] final   42.02 input  -65.29 | X-H torsion
[ 10718 10713 10712 10709 ] final   30.12 input   66.30 | X-H torsion
[ 10763 10752 10751 10750 ] final  151.39 input  -60.55 | X-H torsion
[ 11005 11000 10999 10996 ] final  -52.44 input  -57.11 | X-H torsion

> <Gold.Protein.ActiveResidues>
 VAL166  LYS551  ARG553  GLY616  TRP617  ASP618  TYR619  PRO620  LYS621  CYS622 
 ASP623  PHE694  ASN695  SER759  ASP760  ASP761  ALA762  ILE779  LEU786  VAL792 
 PHE793  MET794  SER795  GLU796  ALA797  LYS798  CYS799  TRP800  GLU811  SER814 

> <Gold.Protein.RotatedAtoms>
  152.5418  134.0672  159.8177 H   0  0  0  0  0  0  0  0  0  0  0  0  # atno 6907 bound_to 6896
  151.0791  133.5397  159.2629 H   0  0  0  0  0  0  0  0  0  0  0  0  # atno 6908 bound_to 6896
  151.2231  135.0534  159.9011 H   0  0  0  0  0  0  0  0  0  0  0  0  # atno 6909 bound_to 6896
  146.0998  140.5780  142.8826 H   0  0  0  0  0  0  0  0  0  0  0  0  # atno 7974 bound_to 7965
  155.9824  140.3376  155.6675 H   0  0  0  0  0  0  0  0  0  0  0  0  # atno 8008 bound_to 7997
  155.6531  140.0708  157.2598 H   0  0  0  0  0  0  0  0  0  0  0  0  # atno 8009 bound_to 7997
  154.4195  140.1722  156.1683 H   0  0  0  0  0  0  0  0  0  0  0  0  # atno 8010 bound_to 7997
  140.3586  144.2258  150.6140 H   0  0  0  0  0  0  0  0  0  0  0  0  # atno 10167 bound_to 10162
  157.2554  130.7135  149.6426 H   0  0  0  0  0  0  0  0  0  0  0  0  # atno 10718 bound_to 10713
  154.1030  135.2844  155.3247 H   0  0  0  0  0  0  0  0  0  0  0  0  # atno 10763 bound_to 10752
  154.6542  135.5358  153.7942 H   0  0  0  0  0  0  0  0  0  0  0  0  # atno 10764 bound_to 10752
  153.0372  135.6517  154.1192 H   0  0  0  0  0  0  0  0  0  0  0  0  # atno 10765 bound_to 10752
  141.0924  133.6630  156.4025 H   0  0  0  0  0  0  0  0  0  0  0  0  # atno 11005 bound_to 11000
  144.7423  140.4976  143.6860 LP  0  0  0  0  0  0  0  0  0  0  0  0  # atno 17320 bound_to 7965
  145.5877  139.1493  143.3200 LP  0  0  0  0  0  0  0  0  0  0  0  0  # atno 17321 bound_to 7965
  140.5149  143.2280  151.8478 LP  0  0  0  0  0  0  0  0  0  0  0  0  # atno 17342 bound_to 10162
  139.4817  144.4905  151.9190 LP  0  0  0  0  0  0  0  0  0  0  0  0  # atno 17343 bound_to 10162
  155.9665  130.4414  150.5340 LP  0  0  0  0  0  0  0  0  0  0  0  0  # atno 17370 bound_to 10713
  157.3233  131.0686  151.1916 LP  0  0  0  0  0  0  0  0  0  0  0  0  # atno 17371 bound_to 10713
  140.5220  134.6295  157.5321 LP  0  0  0  0  0  0  0  0  0  0  0  0  # atno 17394 bound_to 11000
  139.9753  134.7225  155.9962 LP  0  0  0  0  0  0  0  0  0  0  0  0  # atno 17395 bound_to 11000

$$$$
