AV-unprocessed.smi:2752|AV-procd|sdf|10607|dock3
  -GOLD-   2272015 63D 1   1.00000     0.00000
 Structure written by MMmdl.
 34 35  0  0  0  0  0  0  0  0  1 V2000
  145.8691  143.0484  153.8198 C   0  0  0  0  0  0  0  0  0  0  0  0
  146.9402  142.4250  154.5097 O   0  0  0  0  0  0  0  0  0  0  0  0
  147.8503  141.7361  153.6561 C   0  0  2  0  0  0  0  0  0  0  0  0
  147.2243  140.4026  153.2332 C   0  0  0  0  0  0  0  0  0  0  0  0
  147.4933  139.4737  154.4136 C   0  0  0  0  0  0  0  0  0  0  0  0
  148.8808  139.8778  154.9192 C   0  0  0  0  0  0  0  0  0  0  0  0
  149.1139  141.3268  154.4476 C   0  0  2  0  0  0  0  0  0  0  0  0
  149.3957  142.2128  155.5753 N   0  0  0  0  0  0  0  0  0  0  0  0
  150.1719  141.8954  156.6211 C   0  0  0  0  0  0  0  0  0  0  0  0
  150.7200  140.8003  156.7507 O   0  0  0  0  0  0  0  0  0  0  0  0
  150.2684  142.9219  157.4842 N   0  0  0  0  0  0  0  0  0  0  0  0
  151.0016  142.9815  158.6991 C   0  0  0  0  0  0  0  0  0  0  0  0
  150.8749  144.1939  159.4150 C   0  0  0  0  0  0  0  0  0  0  0  0
  151.5625  144.3543  160.6339 C   0  0  0  0  0  0  0  0  0  0  0  0
  152.3598  143.2957  161.1041 C   0  0  0  0  0  0  0  0  0  0  0  0
  153.0395  143.4033  162.2705 F   0  0  0  0  0  0  0  0  0  0  0  0
  152.4329  142.1221  160.3314 C   0  0  0  0  0  0  0  0  0  0  0  0
  151.7741  141.9672  159.1634 N   0  0  0  0  0  0  0  0  0  0  0  0
  145.2085  143.5347  154.5372 H   0  0  0  0  0  0  0  0  0  0  0  0
  145.2775  142.3290  153.2536 H   0  0  0  0  0  0  0  0  0  0  0  0
  146.2385  143.8126  153.1351 H   0  0  0  0  0  0  0  0  0  0  0  0
  148.1209  142.3561  152.7994 H   0  0  0  0  0  0  0  0  0  0  0  0
  146.1644  140.4736  152.9893 H   0  0  0  0  0  0  0  0  0  0  0  0
  147.7389  140.0236  152.3493 H   0  0  0  0  0  0  0  0  0  0  0  0
  146.7524  139.6528  155.1938 H   0  0  0  0  0  0  0  0  0  0  0  0
  147.4379  138.4200  154.1393 H   0  0  0  0  0  0  0  0  0  0  0  0
  148.9500  139.7647  156.0021 H   0  0  0  0  0  0  0  0  0  0  0  0
  149.6387  139.2268  154.4818 H   0  0  0  0  0  0  0  0  0  0  0  0
  149.9716  141.3243  153.7718 H   0  0  0  0  0  0  0  0  0  0  0  0
  148.9880  143.1354  155.5426 H   0  0  0  0  0  0  0  0  0  0  0  0
  149.7625  143.7603  157.2405 H   0  0  0  0  0  0  0  0  0  0  0  0
  150.2577  144.9963  159.0377 H   0  0  0  0  0  0  0  0  0  0  0  0
  151.4789  145.2726  161.1960 H   0  0  0  0  0  0  0  0  0  0  0  0
  153.0346  141.2869  160.6578 H   0  0  0  0  0  0  0  0  0  0  0  0
  1  2  1  0  0  0  0
  1 19  1  0  0  0  0
  1 20  1  0  0  0  0
  1 21  1  0  0  0  0
  2  3  1  0  0  0  0
  3  7  1  0  0  0  0
  3  4  1  0  0  0  0
  3 22  1  0  0  0  0
  4  5  1  0  0  0  0
  4 23  1  0  0  0  0
  4 24  1  0  0  0  0
  5  6  1  0  0  0  0
  5 25  1  0  0  0  0
  5 26  1  0  0  0  0
  6  7  1  0  0  0  0
  6 27  1  0  0  0  0
  6 28  1  0  0  0  0
  7  8  1  0  0  0  0
  7 29  1  0  0  0  0
  8  9  1  0  0  0  0
  8 30  1  0  0  0  0
  9 10  2  0  0  0  0
  9 11  1  0  0  0  0
 11 12  1  0  0  0  0
 11 31  1  0  0  0  0
 12 18  1  0  0  0  0
 12 13  2  0  0  0  0
 13 14  1  0  0  0  0
 13 32  1  0  0  0  0
 14 15  2  0  0  0  0
 14 33  1  0  0  0  0
 15 16  1  0  0  0  0
 15 17  1  0  0  0  0
 17 18  2  0  0  0  0
 17 34  1  0  0  0  0
M  END
> <s_m_source_file>
AV-unprocessed.smi

> <i_m_source_file_index>
2752

> <i_lp_mmshare_version>
43012

> <i_f3d_flags>
0

> <s_epik_input>
W0NIM11PW0NAQEhdMVtDSDJdW0NIMl1bQ0gyXVtDQEhdMVtOSF1DKD1PKVtOSF1jMltjSF1bY0hdYyhGKVtjSF1uMg==

> <s_epik_cmdline>
J2VwaWtfcHl0aG9uJywgJy1waCcsICc3LjAnLCAnLXRuJywgJzgnLCAnLW1hJywgJzIwMCcsICctbWV0YWxfYmluZGluZycsICctaW1hZScsICc8aW5maWxlLm1hZT4nLCAnLW9tYWUnLCAnPG91dGZpbGUubWFlPic=

> <r_lp_tautomer_probability>
1

> <r_epik_Ionization_Penalty>
3.49853e-05

> <r_epik_Ionization_Penalty_Charging>
0

> <r_epik_Ionization_Penalty_Neutral>
3.49853e-05

> <r_epik_State_Penalty>
-0

> <r_epik_Charging_Adjusted_Penalty>
0

> <i_epik_Tot_Q>
0

> <i_epik_Tot_abs_Q>
0

> <r_epik_Metal_State_Penalty>
-0

> <b_epik_Metal_Only>
0

> <s_lp_Force_Field>
OPLS_2005

> <r_lp_Energy>
23.7965

> <b_lp_Chiralities_Consistent>
1

> <s_lp_Variant>
AV-unprocessed.smi:2752-3

> <Gold.Version>
5.8.1

> <Gold.Id.Protein>
6NUR|6NUR_protein|mol2

> <Gold.PLP.Fitness>
43.0221

> <Gold.PLP.PLP>
-38.0710

> <Gold.PLP.part.hbond>
-2.0000

> <Gold.PLP.part.metal>
0.0000

> <Gold.PLP.part.buried>
-5.3074

> <Gold.PLP.part.nonpolar>
-29.7225

> <Gold.PLP.part.repulsive>
0.3702

> <Gold.PLP.ligand.clash>
0.0000

> <Gold.PLP.ligand.torsion>
0.3742

> <Gold.PLP.Chemscore.Hbond>
1.8960

> <Gold.PLP.Chemscore.CHOScore>
0.0000

> <Gold.PLP.Chemscore.Metal>
0.0000

> <Gold.Chemscore.Hbonds>
donor molecule, donor type, donor heavy atom, donor atom, acceptor molecule, acceptor atom, score
      L1  H     8    30       P1  8028  1.00
      L1  H    11    31       P1  8028  0.86

> <Gold.PLP.Chemscore.Internal.Correction>
0.0115

> <Gold.Rescore>
     Score         DG    S(hbond)    S(metal)    S(lipo)     H(rot)  DE(clash)    DE(int)     intcor
     14.62     -17.95       1.93        0.00      79.49       1.28       0.36       2.97       ----

> <Gold.Chemscore.Fitness>
14.6225

> <Gold.Chemscore.DG>
-17.9453

> <Gold.Chemscore.ZeroCoef>
-5.4800

> <Gold.Chemscore.Hbond>
1.9301

> <Gold.Chemscore.Metal>
0.0000

> <Gold.Chemscore.Lipo>
79.4947

> <Gold.Chemscore.Internal_Hbond>
0.0000

> <Gold.Chemscore.DEClash>
0.3568

> <Gold.Chemscore.DEInternal>
2.9659

> <Gold.Chemscore.Rot>
1.2821

> <Gold.Chemscore.Internal.Correction>
   9.000000E+99

> <Gold.Chemscore.Hbonds>
donor molecule, donor type, donor heavy atom, donor atom, acceptor molecule, acceptor atom, score
      L1  H     8    30       P1  8028  0.97
      L1  H    11    31       P1  8028  0.65

> <Gold.Chemscore.Hbond.Weighted>
-6.4466

> <Gold.Chemscore.Metal.Weighted>
-0.0000

> <Gold.Chemscore.Lipo.Weighted>
-9.3009

> <Gold.Chemscore.Internal_Hbond.Weighted>
0.0000

> <Gold.Chemscore.DEClash.Weighted>
0.3568

> <Gold.Chemscore.DEInternal.Weighted>
2.9659

> <Gold.Chemscore.Rot.Weighted>
3.2822

> <Gold.Chemscore.Internal.Correction.Weighted>
   9.000000E+99

> <Gold.Protein.RotatedTorsions>
[ 6907 6896 6895 6894 ] final  140.06 input  -60.11 | X-H torsion
[ 7974 7965 7964 7962 ] final   48.07 input  175.53 | X-H torsion
[ 8008 7997 7996 7995 ] final  151.11 input   59.86 | X-H torsion
[ 10167 10162 10161 10158 ] final  -79.31 input  -65.29 | X-H torsion
[ 10718 10713 10712 10709 ] final  -90.13 input   66.30 | X-H torsion
[ 10763 10752 10751 10750 ] final   -0.99 input  -60.55 | X-H torsion
[ 11005 11000 10999 10996 ] final -106.75 input  -57.11 | X-H torsion

> <Gold.Protein.ActiveResidues>
 VAL166  LYS551  ARG553  GLY616  TRP617  ASP618  TYR619  PRO620  LYS621  CYS622 
 ASP623  PHE694  ASN695  SER759  ASP760  ASP761  ALA762  ILE779  LEU786  VAL792 
 PHE793  MET794  SER795  GLU796  ALA797  LYS798  CYS799  TRP800  GLU811  SER814 

> <Gold.Protein.RotatedAtoms>
  152.2475  133.5187  159.5305 H   0  0  0  0  0  0  0  0  0  0  0  0  # atno 6907 bound_to 6896
  150.7083  134.1005  159.3973 H   0  0  0  0  0  0  0  0  0  0  0  0  # atno 6908 bound_to 6896
  151.8925  135.0411  160.0550 H   0  0  0  0  0  0  0  0  0  0  0  0  # atno 6909 bound_to 6896
  146.0239  139.4683  142.9880 H   0  0  0  0  0  0  0  0  0  0  0  0  # atno 7974 bound_to 7965
  156.2688  140.2056  156.6124 H   0  0  0  0  0  0  0  0  0  0  0  0  # atno 8008 bound_to 7997
  154.6821  140.0539  157.0300 H   0  0  0  0  0  0  0  0  0  0  0  0  # atno 8009 bound_to 7997
  155.0986  140.3203  155.4556 H   0  0  0  0  0  0  0  0  0  0  0  0  # atno 8010 bound_to 7997
  140.4605  143.2455  151.8356 H   0  0  0  0  0  0  0  0  0  0  0  0  # atno 10167 bound_to 10162
  155.9986  130.4898  150.5276 H   0  0  0  0  0  0  0  0  0  0  0  0  # atno 10718 bound_to 10713
  153.3390  135.6979  153.6883 H   0  0  0  0  0  0  0  0  0  0  0  0  # atno 10763 bound_to 10752
  153.5656  135.3526  155.2817 H   0  0  0  0  0  0  0  0  0  0  0  0  # atno 10764 bound_to 10752
  154.8633  135.4260  154.2598 H   0  0  0  0  0  0  0  0  0  0  0  0  # atno 10765 bound_to 10752
  141.0989  133.8921  157.1894 H   0  0  0  0  0  0  0  0  0  0  0  0  # atno 11005 bound_to 11000
  145.7149  141.0094  143.1433 LP  0  0  0  0  0  0  0  0  0  0  0  0  # atno 17320 bound_to 7965
  144.7001  139.8802  143.7446 LP  0  0  0  0  0  0  0  0  0  0  0  0  # atno 17321 bound_to 7965
  139.4806  144.5014  151.9056 LP  0  0  0  0  0  0  0  0  0  0  0  0  # atno 17342 bound_to 10162
  140.4099  144.2382  150.5889 LP  0  0  0  0  0  0  0  0  0  0  0  0  # atno 17343 bound_to 10162
  157.3229  131.0685  151.1918 LP  0  0  0  0  0  0  0  0  0  0  0  0  # atno 17370 bound_to 10713
  157.2825  130.6757  149.6073 LP  0  0  0  0  0  0  0  0  0  0  0  0  # atno 17371 bound_to 10713
  139.9834  135.0090  156.9803 LP  0  0  0  0  0  0  0  0  0  0  0  0  # atno 17394 bound_to 11000
  140.5072  134.1038  155.7262 LP  0  0  0  0  0  0  0  0  0  0  0  0  # atno 17395 bound_to 11000

$$$$
