AV-unprocessed.smi:2822|AV-procd|sdf|10880|dock5
  -GOLD-   2272015323D 1   1.00000     0.00000
 Structure written by MMmdl.
 39 41  0  0  0  0  0  0  0  0  1 V2000
  148.5270  139.2363  154.1012 Cl  0  0  0  0  0  0  0  0  0  0  0  0
  150.1844  138.9897  154.5288 C   0  0  0  0  0  0  0  0  0  0  0  0
  150.8485  137.8206  154.1043 C   0  0  0  0  0  0  0  0  0  0  0  0
  152.1388  137.5505  154.3937 N   0  0  0  0  0  0  0  0  0  0  0  0
  152.8190  138.4542  155.1293 C   0  0  0  0  0  0  0  0  0  0  0  0
  152.2518  139.6534  155.6046 C   0  0  0  0  0  0  0  0  0  0  0  0
  150.8989  139.9354  155.3001 C   0  0  0  0  0  0  0  0  0  0  0  0
  150.2566  141.1066  155.7302 N   0  0  0  0  0  0  0  0  0  0  0  0
  150.9984  142.1646  156.3989 C   0  0  0  0  0  0  0  0  0  0  0  0
  151.1707  141.8753  157.8962 C   0  0  2  0  0  0  0  0  0  0  0  0
  151.5647  143.1434  158.6763 C   0  0  0  0  0  0  0  0  0  0  0  0
  151.8124  142.8635  160.0851 N   0  0  0  0  0  0  0  0  0  0  0  0
  152.1966  144.0748  160.8079 C   0  0  0  0  0  0  0  0  0  0  0  0
  152.4304  143.8151  162.3048 C   0  0  0  0  0  0  0  0  0  0  0  0
  153.4916  142.7224  162.4965 C   0  0  0  0  0  0  0  0  0  0  0  0
  153.1112  141.4704  161.6911 C   0  0  0  0  0  0  0  0  0  0  0  0
  152.8390  141.8251  160.2145 C   0  0  1  0  0  0  0  0  0  0  0  0
  152.4500  140.5659  159.4137 C   0  0  0  0  0  0  0  0  0  0  0  0
  152.2097  140.9120  158.0534 O   0  0  0  0  0  0  0  0  0  0  0  0
  150.3288  137.0797  153.5148 H   0  0  0  0  0  0  0  0  0  0  0  0
  153.8497  138.2152  155.3460 H   0  0  0  0  0  0  0  0  0  0  0  0
  152.8595  140.3294  156.1870 H   0  0  0  0  0  0  0  0  0  0  0  0
  149.2473  141.1301  155.7675 H   0  0  0  0  0  0  0  0  0  0  0  0
  151.9732  142.2909  155.9260 H   0  0  0  0  0  0  0  0  0  0  0  0
  150.4517  143.0998  156.2736 H   0  0  0  0  0  0  0  0  0  0  0  0
  150.2378  141.4772  158.3009 H   0  0  0  0  0  0  0  0  0  0  0  0
  152.4561  143.5830  158.2255 H   0  0  0  0  0  0  0  0  0  0  0  0
  150.7713  143.8863  158.5849 H   0  0  0  0  0  0  0  0  0  0  0  0
  153.1018  144.4968  160.3684 H   0  0  0  0  0  0  0  0  0  0  0  0
  151.4184  144.8306  160.6955 H   0  0  0  0  0  0  0  0  0  0  0  0
  152.7419  144.7337  162.8024 H   0  0  0  0  0  0  0  0  0  0  0  0
  151.4950  143.5068  162.7736 H   0  0  0  0  0  0  0  0  0  0  0  0
  154.4618  143.0920  162.1620 H   0  0  0  0  0  0  0  0  0  0  0  0
  153.5973  142.4766  163.5535 H   0  0  0  0  0  0  0  0  0  0  0  0
  153.9098  140.7310  161.7614 H   0  0  0  0  0  0  0  0  0  0  0  0
  152.2237  141.0119  162.1298 H   0  0  0  0  0  0  0  0  0  0  0  0
  153.7693  142.2058  159.7896 H   0  0  0  0  0  0  0  0  0  0  0  0
  153.2518  139.8282  159.4504 H   0  0  0  0  0  0  0  0  0  0  0  0
  151.5613  140.0930  159.8354 H   0  0  0  0  0  0  0  0  0  0  0  0
  1  2  1  0  0  0  0
  2  7  1  0  0  0  0
  2  3  2  0  0  0  0
  3  4  1  0  0  0  0
  3 20  1  0  0  0  0
  4  5  2  0  0  0  0
  5  6  1  0  0  0  0
  5 21  1  0  0  0  0
  6  7  2  0  0  0  0
  6 22  1  0  0  0  0
  7  8  1  0  0  0  0
  8  9  1  0  0  0  0
  8 23  1  0  0  0  0
  9 10  1  0  0  0  0
  9 24  1  0  0  0  0
  9 25  1  0  0  0  0
 10 19  1  0  0  0  0
 10 11  1  0  0  0  0
 10 26  1  0  0  0  0
 11 12  1  0  0  0  0
 11 27  1  0  0  0  0
 11 28  1  0  0  0  0
 12 17  1  0  0  0  0
 12 13  1  0  0  0  0
 13 14  1  0  0  0  0
 13 29  1  0  0  0  0
 13 30  1  0  0  0  0
 14 15  1  0  0  0  0
 14 31  1  0  0  0  0
 14 32  1  0  0  0  0
 15 16  1  0  0  0  0
 15 33  1  0  0  0  0
 15 34  1  0  0  0  0
 16 17  1  0  0  0  0
 16 35  1  0  0  0  0
 16 36  1  0  0  0  0
 17 18  1  0  0  0  0
 17 37  1  0  0  0  0
 18 19  1  0  0  0  0
 18 38  1  0  0  0  0
 18 39  1  0  0  0  0
M  END
> <s_m_source_file>
AV-unprocessed.smi

> <i_m_source_file_index>
2822

> <i_lp_mmshare_version>
43012

> <i_f3d_flags>
0

> <s_epik_input>
Q2xjMVtjSF1uW2NIXVtjSF1jMVtOSF1bQ0gyXVtDQEhdKFtDSDJdMilPW0NIMl1bQ0BASF0oTjIzKVtDSDJdW0NIMl1bQ0gyXVtDSDJdMw==

> <s_epik_cmdline>
J2VwaWtfcHl0aG9uJywgJy1waCcsICc3LjAnLCAnLXRuJywgJzgnLCAnLW1hJywgJzIwMCcsICctbWV0YWxfYmluZGluZycsICctaW1hZScsICc8aW5maWxlLm1hZT4nLCAnLW9tYWUnLCAnPG91dGZpbGUubWFlPic=

> <r_lp_tautomer_probability>
0.999999

> <r_epik_Ionization_Penalty>
2.10064

> <r_epik_Ionization_Penalty_Charging>
0

> <r_epik_Ionization_Penalty_Neutral>
2.10064

> <r_epik_State_Penalty>
2.1757

> <r_epik_Charging_Adjusted_Penalty>
2.1757

> <i_epik_Tot_Q>
0

> <i_epik_Tot_abs_Q>
0

> <r_epik_Metal_State_Penalty>
1.25425

> <b_epik_Metal_Only>
0

> <s_lp_Force_Field>
OPLS_2005

> <r_lp_Energy>
37.6936

> <b_lp_Chiralities_Consistent>
1

> <s_lp_Variant>
AV-unprocessed.smi:2822-21

> <Gold.Version>
5.8.1

> <Gold.Id.Protein>
6NUR|6NUR_protein|mol2

> <Gold.PLP.Fitness>
47.6804

> <Gold.PLP.PLP>
-43.0949

> <Gold.PLP.part.hbond>
-1.0000

> <Gold.PLP.part.metal>
0.0000

> <Gold.PLP.part.buried>
-3.2966

> <Gold.PLP.part.nonpolar>
-38.7147

> <Gold.PLP.part.repulsive>
0.2689

> <Gold.PLP.ligand.clash>
0.0000

> <Gold.PLP.ligand.torsion>
0.3191

> <Gold.PLP.Chemscore.Hbond>
0.7670

> <Gold.PLP.Chemscore.CHOScore>
0.9741

> <Gold.PLP.Chemscore.Metal>
0.0000

> <Gold.Chemscore.Hbonds>
donor molecule, donor type, donor heavy atom, donor atom, acceptor molecule, acceptor atom, score
      P1  H 10752 10764       L1     4  0.77
      L1  C     3    20       P1  7948  0.71
      L1  C     3    20       P1  7949  0.27

> <Gold.PLP.Chemscore.Internal.Correction>
0.0004

> <Gold.Rescore>
     Score         DG    S(hbond)    S(metal)    S(lipo)     H(rot)  DE(clash)    DE(int)     intcor
     18.22     -20.09       0.83        0.00     126.44       1.15       0.54       1.33       ----

> <Gold.Chemscore.Fitness>
18.2178

> <Gold.Chemscore.DG>
-20.0887

> <Gold.Chemscore.ZeroCoef>
-5.4800

> <Gold.Chemscore.Hbond>
0.8276

> <Gold.Chemscore.Metal>
0.0000

> <Gold.Chemscore.Lipo>
126.4377

> <Gold.Chemscore.Internal_Hbond>
0.0000

> <Gold.Chemscore.DEClash>
0.5429

> <Gold.Chemscore.DEInternal>
1.3280

> <Gold.Chemscore.Rot>
1.1519

> <Gold.Chemscore.Internal.Correction>
   9.000000E+99

> <Gold.Chemscore.Hbonds>
donor molecule, donor type, donor heavy atom, donor atom, acceptor molecule, acceptor atom, score
      P1  H 10752 10764       L1     4  0.68

> <Gold.Chemscore.Hbond.Weighted>
-2.7642

> <Gold.Chemscore.Metal.Weighted>
-0.0000

> <Gold.Chemscore.Lipo.Weighted>
-14.7932

> <Gold.Chemscore.Internal_Hbond.Weighted>
0.0000

> <Gold.Chemscore.DEClash.Weighted>
0.5429

> <Gold.Chemscore.DEInternal.Weighted>
1.3280

> <Gold.Chemscore.Rot.Weighted>
2.9487

> <Gold.Chemscore.Internal.Correction.Weighted>
   9.000000E+99

> <Gold.Protein.RotatedTorsions>
[ 6907 6896 6895 6894 ] final  121.00 input  -60.11 | X-H torsion
[ 7974 7965 7964 7962 ] final  -70.00 input  175.53 | X-H torsion
[ 8008 7997 7996 7995 ] final  -76.05 input   59.86 | X-H torsion
[ 10167 10162 10161 10158 ] final  -61.13 input  -65.29 | X-H torsion
[ 10718 10713 10712 10709 ] final  160.28 input   66.30 | X-H torsion
[ 10763 10752 10751 10750 ] final  -82.71 input  -60.55 | X-H torsion
[ 11005 11000 10999 10996 ] final  167.66 input  -57.11 | X-H torsion

> <Gold.Protein.ActiveResidues>
 VAL166  LYS551  ARG553  GLY616  TRP617  ASP618  TYR619  PRO620  LYS621  CYS622 
 ASP623  PHE694  ASN695  SER759  ASP760  ASP761  ALA762  ILE779  LEU786  VAL792 
 PHE793  MET794  SER795  GLU796  ALA797  LYS798  CYS799  TRP800  GLU811  SER814 

> <Gold.Protein.RotatedAtoms>
  152.4355  133.7353  159.6610 H   0  0  0  0  0  0  0  0  0  0  0  0  # atno 6907 bound_to 6896
  150.8238  133.8196  159.3133 H   0  0  0  0  0  0  0  0  0  0  0  0  # atno 6908 bound_to 6896
  151.5870  135.1058  160.0082 H   0  0  0  0  0  0  0  0  0  0  0  0  # atno 6909 bound_to 6896
  145.6966  140.9133  143.0753 H   0  0  0  0  0  0  0  0  0  0  0  0  # atno 7974 bound_to 7965
  154.5471  140.0733  156.8606 H   0  0  0  0  0  0  0  0  0  0  0  0  # atno 8008 bound_to 7997
  155.3066  140.3387  155.4227 H   0  0  0  0  0  0  0  0  0  0  0  0  # atno 8009 bound_to 7997
  156.1928  140.1692  156.8045 H   0  0  0  0  0  0  0  0  0  0  0  0  # atno 8010 bound_to 7997
  140.6026  143.2365  151.5893 H   0  0  0  0  0  0  0  0  0  0  0  0  # atno 10167 bound_to 10162
  157.1526  131.0567  151.2272 H   0  0  0  0  0  0  0  0  0  0  0  0  # atno 10718 bound_to 10713
  154.5791  135.5581  153.7168 H   0  0  0  0  0  0  0  0  0  0  0  0  # atno 10763 bound_to 10752
  153.0075  135.6315  154.2008 H   0  0  0  0  0  0  0  0  0  0  0  0  # atno 10764 bound_to 10752
  154.1949  135.2880  155.2990 H   0  0  0  0  0  0  0  0  0  0  0  0  # atno 10765 bound_to 10752
  140.2791  134.7765  157.3742 H   0  0  0  0  0  0  0  0  0  0  0  0  # atno 11005 bound_to 11000
  144.6981  139.8892  143.7452 LP  0  0  0  0  0  0  0  0  0  0  0  0  # atno 17320 bound_to 7965
  146.0835  139.3823  143.0450 LP  0  0  0  0  0  0  0  0  0  0  0  0  # atno 17321 bound_to 7965
  139.5302  144.2939  152.1130 LP  0  0  0  0  0  0  0  0  0  0  0  0  # atno 17342 bound_to 10162
  140.2122  144.4551  150.6380 LP  0  0  0  0  0  0  0  0  0  0  0  0  # atno 17343 bound_to 10162
  157.4206  130.7435  149.6911 LP  0  0  0  0  0  0  0  0  0  0  0  0  # atno 17370 bound_to 10713
  155.9768  130.4071  150.3756 LP  0  0  0  0  0  0  0  0  0  0  0  0  # atno 17371 bound_to 10713
  140.1300  134.5107  155.8113 LP  0  0  0  0  0  0  0  0  0  0  0  0  # atno 17394 bound_to 11000
  141.2165  133.6786  156.7022 LP  0  0  0  0  0  0  0  0  0  0  0  0  # atno 17395 bound_to 11000

$$$$
