#       Name:                AV-unprocessed.smi:2537
#       Creating user name   scv26
#       Creation time:       Fri Mar 27 14:02:42 2020


#       File generated by GOLD software.
#

@<TRIPOS>MOLECULE
AV-unprocessed.smi:2537
    25    25     1
SMALL
NO_CHARGES


@<TRIPOS>ATOM
      1 ****        -3.2395   1.0682   0.3965 N.am           1 S1                 0.0000
      2 ****        -1.9069   0.9868   0.4019 C.2            1 S1                 0.0000
      3 ****        -1.1951   1.9902   0.4050 O.2            1 S1                 0.0000
      4 ****        -1.3111  -0.4272   0.4043 C.3            1 S1                 0.0000
      5 ****         0.1418  -0.4310   0.3554 N.pl3          1 S1                 0.0000
      6 ****         0.9644  -0.4308  -0.7523 C.2            1 S1                 0.0000
      7 ****         2.2218  -0.4316  -0.2159 C.2            1 S1                 0.0000
      8 ****         3.5028  -0.4304  -0.9708 C.2            1 S1                 0.0000
      9 ****         3.4697  -0.4307  -2.2216 O.co2          1 S1                 0.0000
     10 ****         4.5833  -0.4303  -0.3405 O.co2          1 S1                -1.0000
     11 ****         2.1118  -0.4344   1.1762 N.2            1 S1                 0.0000
     12 ****         0.8583  -0.4331   1.5057 N.2            1 S1                 0.0000
     13 ****        -3.6841   1.9748   0.3936 H              1 S1                 0.0000
     14 ****        -3.7977   0.2270   0.3942 H              1 S1                 0.0000
     15 ****        -1.6397  -0.9615   1.2971 H              1 S1                 0.0000
     16 ****        -1.6862  -0.9799  -0.4579 H              1 S1                 0.0000
     17 ****         0.6070  -0.4266  -1.7712 H              1 S1                 0.0000
     18 ****        -1.6122   2.8991   0.4035 LP             1 S1                 0.0000
     19 ****        -0.1995   1.8970   0.4090 LP             1 S1                 0.0000
     20 ****         4.3222  -0.4308  -2.7443 LP             1 S1                 0.0000
     21 ****         2.5907  -0.4307  -2.6985 LP             1 S1                 0.0000
     22 ****         5.4515  -0.4304  -0.8366 LP             1 S1                 0.0000
     23 ****         4.5788  -0.4300   0.6595 LP             1 S1                 0.0000
     24 ****         2.8790  -0.4370   1.8176 LP             1 S1                 0.0000
     25 ****         0.4889  -0.4335   2.4350 LP             1 S1                 0.0000
@<TRIPOS>BOND
    1    1    2 am    
    2    1   13 1     
    3    1   14 1     
    4    2    3 2     
    5    2    4 1     
    6    4    5 1     
    7    4   15 1     
    8    4   16 1     
    9    5   12 1     
   10    5    6 1     
   11    6    7 2     
   12    6   17 1     
   13    7    8 1     
   14    7   11 1     
   15    8    9 ar    
   16    8   10 ar    
   17   11   12 2     
   18    3   18 1     
   19    3   19 1     
   20    9   20 1     
   21    9   21 1     
   22   10   22 1     
   23   10   23 1     
   24   11   24 1     
   25   12   25 1     
@<TRIPOS>SUBSTRUCTURE
      1 S1             1
@<TRIPOS>SET
LONE_PAIRS      STATIC     ATOMS    <user>   **** ""
8 18 19 20 21 22 23 24 25
DONOR_HYDROGENS      STATIC     ATOMS    <user>   **** ""
2 13 14
ATOM$BLUE        STATIC     ATOMS    COLORGROUP SYSTEM
8 18 19 20 21 22 23 24 25
ATOM$RED        STATIC     ATOMS    COLORGROUP SYSTEM
2 13 14
