#       Name:                AV-unprocessed.smi:3232
#       Creating user name   scv26
#       Creation time:       Fri Mar 27 18:19:59 2020


#       File generated by GOLD software.
#

@<TRIPOS>MOLECULE
AV-unprocessed.smi:3232
    44    45     1
SMALL
NO_CHARGES


@<TRIPOS>ATOM
      1 ****        -4.6157   1.0868  -1.0928 C.3            1 S1                 0.0000
      2 ****        -3.1079   1.3372  -0.9572 C.3            1 S1                 0.0000
      3 ****        -2.5729   0.8494   0.3370 N.4            1 S1                 1.0000
      4 ****        -3.0635   1.5798   1.5245 C.3            1 S1                 0.0000
      5 ****        -2.0175   1.3246   2.6012 C.3            1 S1                 0.0000
      6 ****        -0.7120   1.3279   1.8138 C.3            1 S1                 0.0000
      7 ****        -1.0899   0.8128   0.4099 C.3            1 S1                 0.0000
      8 ****        -0.5732  -0.6110   0.1164 C.3            1 S1                 0.0000
      9 ****         0.8840  -0.6846   0.1259 N.am           1 S1                 0.0000
     10 ****         1.6809  -0.2824  -0.8775 C.2            1 S1                 0.0000
     11 ****         1.2430   0.2098  -1.9183 O.2            1 S1                 0.0000
     12 ****         3.1948  -0.4522  -0.6590 C.3            1 S1                 0.0000
     13 ****         4.0438   0.2497  -1.7386 C.3            1 S1                 0.0000
     14 ****         3.5429  -1.8625  -0.5317 N.pl3          1 S1                 0.0000
     15 ****         3.8276  -2.5822   0.5558 C.2            1 S1                 0.0000
     16 ****         4.0659  -3.8621   0.3074 N.2            1 S1                 0.0000
     17 ****         3.8949  -3.8672  -1.0478 C.2            1 S1                 0.0000
     18 ****         3.5712  -2.6980  -1.5999 N.2            1 S1                 0.0000
     19 ****        -4.9712   1.4014  -2.0742 H              1 S1                 0.0000
     20 ****        -5.1848   1.6417  -0.3467 H              1 S1                 0.0000
     21 ****        -4.8514   0.0284  -0.9789 H              1 S1                 0.0000
     22 ****        -2.5948   0.8159  -1.7665 H              1 S1                 0.0000
     23 ****        -2.8858   2.3985  -1.0779 H              1 S1                 0.0000
     24 ****        -3.1141   2.6486   1.3095 H              1 S1                 0.0000
     25 ****        -4.0576   1.2469   1.8246 H              1 S1                 0.0000
     26 ****        -2.0366   2.0685   3.3982 H              1 S1                 0.0000
     27 ****        -2.1783   0.3434   3.0501 H              1 S1                 0.0000
     28 ****        -0.3388   2.3501   1.7364 H              1 S1                 0.0000
     29 ****         0.0620   0.7378   2.3053 H              1 S1                 0.0000
     30 ****        -0.6764   1.5049  -0.3263 H              1 S1                 0.0000
     31 ****        -0.9525  -1.3080   0.8646 H              1 S1                 0.0000
     32 ****        -0.9481  -0.9630  -0.8464 H              1 S1                 0.0000
     33 ****         1.3180  -1.0808   0.9473 H              1 S1                 0.0000
     34 ****         3.4297   0.0226   0.2950 H              1 S1                 0.0000
     35 ****         3.8305   1.3186  -1.7757 H              1 S1                 0.0000
     36 ****         3.8601  -0.1593  -2.7331 H              1 S1                 0.0000
     37 ****         5.1078   0.1379  -1.5283 H              1 S1                 0.0000
     38 ****         3.8568  -2.1627   1.5509 H              1 S1                 0.0000
     39 ****         4.0057  -4.7608  -1.6443 H              1 S1                 0.0000
     40 ****        -2.8770  -0.1074   0.4476 H              1 S1                 0.0000
     41 ****         0.2572   0.3235  -2.0415 LP             1 S1                 0.0000
     42 ****         1.8734   0.4957  -2.6401 LP             1 S1                 0.0000
     43 ****         4.3022  -4.6074   0.9309 LP             1 S1                 0.0000
     44 ****         3.3936  -2.4889  -2.5615 LP             1 S1                 0.0000
@<TRIPOS>BOND
    1    1    2 1     
    2    1   19 1     
    3    1   20 1     
    4    1   21 1     
    5    2    3 1     
    6    2   22 1     
    7    2   23 1     
    8    3    7 1     
    9    3    4 1     
   10    3   40 1     
   11    4    5 1     
   12    4   24 1     
   13    4   25 1     
   14    5    6 1     
   15    5   26 1     
   16    5   27 1     
   17    6    7 1     
   18    6   28 1     
   19    6   29 1     
   20    7    8 1     
   21    7   30 1     
   22    8    9 1     
   23    8   31 1     
   24    8   32 1     
   25    9   10 am    
   26    9   33 1     
   27   10   11 2     
   28   10   12 1     
   29   12   13 1     
   30   12   14 1     
   31   12   34 1     
   32   13   35 1     
   33   13   36 1     
   34   13   37 1     
   35   14   18 1     
   36   14   15 1     
   37   15   16 2     
   38   15   38 1     
   39   16   17 1     
   40   17   18 2     
   41   17   39 1     
   42   11   41 1     
   43   11   42 1     
   44   16   43 1     
   45   18   44 1     
@<TRIPOS>SUBSTRUCTURE
      1 S1             1
@<TRIPOS>SET
LONE_PAIRS      STATIC     ATOMS    <user>   **** ""
4 41 42 43 44
DONOR_HYDROGENS      STATIC     ATOMS    <user>   **** ""
2 40 33
ATOM$BLUE        STATIC     ATOMS    COLORGROUP SYSTEM
4 41 42 43 44
ATOM$RED        STATIC     ATOMS    COLORGROUP SYSTEM
2 40 33
