AV-unprocessed.smi:61|AV-procd|sdf|599|dock6
  -GOLD-   2262016493D 1   1.00000     0.00000
 Structure written by MMmdl.
 29 30  0  0  0  0  0  0  0  0  2 V2000
  144.3500  137.8404  152.1838 N   0  0  0  0  0  0  0  0  0  0  0  0
  143.7073  136.6361  152.3365 C   0  0  0  0  0  0  0  0  0  0  0  0
  142.5707  136.6067  153.0401 N   0  0  0  0  0  0  0  0  0  0  0  0
  141.9328  135.4300  153.1946 C   0  0  0  0  0  0  0  0  0  0  0  0
  142.4361  134.2431  152.6366 C   0  0  0  0  0  0  0  0  0  0  0  0
  143.6422  134.3417  151.9084 C   0  0  0  0  0  0  0  0  0  0  0  0
  144.2655  133.2457  151.2944 N   0  0  0  0  0  0  0  0  0  0  0  0
  145.4940  132.8072  151.9498 C   0  0  0  0  0  0  0  0  0  0  0  0
  146.4896  132.4403  150.8389 C   0  0  0  0  0  0  0  0  0  0  0  0
  145.6332  132.3514  149.5780 C   0  0  0  0  0  0  0  0  0  0  0  0
  144.5430  133.3826  149.8694 C   0  0  1  0  0  0  0  0  0  0  0  0
  143.2819  133.3051  148.9845 C   0  0  0  0  0  0  0  0  0  0  0  0
  143.4002  134.1165  147.8340 O   0  0  0  0  0  0  0  0  0  0  0  0
  144.2496  135.5470  151.7742 N   0  3  0  0  0  0  0  0  0  0  0  0
  145.2109  137.8970  151.6587 H   0  0  0  0  0  0  0  0  0  0  0  0
  143.9704  138.6826  152.5913 H   0  0  0  0  0  0  0  0  0  0  0  0
  141.0164  135.4367  153.7659 H   0  0  0  0  0  0  0  0  0  0  0  0
  141.9159  133.3048  152.7618 H   0  0  0  0  0  0  0  0  0  0  0  0
  145.9102  133.5622  152.6184 H   0  0  0  0  0  0  0  0  0  0  0  0
  145.2619  131.9287  152.5525 H   0  0  0  0  0  0  0  0  0  0  0  0
  147.2230  133.2399  150.7278 H   0  0  0  0  0  0  0  0  0  0  0  0
  147.0319  131.5173  151.0464 H   0  0  0  0  0  0  0  0  0  0  0  0
  146.1919  132.5681  148.6671 H   0  0  0  0  0  0  0  0  0  0  0  0
  145.2150  131.3477  149.4903 H   0  0  0  0  0  0  0  0  0  0  0  0
  144.9848  134.3672  149.7105 H   0  0  0  0  0  0  0  0  0  0  0  0
  143.0742  132.2780  148.6828 H   0  0  0  0  0  0  0  0  0  0  0  0
  142.4155  133.6477  149.5507 H   0  0  0  0  0  0  0  0  0  0  0  0
  144.3077  134.1352  147.5697 H   0  0  0  0  0  0  0  0  0  0  0  0
  145.1197  135.6138  151.2456 H   0  0  0  0  0  0  0  0  0  0  0  0
  1  2  1  0  0  0  0
  1 15  1  0  0  0  0
  1 16  1  0  0  0  0
  2 14  1  0  0  0  0
  2  3  2  0  0  0  0
  3  4  1  0  0  0  0
  4  5  2  0  0  0  0
  4 17  1  0  0  0  0
  5  6  1  0  0  0  0
  5 18  1  0  0  0  0
  6  7  1  0  0  0  0
  6 14  2  0  0  0  0
  7 11  1  0  0  0  0
  7  8  1  0  0  0  0
  8  9  1  0  0  0  0
  8 19  1  0  0  0  0
  8 20  1  0  0  0  0
  9 10  1  0  0  0  0
  9 21  1  0  0  0  0
  9 22  1  0  0  0  0
 10 11  1  0  0  0  0
 10 23  1  0  0  0  0
 10 24  1  0  0  0  0
 11 12  1  0  0  0  0
 11 25  1  0  0  0  0
 12 13  1  0  0  0  0
 12 26  1  0  0  0  0
 12 27  1  0  0  0  0
 13 28  1  0  0  0  0
 14 29  1  0  0  0  0
M  CHG  1  14   1
M  END
> <s_m_source_file>
AV-unprocessed.smi

> <i_m_source_file_index>
61

> <i_lp_mmshare_version>
43012

> <i_f3d_flags>
0

> <s_epik_input>
W05IMl1jMW5bY0hdW2NIXWMobjEpTjJbQ0gyXVtDSDJdW0NIMl1bQ0BIXTJbQ0gyXVtPSF0=

> <s_epik_cmdline>
J2VwaWtfcHl0aG9uJywgJy1waCcsICc3LjAnLCAnLXRuJywgJzgnLCAnLW1hJywgJzIwMCcsICctbWV0YWxfYmluZGluZycsICctaW1hZScsICc8aW5maWxlLm1hZT4nLCAnLW9tYWUnLCAnPG91dGZpbGUubWFlPic=

> <r_lp_tautomer_probability>
0.424989

> <r_epik_Ionization_Penalty>
0.696162

> <r_epik_Ionization_Penalty_Charging>
0.696158

> <r_epik_Ionization_Penalty_Neutral>
4.43138e-06

> <r_epik_State_Penalty>
0.906374

> <r_epik_Charging_Adjusted_Penalty>
1.60253

> <i_epik_Tot_Q>
1

> <i_epik_Tot_abs_Q>
1

> <r_epik_Metal_State_Penalty>
1.16703

> <b_epik_Metal_Only>
0

> <s_lp_Force_Field>
OPLS_2005

> <r_lp_Energy>
33.2177

> <b_lp_Chiralities_Consistent>
1

> <s_lp_Variant>
AV-unprocessed.smi:61-5

> <Gold.Version>
5.8.1

> <Gold.Id.Protein>
6NUR|6NUR_protein|mol2

> <Gold.PLP.Fitness>
37.8628

> <Gold.PLP.PLP>
-26.9431

> <Gold.PLP.part.hbond>
-6.0000

> <Gold.PLP.part.metal>
0.0000

> <Gold.PLP.part.buried>
0.1613

> <Gold.PLP.part.nonpolar>
-21.3876

> <Gold.PLP.part.repulsive>
0.3543

> <Gold.PLP.ligand.clash>
0.0000

> <Gold.PLP.ligand.torsion>
0.5632

> <Gold.PLP.Chemscore.Hbond>
4.0000

> <Gold.PLP.Chemscore.CHOScore>
0.0000

> <Gold.PLP.Chemscore.Metal>
0.0000

> <Gold.Chemscore.Hbonds>
donor molecule, donor type, donor heavy atom, donor atom, acceptor molecule, acceptor atom, score
      L1  H     1    16       P1 10175  1.95
      L1  H    13    28       P1  7921  1.00
      P1  H 10192 10197       L1    13  1.00

> <Gold.PLP.Chemscore.Internal.Correction>
0.0461

> <Gold.Rescore>
     Score         DG    S(hbond)    S(metal)    S(lipo)     H(rot)  DE(clash)    DE(int)     intcor
     15.00     -17.33       2.96        0.00      60.20       1.98       1.63       0.70       ----

> <Gold.Chemscore.Fitness>
15.0049

> <Gold.Chemscore.DG>
-17.3301

> <Gold.Chemscore.ZeroCoef>
-5.4800

> <Gold.Chemscore.Hbond>
2.9597

> <Gold.Chemscore.Metal>
0.0000

> <Gold.Chemscore.Lipo>
60.2001

> <Gold.Chemscore.Internal_Hbond>
0.0000

> <Gold.Chemscore.DEClash>
1.6269

> <Gold.Chemscore.DEInternal>
0.6983

> <Gold.Chemscore.Rot>
1.9838

> <Gold.Chemscore.Internal.Correction>
   9.000000E+99

> <Gold.Chemscore.Hbonds>
donor molecule, donor type, donor heavy atom, donor atom, acceptor molecule, acceptor atom, score
      L1  H     1    16       P1 10175  0.93
      L1  H    13    28       P1  7921  0.98
      P1  H 10192 10197       L1    13  0.99

> <Gold.Chemscore.Hbond.Weighted>
-9.8853

> <Gold.Chemscore.Metal.Weighted>
-0.0000

> <Gold.Chemscore.Lipo.Weighted>
-7.0434

> <Gold.Chemscore.Internal_Hbond.Weighted>
0.0000

> <Gold.Chemscore.DEClash.Weighted>
1.6269

> <Gold.Chemscore.DEInternal.Weighted>
0.6983

> <Gold.Chemscore.Rot.Weighted>
5.0786

> <Gold.Chemscore.Internal.Correction.Weighted>
   9.000000E+99

> <Gold.Protein.RotatedTorsions>
[ 6907 6896 6895 6894 ] final -153.94 input  -60.11 | X-H torsion
[ 7974 7965 7964 7962 ] final  119.17 input  175.53 | X-H torsion
[ 8008 7997 7996 7995 ] final  109.12 input   59.86 | X-H torsion
[ 10167 10162 10161 10158 ] final -128.53 input  -65.29 | X-H torsion
[ 10718 10713 10712 10709 ] final   44.56 input   66.30 | X-H torsion
[ 10763 10752 10751 10750 ] final   27.53 input  -60.55 | X-H torsion
[ 11005 11000 10999 10996 ] final  118.90 input  -57.11 | X-H torsion

> <Gold.Protein.ActiveResidues>
 VAL166  LYS551  ARG553  GLY616  TRP617  ASP618  TYR619  PRO620  LYS621  CYS622 
 ASP623  PHE694  ASN695  SER759  ASP760  ASP761  ALA762  ILE779  LEU786  VAL792 
 PHE793  MET794  SER795  GLU796  ALA797  LYS798  CYS799  TRP800  GLU811  SER814 

> <Gold.Protein.RotatedAtoms>
  151.2500  133.4355  159.2610 H   0  0  0  0  0  0  0  0  0  0  0  0  # atno 6907 bound_to 6896
  151.0626  134.9747  159.8278 H   0  0  0  0  0  0  0  0  0  0  0  0  # atno 6908 bound_to 6896
  152.5400  134.2449  159.8929 H   0  0  0  0  0  0  0  0  0  0  0  0  # atno 6909 bound_to 6896
  145.1463  139.3237  143.4589 H   0  0  0  0  0  0  0  0  0  0  0  0  # atno 7974 bound_to 7965
  156.1955  140.3064  155.9418 H   0  0  0  0  0  0  0  0  0  0  0  0  # atno 8008 bound_to 7997
  155.3076  140.0449  157.3050 H   0  0  0  0  0  0  0  0  0  0  0  0  # atno 8009 bound_to 7997
  154.5504  140.2289  155.8503 H   0  0  0  0  0  0  0  0  0  0  0  0  # atno 8010 bound_to 7997
  139.9493  143.6074  152.2480 H   0  0  0  0  0  0  0  0  0  0  0  0  # atno 10167 bound_to 10162
  157.4281  130.8009  149.7578 H   0  0  0  0  0  0  0  0  0  0  0  0  # atno 10718 bound_to 10713
  153.0550  135.6535  154.0601 H   0  0  0  0  0  0  0  0  0  0  0  0  # atno 10763 bound_to 10752
  154.0281  135.2914  155.3373 H   0  0  0  0  0  0  0  0  0  0  0  0  # atno 10764 bound_to 10752
  154.6859  135.5301  153.8393 H   0  0  0  0  0  0  0  0  0  0  0  0  # atno 10765 bound_to 10752
  139.9126  134.9624  156.7573 H   0  0  0  0  0  0  0  0  0  0  0  0  # atno 11005 bound_to 11000
  146.3499  140.1520  142.8592 LP  0  0  0  0  0  0  0  0  0  0  0  0  # atno 17320 bound_to 7965
  145.0478  140.8994  143.5014 LP  0  0  0  0  0  0  0  0  0  0  0  0  # atno 17321 bound_to 7965
  139.6641  144.7662  151.1906 LP  0  0  0  0  0  0  0  0  0  0  0  0  # atno 17342 bound_to 10162
  140.7588  143.5964  150.8743 LP  0  0  0  0  0  0  0  0  0  0  0  0  # atno 17343 bound_to 10162
  155.9904  130.3945  150.3032 LP  0  0  0  0  0  0  0  0  0  0  0  0  # atno 17370 bound_to 10713
  157.1186  131.0240  151.3019 LP  0  0  0  0  0  0  0  0  0  0  0  0  # atno 17371 bound_to 10713
  140.6726  133.9546  155.7865 LP  0  0  0  0  0  0  0  0  0  0  0  0  # atno 17394 bound_to 11000
  141.0567  134.0406  157.3713 LP  0  0  0  0  0  0  0  0  0  0  0  0  # atno 17395 bound_to 11000

$$$$
