AV-unprocessed.smi:283|AV-procd|sdf|2145|dock10
  -GOLD-   2262021473D 1   1.00000     0.00000
 Structure written by MMmdl.
 48 51  0  0  0  0  0  0  0  0  1 V2000
  148.8158  142.2382  158.2506 C   0  0  0  0  0  0  0  0  0  0  0  0
  150.1236  142.0515  157.4699 C   0  0  2  0  0  0  0  0  0  0  0  0
  150.0328  140.8640  156.6221 N   0  0  0  0  0  0  0  0  0  0  0  0
  148.9478  140.6493  155.8450 C   0  0  0  0  0  0  0  0  0  0  0  0
  148.2052  141.6844  155.3723 N   0  0  0  0  0  0  0  0  0  0  0  0
  147.1375  141.4453  154.6056 C   0  0  0  0  0  0  0  0  0  0  0  0
  146.6457  140.2713  154.2035 N   0  0  0  0  0  0  0  0  0  0  0  0
  147.3864  139.2276  154.6787 C   0  0  0  0  0  0  0  0  0  0  0  0
  148.5415  139.3344  155.5022 C   0  0  0  0  0  0  0  0  0  0  0  0
  149.0317  138.0682  155.7939 N   0  0  0  0  0  0  0  0  0  0  0  0
  148.2096  137.2619  155.1776 C   0  0  0  0  0  0  0  0  0  0  0  0
  147.1893  137.8745  154.4847 N   0  0  0  0  0  0  0  0  0  0  0  0
  146.1051  137.2147  153.6913 C   0  0  2  0  0  0  0  0  0  0  0  0
  146.2682  135.8385  153.7511 O   0  0  0  0  0  0  0  0  0  0  0  0
  145.5594  135.2519  152.6677 C   0  0  1  0  0  0  0  0  0  0  0  0
  144.1655  134.8408  153.1912 C   0  0  0  0  0  0  0  0  0  0  0  0
  144.2711  134.1297  154.4068 O   0  0  0  0  0  0  0  0  0  0  0  0
  145.6072  136.3105  151.5357 C   0  0  1  0  0  0  0  0  0  0  0  0
  144.3439  136.5430  150.9405 O   0  0  0  0  0  0  0  0  0  0  0  0
  146.1134  137.5911  152.2030 C   0  0  2  0  0  0  0  0  0  0  0  0
  147.3937  137.9472  151.7137 O   0  0  0  0  0  0  0  0  0  0  0  0
  151.3211  142.0552  158.4229 C   0  0  0  0  0  0  0  0  0  0  0  0
  151.5781  140.9235  159.2314 C   0  0  0  0  0  0  0  0  0  0  0  0
  152.6733  140.9058  160.1150 C   0  0  0  0  0  0  0  0  0  0  0  0
  153.5208  142.0245  160.2056 C   0  0  0  0  0  0  0  0  0  0  0  0
  153.2684  143.1602  159.4143 C   0  0  0  0  0  0  0  0  0  0  0  0
  152.1738  143.1830  158.5267 C   0  0  0  0  0  0  0  0  0  0  0  0
  151.9062  144.6096  157.5873 Cl  0  0  0  0  0  0  0  0  0  0  0  0
  145.1760  137.4944  154.1908 H   0  0  0  0  0  0  0  0  0  0  0  0
  146.1039  134.3549  152.3695 H   0  0  0  0  0  0  0  0  0  0  0  0
  146.2944  135.9865  150.7525 H   0  0  0  0  0  0  0  0  0  0  0  0
  145.4460  138.4416  152.0555 H   0  0  0  0  0  0  0  0  0  0  0  0
  148.8319  143.1656  158.8238 H   0  0  0  0  0  0  0  0  0  0  0  0
  148.6490  141.4178  158.9497 H   0  0  0  0  0  0  0  0  0  0  0  0
  147.9588  142.2835  157.5779 H   0  0  0  0  0  0  0  0  0  0  0  0
  150.2134  142.8975  156.7894 H   0  0  0  0  0  0  0  0  0  0  0  0
  150.8867  140.3344  156.5213 H   0  0  0  0  0  0  0  0  0  0  0  0
  146.6000  142.3188  154.2672 H   0  0  0  0  0  0  0  0  0  0  0  0
  148.3247  136.1884  155.2134 H   0  0  0  0  0  0  0  0  0  0  0  0
  143.5726  135.7339  153.3908 H   0  0  0  0  0  0  0  0  0  0  0  0
  143.6124  134.2537  152.4574 H   0  0  0  0  0  0  0  0  0  0  0  0
  143.8691  133.2822  154.2956 H   0  0  0  0  0  0  0  0  0  0  0  0
  144.2733  137.4633  150.7385 H   0  0  0  0  0  0  0  0  0  0  0  0
  148.0281  137.3450  152.0715 H   0  0  0  0  0  0  0  0  0  0  0  0
  150.9349  140.0575  159.1772 H   0  0  0  0  0  0  0  0  0  0  0  0
  152.8616  140.0337  160.7237 H   0  0  0  0  0  0  0  0  0  0  0  0
  154.3617  142.0133  160.8832 H   0  0  0  0  0  0  0  0  0  0  0  0
  153.9184  144.0194  159.4906 H   0  0  0  0  0  0  0  0  0  0  0  0
  1  2  1  0  0  0  0
  1 33  1  0  0  0  0
  1 34  1  0  0  0  0
  1 35  1  0  0  0  0
  2  3  1  0  0  0  0
  2 22  1  0  0  0  0
  2 36  1  0  0  0  0
  3  4  1  0  0  0  0
  3 37  1  0  0  0  0
  4  9  1  0  0  0  0
  4  5  2  0  0  0  0
  5  6  1  0  0  0  0
  6  7  2  0  0  0  0
  6 38  1  0  0  0  0
  7  8  1  0  0  0  0
  8 12  1  0  0  0  0
  8  9  2  0  0  0  0
  9 10  1  0  0  0  0
 10 11  2  0  0  0  0
 11 12  1  0  0  0  0
 11 39  1  0  0  0  0
 12 13  1  0  0  0  0
 13 29  1  0  0  0  0
 13 20  1  0  0  0  0
 13 14  1  0  0  0  0
 14 15  1  0  0  0  0
 15 30  1  0  0  0  0
 15 16  1  0  0  0  0
 15 18  1  0  0  0  0
 16 17  1  0  0  0  0
 16 40  1  0  0  0  0
 16 41  1  0  0  0  0
 17 42  1  0  0  0  0
 18 31  1  0  0  0  0
 18 19  1  0  0  0  0
 18 20  1  0  0  0  0
 19 43  1  0  0  0  0
 20 32  1  0  0  0  0
 20 21  1  0  0  0  0
 21 44  1  0  0  0  0
 22 27  1  0  0  0  0
 22 23  2  0  0  0  0
 23 24  1  0  0  0  0
 23 45  1  0  0  0  0
 24 25  2  0  0  0  0
 24 46  1  0  0  0  0
 25 26  1  0  0  0  0
 25 47  1  0  0  0  0
 26 27  2  0  0  0  0
 26 48  1  0  0  0  0
 27 28  1  0  0  0  0
M  END
> <s_m_source_file>
AV-unprocessed.smi

> <i_m_source_file_index>
283

> <i_lp_mmshare_version>
43012

> <i_f3d_flags>
0

> <s_epik_input>
Q2xjMVtjSF1bY0hdW2NIXVtjSF1jMVtDQEhdKFtDSDNdKVtOSF1jKG5bY0hdbjIpYyhjMjMpbltjSF1uM1tDQEBIXTRPW0NASF0oW0NIMl1bT0hdKVtDQEBIXShbT0hdKVtDQEhdNFtPSF0=

> <s_epik_cmdline>
J2VwaWtfcHl0aG9uJywgJy1waCcsICc3LjAnLCAnLXRuJywgJzgnLCAnLW1hJywgJzIwMCcsICctbWV0YWxfYmluZGluZycsICctaW1hZScsICc8aW5maWxlLm1hZT4nLCAnLW9tYWUnLCAnPG91dGZpbGUubWFlPic=

> <r_lp_tautomer_probability>
1

> <r_epik_Ionization_Penalty>
0.000266407

> <r_epik_Ionization_Penalty_Charging>
0

> <r_epik_Ionization_Penalty_Neutral>
0.000266407

> <r_epik_State_Penalty>
-0

> <r_epik_Charging_Adjusted_Penalty>
0

> <i_epik_Tot_Q>
0

> <i_epik_Tot_abs_Q>
0

> <r_epik_Metal_State_Penalty>
-0

> <b_epik_Metal_Only>
0

> <s_epik_Chemistry_Notes>
This compound contains an acetal/aminal-like group ( X-CH(R)-Y where X, Y are N, S, or O) that may be acid/base labile, releasing an aldehyde.

> <s_lp_Force_Field>
OPLS_2005

> <r_lp_Energy>
49.3255

> <b_lp_Chiralities_Consistent>
1

> <s_lp_Variant>
AV-unprocessed.smi:283-21

> <Gold.Version>
5.8.1

> <Gold.Id.Protein>
6NUR|6NUR_protein|mol2

> <Gold.PLP.Fitness>
49.3117

> <Gold.PLP.PLP>
-40.5236

> <Gold.PLP.part.hbond>
-3.8481

> <Gold.PLP.part.metal>
0.0000

> <Gold.PLP.part.buried>
-8.4977

> <Gold.PLP.part.nonpolar>
-31.3800

> <Gold.PLP.part.repulsive>
0.6531

> <Gold.PLP.ligand.clash>
0.0000

> <Gold.PLP.ligand.torsion>
0.6475

> <Gold.PLP.Chemscore.Hbond>
3.3448

> <Gold.PLP.Chemscore.CHOScore>
0.0000

> <Gold.PLP.Chemscore.Metal>
0.0000

> <Gold.Chemscore.Hbonds>
donor molecule, donor type, donor heavy atom, donor atom, acceptor molecule, acceptor atom, score
      L1  H    17    42       P1 10957  1.00
      L1  H    19    43       P1 10171  0.94
      L1  H    21    44       P1  7948  0.74
      P1  H  7954  7966       L1    21  0.65

> <Gold.PLP.Chemscore.Internal.Correction>
0.0485

> <Gold.Rescore>
     Score         DG    S(hbond)    S(metal)    S(lipo)     H(rot)  DE(clash)    DE(int)     intcor
     14.03     -16.13       2.91        0.00      97.75       4.10       0.01       2.08       ----

> <Gold.Chemscore.Fitness>
14.0344

> <Gold.Chemscore.DG>
-16.1331

> <Gold.Chemscore.ZeroCoef>
-5.4800

> <Gold.Chemscore.Hbond>
2.9056

> <Gold.Chemscore.Metal>
0.0000

> <Gold.Chemscore.Lipo>
97.7476

> <Gold.Chemscore.Internal_Hbond>
0.0000

> <Gold.Chemscore.DEClash>
0.0149

> <Gold.Chemscore.DEInternal>
2.0839

> <Gold.Chemscore.Rot>
4.0968

> <Gold.Chemscore.Internal.Correction>
   9.000000E+99

> <Gold.Chemscore.Hbonds>
donor molecule, donor type, donor heavy atom, donor atom, acceptor molecule, acceptor atom, score
      L1  H    17    42       P1 10957  0.95
      L1  H    19    43       P1 10171  0.85
      L1  H    21    44       P1  7948  0.70
      P1  H  7954  7966       L1    21  0.06

> <Gold.Chemscore.Hbond.Weighted>
-9.7046

> <Gold.Chemscore.Metal.Weighted>
-0.0000

> <Gold.Chemscore.Lipo.Weighted>
-11.4365

> <Gold.Chemscore.Internal_Hbond.Weighted>
0.0000

> <Gold.Chemscore.DEClash.Weighted>
0.0149

> <Gold.Chemscore.DEInternal.Weighted>
2.0839

> <Gold.Chemscore.Rot.Weighted>
10.4879

> <Gold.Chemscore.Internal.Correction.Weighted>
   9.000000E+99

> <Gold.Protein.RotatedTorsions>
[ 6907 6896 6895 6894 ] final   68.36 input  -60.11 | X-H torsion
[ 7974 7965 7964 7962 ] final  155.33 input  175.53 | X-H torsion
[ 8008 7997 7996 7995 ] final  146.12 input   59.86 | X-H torsion
[ 10167 10162 10161 10158 ] final  110.60 input  -65.29 | X-H torsion
[ 10718 10713 10712 10709 ] final  -51.84 input   66.30 | X-H torsion
[ 10763 10752 10751 10750 ] final  -73.49 input  -60.55 | X-H torsion
[ 11005 11000 10999 10996 ] final  123.91 input  -57.11 | X-H torsion

> <Gold.Protein.ActiveResidues>
 VAL166  LYS551  ARG553  GLY616  TRP617  ASP618  TYR619  PRO620  LYS621  CYS622 
 ASP623  PHE694  ASN695  SER759  ASP760  ASP761  ALA762  ILE779  LEU786  VAL792 
 PHE793  MET794  SER795  GLU796  ALA797  LYS798  CYS799  TRP800  GLU811  SER814 

> <Gold.Protein.RotatedAtoms>
  152.4615  134.5174  159.9771 H   0  0  0  0  0  0  0  0  0  0  0  0  # atno 6907 bound_to 6896
  151.5222  133.3458  159.2911 H   0  0  0  0  0  0  0  0  0  0  0  0  # atno 6908 bound_to 6896
  150.8580  134.7953  159.7123 H   0  0  0  0  0  0  0  0  0  0  0  0  # atno 6909 bound_to 6896
  144.8031  139.7054  143.6173 H   0  0  0  0  0  0  0  0  0  0  0  0  # atno 7974 bound_to 7965
  156.2864  140.2191  156.5325 H   0  0  0  0  0  0  0  0  0  0  0  0  # atno 8008 bound_to 7997
  154.7437  140.0485  157.0855 H   0  0  0  0  0  0  0  0  0  0  0  0  # atno 8009 bound_to 7997
  155.0198  140.3122  155.4801 H   0  0  0  0  0  0  0  0  0  0  0  0  # atno 8010 bound_to 7997
  139.6675  144.7127  151.1749 H   0  0  0  0  0  0  0  0  0  0  0  0  # atno 10167 bound_to 10162
  156.1674  130.4149  149.9699 H   0  0  0  0  0  0  0  0  0  0  0  0  # atno 10718 bound_to 10713
  154.4601  135.5895  153.6250 H   0  0  0  0  0  0  0  0  0  0  0  0  # atno 10763 bound_to 10752
  152.9822  135.6042  154.3496 H   0  0  0  0  0  0  0  0  0  0  0  0  # atno 10764 bound_to 10752
  154.3367  135.2842  155.2423 H   0  0  0  0  0  0  0  0  0  0  0  0  # atno 10765 bound_to 10752
  139.9334  134.9640  156.8330 H   0  0  0  0  0  0  0  0  0  0  0  0  # atno 11005 bound_to 11000
  146.2317  139.5827  142.9551 LP  0  0  0  0  0  0  0  0  0  0  0  0  # atno 17320 bound_to 7965
  145.5503  141.0414  143.2282 LP  0  0  0  0  0  0  0  0  0  0  0  0  # atno 17321 bound_to 7965
  140.7605  143.5896  150.8810 LP  0  0  0  0  0  0  0  0  0  0  0  0  # atno 17342 bound_to 10162
  139.9558  143.6219  152.3016 LP  0  0  0  0  0  0  0  0  0  0  0  0  # atno 17343 bound_to 10162
  156.7510  130.9115  151.3637 LP  0  0  0  0  0  0  0  0  0  0  0  0  # atno 17370 bound_to 10713
  157.6778  130.9111  150.0192 LP  0  0  0  0  0  0  0  0  0  0  0  0  # atno 17371 bound_to 10713
  140.6141  134.0055  155.7589 LP  0  0  0  0  0  0  0  0  0  0  0  0  # atno 17394 bound_to 11000
  141.0935  133.9880  157.3198 LP  0  0  0  0  0  0  0  0  0  0  0  0  # atno 17395 bound_to 11000

$$$$
