AV-unprocessed.smi:1749|AV-procd|sdf|7049|dock4
  -GOLD-   22720 8263D 1   1.00000     0.00000
 Structure written by MMmdl.
 31 32  0  0  0  0  0  0  0  0  2 V2000
  153.7916  141.3827  160.1379 C   0  0  0  0  0  0  0  0  0  0  0  0
  152.6399  142.3045  159.7127 C   0  0  1  0  0  0  0  0  0  0  0  0
  153.0409  143.7891  159.8072 C   0  0  0  0  0  0  0  0  0  0  0  0
  151.8864  144.7110  159.3852 C   0  0  0  0  0  0  0  0  0  0  0  0
  151.3899  144.3699  157.9722 C   0  0  0  0  0  0  0  0  0  0  0  0
  150.9799  142.8900  157.8639 C   0  0  1  0  0  0  0  0  0  0  0  0
  150.5662  142.6034  156.4933 N   0  0  0  0  0  0  0  0  0  0  0  0
  150.3816  141.3840  155.9499 C   0  0  0  0  0  0  0  0  0  0  0  0
  150.5948  140.3864  156.6378 O   0  0  0  0  0  0  0  0  0  0  0  0
  149.9658  141.3217  154.6572 N   0  5  0  0  0  0  0  0  0  0  0  0
  148.8933  140.6045  154.2736 C   0  0  0  0  0  0  0  0  0  0  0  0
  148.8322  139.2698  154.4076 N   0  0  0  0  0  0  0  0  0  0  0  0
  147.6404  138.7287  153.9447 N   0  0  0  0  0  0  0  0  0  0  0  0
  146.8247  139.6753  153.4814 C   0  0  0  0  0  0  0  0  0  0  0  0
  147.4379  141.3128  153.5684 S   0  0  0  0  0  0  0  0  0  0  0  0
  152.1417  141.9692  158.2929 C   0  0  0  0  0  0  0  0  0  0  0  0
  154.6568  141.5007  159.4850 H   0  0  0  0  0  0  0  0  0  0  0  0
  153.4884  140.3359  160.1032 H   0  0  0  0  0  0  0  0  0  0  0  0
  154.1113  141.5993  161.1574 H   0  0  0  0  0  0  0  0  0  0  0  0
  151.8136  142.1353  160.4047 H   0  0  0  0  0  0  0  0  0  0  0  0
  153.3465  144.0298  160.8259 H   0  0  0  0  0  0  0  0  0  0  0  0
  153.9073  143.9786  159.1718 H   0  0  0  0  0  0  0  0  0  0  0  0
  151.0631  144.6152  160.0943 H   0  0  0  0  0  0  0  0  0  0  0  0
  152.2085  145.7519  159.4241 H   0  0  0  0  0  0  0  0  0  0  0  0
  150.5467  145.0116  157.7138 H   0  0  0  0  0  0  0  0  0  0  0  0
  152.1779  144.5890  157.2496 H   0  0  0  0  0  0  0  0  0  0  0  0
  150.1312  142.7244  158.5302 H   0  0  0  0  0  0  0  0  0  0  0  0
  150.3942  143.4017  155.9001 H   0  0  0  0  0  0  0  0  0  0  0  0
  145.8556  139.4083  153.0873 H   0  0  0  0  0  0  0  0  0  0  0  0
  152.9658  142.0635  157.5839 H   0  0  0  0  0  0  0  0  0  0  0  0
  151.8225  140.9269  158.2552 H   0  0  0  0  0  0  0  0  0  0  0  0
  1  2  1  0  0  0  0
  1 17  1  0  0  0  0
  1 18  1  0  0  0  0
  1 19  1  0  0  0  0
  2 16  1  0  0  0  0
  2  3  1  0  0  0  0
  2 20  1  0  0  0  0
  3  4  1  0  0  0  0
  3 21  1  0  0  0  0
  3 22  1  0  0  0  0
  4  5  1  0  0  0  0
  4 23  1  0  0  0  0
  4 24  1  0  0  0  0
  5  6  1  0  0  0  0
  5 25  1  0  0  0  0
  5 26  1  0  0  0  0
  6  7  1  0  0  0  0
  6 16  1  0  0  0  0
  6 27  1  0  0  0  0
  7  8  1  0  0  0  0
  7 28  1  0  0  0  0
  8  9  2  0  0  0  0
  8 10  1  0  0  0  0
 10 11  1  0  0  0  0
 11 15  1  0  0  0  0
 11 12  2  0  0  0  0
 12 13  1  0  0  0  0
 13 14  2  0  0  0  0
 14 15  1  0  0  0  0
 14 29  1  0  0  0  0
 16 30  1  0  0  0  0
 16 31  1  0  0  0  0
M  CHG  1  10  -1
M  END
> <s_m_source_file>
AV-unprocessed.smi

> <i_m_source_file_index>
1749

> <i_lp_mmshare_version>
43012

> <i_f3d_flags>
0

> <s_epik_input>
W0NIM11bQ0BASF0xW0NIMl1bQ0gyXVtDSDJdW0NASF0oW0NIMl0xKVtOSF1DKD1PKVtOSF1jMm5uW2NIXXMy

> <s_epik_cmdline>
J2VwaWtfcHl0aG9uJywgJy1waCcsICc3LjAnLCAnLXRuJywgJzgnLCAnLW1hJywgJzIwMCcsICctbWV0YWxfYmluZGluZycsICctaW1hZScsICc8aW5maWxlLm1hZT4nLCAnLW9tYWUnLCAnPG91dGZpbGUubWFlPic=

> <r_lp_tautomer_probability>
1

> <r_epik_Ionization_Penalty>
4.55442

> <r_epik_Ionization_Penalty_Charging>
4.5081

> <r_epik_Ionization_Penalty_Neutral>
0.0463156

> <r_epik_State_Penalty>
4.50781

> <r_epik_Charging_Adjusted_Penalty>
9.01591

> <i_epik_Tot_Q>
-1

> <i_epik_Tot_abs_Q>
1

> <r_epik_Metal_State_Penalty>
0.823335

> <b_epik_Metal_Only>
1

> <s_lp_Force_Field>
OPLS_2005

> <r_lp_Energy>
8.86437

> <b_lp_Chiralities_Consistent>
1

> <s_lp_Variant>
AV-unprocessed.smi:1749-6

> <Gold.Version>
5.8.1

> <Gold.Id.Protein>
6NUR|6NUR_protein|mol2

> <Gold.PLP.Fitness>
39.5067

> <Gold.PLP.PLP>
-35.3383

> <Gold.PLP.part.hbond>
-2.1313

> <Gold.PLP.part.metal>
0.0000

> <Gold.PLP.part.buried>
-4.1054

> <Gold.PLP.part.nonpolar>
-29.1179

> <Gold.PLP.part.repulsive>
0.5429

> <Gold.PLP.ligand.clash>
0.0000

> <Gold.PLP.ligand.torsion>
1.2455

> <Gold.PLP.Chemscore.Hbond>
1.2196

> <Gold.PLP.Chemscore.CHOScore>
0.9963

> <Gold.PLP.Chemscore.Metal>
0.0000

> <Gold.Chemscore.Hbonds>
donor molecule, donor type, donor heavy atom, donor atom, acceptor molecule, acceptor atom, score
      L1  H     7    28       P1  8028  0.72
      P1  H  7989  7998       L1    10  0.44
      L1  C    14    29       P1 10175  1.00

> <Gold.PLP.Chemscore.Internal.Correction>
0.0117

> <Gold.Rescore>
     Score         DG    S(hbond)    S(metal)    S(lipo)     H(rot)  DE(clash)    DE(int)     intcor
     14.28     -17.26       1.21        0.00      88.04       1.00       0.18       2.80       ----

> <Gold.Chemscore.Fitness>
14.2814

> <Gold.Chemscore.DG>
-17.2595

> <Gold.Chemscore.ZeroCoef>
-5.4800

> <Gold.Chemscore.Hbond>
1.2092

> <Gold.Chemscore.Metal>
0.0000

> <Gold.Chemscore.Lipo>
88.0402

> <Gold.Chemscore.Internal_Hbond>
0.0000

> <Gold.Chemscore.DEClash>
0.1828

> <Gold.Chemscore.DEInternal>
2.7954

> <Gold.Chemscore.Rot>
1.0000

> <Gold.Chemscore.Internal.Correction>
   9.000000E+99

> <Gold.Chemscore.Hbonds>
donor molecule, donor type, donor heavy atom, donor atom, acceptor molecule, acceptor atom, score
      L1  H     7    28       P1  8028  0.69
      P1  H  7989  7998       L1    10  0.23

> <Gold.Chemscore.Hbond.Weighted>
-4.0388

> <Gold.Chemscore.Metal.Weighted>
-0.0000

> <Gold.Chemscore.Lipo.Weighted>
-10.3007

> <Gold.Chemscore.Internal_Hbond.Weighted>
0.0000

> <Gold.Chemscore.DEClash.Weighted>
0.1828

> <Gold.Chemscore.DEInternal.Weighted>
2.7954

> <Gold.Chemscore.Rot.Weighted>
2.5600

> <Gold.Chemscore.Internal.Correction.Weighted>
   9.000000E+99

> <Gold.Protein.RotatedTorsions>
[ 6907 6896 6895 6894 ] final   10.61 input  -60.11 | X-H torsion
[ 7974 7965 7964 7962 ] final  -20.06 input  175.53 | X-H torsion
[ 8008 7997 7996 7995 ] final -160.00 input   59.86 | X-H torsion
[ 10167 10162 10161 10158 ] final -110.54 input  -65.29 | X-H torsion
[ 10718 10713 10712 10709 ] final  155.13 input   66.30 | X-H torsion
[ 10763 10752 10751 10750 ] final  137.13 input  -60.55 | X-H torsion
[ 11005 11000 10999 10996 ] final -107.52 input  -57.11 | X-H torsion

> <Gold.Protein.ActiveResidues>
 VAL166  LYS551  ARG553  GLY616  TRP617  ASP618  TYR619  PRO620  LYS621  CYS622 
 ASP623  PHE694  ASN695  SER759  ASP760  ASP761  ALA762  ILE779  LEU786  VAL792 
 PHE793  MET794  SER795  GLU796  ALA797  LYS798  CYS799  TRP800  GLU811  SER814 

> <Gold.Protein.RotatedAtoms>
  151.7410  135.0854  160.0315 H   0  0  0  0  0  0  0  0  0  0  0  0  # atno 6907 bound_to 6896
  152.3479  133.6140  159.5932 H   0  0  0  0  0  0  0  0  0  0  0  0  # atno 6908 bound_to 6896
  150.7521  133.9536  159.3535 H   0  0  0  0  0  0  0  0  0  0  0  0  # atno 6909 bound_to 6896
  146.1808  140.4149  142.8495 H   0  0  0  0  0  0  0  0  0  0  0  0  # atno 7974 bound_to 7965
  155.7709  140.0852  157.2108 H   0  0  0  0  0  0  0  0  0  0  0  0  # atno 8008 bound_to 7997
  154.3996  140.1525  156.2998 H   0  0  0  0  0  0  0  0  0  0  0  0  # atno 8009 bound_to 7997
  155.8748  140.3423  155.5849 H   0  0  0  0  0  0  0  0  0  0  0  0  # atno 8010 bound_to 7997
  140.1433  143.4260  152.1547 H   0  0  0  0  0  0  0  0  0  0  0  0  # atno 10167 bound_to 10162
  157.2224  131.0721  151.1904 H   0  0  0  0  0  0  0  0  0  0  0  0  # atno 10718 bound_to 10713
  153.8680  135.3059  155.3441 H   0  0  0  0  0  0  0  0  0  0  0  0  # atno 10763 bound_to 10752
  154.7818  135.4831  153.9865 H   0  0  0  0  0  0  0  0  0  0  0  0  # atno 10764 bound_to 10752
  153.1423  135.6826  153.9104 H   0  0  0  0  0  0  0  0  0  0  0  0  # atno 10765 bound_to 10752
  141.0949  133.8988  157.1986 H   0  0  0  0  0  0  0  0  0  0  0  0  # atno 11005 bound_to 11000
  144.8312  140.6710  143.6289 LP  0  0  0  0  0  0  0  0  0  0  0  0  # atno 17320 bound_to 7965
  145.4081  139.1585  143.4141 LP  0  0  0  0  0  0  0  0  0  0  0  0  # atno 17321 bound_to 7965
  139.5461  144.7299  151.4579 LP  0  0  0  0  0  0  0  0  0  0  0  0  # atno 17342 bound_to 10162
  140.6747  143.8216  150.7043 LP  0  0  0  0  0  0  0  0  0  0  0  0  # atno 17343 bound_to 10162
  157.3562  130.7108  149.6472 LP  0  0  0  0  0  0  0  0  0  0  0  0  # atno 17370 bound_to 10713
  155.9681  130.4238  150.4580 LP  0  0  0  0  0  0  0  0  0  0  0  0  # atno 17371 bound_to 10713
  139.9784  135.0106  156.9688 LP  0  0  0  0  0  0  0  0  0  0  0  0  # atno 17394 bound_to 11000
  140.5163  134.0952  155.7281 LP  0  0  0  0  0  0  0  0  0  0  0  0  # atno 17395 bound_to 11000

$$$$
