AV-unprocessed.smi:2834|AV-procd|sdf|10917|dock1
  -GOLD-   2272015363D 1   1.00000     0.00000
 Structure written by MMmdl.
 35 36  0  0  0  0  0  0  0  0  1 V2000
  146.9314  133.6237  155.3597 C   0  0  0  0  0  0  0  0  0  0  0  0
  148.2858  133.3802  154.6590 C   0  0  2  0  0  0  0  0  0  0  0  0
  148.8771  134.6535  154.2316 N   0  0  0  0  0  0  0  0  0  0  0  0
  149.3536  135.6330  155.0175 C   0  0  0  0  0  0  0  0  0  0  0  0
  149.3716  135.5791  156.2472 O   0  0  0  0  0  0  0  0  0  0  0  0
  149.8032  136.6658  154.2860 N   0  0  0  0  0  0  0  0  0  0  0  0
  150.3475  137.8851  154.7626 C   0  0  0  0  0  0  0  0  0  0  0  0
  150.1102  139.1588  154.1837 C   0  0  0  0  0  0  0  0  0  0  0  0
  150.7459  140.1125  154.8473 N   0  0  0  0  0  0  0  0  0  0  0  0
  151.3935  139.4710  155.8515 N   0  0  0  0  0  0  0  0  0  0  0  0
  152.1959  140.2323  156.7916 C   0  0  0  0  0  0  0  0  0  0  0  0
  151.3820  141.3224  157.5078 C   0  0  0  0  0  0  0  0  0  0  0  0
  150.3616  140.7552  158.1505 F   0  0  0  0  0  0  0  0  0  0  0  0
  152.1388  141.9677  158.3956 F   0  0  0  0  0  0  0  0  0  0  0  0
  150.8967  142.1968  156.6260 F   0  0  0  0  0  0  0  0  0  0  0  0
  151.1725  138.1083  155.8285 C   0  0  0  0  0  0  0  0  0  0  0  0
  148.1048  132.4689  153.4359 C   0  0  0  0  0  0  0  0  0  0  0  0
  149.0729  131.3121  153.6670 C   0  0  0  0  0  0  0  0  0  0  0  0
  149.1456  131.2329  155.0778 O   0  0  0  0  0  0  0  0  0  0  0  0
  149.2542  132.5667  155.5453 C   0  0  0  0  0  0  0  0  0  0  0  0
  146.4616  132.6823  155.6467 H   0  0  0  0  0  0  0  0  0  0  0  0
  146.2382  134.1530  154.7053 H   0  0  0  0  0  0  0  0  0  0  0  0
  147.0430  134.2146  156.2689 H   0  0  0  0  0  0  0  0  0  0  0  0
  148.9174  134.8046  153.2345 H   0  0  0  0  0  0  0  0  0  0  0  0
  149.7364  136.5767  153.2828 H   0  0  0  0  0  0  0  0  0  0  0  0
  149.5097  139.4187  153.3245 H   0  0  0  0  0  0  0  0  0  0  0  0
  152.6187  139.5393  157.5200 H   0  0  0  0  0  0  0  0  0  0  0  0
  153.0379  140.6769  156.2584 H   0  0  0  0  0  0  0  0  0  0  0  0
  151.6110  137.4444  156.5588 H   0  0  0  0  0  0  0  0  0  0  0  0
  147.0871  132.0784  153.3912 H   0  0  0  0  0  0  0  0  0  0  0  0
  148.2955  132.9664  152.4838 H   0  0  0  0  0  0  0  0  0  0  0  0
  148.7260  130.3770  153.2266 H   0  0  0  0  0  0  0  0  0  0  0  0
  150.0596  131.5411  153.2605 H   0  0  0  0  0  0  0  0  0  0  0  0
  150.2893  132.8883  155.4145 H   0  0  0  0  0  0  0  0  0  0  0  0
  149.0198  132.6325  156.6084 H   0  0  0  0  0  0  0  0  0  0  0  0
  1  2  1  0  0  0  0
  1 21  1  0  0  0  0
  1 22  1  0  0  0  0
  1 23  1  0  0  0  0
  2 20  1  0  0  0  0
  2  3  1  0  0  0  0
  2 17  1  0  0  0  0
  3  4  1  0  0  0  0
  3 24  1  0  0  0  0
  4  5  2  0  0  0  0
  4  6  1  0  0  0  0
  6  7  1  0  0  0  0
  6 25  1  0  0  0  0
  7 16  2  0  0  0  0
  7  8  1  0  0  0  0
  8  9  2  0  0  0  0
  8 26  1  0  0  0  0
  9 10  1  0  0  0  0
 10 11  1  0  0  0  0
 10 16  1  0  0  0  0
 11 12  1  0  0  0  0
 11 27  1  0  0  0  0
 11 28  1  0  0  0  0
 12 13  1  0  0  0  0
 12 14  1  0  0  0  0
 12 15  1  0  0  0  0
 16 29  1  0  0  0  0
 17 18  1  0  0  0  0
 17 30  1  0  0  0  0
 17 31  1  0  0  0  0
 18 19  1  0  0  0  0
 18 32  1  0  0  0  0
 18 33  1  0  0  0  0
 19 20  1  0  0  0  0
 20 34  1  0  0  0  0
 20 35  1  0  0  0  0
M  END
> <s_m_source_file>
AV-unprocessed.smi

> <i_m_source_file_index>
2834

> <i_lp_mmshare_version>
43012

> <i_f3d_flags>
0

> <s_epik_input>
W0NIMl0xT1tDSDJdW0NIMl1bQ0BAXTEoW0NIM10pW05IXUMoPU8pW05IXWMyW2NIXW5uKFtjSF0yKVtDSDJdQyhGKShGKUY=

> <s_epik_cmdline>
J2VwaWtfcHl0aG9uJywgJy1waCcsICc3LjAnLCAnLXRuJywgJzgnLCAnLW1hJywgJzIwMCcsICctbWV0YWxfYmluZGluZycsICctaW1hZScsICc8aW5maWxlLm1hZT4nLCAnLW9tYWUnLCAnPG91dGZpbGUubWFlPic=

> <r_lp_tautomer_probability>
1

> <r_epik_Ionization_Penalty>
3.3002e-05

> <r_epik_Ionization_Penalty_Charging>
0

> <r_epik_Ionization_Penalty_Neutral>
3.3002e-05

> <r_epik_State_Penalty>
-0

> <r_epik_Charging_Adjusted_Penalty>
0

> <i_epik_Tot_Q>
0

> <i_epik_Tot_abs_Q>
0

> <r_epik_Metal_State_Penalty>
-0

> <b_epik_Metal_Only>
0

> <s_lp_Force_Field>
OPLS_2005

> <r_lp_Energy>
22.3443

> <b_lp_Chiralities_Consistent>
1

> <s_lp_Variant>
AV-unprocessed.smi:2834-2

> <Gold.Version>
5.8.1

> <Gold.Id.Protein>
6NUR|6NUR_protein|mol2

> <Gold.PLP.Fitness>
39.6608

> <Gold.PLP.PLP>
-29.0000

> <Gold.PLP.part.hbond>
-3.5337

> <Gold.PLP.part.metal>
0.0000

> <Gold.PLP.part.buried>
-2.4863

> <Gold.PLP.part.nonpolar>
-23.4707

> <Gold.PLP.part.repulsive>
0.1331

> <Gold.PLP.ligand.clash>
0.0000

> <Gold.PLP.ligand.torsion>
0.3770

> <Gold.PLP.Chemscore.Hbond>
2.7920

> <Gold.PLP.Chemscore.CHOScore>
1.0000

> <Gold.PLP.Chemscore.Metal>
0.0000

> <Gold.Chemscore.Hbonds>
donor molecule, donor type, donor heavy atom, donor atom, acceptor molecule, acceptor atom, score
      L1  H     3    24       P1  7948  0.79
      L1  H     6    25       P1  7948  1.00
      P1  H  7989  7998       L1     9  1.00
      L1  C     8    26       P1  7957  1.00

> <Gold.PLP.Chemscore.Internal.Correction>
0.0388

> <Gold.Rescore>
     Score         DG    S(hbond)    S(metal)    S(lipo)     H(rot)  DE(clash)    DE(int)     intcor
     12.84     -14.68       2.10        0.00      48.13       1.34       0.13       1.71       ----

> <Gold.Chemscore.Fitness>
12.8375

> <Gold.Chemscore.DG>
-14.6814

> <Gold.Chemscore.ZeroCoef>
-5.4800

> <Gold.Chemscore.Hbond>
2.0974

> <Gold.Chemscore.Metal>
0.0000

> <Gold.Chemscore.Lipo>
48.1256

> <Gold.Chemscore.Internal_Hbond>
0.0000

> <Gold.Chemscore.DEClash>
0.1332

> <Gold.Chemscore.DEInternal>
1.7107

> <Gold.Chemscore.Rot>
1.3417

> <Gold.Chemscore.Internal.Correction>
   9.000000E+99

> <Gold.Chemscore.Hbonds>
donor molecule, donor type, donor heavy atom, donor atom, acceptor molecule, acceptor atom, score
      L1  H     3    24       P1  7948  0.15
      L1  H     6    25       P1  7948  0.29
      P1  H  7989  7998       L1     9  0.25

> <Gold.Chemscore.Hbond.Weighted>
-7.0054

> <Gold.Chemscore.Metal.Weighted>
-0.0000

> <Gold.Chemscore.Lipo.Weighted>
-5.6307

> <Gold.Chemscore.Internal_Hbond.Weighted>
0.0000

> <Gold.Chemscore.DEClash.Weighted>
0.1332

> <Gold.Chemscore.DEInternal.Weighted>
1.7107

> <Gold.Chemscore.Rot.Weighted>
3.4347

> <Gold.Chemscore.Internal.Correction.Weighted>
   9.000000E+99

> <Gold.Protein.RotatedTorsions>
[ 6907 6896 6895 6894 ] final -153.95 input  -60.11 | X-H torsion
[ 7974 7965 7964 7962 ] final    6.31 input  175.53 | X-H torsion
[ 8008 7997 7996 7995 ] final -152.37 input   59.86 | X-H torsion
[ 10167 10162 10161 10158 ] final  -72.19 input  -65.29 | X-H torsion
[ 10718 10713 10712 10709 ] final  -44.37 input   66.30 | X-H torsion
[ 10763 10752 10751 10750 ] final   64.60 input  -60.55 | X-H torsion
[ 11005 11000 10999 10996 ] final  101.91 input  -57.11 | X-H torsion

> <Gold.Protein.ActiveResidues>
 VAL166  LYS551  ARG553  GLY616  TRP617  ASP618  TYR619  PRO620  LYS621  CYS622 
 ASP623  PHE694  ASN695  SER759  ASP760  ASP761  ALA762  ILE779  LEU786  VAL792 
 PHE793  MET794  SER795  GLU796  ALA797  LYS798  CYS799  TRP800  GLU811  SER814 

> <Gold.Protein.RotatedAtoms>
  151.2502  133.4354  159.2610 H   0  0  0  0  0  0  0  0  0  0  0  0  # atno 6907 bound_to 6896
  151.0625  134.9746  159.8277 H   0  0  0  0  0  0  0  0  0  0  0  0  # atno 6908 bound_to 6896
  152.5400  134.2451  159.8930 H   0  0  0  0  0  0  0  0  0  0  0  0  # atno 6909 bound_to 6896
  146.2435  140.0252  142.8394 H   0  0  0  0  0  0  0  0  0  0  0  0  # atno 7974 bound_to 7965
  155.6541  140.0715  157.2576 H   0  0  0  0  0  0  0  0  0  0  0  0  # atno 8008 bound_to 7997
  154.4156  140.1728  156.1757 H   0  0  0  0  0  0  0  0  0  0  0  0  # atno 8009 bound_to 7997
  155.9752  140.3358  155.6615 H   0  0  0  0  0  0  0  0  0  0  0  0  # atno 8010 bound_to 7997
  140.5212  143.2331  151.7426 H   0  0  0  0  0  0  0  0  0  0  0  0  # atno 10167 bound_to 10162
  156.2393  130.4178  149.8780 H   0  0  0  0  0  0  0  0  0  0  0  0  # atno 10718 bound_to 10713
  153.0062  135.5387  154.6535 H   0  0  0  0  0  0  0  0  0  0  0  0  # atno 10763 bound_to 10752
  154.5761  135.2846  155.0781 H   0  0  0  0  0  0  0  0  0  0  0  0  # atno 10764 bound_to 10752
  154.1928  135.6497  153.5117 H   0  0  0  0  0  0  0  0  0  0  0  0  # atno 10765 bound_to 10752
  139.8775  134.9202  156.4978 H   0  0  0  0  0  0  0  0  0  0  0  0  # atno 11005 bound_to 11000
  145.1205  140.9459  143.4603 LP  0  0  0  0  0  0  0  0  0  0  0  0  # atno 17320 bound_to 7965
  145.0486  139.3200  143.5940 LP  0  0  0  0  0  0  0  0  0  0  0  0  # atno 17321 bound_to 7965
  139.4924  144.4251  151.9934 LP  0  0  0  0  0  0  0  0  0  0  0  0  # atno 17342 bound_to 10162
  140.3348  144.3273  150.5979 LP  0  0  0  0  0  0  0  0  0  0  0  0  # atno 17343 bound_to 10162
  156.6367  130.8688  151.3506 LP  0  0  0  0  0  0  0  0  0  0  0  0  # atno 17370 bound_to 10713
  157.7168  130.9507  150.1286 LP  0  0  0  0  0  0  0  0  0  0  0  0  # atno 17371 bound_to 10713
  140.8612  133.8059  155.9267 LP  0  0  0  0  0  0  0  0  0  0  0  0  # atno 17394 bound_to 11000
  140.9048  134.2334  157.5021 LP  0  0  0  0  0  0  0  0  0  0  0  0  # atno 17395 bound_to 11000

$$$$
