AV-unprocessed.smi:1574|AV-procd|sdf|6335|dock10
  -GOLD-   22720 6553D 1   1.00000     0.00000
 Structure written by MMmdl.
 40 41  0  0  0  0  0  0  0  0  1 V2000
  152.7909  142.5133  162.2670 C   0  0  0  0  0  0  0  0  0  0  0  0
  152.5604  143.3529  161.0003 C   0  0  2  0  0  0  0  0  0  0  0  0
  151.5855  144.5129  161.2863 C   0  0  0  0  0  0  0  0  0  0  0  0
  151.3332  145.3675  160.0350 C   0  0  0  0  0  0  0  0  0  0  0  0
  150.8164  144.5051  158.8758 C   0  0  0  0  0  0  0  0  0  0  0  0
  151.7856  143.3538  158.5758 C   0  0  0  0  0  0  0  0  0  0  0  0
  152.0524  142.4874  159.8251 C   0  0  1  0  0  0  0  0  0  0  0  0
  153.0610  141.5358  159.5147 O   0  0  0  0  0  0  0  0  0  0  0  0
  152.8089  140.7731  158.3433 C   0  0  0  0  0  0  0  0  0  0  0  0
  152.3921  139.3556  158.7611 C   0  0  0  0  0  0  0  0  0  0  0  0
  151.6881  138.6721  157.6816 N   0  0  0  0  0  0  0  0  0  0  0  0
  152.1013  138.6083  156.4062 C   0  0  0  0  0  0  0  0  0  0  0  0
  153.0977  139.1949  155.9851 O   0  0  0  0  0  0  0  0  0  0  0  0
  151.2728  137.7360  155.4635 C   0  0  0  0  0  0  0  0  0  0  0  0
  151.1595  136.3815  155.9724 N   0  0  0  0  0  0  0  0  0  0  0  0
  150.6928  135.2675  155.4045 C   0  0  0  0  0  0  0  0  0  0  0  0
  150.7679  134.2310  156.2252 N   0  0  0  0  0  0  0  0  0  0  0  0
  151.3203  134.7773  157.3718 N   0  0  0  0  0  0  0  0  0  0  0  0
  151.5532  136.0532  157.2282 N   0  0  0  0  0  0  0  0  0  0  0  0
  151.8684  142.0370  162.6007 H   0  0  0  0  0  0  0  0  0  0  0  0
  153.1611  143.1315  163.0855 H   0  0  0  0  0  0  0  0  0  0  0  0
  153.5266  141.7277  162.0941 H   0  0  0  0  0  0  0  0  0  0  0  0
  153.5188  143.7872  160.7111 H   0  0  0  0  0  0  0  0  0  0  0  0
  150.6368  144.1157  161.6504 H   0  0  0  0  0  0  0  0  0  0  0  0
  151.9806  145.1444  162.0827 H   0  0  0  0  0  0  0  0  0  0  0  0
  150.6150  146.1561  160.2610 H   0  0  0  0  0  0  0  0  0  0  0  0
  152.2572  145.8653  159.7378 H   0  0  0  0  0  0  0  0  0  0  0  0
  149.8344  144.1020  159.1258 H   0  0  0  0  0  0  0  0  0  0  0  0
  150.6837  145.1199  157.9852 H   0  0  0  0  0  0  0  0  0  0  0  0
  151.3873  142.7511  157.7602 H   0  0  0  0  0  0  0  0  0  0  0  0
  152.7290  143.7643  158.2184 H   0  0  0  0  0  0  0  0  0  0  0  0
  151.1344  141.9820  160.1319 H   0  0  0  0  0  0  0  0  0  0  0  0
  152.0143  141.2486  157.7673 H   0  0  0  0  0  0  0  0  0  0  0  0
  153.6854  140.7265  157.6969 H   0  0  0  0  0  0  0  0  0  0  0  0
  153.2748  138.7706  159.0209 H   0  0  0  0  0  0  0  0  0  0  0  0
  151.7650  139.3906  159.6533 H   0  0  0  0  0  0  0  0  0  0  0  0
  150.8551  138.1620  157.9373 H   0  0  0  0  0  0  0  0  0  0  0  0
  150.2726  138.1555  155.3468 H   0  0  0  0  0  0  0  0  0  0  0  0
  151.7298  137.7106  154.4730 H   0  0  0  0  0  0  0  0  0  0  0  0
  150.3007  135.2168  154.3996 H   0  0  0  0  0  0  0  0  0  0  0  0
  1  2  1  0  0  0  0
  1 20  1  0  0  0  0
  1 21  1  0  0  0  0
  1 22  1  0  0  0  0
  2  7  1  0  0  0  0
  2  3  1  0  0  0  0
  2 23  1  0  0  0  0
  3  4  1  0  0  0  0
  3 24  1  0  0  0  0
  3 25  1  0  0  0  0
  4  5  1  0  0  0  0
  4 26  1  0  0  0  0
  4 27  1  0  0  0  0
  5  6  1  0  0  0  0
  5 28  1  0  0  0  0
  5 29  1  0  0  0  0
  6  7  1  0  0  0  0
  6 30  1  0  0  0  0
  6 31  1  0  0  0  0
  7  8  1  0  0  0  0
  7 32  1  0  0  0  0
  8  9  1  0  0  0  0
  9 10  1  0  0  0  0
  9 33  1  0  0  0  0
  9 34  1  0  0  0  0
 10 11  1  0  0  0  0
 10 35  1  0  0  0  0
 10 36  1  0  0  0  0
 11 12  1  0  0  0  0
 11 37  1  0  0  0  0
 12 13  2  0  0  0  0
 12 14  1  0  0  0  0
 14 15  1  0  0  0  0
 14 38  1  0  0  0  0
 14 39  1  0  0  0  0
 15 19  1  0  0  0  0
 15 16  1  0  0  0  0
 16 17  2  0  0  0  0
 16 40  1  0  0  0  0
 17 18  1  0  0  0  0
 18 19  2  0  0  0  0
M  END
> <s_m_source_file>
AV-unprocessed.smi

> <i_m_source_file_index>
1574

> <i_lp_mmshare_version>
43012

> <i_f3d_flags>
0

> <s_epik_input>
W0NIM11bQ0BASF0xW0NIMl1bQ0gyXVtDSDJdW0NIMl1bQ0BIXTFPW0NIMl1bQ0gyXVtOSF1DKD1PKVtDSDJdbjJbY0hdbm5uMg==

> <s_epik_cmdline>
J2VwaWtfcHl0aG9uJywgJy1waCcsICc3LjAnLCAnLXRuJywgJzgnLCAnLW1hJywgJzIwMCcsICctbWV0YWxfYmluZGluZycsICctaW1hZScsICc8aW5maWxlLm1hZT4nLCAnLW9tYWUnLCAnPG91dGZpbGUubWFlPic=

> <r_lp_tautomer_probability>
1

> <r_epik_Ionization_Penalty>
1.44269e-06

> <r_epik_Ionization_Penalty_Charging>
0

> <r_epik_Ionization_Penalty_Neutral>
1.44269e-06

> <r_epik_State_Penalty>
-0

> <r_epik_Charging_Adjusted_Penalty>
0

> <i_epik_Tot_Q>
0

> <i_epik_Tot_abs_Q>
0

> <r_epik_Metal_State_Penalty>
-0

> <b_epik_Metal_Only>
0

> <s_lp_Force_Field>
OPLS_2005

> <r_lp_Energy>
11.219

> <b_lp_Chiralities_Consistent>
1

> <s_lp_Variant>
AV-unprocessed.smi:1574-1

> <Gold.Version>
5.8.1

> <Gold.Id.Protein>
6NUR|6NUR_protein|mol2

> <Gold.PLP.Fitness>
43.5357

> <Gold.PLP.PLP>
-38.1205

> <Gold.PLP.part.hbond>
-2.0000

> <Gold.PLP.part.metal>
0.0000

> <Gold.PLP.part.buried>
-4.7228

> <Gold.PLP.part.nonpolar>
-31.0434

> <Gold.PLP.part.repulsive>
0.0573

> <Gold.PLP.ligand.clash>
0.0000

> <Gold.PLP.ligand.torsion>
0.6255

> <Gold.PLP.Chemscore.Hbond>
1.2184

> <Gold.PLP.Chemscore.CHOScore>
0.9924

> <Gold.PLP.Chemscore.Metal>
0.0000

> <Gold.Chemscore.Hbonds>
donor molecule, donor type, donor heavy atom, donor atom, acceptor molecule, acceptor atom, score
      P1  H  6896  6907       L1    18  0.07
      P1  H  7997  8010       L1    13  1.00

> <Gold.PLP.Chemscore.Internal.Correction>
0.0339

> <Gold.Rescore>
     Score         DG    S(hbond)    S(metal)    S(lipo)     H(rot)  DE(clash)    DE(int)     intcor
     12.11     -15.94       1.81        0.00     101.24       2.90       0.02       3.82       ----

> <Gold.Chemscore.Fitness>
12.1063

> <Gold.Chemscore.DG>
-15.9445

> <Gold.Chemscore.ZeroCoef>
-5.4800

> <Gold.Chemscore.Hbond>
1.8133

> <Gold.Chemscore.Metal>
0.0000

> <Gold.Chemscore.Lipo>
101.2367

> <Gold.Chemscore.Internal_Hbond>
0.0000

> <Gold.Chemscore.DEClash>
0.0157

> <Gold.Chemscore.DEInternal>
3.8225

> <Gold.Chemscore.Rot>
2.9050

> <Gold.Chemscore.Internal.Correction>
   9.000000E+99

> <Gold.Chemscore.Hbonds>
donor molecule, donor type, donor heavy atom, donor atom, acceptor molecule, acceptor atom, score
      P1  H  6896  6907       L1    18  0.06
      P1  H  7997  8010       L1    13  0.98

> <Gold.Chemscore.Hbond.Weighted>
-6.0565

> <Gold.Chemscore.Metal.Weighted>
-0.0000

> <Gold.Chemscore.Lipo.Weighted>
-11.8447

> <Gold.Chemscore.Internal_Hbond.Weighted>
0.0000

> <Gold.Chemscore.DEClash.Weighted>
0.0157

> <Gold.Chemscore.DEInternal.Weighted>
3.8225

> <Gold.Chemscore.Rot.Weighted>
7.4367

> <Gold.Chemscore.Internal.Correction.Weighted>
   9.000000E+99

> <Gold.Protein.RotatedTorsions>
[ 6907 6896 6895 6894 ] final  -88.07 input  -60.11 | X-H torsion
[ 7974 7965 7964 7962 ] final   42.93 input  175.53 | X-H torsion
[ 8008 7997 7996 7995 ] final   72.15 input   59.86 | X-H torsion
[ 10167 10162 10161 10158 ] final   48.01 input  -65.29 | X-H torsion
[ 10718 10713 10712 10709 ] final -146.53 input   66.30 | X-H torsion
[ 10763 10752 10751 10750 ] final  -11.27 input  -60.55 | X-H torsion
[ 11005 11000 10999 10996 ] final  108.20 input  -57.11 | X-H torsion

> <Gold.Protein.ActiveResidues>
 VAL166  LYS551  ARG553  GLY616  TRP617  ASP618  TYR619  PRO620  LYS621  CYS622 
 ASP623  PHE694  ASN695  SER759  ASP760  ASP761  ALA762  ILE779  LEU786  VAL792 
 PHE793  MET794  SER795  GLU796  ALA797  LYS798  CYS799  TRP800  GLU811  SER814 

> <Gold.Protein.RotatedAtoms>
  150.6867  134.2799  159.4622 H   0  0  0  0  0  0  0  0  0  0  0  0  # atno 6907 bound_to 6896
  152.0714  134.9528  160.0583 H   0  0  0  0  0  0  0  0  0  0  0  0  # atno 6908 bound_to 6896
  152.0917  133.4169  159.4584 H   0  0  0  0  0  0  0  0  0  0  0  0  # atno 6909 bound_to 6896
  146.0698  139.5244  142.9605 H   0  0  0  0  0  0  0  0  0  0  0  0  # atno 7974 bound_to 7965
  155.7645  140.3486  155.5215 H   0  0  0  0  0  0  0  0  0  0  0  0  # atno 8008 bound_to 7997
  155.8882  140.1013  157.1458 H   0  0  0  0  0  0  0  0  0  0  0  0  # atno 8009 bound_to 7997
  154.4031  140.1309  156.4269 H   0  0  0  0  0  0  0  0  0  0  0  0  # atno 8010 bound_to 7997
  140.2977  144.2971  150.6226 H   0  0  0  0  0  0  0  0  0  0  0  0  # atno 10167 bound_to 10162
  156.3960  130.7910  151.2116 H   0  0  0  0  0  0  0  0  0  0  0  0  # atno 10718 bound_to 10713
  153.4813  135.7017  153.5936 H   0  0  0  0  0  0  0  0  0  0  0  0  # atno 10763 bound_to 10752
  153.4148  135.3839  155.2074 H   0  0  0  0  0  0  0  0  0  0  0  0  # atno 10764 bound_to 10752
  154.8721  135.3913  154.4263 H   0  0  0  0  0  0  0  0  0  0  0  0  # atno 10765 bound_to 10752
  139.8840  134.9423  156.5937 H   0  0  0  0  0  0  0  0  0  0  0  0  # atno 11005 bound_to 11000
  145.6411  141.0284  143.1811 LP  0  0  0  0  0  0  0  0  0  0  0  0  # atno 17320 bound_to 7965
  144.7225  139.7984  143.7377 LP  0  0  0  0  0  0  0  0  0  0  0  0  # atno 17321 bound_to 7965
  140.5678  143.2184  151.7653 LP  0  0  0  0  0  0  0  0  0  0  0  0  # atno 17342 bound_to 10162
  139.4922  144.4259  151.9926 LP  0  0  0  0  0  0  0  0  0  0  0  0  # atno 17343 bound_to 10162
  157.7501  131.0301  150.4122 LP  0  0  0  0  0  0  0  0  0  0  0  0  # atno 17370 bound_to 10713
  156.4393  130.3988  149.6708 LP  0  0  0  0  0  0  0  0  0  0  0  0  # atno 17371 bound_to 10713
  140.7936  133.8562  155.8667 LP  0  0  0  0  0  0  0  0  0  0  0  0  # atno 17394 bound_to 11000
  140.9655  134.1600  157.4619 LP  0  0  0  0  0  0  0  0  0  0  0  0  # atno 17395 bound_to 11000

$$$$
