#       Name:                AV-unprocessed.smi:1492
#       Creating user name   scv26
#       Creation time:       Fri Mar 27 06:14:45 2020


#       File generated by GOLD software.
#

@<TRIPOS>MOLECULE
AV-unprocessed.smi:1492
    60    61     1
SMALL
NO_CHARGES


@<TRIPOS>ATOM
      1 ****        -3.8345  -1.2172  -0.6093 C.3            1 S1                 0.0000
      2 ****        -2.3224  -0.9479  -0.5056 C.3            1 S1                 0.0000
      3 ****        -1.8552  -0.2174   0.7913 C.3            1 S1                 0.0000
      4 ****        -2.4438   1.2175   0.7498 C.3            1 S1                 0.0000
      5 ****        -0.2967  -0.1389   0.8025 C.3            1 S1                 0.0000
      6 ****         0.2606   0.5391  -0.3664 N.am           1 S1                 0.0000
      7 ****         0.7194   1.7995  -0.4033 C.2            1 S1                 0.0000
      8 ****         0.7161   2.5535   0.5691 O.2            1 S1                 0.0000
      9 ****         1.2484   2.2866  -1.7527 C.3            1 S1                 0.0000
     10 ****         2.5026   1.5772  -2.2600 C.2            1 S1                 0.0000
     11 ****         3.7644   1.9434  -1.8893 C.2            1 S1                 0.0000
     12 ****         4.0414   3.0946  -0.9382 C.3            1 S1                 0.0000
     13 ****         4.8962   1.2717  -2.3722 N.2            1 S1                 0.0000
     14 ****         4.7315   0.2839  -3.1890 C.2            1 S1                 0.0000
     15 ****         5.8690  -0.5230  -3.7787 C.3            1 S1                 0.0000
     16 ****         3.4711  -0.1403  -3.6070 N.am           1 S1                 0.0000
     17 ****         2.3261   0.4421  -3.1867 C.2            1 S1                 0.0000
     18 ****         1.2357   0.0160  -3.5650 O.2            1 S1                 0.0000
     19 ****        -2.3608  -0.9463   2.0116 N.4            1 S1                 1.0000
     20 ****        -1.9203  -2.3633   2.1534 C.3            1 S1                 0.0000
     21 ****        -2.6730  -3.0470   3.3057 C.3            1 S1                 0.0000
     22 ****        -2.4403  -2.3344   4.5122 O.3            1 S1                 0.0000
     23 ****        -2.9236  -1.0006   4.4358 C.3            1 S1                 0.0000
     24 ****        -2.1926  -0.2419   3.3146 C.3            1 S1                 0.0000
     25 ****         3.4039  -0.9208  -4.2439 H              1 S1                 0.0000
     26 ****        -4.0654  -1.7280  -1.5443 H              1 S1                 0.0000
     27 ****        -4.4127  -0.2938  -0.5960 H              1 S1                 0.0000
     28 ****        -4.1927  -1.8510   0.2018 H              1 S1                 0.0000
     29 ****        -1.7866  -1.8888  -0.6279 H              1 S1                 0.0000
     30 ****        -2.0359  -0.3610  -1.3792 H              1 S1                 0.0000
     31 ****        -2.2987   1.6858  -0.2243 H              1 S1                 0.0000
     32 ****        -1.9698   1.8759   1.4780 H              1 S1                 0.0000
     33 ****        -3.5154   1.2230   0.9504 H              1 S1                 0.0000
     34 ****         0.0651   0.3381   1.7138 H              1 S1                 0.0000
     35 ****         0.1363  -1.1385   0.7995 H              1 S1                 0.0000
     36 ****         0.3012   0.0038  -1.2224 H              1 S1                 0.0000
     37 ****         0.4459   2.2121  -2.4880 H              1 S1                 0.0000
     38 ****         1.4504   3.3554  -1.6787 H              1 S1                 0.0000
     39 ****         3.7197   4.0391  -1.3773 H              1 S1                 0.0000
     40 ****         5.1057   3.1762  -0.7145 H              1 S1                 0.0000
     41 ****         3.5136   2.9520   0.0048 H              1 S1                 0.0000
     42 ****         6.4475  -0.9924  -2.9828 H              1 S1                 0.0000
     43 ****         6.5343   0.1260  -4.3487 H              1 S1                 0.0000
     44 ****         5.5049  -1.3073  -4.4438 H              1 S1                 0.0000
     45 ****        -2.1064  -2.9346   1.2464 H              1 S1                 0.0000
     46 ****        -0.8491  -2.4104   2.3506 H              1 S1                 0.0000
     47 ****        -3.7427  -3.1006   3.0962 H              1 S1                 0.0000
     48 ****        -2.3210  -4.0715   3.4279 H              1 S1                 0.0000
     49 ****        -4.0017  -1.0007   4.2666 H              1 S1                 0.0000
     50 ****        -2.7529  -0.5096   5.3939 H              1 S1                 0.0000
     51 ****        -1.1348  -0.1550   3.5641 H              1 S1                 0.0000
     52 ****        -2.5995   0.7671   3.2834 H              1 S1                 0.0000
     53 ****        -3.3599  -0.9949   1.8725 H              1 S1                 0.0000
     54 ****         0.3578   2.2357   1.4470 LP             1 S1                 0.0000
     55 ****         1.0716   3.4840   0.4815 LP             1 S1                 0.0000
     56 ****         5.8137   1.5516  -2.0899 LP             1 S1                 0.0000
     57 ****         0.3919   0.4447  -3.2421 LP             1 S1                 0.0000
     58 ****         1.1931  -0.7591  -4.1955 LP             1 S1                 0.0000
     59 ****        -1.4568  -2.3131   4.6915 LP             1 S1                 0.0000
     60 ****        -2.9056  -2.8054   5.2617 LP             1 S1                 0.0000
@<TRIPOS>BOND
    1    1    2 1     
    2    1   26 1     
    3    1   27 1     
    4    1   28 1     
    5    2    3 1     
    6    2   29 1     
    7    2   30 1     
    8    3    4 1     
    9    3    5 1     
   10    3   19 1     
   11    4   31 1     
   12    4   32 1     
   13    4   33 1     
   14    5    6 1     
   15    5   34 1     
   16    5   35 1     
   17    6    7 am    
   18    6   36 1     
   19    7    8 2     
   20    7    9 1     
   21    9   10 1     
   22    9   37 1     
   23    9   38 1     
   24   10   17 1     
   25   10   11 2     
   26   11   12 1     
   27   11   13 1     
   28   12   39 1     
   29   12   40 1     
   30   12   41 1     
   31   13   14 2     
   32   14   15 1     
   33   14   16 1     
   34   15   42 1     
   35   15   43 1     
   36   15   44 1     
   37   16   25 1     
   38   16   17 am    
   39   17   18 2     
   40   19   24 1     
   41   19   20 1     
   42   19   53 1     
   43   20   21 1     
   44   20   45 1     
   45   20   46 1     
   46   21   22 1     
   47   21   47 1     
   48   21   48 1     
   49   22   23 1     
   50   23   24 1     
   51   23   49 1     
   52   23   50 1     
   53   24   51 1     
   54   24   52 1     
   55    8   54 1     
   56    8   55 1     
   57   13   56 1     
   58   18   57 1     
   59   18   58 1     
   60   22   59 1     
   61   22   60 1     
@<TRIPOS>SUBSTRUCTURE
      1 S1             1
@<TRIPOS>SET
LONE_PAIRS      STATIC     ATOMS    <user>   **** ""
7 54 55 56 57 58 59 60
DONOR_HYDROGENS      STATIC     ATOMS    <user>   **** ""
3 36 25 53
ATOM$BLUE        STATIC     ATOMS    COLORGROUP SYSTEM
7 54 55 56 57 58 59 60
ATOM$RED        STATIC     ATOMS    COLORGROUP SYSTEM
3 36 25 53
