#       Name:                AV-unprocessed.smi:1413
#       Creating user name   scv26
#       Creation time:       Fri Mar 27 05:39:26 2020


#       File generated by GOLD software.
#

@<TRIPOS>MOLECULE
AV-unprocessed.smi:1413
    61    63     1
SMALL
NO_CHARGES


@<TRIPOS>ATOM
      1 ****        -6.7135  -1.9015   2.4785 C.3            1 S1                 0.0000
      2 ****        -6.0594  -1.1994   1.2839 C.3            1 S1                 0.0000
      3 ****        -4.5322  -1.3909   1.2690 C.3            1 S1                 0.0000
      4 ****        -3.9687  -0.8013   0.0632 N.3            1 S1                 0.0000
      5 ****        -2.5678  -0.7864   0.0500 C.ar           1 S1                 0.0000
      6 ****        -1.8140  -1.9820   0.0376 C.ar           1 S1                 0.0000
      7 ****        -0.4092  -1.8942   0.0403 C.ar           1 S1                 0.0000
      8 ****         0.2009  -0.6242   0.0649 C.ar           1 S1                 0.0000
      9 ****         1.6208  -0.5652   0.0600 N.am           1 S1                 0.0000
     10 ****         2.4157   0.4372   0.4722 C.2            1 S1                 0.0000
     11 ****         2.0247   1.5078   0.9364 O.2            1 S1                 0.0000
     12 ****         3.7096   0.1148   0.3308 N.am           1 S1                 0.0000
     13 ****         4.8474   0.9667   0.6721 C.3            1 S1                 0.0000
     14 ****         5.6588   0.2867   1.7863 C.3            1 S1                 0.0000
     15 ****         5.6853   1.2306  -0.5943 C.3            1 S1                 0.0000
     16 ****         6.8779   2.1664  -0.3861 C.3            1 S1                 0.0000
     17 ****         7.0840   2.7176  -1.7777 C.3            1 S1                 0.0000
     18 ****         5.6469   2.8824  -2.2597 C.3            1 S1                 0.0000
     19 ****         4.8923   1.8756  -1.5906 O.3            1 S1                 0.0000
     20 ****        -0.6440   0.5125   0.0562 C.ar           1 S1                 0.0000
     21 ****        -1.9921   0.4350   0.0522 N.ar           1 S1                 0.0000
     22 ****        -4.5582  -1.3463  -1.1523 C.3            1 S1                 0.0000
     23 ****        -6.0930  -1.2000  -1.1255 C.3            1 S1                 0.0000
     24 ****        -6.5768   0.2406  -1.3695 C.3            1 S1                 0.0000
     25 ****        -6.6182  -1.7458   0.0883 O.3            1 S1                 0.0000
     26 ****        -6.3255  -1.5153   3.4214 H              1 S1                 0.0000
     27 ****        -6.5287  -2.9758   2.4547 H              1 S1                 0.0000
     28 ****        -7.7931  -1.7486   2.4760 H              1 S1                 0.0000
     29 ****        -6.2944  -0.1367   1.3470 H              1 S1                 0.0000
     30 ****        -4.0861  -0.9252   2.1488 H              1 S1                 0.0000
     31 ****        -4.2892  -2.4538   1.3070 H              1 S1                 0.0000
     32 ****        -2.2972  -2.9479   0.0292 H              1 S1                 0.0000
     33 ****         0.1892  -2.7934   0.0321 H              1 S1                 0.0000
     34 ****         2.0884  -1.4125  -0.2267 H              1 S1                 0.0000
     35 ****         3.9286  -0.7903  -0.0584 H              1 S1                 0.0000
     36 ****         4.4984   1.9280   1.0533 H              1 S1                 0.0000
     37 ****         6.4930   0.9101   2.1084 H              1 S1                 0.0000
     38 ****         6.0659  -0.6696   1.4560 H              1 S1                 0.0000
     39 ****         5.0380   0.0991   2.6630 H              1 S1                 0.0000
     40 ****         6.0412   0.2890  -1.0166 H              1 S1                 0.0000
     41 ****         6.6196   2.9754   0.2992 H              1 S1                 0.0000
     42 ****         7.7587   1.6550   0.0031 H              1 S1                 0.0000
     43 ****         7.6493   3.6496  -1.7930 H              1 S1                 0.0000
     44 ****         7.6079   1.9875  -2.3961 H              1 S1                 0.0000
     45 ****         5.2562   3.8576  -1.9669 H              1 S1                 0.0000
     46 ****         5.5586   2.7929  -3.3427 H              1 S1                 0.0000
     47 ****        -0.2517   1.5171   0.0333 H              1 S1                 0.0000
     48 ****        -4.1432  -0.8449  -2.0279 H              1 S1                 0.0000
     49 ****        -4.2969  -2.4021  -1.2359 H              1 S1                 0.0000
     50 ****        -6.4982  -1.8093  -1.9337 H              1 S1                 0.0000
     51 ****        -6.2654   0.5900  -2.3541 H              1 S1                 0.0000
     52 ****        -6.1768   0.9417  -0.6375 H              1 S1                 0.0000
     53 ****        -7.6646   0.2974  -1.3283 H              1 S1                 0.0000
     54 ****        -4.2300   0.1637   0.0827 LP             1 S1                 0.0000
     55 ****         1.0448   1.6839   1.0304 LP             1 S1                 0.0000
     56 ****         2.6869   2.2016   1.2195 LP             1 S1                 0.0000
     57 ****         4.0965   2.2965  -1.1553 LP             1 S1                 0.0000
     58 ****         4.5868   1.1962  -2.2578 LP             1 S1                 0.0000
     59 ****        -2.5517   1.2637   0.0509 LP             1 S1                 0.0000
     60 ****        -7.6043  -1.5804   0.1023 LP             1 S1                 0.0000
     61 ****        -6.4455  -2.7308   0.0864 LP             1 S1                 0.0000
@<TRIPOS>BOND
    1    1    2 1     
    2    1   26 1     
    3    1   27 1     
    4    1   28 1     
    5    2   25 1     
    6    2    3 1     
    7    2   29 1     
    8    3    4 1     
    9    3   30 1     
   10    3   31 1     
   11    4    5 1     
   12    4   22 1     
   13    5   21 ar    
   14    5    6 ar    
   15    6    7 ar    
   16    6   32 1     
   17    7    8 ar    
   18    7   33 1     
   19    8    9 1     
   20    8   20 ar    
   21    9   10 am    
   22    9   34 1     
   23   10   11 2     
   24   10   12 am    
   25   12   13 1     
   26   12   35 1     
   27   13   14 1     
   28   13   15 1     
   29   13   36 1     
   30   14   37 1     
   31   14   38 1     
   32   14   39 1     
   33   15   19 1     
   34   15   16 1     
   35   15   40 1     
   36   16   17 1     
   37   16   41 1     
   38   16   42 1     
   39   17   18 1     
   40   17   43 1     
   41   17   44 1     
   42   18   19 1     
   43   18   45 1     
   44   18   46 1     
   45   20   21 ar    
   46   20   47 1     
   47   22   23 1     
   48   22   48 1     
   49   22   49 1     
   50   23   24 1     
   51   23   25 1     
   52   23   50 1     
   53   24   51 1     
   54   24   52 1     
   55   24   53 1     
   56    4   54 1     
   57   11   55 1     
   58   11   56 1     
   59   19   57 1     
   60   19   58 1     
   61   21   59 1     
   62   25   60 1     
   63   25   61 1     
@<TRIPOS>SUBSTRUCTURE
      1 S1             1
@<TRIPOS>SET
LONE_PAIRS      STATIC     ATOMS    <user>   **** ""
8 54 55 56 57 58 59 60 61
DONOR_HYDROGENS      STATIC     ATOMS    <user>   **** ""
2 34 35
ATOM$BLUE        STATIC     ATOMS    COLORGROUP SYSTEM
8 54 55 56 57 58 59 60 61
ATOM$RED        STATIC     ATOMS    COLORGROUP SYSTEM
2 34 35
