AV-unprocessed.smi:36|AV-procd|sdf|294|dock2
  -GOLD-   2262016 83D 1   1.00000     0.00000
 Structure written by MMmdl.
 64 67  0  0  0  0  0  0  0  0  1 V2000
  160.4368  129.8496  164.0308 C   0  0  0  0  0  0  0  0  0  0  0  0
  161.3659  130.6016  164.9981 C   0  0  0  0  0  0  0  0  0  0  0  0
  162.1537  129.5966  165.8547 C   0  0  0  0  0  0  0  0  0  0  0  0
  162.3452  131.4854  164.2055 C   0  0  0  0  0  0  0  0  0  0  0  0
  160.3213  131.7174  166.1444 Si  0  0  0  0  0  0  0  0  0  0  0  0
  159.0800  130.6737  167.1392 C   0  0  0  0  0  0  0  0  0  0  0  0
  161.4227  132.6985  167.3407 C   0  0  0  0  0  0  0  0  0  0  0  0
  159.5056  132.8299  165.1595 O   0  0  0  0  0  0  0  0  0  0  0  0
  158.6415  133.8467  165.6257 C   0  0  0  0  0  0  0  0  0  0  0  0
  157.7155  134.2608  164.4752 C   0  0  1  0  0  0  0  0  0  0  0  0
  158.1274  135.5196  163.9478 O   0  0  0  0  0  0  0  0  0  0  0  0
  157.9148  135.5631  162.5703 C   0  0  2  0  0  0  0  0  0  0  0  0
  157.0572  136.7461  162.2543 N   0  0  0  0  0  0  0  0  0  0  0  0
  156.7397  137.7426  163.1011 C   0  0  0  0  0  0  0  0  0  0  0  0
  155.9464  138.6863  162.6016 N   0  0  0  0  0  0  0  0  0  0  0  0
  155.7318  138.2452  161.3001 C   0  0  0  0  0  0  0  0  0  0  0  0
  154.9293  138.8422  160.2104 C   0  0  0  0  0  0  0  0  0  0  0  0
  154.3149  139.9591  160.4574 N   0  0  0  0  0  0  0  0  0  0  0  0
  153.5564  140.5726  159.4685 C   0  0  0  0  0  0  0  0  0  0  0  0
  153.2252  140.1315  158.3644 O   0  0  0  0  0  0  0  0  0  0  0  0
  153.0411  141.9180  159.8678 C   0  0  0  0  0  0  0  0  0  0  0  0
  153.3155  142.4309  161.1539 C   0  0  0  0  0  0  0  0  0  0  0  0
  152.8252  143.6969  161.5294 C   0  0  0  0  0  0  0  0  0  0  0  0
  152.0610  144.4547  160.6213 C   0  0  0  0  0  0  0  0  0  0  0  0
  151.7856  143.9462  159.3373 C   0  0  0  0  0  0  0  0  0  0  0  0
  152.2731  142.6793  158.9610 C   0  0  0  0  0  0  0  0  0  0  0  0
  155.0022  138.0348  159.0681 N   0  0  0  0  0  0  0  0  0  0  0  0
  155.7260  136.8386  158.9511 C   0  0  0  0  0  0  0  0  0  0  0  0
  156.4433  136.3049  159.9031 N   0  0  0  0  0  0  0  0  0  0  0  0
  156.4020  137.0636  161.0648 C   0  0  0  0  0  0  0  0  0  0  0  0
  157.2282  134.2567  162.1769 C   0  0  0  0  0  0  0  0  0  0  0  0
  157.7437  133.3316  163.2599 C   0  0  2  0  0  0  0  0  0  0  0  0
  156.8957  132.2128  163.4147 O   0  0  0  0  0  0  0  0  0  0  0  0
  161.0034  129.2026  163.3604 H   0  0  0  0  0  0  0  0  0  0  0  0
  159.8637  130.5408  163.4122 H   0  0  0  0  0  0  0  0  0  0  0  0
  159.7259  129.2228  164.5699 H   0  0  0  0  0  0  0  0  0  0  0  0
  161.4860  128.9476  166.4219 H   0  0  0  0  0  0  0  0  0  0  0  0
  162.8011  130.1069  166.5685 H   0  0  0  0  0  0  0  0  0  0  0  0
  162.7845  128.9572  165.2364 H   0  0  0  0  0  0  0  0  0  0  0  0
  162.9758  130.8880  163.5463 H   0  0  0  0  0  0  0  0  0  0  0  0
  163.0027  132.0438  164.8728 H   0  0  0  0  0  0  0  0  0  0  0  0
  161.8182  132.2107  163.5852 H   0  0  0  0  0  0  0  0  0  0  0  0
  159.5895  130.0154  167.8422 H   0  0  0  0  0  0  0  0  0  0  0  0
  158.4732  130.0407  166.4926 H   0  0  0  0  0  0  0  0  0  0  0  0
  158.3992  131.2968  167.7184 H   0  0  0  0  0  0  0  0  0  0  0  0
  162.0064  132.0381  167.9815 H   0  0  0  0  0  0  0  0  0  0  0  0
  160.8299  133.3414  167.9910 H   0  0  0  0  0  0  0  0  0  0  0  0
  162.1243  133.3385  166.8065 H   0  0  0  0  0  0  0  0  0  0  0  0
  158.0766  133.5259  166.5014 H   0  0  0  0  0  0  0  0  0  0  0  0
  159.2592  134.6909  165.9327 H   0  0  0  0  0  0  0  0  0  0  0  0
  156.6895  134.3514  164.8357 H   0  0  0  0  0  0  0  0  0  0  0  0
  158.8589  135.7338  162.0509 H   0  0  0  0  0  0  0  0  0  0  0  0
  157.1008  137.7763  164.1184 H   0  0  0  0  0  0  0  0  0  0  0  0
  153.9004  141.8554  161.8571 H   0  0  0  0  0  0  0  0  0  0  0  0
  153.0354  144.0867  162.5143 H   0  0  0  0  0  0  0  0  0  0  0  0
  151.6864  145.4257  160.9098 H   0  0  0  0  0  0  0  0  0  0  0  0
  151.1990  144.5271  158.6410 H   0  0  0  0  0  0  0  0  0  0  0  0
  152.0561  142.2959  157.9744 H   0  0  0  0  0  0  0  0  0  0  0  0
  155.6458  136.3649  157.9716 H   0  0  0  0  0  0  0  0  0  0  0  0
  156.1446  134.3722  162.2415 H   0  0  0  0  0  0  0  0  0  0  0  0
  157.4986  133.9531  161.1652 H   0  0  0  0  0  0  0  0  0  0  0  0
  158.7624  133.0114  163.0359 H   0  0  0  0  0  0  0  0  0  0  0  0
  157.2420  131.5005  162.8990 H   0  0  0  0  0  0  0  0  0  0  0  0
  154.4866  138.3429  158.2561 H   0  0  0  0  0  0  0  0  0  0  0  0
  1  2  1  0  0  0  0
  1 34  1  0  0  0  0
  1 35  1  0  0  0  0
  1 36  1  0  0  0  0
  2  3  1  0  0  0  0
  2  4  1  0  0  0  0
  2  5  1  0  0  0  0
  3 37  1  0  0  0  0
  3 38  1  0  0  0  0
  3 39  1  0  0  0  0
  4 40  1  0  0  0  0
  4 41  1  0  0  0  0
  4 42  1  0  0  0  0
  5  6  1  0  0  0  0
  5  7  1  0  0  0  0
  5  8  1  0  0  0  0
  6 43  1  0  0  0  0
  6 44  1  0  0  0  0
  6 45  1  0  0  0  0
  7 46  1  0  0  0  0
  7 47  1  0  0  0  0
  7 48  1  0  0  0  0
  8  9  1  0  0  0  0
  9 10  1  0  0  0  0
  9 49  1  0  0  0  0
  9 50  1  0  0  0  0
 10 32  1  0  0  0  0
 10 11  1  0  0  0  0
 10 51  1  0  0  0  0
 11 12  1  0  0  0  0
 12 13  1  0  0  0  0
 12 31  1  0  0  0  0
 12 52  1  0  0  0  0
 13 30  1  0  0  0  0
 13 14  1  0  0  0  0
 14 15  2  0  0  0  0
 14 53  1  0  0  0  0
 15 16  1  0  0  0  0
 16 30  2  0  0  0  0
 16 17  1  0  0  0  0
 17 18  2  0  0  0  0
 17 27  1  0  0  0  0
 18 19  1  0  0  0  0
 19 20  2  0  0  0  0
 19 21  1  0  0  0  0
 21 26  1  0  0  0  0
 21 22  2  0  0  0  0
 22 23  1  0  0  0  0
 22 54  1  0  0  0  0
 23 24  2  0  0  0  0
 23 55  1  0  0  0  0
 24 25  1  0  0  0  0
 24 56  1  0  0  0  0
 25 26  2  0  0  0  0
 25 57  1  0  0  0  0
 26 58  1  0  0  0  0
 27 28  1  0  0  0  0
 27 64  1  0  0  0  0
 28 29  2  0  0  0  0
 28 59  1  0  0  0  0
 29 30  1  0  0  0  0
 31 32  1  0  0  0  0
 31 60  1  0  0  0  0
 31 61  1  0  0  0  0
 32 33  1  0  0  0  0
 32 62  1  0  0  0  0
 33 63  1  0  0  0  0
M  END
> <s_m_source_file>
AV-unprocessed.smi

> <i_m_source_file_index>
36

> <i_lp_mmshare_version>
43012

> <i_f3d_flags>
0

> <s_epik_input>
W0NIM11DKFtDSDNdKShbQ0gzXSlbU2ldKFtDSDNdKShbQ0gzXSlPW0NIMl1bQ0BASF0xT1tDQEhdKFtDSDJdW0NASF0xW09IXSluKFtjSF1uMiljKGMyMyluW2NIXW5jM1tOSF1DKD1PKWM0W2NIXVtjSF1bY0hdW2NIXVtjSF00

> <s_epik_cmdline>
J2VwaWtfcHl0aG9uJywgJy1waCcsICc3LjAnLCAnLXRuJywgJzgnLCAnLW1hJywgJzIwMCcsICctbWV0YWxfYmluZGluZycsICctaW1hZScsICc8aW5maWxlLm1hZT4nLCAnLW9tYWUnLCAnPG91dGZpbGUubWFlPic=

> <r_epik_Ionization_Penalty>
0.0850405

> <r_epik_Ionization_Penalty_Charging>
0.0850403

> <r_epik_Ionization_Penalty_Neutral>
1.47497e-07

> <r_epik_State_Penalty>
2.6133

> <r_epik_Charging_Adjusted_Penalty>
2.69834

> <i_epik_Tot_Q>
0

> <i_epik_Tot_abs_Q>
0

> <r_epik_Metal_State_Penalty>
2.92945

> <b_epik_Metal_Only>
0

> <s_epik_Chemistry_Notes>
This compound contains an acetal/aminal-like group ( X-CH(R)-Y where X, Y are N, S, or O) that may be acid/base labile, releasing an aldehyde.

> <s_lp_Force_Field>
OPLS_2005

> <r_lp_Energy>
45.0835

> <b_lp_Chiralities_Consistent>
1

> <s_lp_Variant>
AV-unprocessed.smi:36-16

> <Gold.Version>
5.8.1

> <Gold.Id.Protein>
6NUR|6NUR_protein|mol2

> <Gold.PLP.Fitness>
53.8601

> <Gold.PLP.PLP>
-52.5782

> <Gold.PLP.part.hbond>
-1.0000

> <Gold.PLP.part.metal>
0.0000

> <Gold.PLP.part.buried>
-6.1217

> <Gold.PLP.part.nonpolar>
-45.4692

> <Gold.PLP.part.repulsive>
0.1306

> <Gold.PLP.ligand.clash>
0.0000

> <Gold.PLP.ligand.torsion>
0.9981

> <Gold.PLP.Chemscore.Hbond>
0.9920

> <Gold.PLP.Chemscore.CHOScore>
0.0000

> <Gold.PLP.Chemscore.Metal>
0.0000

> <Gold.Chemscore.Hbonds>
donor molecule, donor type, donor heavy atom, donor atom, acceptor molecule, acceptor atom, score
      P1  H  7997  8009       L1    20  0.96

> <Gold.PLP.Chemscore.Internal.Correction>
0.3022

> <Gold.Rescore>
     Score         DG    S(hbond)    S(metal)    S(lipo)     H(rot)  DE(clash)    DE(int)     intcor
     14.60     -15.85       0.97        0.00     120.12       2.70       0.06       1.19       ----

> <Gold.Chemscore.Fitness>
14.5958

> <Gold.Chemscore.DG>
-15.8511

> <Gold.Chemscore.ZeroCoef>
-5.4800

> <Gold.Chemscore.Hbond>
0.9698

> <Gold.Chemscore.Metal>
0.0000

> <Gold.Chemscore.Lipo>
120.1241

> <Gold.Chemscore.Internal_Hbond>
0.0000

> <Gold.Chemscore.DEClash>
0.0609

> <Gold.Chemscore.DEInternal>
1.1944

> <Gold.Chemscore.Rot>
2.7041

> <Gold.Chemscore.Internal.Correction>
   9.000000E+99

> <Gold.Chemscore.Hbonds>
donor molecule, donor type, donor heavy atom, donor atom, acceptor molecule, acceptor atom, score
      P1  H  7997  8009       L1    20  0.89

> <Gold.Chemscore.Hbond.Weighted>
-3.2390

> <Gold.Chemscore.Metal.Weighted>
-0.0000

> <Gold.Chemscore.Lipo.Weighted>
-14.0545

> <Gold.Chemscore.Internal_Hbond.Weighted>
0.0000

> <Gold.Chemscore.DEClash.Weighted>
0.0609

> <Gold.Chemscore.DEInternal.Weighted>
1.1944

> <Gold.Chemscore.Rot.Weighted>
6.9225

> <Gold.Chemscore.Internal.Correction.Weighted>
   9.000000E+99

> <Gold.Protein.RotatedTorsions>
[ 6907 6896 6895 6894 ] final   41.76 input  -60.11 | X-H torsion
[ 7974 7965 7964 7962 ] final   42.06 input  175.53 | X-H torsion
[ 8008 7997 7996 7995 ] final  160.94 input   59.86 | X-H torsion
[ 10167 10162 10161 10158 ] final  -69.42 input  -65.29 | X-H torsion
[ 10718 10713 10712 10709 ] final  107.64 input   66.30 | X-H torsion
[ 10763 10752 10751 10750 ] final  119.99 input  -60.55 | X-H torsion
[ 11005 11000 10999 10996 ] final  147.98 input  -57.11 | X-H torsion

> <Gold.Protein.ActiveResidues>
 VAL166  LYS551  ARG553  GLY616  TRP617  ASP618  TYR619  PRO620  LYS621  CYS622 
 ASP623  PHE694  ASN695  SER759  ASP760  ASP761  ALA762  ILE779  LEU786  VAL792 
 PHE793  MET794  SER795  GLU796  ALA797  LYS798  CYS799  TRP800  GLU811  SER814 

> <Gold.Protein.RotatedAtoms>
  152.1993  134.8602  160.0509 H   0  0  0  0  0  0  0  0  0  0  0  0  # atno 6907 bound_to 6896
  151.9461  133.3647  159.3991 H   0  0  0  0  0  0  0  0  0  0  0  0  # atno 6908 bound_to 6896
  150.6951  134.4313  159.5293 H   0  0  0  0  0  0  0  0  0  0  0  0  # atno 6909 bound_to 6896
  146.0772  139.5344  142.9560 H   0  0  0  0  0  0  0  0  0  0  0  0  # atno 7974 bound_to 7965
  156.2138  140.1790  156.7636 H   0  0  0  0  0  0  0  0  0  0  0  0  # atno 8008 bound_to 7997
  154.5760  140.0674  156.9065 H   0  0  0  0  0  0  0  0  0  0  0  0  # atno 8009 bound_to 7997
  155.2586  140.3334  155.4277 H   0  0  0  0  0  0  0  0  0  0  0  0  # atno 8010 bound_to 7997
  140.5432  143.2314  151.7050 H   0  0  0  0  0  0  0  0  0  0  0  0  # atno 10167 bound_to 10162
  157.6620  131.0877  150.6186 H   0  0  0  0  0  0  0  0  0  0  0  0  # atno 10718 bound_to 10713
  153.5915  135.3465  155.2912 H   0  0  0  0  0  0  0  0  0  0  0  0  # atno 10763 bound_to 10752
  154.8652  135.4206  154.2511 H   0  0  0  0  0  0  0  0  0  0  0  0  # atno 10764 bound_to 10752
  153.3319  135.7045  153.7011 H   0  0  0  0  0  0  0  0  0  0  0  0  # atno 10765 bound_to 10752
  140.0921  134.9035  157.1666 H   0  0  0  0  0  0  0  0  0  0  0  0  # atno 11005 bound_to 11000
  145.6284  141.0309  143.1876 LP  0  0  0  0  0  0  0  0  0  0  0  0  # atno 17320 bound_to 7965
  144.7269  139.7846  143.7361 LP  0  0  0  0  0  0  0  0  0  0  0  0  # atno 17321 bound_to 7965
  139.4997  144.3936  152.0254 LP  0  0  0  0  0  0  0  0  0  0  0  0  # atno 17342 bound_to 10162
  140.3046  144.3607  150.6050 LP  0  0  0  0  0  0  0  0  0  0  0  0  # atno 17343 bound_to 10162
  156.6488  130.4479  149.5726 LP  0  0  0  0  0  0  0  0  0  0  0  0  # atno 17370 bound_to 10713
  156.2153  130.6704  151.1312 LP  0  0  0  0  0  0  0  0  0  0  0  0  # atno 17371 bound_to 10713
  140.3338  134.2780  155.7223 LP  0  0  0  0  0  0  0  0  0  0  0  0  # atno 17394 bound_to 11000
  141.2081  133.7787  157.0080 LP  0  0  0  0  0  0  0  0  0  0  0  0  # atno 17395 bound_to 11000

$$$$
