AV-unprocessed.smi:1225|AV-procd|sdf|5142|dock2
  -GOLD-   22720 4213D 1   1.00000     0.00000
 Structure written by MMmdl.
 49 51  0  0  0  0  0  0  0  0  2 V2000
  145.9620  134.0615  153.4075 C   0  0  0  0  0  0  0  0  0  0  0  0
  145.9844  135.5518  153.4216 C   0  0  0  0  0  0  0  0  0  0  0  0
  145.3441  136.3092  152.5284 N   0  0  0  0  0  0  0  0  0  0  0  0
  145.5257  137.6744  152.7577 C   0  0  0  0  0  0  0  0  0  0  0  0
  146.3088  137.9543  153.8505 C   0  0  0  0  0  0  0  0  0  0  0  0
  146.6940  139.3021  154.3681 C   0  0  0  0  0  0  0  0  0  0  0  0
  147.5753  140.0345  153.4227 N   0  3  1  0  0  0  0  0  0  0  0  0
  146.8503  140.5068  152.2199 C   0  0  0  0  0  0  0  0  0  0  0  0
  148.3494  141.1239  154.0700 C   0  0  0  0  0  0  0  0  0  0  0  0
  149.5295  140.5837  154.9093 C   0  0  1  0  0  0  0  0  0  0  0  0
  150.3485  139.7810  154.0834 O   0  0  0  0  0  0  0  0  0  0  0  0
  150.4148  141.6894  155.5162 C   0  0  0  0  0  0  0  0  0  0  0  0
  151.2299  141.2088  156.6168 N   0  0  0  0  0  0  0  0  0  0  0  0
  151.8530  140.0178  156.7022 C   0  0  0  0  0  0  0  0  0  0  0  0
  152.5472  139.7724  157.8093 N   0  0  0  0  0  0  0  0  0  0  0  0
  152.3600  140.9440  158.5225 C   0  0  0  0  0  0  0  0  0  0  0  0
  152.8380  141.3300  159.7937 C   0  0  0  0  0  0  0  0  0  0  0  0
  152.5155  142.5943  160.3361 C   0  0  0  0  0  0  0  0  0  0  0  0
  153.0528  142.9687  161.7063 C   0  0  0  0  0  0  0  0  0  0  0  0
  151.7019  143.4954  159.6033 C   0  0  0  0  0  0  0  0  0  0  0  0
  151.3455  144.8605  160.1649 C   0  0  0  0  0  0  0  0  0  0  0  0
  151.2138  143.1249  158.3329 C   0  0  0  0  0  0  0  0  0  0  0  0
  151.5426  141.8642  157.8032 C   0  0  0  0  0  0  0  0  0  0  0  0
  146.8644  136.4904  154.6215 S   0  0  0  0  0  0  0  0  0  0  0  0
  145.2366  133.6938  152.6808 H   0  0  0  0  0  0  0  0  0  0  0  0
  145.6903  133.6829  154.3928 H   0  0  0  0  0  0  0  0  0  0  0  0
  146.9473  133.6773  153.1437 H   0  0  0  0  0  0  0  0  0  0  0  0
  145.0545  138.3831  152.0927 H   0  0  0  0  0  0  0  0  0  0  0  0
  145.8061  139.8999  154.5799 H   0  0  0  0  0  0  0  0  0  0  0  0
  147.1946  139.1665  155.3260 H   0  0  0  0  0  0  0  0  0  0  0  0
  146.0910  141.2430  152.4864 H   0  0  0  0  0  0  0  0  0  0  0  0
  146.3601  139.6816  151.7036 H   0  0  0  0  0  0  0  0  0  0  0  0
  147.5380  140.9668  151.5096 H   0  0  0  0  0  0  0  0  0  0  0  0
  148.7484  141.8017  153.3134 H   0  0  0  0  0  0  0  0  0  0  0  0
  147.6674  141.7193  154.6786 H   0  0  0  0  0  0  0  0  0  0  0  0
  149.1623  139.9557  155.7204 H   0  0  0  0  0  0  0  0  0  0  0  0
  149.9013  139.6322  153.2638 H   0  0  0  0  0  0  0  0  0  0  0  0
  151.0797  142.1021  154.7559 H   0  0  0  0  0  0  0  0  0  0  0  0
  149.8010  142.5170  155.8738 H   0  0  0  0  0  0  0  0  0  0  0  0
  151.7892  139.2876  155.9084 H   0  0  0  0  0  0  0  0  0  0  0  0
  153.4587  140.6440  160.3513 H   0  0  0  0  0  0  0  0  0  0  0  0
  153.6905  143.8503  161.6389 H   0  0  0  0  0  0  0  0  0  0  0  0
  153.6443  142.1604  162.1370 H   0  0  0  0  0  0  0  0  0  0  0  0
  152.2336  143.1848  162.3927 H   0  0  0  0  0  0  0  0  0  0  0  0
  150.7323  145.4309  159.4669 H   0  0  0  0  0  0  0  0  0  0  0  0
  152.2476  145.4387  160.3660 H   0  0  0  0  0  0  0  0  0  0  0  0
  150.7864  144.7567  161.0948 H   0  0  0  0  0  0  0  0  0  0  0  0
  150.5931  143.8028  157.7662 H   0  0  0  0  0  0  0  0  0  0  0  0
  148.2633  139.3714  153.0943 H   0  0  0  0  0  0  0  0  0  0  0  0
  1  2  1  0  0  0  0
  1 25  1  0  0  0  0
  1 26  1  0  0  0  0
  1 27  1  0  0  0  0
  2 24  1  0  0  0  0
  2  3  2  0  0  0  0
  3  4  1  0  0  0  0
  4  5  2  0  0  0  0
  4 28  1  0  0  0  0
  5  6  1  0  0  0  0
  5 24  1  0  0  0  0
  6  7  1  0  0  0  0
  6 29  1  0  0  0  0
  6 30  1  0  0  0  0
  7  8  1  0  0  0  0
  7  9  1  0  0  0  0
  7 49  1  0  0  0  0
  8 31  1  0  0  0  0
  8 32  1  0  0  0  0
  8 33  1  0  0  0  0
  9 10  1  0  0  0  0
  9 34  1  0  0  0  0
  9 35  1  0  0  0  0
 10 11  1  0  0  0  0
 10 12  1  0  0  0  0
 10 36  1  0  0  0  0
 11 37  1  0  0  0  0
 12 13  1  0  0  0  0
 12 38  1  0  0  0  0
 12 39  1  0  0  0  0
 13 23  1  0  0  0  0
 13 14  1  0  0  0  0
 14 15  2  0  0  0  0
 14 40  1  0  0  0  0
 15 16  1  0  0  0  0
 16 23  2  0  0  0  0
 16 17  1  0  0  0  0
 17 18  2  0  0  0  0
 17 41  1  0  0  0  0
 18 19  1  0  0  0  0
 18 20  1  0  0  0  0
 19 42  1  0  0  0  0
 19 43  1  0  0  0  0
 19 44  1  0  0  0  0
 20 21  1  0  0  0  0
 20 22  2  0  0  0  0
 21 45  1  0  0  0  0
 21 46  1  0  0  0  0
 21 47  1  0  0  0  0
 22 23  1  0  0  0  0
 22 48  1  0  0  0  0
M  CHG  1   7   1
M  END
> <s_m_source_file>
AV-unprocessed.smi

> <i_m_source_file_index>
1225

> <i_lp_mmshare_version>
43012

> <i_f3d_flags>
0

> <s_epik_input>
W0NIM11jMW5bY0hdYyhzMSlbQ0gyXU4oW0NIM10pW0NIMl1bQ0BIXShbT0hdKVtDSDJdbihbY0hdbjIpYyhjMjMpW2NIXWMoW0NIM10pYyhbY0hdMylbQ0gzXQ==

> <s_epik_cmdline>
J2VwaWtfcHl0aG9uJywgJy1waCcsICc3LjAnLCAnLXRuJywgJzgnLCAnLW1hJywgJzIwMCcsICctbWV0YWxfYmluZGluZycsICctaW1hZScsICc8aW5maWxlLm1hZT4nLCAnLW9tYWUnLCAnPG91dGZpbGUubWFlPic=

> <r_epik_Ionization_Penalty>
1.62543

> <r_epik_Ionization_Penalty_Charging>
1.53932

> <r_epik_Ionization_Penalty_Neutral>
0.0861152

> <r_epik_State_Penalty>
1.73127

> <r_epik_Charging_Adjusted_Penalty>
3.27059

> <i_epik_Tot_Q>
1

> <i_epik_Tot_abs_Q>
1

> <r_epik_Metal_State_Penalty>
1.71387

> <b_epik_Metal_Only>
0

> <s_lp_Force_Field>
OPLS_2005

> <r_lp_Energy>
12.5973

> <b_lp_Chiralities_Consistent>
1

> <s_lp_Variant>
AV-unprocessed.smi:1225-7

> <Gold.Version>
5.8.1

> <Gold.Id.Protein>
6NUR|6NUR_protein|mol2

> <Gold.PLP.Fitness>
57.4538

> <Gold.PLP.PLP>
-43.3824

> <Gold.PLP.part.hbond>
-4.0000

> <Gold.PLP.part.metal>
0.0000

> <Gold.PLP.part.buried>
-1.3380

> <Gold.PLP.part.nonpolar>
-36.5711

> <Gold.PLP.part.repulsive>
0.2167

> <Gold.PLP.ligand.clash>
0.0000

> <Gold.PLP.ligand.torsion>
0.8288

> <Gold.PLP.Chemscore.Hbond>
3.1019

> <Gold.PLP.Chemscore.CHOScore>
2.0000

> <Gold.PLP.Chemscore.Metal>
0.0000

> <Gold.Chemscore.Hbonds>
donor molecule, donor type, donor heavy atom, donor atom, acceptor molecule, acceptor atom, score
      L1  H    11    37       P1  7957  0.68
      P1  H  7989  7998       L1    11  0.90
      P1  H  7997  8008       L1    15  0.54
      L1  C     4    28       P1 10171  0.90
      L1  C     4    28       P1 10175  1.00

> <Gold.PLP.Chemscore.Internal.Correction>
0.4232

> <Gold.Rescore>
     Score         DG    S(hbond)    S(metal)    S(lipo)     H(rot)  DE(clash)    DE(int)     intcor
     18.01     -21.29       2.05        0.00     128.72       2.37       1.69       1.59       ----

> <Gold.Chemscore.Fitness>
18.0147

> <Gold.Chemscore.DG>
-21.2910

> <Gold.Chemscore.ZeroCoef>
-5.4800

> <Gold.Chemscore.Hbond>
2.0452

> <Gold.Chemscore.Metal>
0.0000

> <Gold.Chemscore.Lipo>
128.7175

> <Gold.Chemscore.Internal_Hbond>
0.0000

> <Gold.Chemscore.DEClash>
1.6912

> <Gold.Chemscore.DEInternal>
1.5851

> <Gold.Chemscore.Rot>
2.3750

> <Gold.Chemscore.Internal.Correction>
   9.000000E+99

> <Gold.Chemscore.Hbonds>
donor molecule, donor type, donor heavy atom, donor atom, acceptor molecule, acceptor atom, score
      L1  H     7    49       P1  7957  0.02
      L1  H    11    37       P1  7957  0.66
      P1  H  7989  7998       L1    11  0.10
      P1  H  7997  8008       L1    15  0.04

> <Gold.Chemscore.Hbond.Weighted>
-6.8311

> <Gold.Chemscore.Metal.Weighted>
-0.0000

> <Gold.Chemscore.Lipo.Weighted>
-15.0600

> <Gold.Chemscore.Internal_Hbond.Weighted>
0.0000

> <Gold.Chemscore.DEClash.Weighted>
1.6912

> <Gold.Chemscore.DEInternal.Weighted>
1.5851

> <Gold.Chemscore.Rot.Weighted>
6.0800

> <Gold.Chemscore.Internal.Correction.Weighted>
   9.000000E+99

> <Gold.Protein.RotatedTorsions>
[ 6907 6896 6895 6894 ] final  125.20 input  -60.11 | X-H torsion
[ 7974 7965 7964 7962 ] final  132.28 input  175.53 | X-H torsion
[ 8008 7997 7996 7995 ] final  -79.93 input   59.86 | X-H torsion
[ 10167 10162 10161 10158 ] final   82.21 input  -65.29 | X-H torsion
[ 10718 10713 10712 10709 ] final   -4.07 input   66.30 | X-H torsion
[ 10763 10752 10751 10750 ] final  -73.30 input  -60.55 | X-H torsion
[ 11005 11000 10999 10996 ] final -152.84 input  -57.11 | X-H torsion

> <Gold.Protein.ActiveResidues>
 VAL166  LYS551  ARG553  GLY616  TRP617  ASP618  TYR619  PRO620  LYS621  CYS622 
 ASP623  PHE694  ASN695  SER759  ASP760  ASP761  ALA762  ILE779  LEU786  VAL792 
 PHE793  MET794  SER795  GLU796  ALA797  LYS798  CYS799  TRP800  GLU811  SER814 

> <Gold.Protein.RotatedAtoms>
  152.4012  133.6821  159.6317 H   0  0  0  0  0  0  0  0  0  0  0  0  # atno 6907 bound_to 6896
  150.7903  133.8787  159.3288 H   0  0  0  0  0  0  0  0  0  0  0  0  # atno 6908 bound_to 6896
  151.6552  135.0998  160.0220 H   0  0  0  0  0  0  0  0  0  0  0  0  # atno 6909 bound_to 6896
  144.9984  139.4336  143.5304 H   0  0  0  0  0  0  0  0  0  0  0  0  # atno 7974 bound_to 7965
  154.5833  140.0671  156.9135 H   0  0  0  0  0  0  0  0  0  0  0  0  # atno 8008 bound_to 7997
  155.2424  140.3345  155.4272 H   0  0  0  0  0  0  0  0  0  0  0  0  # atno 8009 bound_to 7997
  156.2204  140.1796  156.7474 H   0  0  0  0  0  0  0  0  0  0  0  0  # atno 8010 bound_to 7997
  139.9311  144.6151  150.8344 H   0  0  0  0  0  0  0  0  0  0  0  0  # atno 10167 bound_to 10162
  156.7667  130.5287  149.5775 H   0  0  0  0  0  0  0  0  0  0  0  0  # atno 10718 bound_to 10713
  154.4575  135.5902  153.6233 H   0  0  0  0  0  0  0  0  0  0  0  0  # atno 10763 bound_to 10752
  152.9820  135.6036  154.3527 H   0  0  0  0  0  0  0  0  0  0  0  0  # atno 10764 bound_to 10752
  154.3396  135.2842  155.2409 H   0  0  0  0  0  0  0  0  0  0  0  0  # atno 10765 bound_to 10752
  140.7145  134.3795  157.5193 H   0  0  0  0  0  0  0  0  0  0  0  0  # atno 11005 bound_to 11000
  146.3447  139.9358  142.8747 LP  0  0  0  0  0  0  0  0  0  0  0  0  # atno 17320 bound_to 7965
  145.2187  140.9926  143.4058 LP  0  0  0  0  0  0  0  0  0  0  0  0  # atno 17321 bound_to 7965
  140.7637  143.3229  151.2580 LP  0  0  0  0  0  0  0  0  0  0  0  0  # atno 17342 bound_to 10162
  139.6781  143.9902  152.2793 LP  0  0  0  0  0  0  0  0  0  0  0  0  # atno 17343 bound_to 10162
  156.1304  130.6174  151.0325 LP  0  0  0  0  0  0  0  0  0  0  0  0  # atno 17370 bound_to 10713
  157.6710  131.0861  150.7613 LP  0  0  0  0  0  0  0  0  0  0  0  0  # atno 17371 bound_to 10713
  139.8863  134.8913  156.2592 LP  0  0  0  0  0  0  0  0  0  0  0  0  # atno 17394 bound_to 11000
  141.0056  133.7126  156.1029 LP  0  0  0  0  0  0  0  0  0  0  0  0  # atno 17395 bound_to 11000

$$$$
