#       Name:                AV-unprocessed.smi:65
#       Creating user name   scv26
#       Creation time:       Thu Mar 26 16:50:50 2020


#       File generated by GOLD software.
#

@<TRIPOS>MOLECULE
AV-unprocessed.smi:65
    30    31     1
SMALL
NO_CHARGES


@<TRIPOS>ATOM
      1 ****        -3.2706   1.7924   0.0146 N.pl3          1 S1                 0.0000
      2 ****        -2.6827   0.5522   0.0628 C.ar           1 S1                 0.0000
      3 ****        -3.5022  -0.4928   0.1937 N.ar           1 S1                 0.0000
      4 ****        -2.9246  -1.7127   0.2451 C.ar           1 S1                 0.0000
      5 ****        -1.5268  -1.8771   0.1640 C.ar           1 S1                 0.0000
      6 ****        -0.7613  -0.7008   0.0183 C.ar           1 S1                 0.0000
      7 ****         0.6377  -0.7895  -0.0472 N.3            1 S1                 0.0000
      8 ****         1.3078  -0.4485   1.2050 C.3            1 S1                 0.0000
      9 ****         2.3334   0.6373   0.8699 C.3            1 S1                 0.0000
     10 ****         2.6473   0.3577  -0.5948 C.3            1 S1                 0.0000
     11 ****         3.1646   1.4877  -1.2643 O.3            1 S1                 0.0000
     12 ****         1.2868  -0.0708  -1.1408 C.3            1 S1                 0.0000
     13 ****        -1.3514   0.5187  -0.0247 N.ar           1 S1                 0.0000
     14 ****        -2.7046   2.6227  -0.0824 H              1 S1                 0.0000
     15 ****        -4.2738   1.8851   0.0808 H              1 S1                 0.0000
     16 ****        -3.5810  -2.5632   0.3536 H              1 S1                 0.0000
     17 ****        -1.0691  -2.8544   0.2100 H              1 S1                 0.0000
     18 ****         0.6171  -0.1155   1.9814 H              1 S1                 0.0000
     19 ****         1.8110  -1.3425   1.5746 H              1 S1                 0.0000
     20 ****         1.8694   1.6195   0.9748 H              1 S1                 0.0000
     21 ****         3.2134   0.6073   1.5129 H              1 S1                 0.0000
     22 ****         3.3556  -0.4690  -0.6695 H              1 S1                 0.0000
     23 ****         3.3024   1.2624  -2.1717 H              1 S1                 0.0000
     24 ****         1.3937  -0.7110  -2.0167 H              1 S1                 0.0000
     25 ****         0.7092   0.8046  -1.4401 H              1 S1                 0.0000
     26 ****        -4.4940  -0.3785   0.2509 LP             1 S1                 0.0000
     27 ****         0.7535  -1.7640  -0.2391 LP             1 S1                 0.0000
     28 ****         4.0329   1.7578  -0.8483 LP             1 S1                 0.0000
     29 ****         2.5144   2.2448  -1.1998 LP             1 S1                 0.0000
     30 ****        -0.8131   1.3563  -0.1178 LP             1 S1                 0.0000
@<TRIPOS>BOND
    1    1    2 1     
    2    1   14 1     
    3    1   15 1     
    4    2   13 ar    
    5    2    3 ar    
    6    3    4 ar    
    7    4    5 ar    
    8    4   16 1     
    9    5    6 ar    
   10    5   17 1     
   11    6    7 1     
   12    6   13 ar    
   13    7   12 1     
   14    7    8 1     
   15    8    9 1     
   16    8   18 1     
   17    8   19 1     
   18    9   10 1     
   19    9   20 1     
   20    9   21 1     
   21   10   11 1     
   22   10   12 1     
   23   10   22 1     
   24   11   23 1     
   25   12   24 1     
   26   12   25 1     
   27    3   26 1     
   28    7   27 1     
   29   11   28 1     
   30   11   29 1     
   31   13   30 1     
@<TRIPOS>SUBSTRUCTURE
      1 S1             1
@<TRIPOS>SET
LONE_PAIRS      STATIC     ATOMS    <user>   **** ""
5 26 27 28 29 30
DONOR_HYDROGENS      STATIC     ATOMS    <user>   **** ""
3 14 15 23
ATOM$BLUE        STATIC     ATOMS    COLORGROUP SYSTEM
5 26 27 28 29 30
ATOM$RED        STATIC     ATOMS    COLORGROUP SYSTEM
3 14 15 23
