AV-unprocessed.smi:1912|AV-procd|sdf|7749|dock8
  -GOLD-   22720 9493D 1   1.00000     0.00000
 Structure written by MMmdl.
 43 45  0  0  0  0  0  0  0  0  1 V2000
  147.2023  142.3691  154.0987 C   0  0  0  0  0  0  0  0  0  0  0  0
  147.7060  142.0528  155.3880 O   0  0  0  0  0  0  0  0  0  0  0  0
  148.8383  141.2710  155.4686 C   0  0  0  0  0  0  0  0  0  0  0  0
  149.4985  140.7073  154.3519 C   0  0  0  0  0  0  0  0  0  0  0  0
  150.6450  139.9113  154.5289 C   0  0  0  0  0  0  0  0  0  0  0  0
  151.1620  139.6591  155.8235 C   0  0  0  0  0  0  0  0  0  0  0  0
  152.2672  138.8655  156.0540 O   0  0  0  0  0  0  0  0  0  0  0  0
  152.7036  138.0000  155.0170 C   0  0  0  0  0  0  0  0  0  0  0  0
  150.5091  140.2302  156.9436 C   0  0  0  0  0  0  0  0  0  0  0  0
  151.0101  139.9500  158.3603 C   0  0  1  0  0  0  0  0  0  0  0  0
  150.8007  138.6090  158.7560 O   0  0  0  0  0  0  0  0  0  0  0  0
  152.5123  140.2656  158.5235 C   0  0  0  0  0  0  0  0  0  0  0  0
  152.7619  141.2986  159.5201 N   0  0  0  0  0  0  0  0  0  0  0  0
  153.3534  141.1621  160.7323 C   0  0  0  0  0  0  0  0  0  0  0  0
  153.8742  139.8450  161.2128 C   0  0  0  0  0  0  0  0  0  0  0  0
  153.4355  142.2705  161.4683 N   0  0  0  0  0  0  0  0  0  0  0  0
  152.8422  143.2176  160.6561 C   0  0  0  0  0  0  0  0  0  0  0  0
  152.6104  144.5952  160.8704 C   0  0  0  0  0  0  0  0  0  0  0  0
  151.9711  145.3735  159.8834 C   0  0  0  0  0  0  0  0  0  0  0  0
  151.5563  144.7876  158.6700 C   0  0  0  0  0  0  0  0  0  0  0  0
  151.7796  143.4176  158.4354 C   0  0  0  0  0  0  0  0  0  0  0  0
  152.4158  142.6438  159.4249 C   0  0  0  0  0  0  0  0  0  0  0  0
  149.3561  141.0243  156.7539 C   0  0  0  0  0  0  0  0  0  0  0  0
  146.3040  142.9772  154.2040 H   0  0  0  0  0  0  0  0  0  0  0  0
  146.9282  141.4692  153.5464 H   0  0  0  0  0  0  0  0  0  0  0  0
  147.9236  142.9451  153.5174 H   0  0  0  0  0  0  0  0  0  0  0  0
  149.1428  140.8669  153.3453 H   0  0  0  0  0  0  0  0  0  0  0  0
  151.1111  139.4999  153.6468 H   0  0  0  0  0  0  0  0  0  0  0  0
  153.5115  137.3718  155.3918 H   0  0  0  0  0  0  0  0  0  0  0  0
  153.0890  138.5614  154.1652 H   0  0  0  0  0  0  0  0  0  0  0  0
  151.9012  137.3395  154.6853 H   0  0  0  0  0  0  0  0  0  0  0  0
  150.4379  140.5491  159.0680 H   0  0  0  0  0  0  0  0  0  0  0  0
  150.0733  138.2618  158.2626 H   0  0  0  0  0  0  0  0  0  0  0  0
  153.0585  139.3678  158.8150 H   0  0  0  0  0  0  0  0  0  0  0  0
  152.9414  140.5834  157.5724 H   0  0  0  0  0  0  0  0  0  0  0  0
  154.2873  139.9415  162.2174 H   0  0  0  0  0  0  0  0  0  0  0  0
  154.6631  139.4866  160.5513 H   0  0  0  0  0  0  0  0  0  0  0  0
  153.0734  139.1065  161.2425 H   0  0  0  0  0  0  0  0  0  0  0  0
  152.9237  145.0533  161.7967 H   0  0  0  0  0  0  0  0  0  0  0  0
  151.7978  146.4252  160.0583 H   0  0  0  0  0  0  0  0  0  0  0  0
  151.0651  145.3901  157.9202 H   0  0  0  0  0  0  0  0  0  0  0  0
  151.4569  142.9654  157.5093 H   0  0  0  0  0  0  0  0  0  0  0  0
  148.8454  141.4437  157.6084 H   0  0  0  0  0  0  0  0  0  0  0  0
  1  2  1  0  0  0  0
  1 24  1  0  0  0  0
  1 25  1  0  0  0  0
  1 26  1  0  0  0  0
  2  3  1  0  0  0  0
  3 23  1  0  0  0  0
  3  4  2  0  0  0  0
  4  5  1  0  0  0  0
  4 27  1  0  0  0  0
  5  6  2  0  0  0  0
  5 28  1  0  0  0  0
  6  7  1  0  0  0  0
  6  9  1  0  0  0  0
  7  8  1  0  0  0  0
  8 29  1  0  0  0  0
  8 30  1  0  0  0  0
  8 31  1  0  0  0  0
  9 10  1  0  0  0  0
  9 23  2  0  0  0  0
 10 11  1  0  0  0  0
 10 12  1  0  0  0  0
 10 32  1  0  0  0  0
 11 33  1  0  0  0  0
 12 13  1  0  0  0  0
 12 34  1  0  0  0  0
 12 35  1  0  0  0  0
 13 22  1  0  0  0  0
 13 14  1  0  0  0  0
 14 15  1  0  0  0  0
 14 16  2  0  0  0  0
 15 36  1  0  0  0  0
 15 37  1  0  0  0  0
 15 38  1  0  0  0  0
 16 17  1  0  0  0  0
 17 22  2  0  0  0  0
 17 18  1  0  0  0  0
 18 19  2  0  0  0  0
 18 39  1  0  0  0  0
 19 20  1  0  0  0  0
 19 40  1  0  0  0  0
 20 21  2  0  0  0  0
 20 41  1  0  0  0  0
 21 22  1  0  0  0  0
 21 42  1  0  0  0  0
 23 43  1  0  0  0  0
M  END
> <s_m_source_file>
AV-unprocessed.smi

> <i_m_source_file_index>
1912

> <i_lp_mmshare_version>
43012

> <i_f3d_flags>
0

> <s_epik_input>
W0NIM11PYzFbY0hdW2NIXWMoT1tDSDNdKWMoW2NIXTEpW0NASF0oW09IXSlbQ0gyXW4oYyhuMilbQ0gzXSljKGMyMylbY0hdW2NIXVtjSF1bY0hdMw==

> <s_epik_cmdline>
J2VwaWtfcHl0aG9uJywgJy1waCcsICc3LjAnLCAnLXRuJywgJzgnLCAnLW1hJywgJzIwMCcsICctbWV0YWxfYmluZGluZycsICctaW1hZScsICc8aW5maWxlLm1hZT4nLCAnLW9tYWUnLCAnPG91dGZpbGUubWFlPic=

> <r_lp_tautomer_probability>
1

> <r_epik_Ionization_Penalty>
0.129663

> <r_epik_Ionization_Penalty_Charging>
0

> <r_epik_Ionization_Penalty_Neutral>
0.129663

> <r_epik_State_Penalty>
0.119073

> <r_epik_Charging_Adjusted_Penalty>
0.119073

> <i_epik_Tot_Q>
0

> <i_epik_Tot_abs_Q>
0

> <r_epik_Metal_State_Penalty>
0.000131867

> <b_epik_Metal_Only>
0

> <s_lp_Force_Field>
OPLS_2005

> <r_lp_Energy>
18.0714

> <b_lp_Chiralities_Consistent>
1

> <s_lp_Variant>
AV-unprocessed.smi:1912-2

> <Gold.Version>
5.8.1

> <Gold.Id.Protein>
6NUR|6NUR_protein|mol2

> <Gold.PLP.Fitness>
50.1011

> <Gold.PLP.PLP>
-49.8969

> <Gold.PLP.part.hbond>
-1.0000

> <Gold.PLP.part.metal>
0.0000

> <Gold.PLP.part.buried>
-0.1169

> <Gold.PLP.part.nonpolar>
-48.9161

> <Gold.PLP.part.repulsive>
0.1511

> <Gold.PLP.ligand.clash>
0.0000

> <Gold.PLP.ligand.torsion>
1.1959

> <Gold.PLP.Chemscore.Hbond>
0.8432

> <Gold.PLP.Chemscore.CHOScore>
0.0000

> <Gold.PLP.Chemscore.Metal>
0.0000

> <Gold.PLP.Chemscore.Internal.Correction>
0.0664

> <Gold.Rescore>
     Score         DG    S(hbond)    S(metal)    S(lipo)     H(rot)  DE(clash)    DE(int)     intcor
     13.32     -15.67       0.00        0.00     134.51       2.17       0.19       2.15       ----

> <Gold.Chemscore.Fitness>
13.3233

> <Gold.Chemscore.DG>
-15.6650

> <Gold.Chemscore.ZeroCoef>
-5.4800

> <Gold.Chemscore.Hbond>
0.0001

> <Gold.Chemscore.Metal>
0.0000

> <Gold.Chemscore.Lipo>
134.5081

> <Gold.Chemscore.Internal_Hbond>
0.0000

> <Gold.Chemscore.DEClash>
0.1900

> <Gold.Chemscore.DEInternal>
2.1518

> <Gold.Chemscore.Rot>
2.1690

> <Gold.Chemscore.Internal.Correction>
   9.000000E+99

> <Gold.Chemscore.Hbond.Weighted>
-0.0002

> <Gold.Chemscore.Metal.Weighted>
-0.0000

> <Gold.Chemscore.Lipo.Weighted>
-15.7374

> <Gold.Chemscore.Internal_Hbond.Weighted>
0.0000

> <Gold.Chemscore.DEClash.Weighted>
0.1900

> <Gold.Chemscore.DEInternal.Weighted>
2.1518

> <Gold.Chemscore.Rot.Weighted>
5.5526

> <Gold.Chemscore.Internal.Correction.Weighted>
   9.000000E+99

> <Gold.Protein.RotatedTorsions>
[ 6907 6896 6895 6894 ] final -133.70 input  -60.11 | X-H torsion
[ 7974 7965 7964 7962 ] final  -36.92 input  175.53 | X-H torsion
[ 8008 7997 7996 7995 ] final  -63.34 input   59.86 | X-H torsion
[ 10167 10162 10161 10158 ] final  154.10 input  -65.29 | X-H torsion
[ 10718 10713 10712 10709 ] final -101.74 input   66.30 | X-H torsion
[ 10763 10752 10751 10750 ] final -135.74 input  -60.55 | X-H torsion
[ 11005 11000 10999 10996 ] final  -17.46 input  -57.11 | X-H torsion

> <Gold.Protein.ActiveResidues>
 VAL166  LYS551  ARG553  GLY616  TRP617  ASP618  TYR619  PRO620  LYS621  CYS622 
 ASP623  PHE694  ASN695  SER759  ASP760  ASP761  ALA762  ILE779  LEU786  VAL792 
 PHE793  MET794  SER795  GLU796  ALA797  LYS798  CYS799  TRP800  GLU811  SER814 

> <Gold.Protein.RotatedAtoms>
  150.9772  133.6283  159.2728 H   0  0  0  0  0  0  0  0  0  0  0  0  # atno 6907 bound_to 6896
  151.3551  135.0891  159.9425 H   0  0  0  0  0  0  0  0  0  0  0  0  # atno 6908 bound_to 6896
  152.5203  133.9356  159.7656 H   0  0  0  0  0  0  0  0  0  0  0  0  # atno 6909 bound_to 6896
  146.0620  140.6336  142.8993 H   0  0  0  0  0  0  0  0  0  0  0  0  # atno 7974 bound_to 7965
  154.4549  140.0977  156.6727 H   0  0  0  0  0  0  0  0  0  0  0  0  # atno 8008 bound_to 7997
  155.5170  140.3478  155.4381 H   0  0  0  0  0  0  0  0  0  0  0  0  # atno 8009 bound_to 7997
  156.0757  140.1360  156.9763 H   0  0  0  0  0  0  0  0  0  0  0  0  # atno 8010 bound_to 7997
  139.4824  144.5216  151.7868 H   0  0  0  0  0  0  0  0  0  0  0  0  # atno 10167 bound_to 10162
  156.0204  130.5387  150.7006 H   0  0  0  0  0  0  0  0  0  0  0  0  # atno 10718 bound_to 10713
  154.8697  135.3694  154.4947 H   0  0  0  0  0  0  0  0  0  0  0  0  # atno 10763 bound_to 10752
  153.5591  135.7023  153.5560 H   0  0  0  0  0  0  0  0  0  0  0  0  # atno 10764 bound_to 10752
  153.3644  135.4038  155.1706 H   0  0  0  0  0  0  0  0  0  0  0  0  # atno 10765 bound_to 10752
  140.8171  133.8097  155.9621 H   0  0  0  0  0  0  0  0  0  0  0  0  # atno 11005 bound_to 11000
  144.7180  140.4277  143.7029 LP  0  0  0  0  0  0  0  0  0  0  0  0  # atno 17320 bound_to 7965
  145.6544  139.1570  143.2843 LP  0  0  0  0  0  0  0  0  0  0  0  0  # atno 17321 bound_to 7965
  140.4730  144.1559  150.5921 LP  0  0  0  0  0  0  0  0  0  0  0  0  # atno 17342 bound_to 10162
  140.4361  143.2547  151.9533 LP  0  0  0  0  0  0  0  0  0  0  0  0  # atno 17343 bound_to 10162
  157.4667  131.0889  151.0687 LP  0  0  0  0  0  0  0  0  0  0  0  0  # atno 17370 bound_to 10713
  157.1159  130.6041  149.5493 LP  0  0  0  0  0  0  0  0  0  0  0  0  # atno 17371 bound_to 10713
  140.9138  134.2227  157.4969 LP  0  0  0  0  0  0  0  0  0  0  0  0  # atno 17394 bound_to 11000
  139.8710  134.9762  156.4912 LP  0  0  0  0  0  0  0  0  0  0  0  0  # atno 17395 bound_to 11000

$$$$
