AV-unprocessed.smi:1329|AV-procd|sdf|5483|dock4
  -GOLD-   22720 5 53D 1   1.00000     0.00000
 Structure written by MMmdl.
 42 43  0  0  0  0  0  0  0  0  1 V2000
  147.3233  137.0946  162.9775 C   0  0  0  0  0  0  0  0  0  0  0  0
  147.7542  136.1661  161.8742 C   0  0  0  0  0  0  0  0  0  0  0  0
  148.4361  136.6890  160.9086 N   0  0  0  0  0  0  0  0  0  0  0  0
  148.8807  135.9259  159.8477 N   0  0  0  0  0  0  0  0  0  0  0  0
  149.6375  136.6838  158.8448 C   0  0  0  0  0  0  0  0  0  0  0  0
  149.1531  138.1472  158.7400 C   0  0  2  0  0  0  0  0  0  0  0  0
  148.1568  138.2247  157.7403 O   0  0  0  0  0  0  0  0  0  0  0  0
  150.2839  139.1042  158.3352 C   0  0  0  0  0  0  0  0  0  0  0  0
  149.7086  140.2780  157.7860 O   0  0  0  0  0  0  0  0  0  0  0  0
  150.6394  141.0735  157.0707 C   0  0  0  0  0  0  0  0  0  0  0  0
  151.4285  141.9923  157.9855 C   0  0  0  0  0  0  0  0  0  0  0  0
  151.4423  143.3869  157.7652 C   0  0  0  0  0  0  0  0  0  0  0  0
  152.1908  144.2302  158.6092 C   0  0  0  0  0  0  0  0  0  0  0  0
  152.9346  143.6839  159.6728 C   0  0  0  0  0  0  0  0  0  0  0  0
  152.9314  142.2925  159.8906 C   0  0  0  0  0  0  0  0  0  0  0  0
  152.1823  141.4487  159.0470 C   0  0  0  0  0  0  0  0  0  0  0  0
  148.6675  134.5857  159.7098 C   0  0  0  0  0  0  0  0  0  0  0  0
  149.0971  133.9409  158.7519 O   0  0  0  0  0  0  0  0  0  0  0  0
  147.8913  134.0002  160.8053 C   0  0  0  0  0  0  0  0  0  0  0  0
  147.6415  132.5988  160.6996 C   0  0  0  0  0  0  0  0  0  0  0  0
  147.4542  131.4587  160.6279 N   0  0  0  0  0  0  0  0  0  0  0  0
  147.4424  134.7405  161.8498 C   0  0  0  0  0  0  0  0  0  0  0  0
  146.6343  134.1802  163.0124 C   0  0  0  0  0  0  0  0  0  0  0  0
  147.6712  136.7353  163.9463 H   0  0  0  0  0  0  0  0  0  0  0  0
  146.2365  137.1708  163.0150 H   0  0  0  0  0  0  0  0  0  0  0  0
  147.7196  138.1019  162.8399 H   0  0  0  0  0  0  0  0  0  0  0  0
  150.6934  136.6586  159.1206 H   0  0  0  0  0  0  0  0  0  0  0  0
  149.5988  136.1950  157.8690 H   0  0  0  0  0  0  0  0  0  0  0  0
  148.7249  138.4908  159.6825 H   0  0  0  0  0  0  0  0  0  0  0  0
  148.5136  138.6892  156.9987 H   0  0  0  0  0  0  0  0  0  0  0  0
  150.9090  139.3478  159.1962 H   0  0  0  0  0  0  0  0  0  0  0  0
  150.9232  138.6342  157.5857 H   0  0  0  0  0  0  0  0  0  0  0  0
  151.3308  140.4264  156.5285 H   0  0  0  0  0  0  0  0  0  0  0  0
  150.1181  141.6861  156.3338 H   0  0  0  0  0  0  0  0  0  0  0  0
  150.8800  143.8170  156.9491 H   0  0  0  0  0  0  0  0  0  0  0  0
  152.1958  145.2968  158.4391 H   0  0  0  0  0  0  0  0  0  0  0  0
  153.5091  144.3309  160.3192 H   0  0  0  0  0  0  0  0  0  0  0  0
  153.5048  141.8722  160.7036 H   0  0  0  0  0  0  0  0  0  0  0  0
  152.1878  140.3822  159.2186 H   0  0  0  0  0  0  0  0  0  0  0  0
  146.3697  133.1337  162.8639 H   0  0  0  0  0  0  0  0  0  0  0  0
  145.7036  134.7344  163.1384 H   0  0  0  0  0  0  0  0  0  0  0  0
  147.2043  134.2490  163.9396 H   0  0  0  0  0  0  0  0  0  0  0  0
  1  2  1  0  0  0  0
  1 24  1  0  0  0  0
  1 25  1  0  0  0  0
  1 26  1  0  0  0  0
  2 22  1  0  0  0  0
  2  3  2  0  0  0  0
  3  4  1  0  0  0  0
  4  5  1  0  0  0  0
  4 17  1  0  0  0  0
  5  6  1  0  0  0  0
  5 27  1  0  0  0  0
  5 28  1  0  0  0  0
  6  7  1  0  0  0  0
  6  8  1  0  0  0  0
  6 29  1  0  0  0  0
  7 30  1  0  0  0  0
  8  9  1  0  0  0  0
  8 31  1  0  0  0  0
  8 32  1  0  0  0  0
  9 10  1  0  0  0  0
 10 11  1  0  0  0  0
 10 33  1  0  0  0  0
 10 34  1  0  0  0  0
 11 16  1  0  0  0  0
 11 12  2  0  0  0  0
 12 13  1  0  0  0  0
 12 35  1  0  0  0  0
 13 14  2  0  0  0  0
 13 36  1  0  0  0  0
 14 15  1  0  0  0  0
 14 37  1  0  0  0  0
 15 16  2  0  0  0  0
 15 38  1  0  0  0  0
 16 39  1  0  0  0  0
 17 18  2  0  0  0  0
 17 19  1  0  0  0  0
 19 20  1  0  0  0  0
 19 22  2  0  0  0  0
 20 21  3  0  0  0  0
 22 23  1  0  0  0  0
 23 40  1  0  0  0  0
 23 41  1  0  0  0  0
 23 42  1  0  0  0  0
M  END
> <s_m_source_file>
AV-unprocessed.smi

> <i_m_source_file_index>
1329

> <i_lp_mmshare_version>
43012

> <i_f3d_flags>
0

> <s_epik_input>
TiNDYyhjMVtDSDNdKWMoPU8pbihuYzFbQ0gzXSlbQ0gyXVtDQEhdKFtPSF0pW0NIMl1PW0NIMl1jMltjSF1bY0hdW2NIXVtjSF1bY0hdMg==

> <s_epik_cmdline>
J2VwaWtfcHl0aG9uJywgJy1waCcsICc3LjAnLCAnLXRuJywgJzgnLCAnLW1hJywgJzIwMCcsICctbWV0YWxfYmluZGluZycsICctaW1hZScsICc8aW5maWxlLm1hZT4nLCAnLW9tYWUnLCAnPG91dGZpbGUubWFlPic=

> <r_lp_tautomer_probability>
1

> <r_epik_Ionization_Penalty>
6.13319e-08

> <r_epik_Ionization_Penalty_Charging>
2.19172e-10

> <r_epik_Ionization_Penalty_Neutral>
6.11128e-08

> <r_epik_State_Penalty>
-0

> <r_epik_Charging_Adjusted_Penalty>
2.19172e-10

> <i_epik_Tot_Q>
0

> <i_epik_Tot_abs_Q>
0

> <r_epik_Metal_State_Penalty>
-0

> <b_epik_Metal_Only>
0

> <s_lp_Force_Field>
OPLS_2005

> <r_lp_Energy>
29.8656

> <b_lp_Chiralities_Consistent>
1

> <s_lp_Variant>
AV-unprocessed.smi:1329-1

> <Gold.Version>
5.8.1

> <Gold.Id.Protein>
6NUR|6NUR_protein|mol2

> <Gold.PLP.Fitness>
48.7953

> <Gold.PLP.PLP>
-44.4928

> <Gold.PLP.part.hbond>
-2.9323

> <Gold.PLP.part.metal>
0.0000

> <Gold.PLP.part.buried>
-2.8069

> <Gold.PLP.part.nonpolar>
-39.6784

> <Gold.PLP.part.repulsive>
0.0061

> <Gold.PLP.ligand.clash>
0.0000

> <Gold.PLP.ligand.torsion>
1.1748

> <Gold.PLP.Chemscore.Hbond>
2.2063

> <Gold.PLP.Chemscore.CHOScore>
0.0000

> <Gold.PLP.Chemscore.Metal>
0.0000

> <Gold.Chemscore.Hbonds>
donor molecule, donor type, donor heavy atom, donor atom, acceptor molecule, acceptor atom, score
      P1  H  6896  6908       L1    18  0.65
      P1  H  6931  6943       L1     3  0.80

> <Gold.PLP.Chemscore.Internal.Correction>
0.0333

> <Gold.Rescore>
     Score         DG    S(hbond)    S(metal)    S(lipo)     H(rot)  DE(clash)    DE(int)     intcor
     17.63     -18.91       1.59        0.00     123.58       2.48       0.18       1.10       ----

> <Gold.Chemscore.Fitness>
17.6333

> <Gold.Chemscore.DG>
-18.9075

> <Gold.Chemscore.ZeroCoef>
-5.4800

> <Gold.Chemscore.Hbond>
1.5904

> <Gold.Chemscore.Metal>
0.0000

> <Gold.Chemscore.Lipo>
123.5767

> <Gold.Chemscore.Internal_Hbond>
0.0000

> <Gold.Chemscore.DEClash>
0.1763

> <Gold.Chemscore.DEInternal>
1.0980

> <Gold.Chemscore.Rot>
2.4777

> <Gold.Chemscore.Internal.Correction>
   9.000000E+99

> <Gold.Chemscore.Hbonds>
donor molecule, donor type, donor heavy atom, donor atom, acceptor molecule, acceptor atom, score
      P1  H  6896  6908       L1    18  0.06
      P1  H  6931  6943       L1     3  0.11

> <Gold.Chemscore.Hbond.Weighted>
-5.3119

> <Gold.Chemscore.Metal.Weighted>
-0.0000

> <Gold.Chemscore.Lipo.Weighted>
-14.4585

> <Gold.Chemscore.Internal_Hbond.Weighted>
0.0000

> <Gold.Chemscore.DEClash.Weighted>
0.1763

> <Gold.Chemscore.DEInternal.Weighted>
1.0980

> <Gold.Chemscore.Rot.Weighted>
6.3428

> <Gold.Chemscore.Internal.Correction.Weighted>
   9.000000E+99

> <Gold.Protein.RotatedTorsions>
[ 6907 6896 6895 6894 ] final  131.28 input  -60.11 | X-H torsion
[ 7974 7965 7964 7962 ] final  157.44 input  175.53 | X-H torsion
[ 8008 7997 7996 7995 ] final  157.12 input   59.86 | X-H torsion
[ 10167 10162 10161 10158 ] final  132.05 input  -65.29 | X-H torsion
[ 10718 10713 10712 10709 ] final -138.93 input   66.30 | X-H torsion
[ 10763 10752 10751 10750 ] final  -52.21 input  -60.55 | X-H torsion
[ 11005 11000 10999 10996 ] final   31.30 input  -57.11 | X-H torsion

> <Gold.Protein.ActiveResidues>
 VAL166  LYS551  ARG553  GLY616  TRP617  ASP618  TYR619  PRO620  LYS621  CYS622 
 ASP623  PHE694  ASN695  SER759  ASP760  ASP761  ALA762  ILE779  LEU786  VAL792 
 PHE793  MET794  SER795  GLU796  ALA797  LYS798  CYS799  TRP800  GLU811  SER814 

> <Gold.Protein.RotatedAtoms>
  152.3442  133.6103  159.5898 H   0  0  0  0  0  0  0  0  0  0  0  0  # atno 6907 bound_to 6896
  150.7497  133.9674  159.3544 H   0  0  0  0  0  0  0  0  0  0  0  0  # atno 6908 bound_to 6896
  151.7535  135.0828  160.0385 H   0  0  0  0  0  0  0  0  0  0  0  0  # atno 6909 bound_to 6896
  144.7903  139.7341  143.6224 H   0  0  0  0  0  0  0  0  0  0  0  0  # atno 7974 bound_to 7965
  156.2383  140.1894  156.7059 H   0  0  0  0  0  0  0  0  0  0  0  0  # atno 8008 bound_to 7997
  154.6148  140.0617  156.9567 H   0  0  0  0  0  0  0  0  0  0  0  0  # atno 8009 bound_to 7997
  155.1958  140.3288  155.4354 H   0  0  0  0  0  0  0  0  0  0  0  0  # atno 8010 bound_to 7997
  139.5357  144.6679  151.4796 H   0  0  0  0  0  0  0  0  0  0  0  0  # atno 10167 bound_to 10162
  156.3049  130.7449  151.1511 H   0  0  0  0  0  0  0  0  0  0  0  0  # atno 10718 bound_to 10713
  154.1391  135.6508  153.4938 H   0  0  0  0  0  0  0  0  0  0  0  0  # atno 10763 bound_to 10752
  153.0171  135.5311  154.6923 H   0  0  0  0  0  0  0  0  0  0  0  0  # atno 10764 bound_to 10752
  154.6180  135.2961  155.0329 H   0  0  0  0  0  0  0  0  0  0  0  0  # atno 10765 bound_to 10752
  140.2853  134.2926  155.7790 H   0  0  0  0  0  0  0  0  0  0  0  0  # atno 11005 bound_to 11000
  146.2153  139.5537  142.9654 LP  0  0  0  0  0  0  0  0  0  0  0  0  # atno 17320 bound_to 7965
  145.5811  141.0382  143.2121 LP  0  0  0  0  0  0  0  0  0  0  0  0  # atno 17321 bound_to 7965
  140.6561  143.8596  150.6837 LP  0  0  0  0  0  0  0  0  0  0  0  0  # atno 17342 bound_to 10162
  140.1976  143.3985  152.1816 LP  0  0  0  0  0  0  0  0  0  0  0  0  # atno 17343 bound_to 10162
  157.7377  131.0549  150.5339 LP  0  0  0  0  0  0  0  0  0  0  0  0  # atno 17370 bound_to 10713
  156.5471  130.4222  149.6125 LP  0  0  0  0  0  0  0  0  0  0  0  0  # atno 17371 bound_to 10713
  141.2156  133.7551  156.9543 LP  0  0  0  0  0  0  0  0  0  0  0  0  # atno 17394 bound_to 11000
  140.1245  134.9396  157.2250 LP  0  0  0  0  0  0  0  0  0  0  0  0  # atno 17395 bound_to 11000

$$$$
