#       Name:                AV-unprocessed.smi:2524
#       Creating user name   scv26
#       Creation time:       Fri Mar 27 13:56:02 2020


#       File generated by GOLD software.
#

@<TRIPOS>MOLECULE
AV-unprocessed.smi:2524
    38    39     1
SMALL
NO_CHARGES


@<TRIPOS>ATOM
      1 ****        -3.8767   3.9373   1.6007 C.2            1 S1                 0.0000
      2 ****        -3.6888   3.2920   0.4398 C.2            1 S1                 0.0000
      3 ****        -3.5359   1.7913   0.3074 C.3            1 S1                 0.0000
      4 ****        -2.1837   1.4085  -0.3048 C.3            1 S1                 0.0000
      5 ****        -2.0212  -0.4183  -0.4559 S.o2           1 S1                 0.0000
      6 ****        -2.0608  -1.0016   0.8939 O.2            1 S1                 0.0000
      7 ****        -2.9461  -0.9013  -1.4923 O.2            1 S1                 0.0000
      8 ****        -0.4188  -0.5946  -1.0618 N.3            1 S1                 0.0000
      9 ****         0.2193  -1.9102  -0.9937 C.3            1 S1                 0.0000
     10 ****         1.7357  -1.7830  -0.9612 C.3            1 S1                 0.0000
     11 ****         2.1977  -1.0217   0.2514 C.ar           1 S1                 0.0000
     12 ****         2.5290   0.3486   0.1754 C.ar           1 S1                 0.0000
     13 ****         2.9417   1.0149   1.3462 C.ar           1 S1                 0.0000
     14 ****         3.0393   0.4092   2.5485 N.ar           1 S1                 0.0000
     15 ****         2.7215  -0.9007   2.6197 C.ar           1 S1                 0.0000
     16 ****         2.2987  -1.6560   1.5078 C.ar           1 S1                 0.0000
     17 ****         2.5771  -2.9482  -1.4390 C.3            1 S1                 0.0000
     18 ****         2.5152  -1.6835  -2.2565 C.3            1 S1                 0.0000
     19 ****        -3.9313   3.4034   2.5383 H              1 S1                 0.0000
     20 ****        -3.9784   5.0121   1.6272 H              1 S1                 0.0000
     21 ****        -3.6400   3.8610  -0.4774 H              1 S1                 0.0000
     22 ****        -3.6473   1.3236   1.2864 H              1 S1                 0.0000
     23 ****        -4.3476   1.4152  -0.3159 H              1 S1                 0.0000
     24 ****        -2.0646   1.8448  -1.2967 H              1 S1                 0.0000
     25 ****        -1.3644   1.7683   0.3184 H              1 S1                 0.0000
     26 ****        -0.3268  -0.1874  -1.9922 H              1 S1                 0.0000
     27 ****        -0.1096  -2.4398  -0.0991 H              1 S1                 0.0000
     28 ****        -0.0941  -2.5027  -1.8538 H              1 S1                 0.0000
     29 ****         2.4625   0.8826  -0.7608 H              1 S1                 0.0000
     30 ****         3.1982   2.0635   1.3155 H              1 S1                 0.0000
     31 ****         2.8052  -1.3618   3.5926 H              1 S1                 0.0000
     32 ****         2.0522  -2.7016   1.6198 H              1 S1                 0.0000
     33 ****         3.5077  -3.1563  -0.9146 H              1 S1                 0.0000
     34 ****         2.0670  -3.8188  -1.8464 H              1 S1                 0.0000
     35 ****         1.9628  -1.7338  -3.1926 H              1 S1                 0.0000
     36 ****         3.4042  -1.0562  -2.2733 H              1 S1                 0.0000
     37 ****         0.1097  -0.0755  -0.3900 LP             1 S1                 0.0000
     38 ****         3.3370   0.9138   3.3589 LP             1 S1                 0.0000
@<TRIPOS>BOND
    1    1    2 2     
    2    1   19 1     
    3    1   20 1     
    4    2    3 1     
    5    2   21 1     
    6    3    4 1     
    7    3   22 1     
    8    3   23 1     
    9    4    5 1     
   10    4   24 1     
   11    4   25 1     
   12    5    6 2     
   13    5    7 2     
   14    5    8 1     
   15    8    9 1     
   16    8   26 1     
   17    9   10 1     
   18    9   27 1     
   19    9   28 1     
   20   10   18 1     
   21   10   11 1     
   22   10   17 1     
   23   11   16 ar    
   24   11   12 ar    
   25   12   13 ar    
   26   12   29 1     
   27   13   14 ar    
   28   13   30 1     
   29   14   15 ar    
   30   15   16 ar    
   31   15   31 1     
   32   16   32 1     
   33   17   18 1     
   34   17   33 1     
   35   17   34 1     
   36   18   35 1     
   37   18   36 1     
   38    8   37 1     
   39   14   38 1     
@<TRIPOS>SUBSTRUCTURE
      1 S1             1
@<TRIPOS>SET
LONE_PAIRS      STATIC     ATOMS    <user>   **** ""
4 6 7 37 38
DONOR_HYDROGENS      STATIC     ATOMS    <user>   **** ""
1 26
ATOM$BLUE        STATIC     ATOMS    COLORGROUP SYSTEM
4 6 7 37 38
ATOM$RED        STATIC     ATOMS    COLORGROUP SYSTEM
1 26
