AV-unprocessed.smi:624|AV-procd|sdf|3100|dock3
  -GOLD-   22720 0 23D 1   1.00000     0.00000
 Structure written by MMmdl.
 29 31  0  0  0  0  0  0  0  0  2 V2000
  150.1963  140.5023  157.8149 O   0  0  0  0  0  0  0  0  0  0  0  0
  151.4217  140.4022  157.8998 C   0  0  0  0  0  0  0  0  0  0  0  0
  152.2489  139.6962  157.0869 N   0  5  0  0  0  0  0  0  0  0  0  0
  151.8580  138.7846  156.1679 C   0  0  0  0  0  0  0  0  0  0  0  0
  152.6660  137.9933  155.4337 N   0  0  0  0  0  0  0  0  0  0  0  0
  151.9847  137.1501  154.5680 N   0  0  0  0  0  0  0  0  0  0  0  0
  150.6682  137.3195  154.6648 C   0  0  0  0  0  0  0  0  0  0  0  0
  150.1460  138.5243  155.8209 S   0  0  0  0  0  0  0  0  0  0  0  0
  152.0761  141.0378  158.8837 N   0  0  0  0  0  0  0  0  0  0  0  0
  151.5000  141.8829  159.9268 C   0  0  0  0  0  0  0  0  0  0  0  0
  150.5360  142.9053  159.3527 C   0  0  0  0  0  0  0  0  0  0  0  0
  151.0266  144.2072  158.7649 C   0  0  0  0  0  0  0  0  0  0  0  0
  150.2637  144.2049  160.0708 C   0  0  0  0  0  0  0  0  0  0  0  0
  152.5738  142.5677  160.7527 C   0  0  0  0  0  0  0  0  0  0  0  0
  153.7991  141.8149  161.2114 C   0  0  0  0  0  0  0  0  0  0  0  0
  152.7597  142.2540  162.2185 C   0  0  0  0  0  0  0  0  0  0  0  0
  150.0005  136.7322  154.0523 H   0  0  0  0  0  0  0  0  0  0  0  0
  153.0783  140.9215  158.9078 H   0  0  0  0  0  0  0  0  0  0  0  0
  150.9232  141.2650  160.6172 H   0  0  0  0  0  0  0  0  0  0  0  0
  149.6784  142.4581  158.8530 H   0  0  0  0  0  0  0  0  0  0  0  0
  152.0926  144.4200  158.8115 H   0  0  0  0  0  0  0  0  0  0  0  0
  150.5137  144.5848  157.8827 H   0  0  0  0  0  0  0  0  0  0  0  0
  149.2423  144.5794  160.0596 H   0  0  0  0  0  0  0  0  0  0  0  0
  150.8237  144.4041  160.9824 H   0  0  0  0  0  0  0  0  0  0  0  0
  152.7407  143.6057  160.4700 H   0  0  0  0  0  0  0  0  0  0  0  0
  153.8565  140.7538  160.9759 H   0  0  0  0  0  0  0  0  0  0  0  0
  154.7480  142.3473  161.2006 H   0  0  0  0  0  0  0  0  0  0  0  0
  153.0160  143.0790  162.8800 H   0  0  0  0  0  0  0  0  0  0  0  0
  152.1350  141.4797  162.6589 H   0  0  0  0  0  0  0  0  0  0  0  0
  1  2  2  0  0  0  0
  2  3  1  0  0  0  0
  2  9  1  0  0  0  0
  3  4  1  0  0  0  0
  4  8  1  0  0  0  0
  4  5  2  0  0  0  0
  5  6  1  0  0  0  0
  6  7  2  0  0  0  0
  7  8  1  0  0  0  0
  7 17  1  0  0  0  0
  9 10  1  0  0  0  0
  9 18  1  0  0  0  0
 10 11  1  0  0  0  0
 10 14  1  0  0  0  0
 10 19  1  0  0  0  0
 11 13  1  0  0  0  0
 11 12  1  0  0  0  0
 11 20  1  0  0  0  0
 12 13  1  0  0  0  0
 12 21  1  0  0  0  0
 12 22  1  0  0  0  0
 13 23  1  0  0  0  0
 13 24  1  0  0  0  0
 14 16  1  0  0  0  0
 14 15  1  0  0  0  0
 14 25  1  0  0  0  0
 15 16  1  0  0  0  0
 15 26  1  0  0  0  0
 15 27  1  0  0  0  0
 16 28  1  0  0  0  0
 16 29  1  0  0  0  0
M  CHG  1   3  -1
M  END
> <s_m_source_file>
AV-unprocessed.smi

> <i_m_source_file_index>
624

> <i_lp_mmshare_version>
43012

> <i_f3d_flags>
0

> <s_epik_input>
W0NIMl0xW0NIMl1bQ0hdMVtDSF0oW0NIXTJbQ0gyXVtDSDJdMilbTkhdQyg9TylbTkhdYzNubltjSF1zMw==

> <s_epik_cmdline>
J2VwaWtfcHl0aG9uJywgJy1waCcsICc3LjAnLCAnLXRuJywgJzgnLCAnLW1hJywgJzIwMCcsICctbWV0YWxfYmluZGluZycsICctaW1hZScsICc8aW5maWxlLm1hZT4nLCAnLW9tYWUnLCAnPG91dGZpbGUubWFlPic=

> <r_lp_tautomer_probability>
1

> <r_epik_Ionization_Penalty>
4.58207

> <r_epik_Ionization_Penalty_Charging>
4.53574

> <r_epik_Ionization_Penalty_Neutral>
0.0463302

> <r_epik_State_Penalty>
4.53546

> <r_epik_Charging_Adjusted_Penalty>
9.07119

> <i_epik_Tot_Q>
-1

> <i_epik_Tot_abs_Q>
1

> <r_epik_Metal_State_Penalty>
0.837379

> <b_epik_Metal_Only>
1

> <s_lp_Force_Field>
OPLS_2005

> <r_lp_Energy>
26.5564

> <b_lp_Chiralities_Consistent>
1

> <s_lp_Variant>
AV-unprocessed.smi:624-2

> <Gold.Version>
5.8.1

> <Gold.Id.Protein>
6NUR|6NUR_protein|mol2

> <Gold.PLP.Fitness>
53.4144

> <Gold.PLP.PLP>
-42.5833

> <Gold.PLP.part.hbond>
-2.6297

> <Gold.PLP.part.metal>
0.0000

> <Gold.PLP.part.buried>
-5.8659

> <Gold.PLP.part.nonpolar>
-34.6995

> <Gold.PLP.part.repulsive>
0.3002

> <Gold.PLP.ligand.clash>
0.0000

> <Gold.PLP.ligand.torsion>
1.5084

> <Gold.PLP.Chemscore.Hbond>
2.8320

> <Gold.PLP.Chemscore.CHOScore>
1.0557

> <Gold.PLP.Chemscore.Metal>
0.0000

> <Gold.Chemscore.Hbonds>
donor molecule, donor type, donor heavy atom, donor atom, acceptor molecule, acceptor atom, score
      P1  H  7997  8008       L1     3  0.66
      P1  H 10752 10764       L1     6  0.78
      L1  C     7    17       P1  7948  1.00

> <Gold.PLP.Chemscore.Internal.Correction>
2.1849

> <Gold.Rescore>
     Score         DG    S(hbond)    S(metal)    S(lipo)     H(rot)  DE(clash)    DE(int)     intcor
     14.84     -17.69       1.49        0.00      94.71       1.50       0.02       2.83       ----

> <Gold.Chemscore.Fitness>
14.8420

> <Gold.Chemscore.DG>
-17.6909

> <Gold.Chemscore.ZeroCoef>
-5.4800

> <Gold.Chemscore.Hbond>
1.4851

> <Gold.Chemscore.Metal>
0.0000

> <Gold.Chemscore.Lipo>
94.7124

> <Gold.Chemscore.Internal_Hbond>
0.0000

> <Gold.Chemscore.DEClash>
0.0174

> <Gold.Chemscore.DEInternal>
2.8315

> <Gold.Chemscore.Rot>
1.4964

> <Gold.Chemscore.Internal.Correction>
   9.000000E+99

> <Gold.Chemscore.Hbonds>
donor molecule, donor type, donor heavy atom, donor atom, acceptor molecule, acceptor atom, score
      P1  H  7997  8008       L1     3  0.07
      P1  H 10752 10764       L1     6  0.64

> <Gold.Chemscore.Hbond.Weighted>
-4.9603

> <Gold.Chemscore.Metal.Weighted>
-0.0000

> <Gold.Chemscore.Lipo.Weighted>
-11.0814

> <Gold.Chemscore.Internal_Hbond.Weighted>
0.0000

> <Gold.Chemscore.DEClash.Weighted>
0.0174

> <Gold.Chemscore.DEInternal.Weighted>
2.8315

> <Gold.Chemscore.Rot.Weighted>
3.8308

> <Gold.Chemscore.Internal.Correction.Weighted>
   9.000000E+99

> <Gold.Protein.RotatedTorsions>
[ 6907 6896 6895 6894 ] final  -83.18 input  -60.11 | X-H torsion
[ 7974 7965 7964 7962 ] final   -2.58 input  175.53 | X-H torsion
[ 8008 7997 7996 7995 ] final  -37.78 input   59.86 | X-H torsion
[ 10167 10162 10161 10158 ] final   78.51 input  -65.29 | X-H torsion
[ 10718 10713 10712 10709 ] final  -47.88 input   66.30 | X-H torsion
[ 10763 10752 10751 10750 ] final  -93.13 input  -60.55 | X-H torsion
[ 11005 11000 10999 10996 ] final -114.00 input  -57.11 | X-H torsion

> <Gold.Protein.ActiveResidues>
 VAL166  LYS551  ARG553  GLY616  TRP617  ASP618  TYR619  PRO620  LYS621  CYS622 
 ASP623  PHE694  ASN695  SER759  ASP760  ASP761  ALA762  ILE779  LEU786  VAL792 
 PHE793  MET794  SER795  GLU796  ALA797  LYS798  CYS799  TRP800  GLU811  SER814 

> <Gold.Protein.RotatedAtoms>
  150.6888  134.3552  159.4926 H   0  0  0  0  0  0  0  0  0  0  0  0  # atno 6907 bound_to 6896
  152.1388  134.9076  160.0564 H   0  0  0  0  0  0  0  0  0  0  0  0  # atno 6908 bound_to 6896
  152.0217  133.3867  159.4298 H   0  0  0  0  0  0  0  0  0  0  0  0  # atno 6909 bound_to 6896
  146.2402  140.1592  142.8333 H   0  0  0  0  0  0  0  0  0  0  0  0  # atno 7974 bound_to 7965
  154.4047  140.1595  156.2592 H   0  0  0  0  0  0  0  0  0  0  0  0  # atno 8008 bound_to 7997
  155.9051  140.3431  155.6033 H   0  0  0  0  0  0  0  0  0  0  0  0  # atno 8009 bound_to 7997
  155.7402  140.0791  157.2240 H   0  0  0  0  0  0  0  0  0  0  0  0  # atno 8010 bound_to 7997
  139.9702  144.5900  150.7992 H   0  0  0  0  0  0  0  0  0  0  0  0  # atno 10167 bound_to 10162
  156.2042  130.4157  149.9200 H   0  0  0  0  0  0  0  0  0  0  0  0  # atno 10718 bound_to 10713
  154.6929  135.5206  153.8417 H   0  0  0  0  0  0  0  0  0  0  0  0  # atno 10763 bound_to 10752
  153.0645  135.6580  154.0395 H   0  0  0  0  0  0  0  0  0  0  0  0  # atno 10764 bound_to 10752
  154.0266  135.2989  155.3354 H   0  0  0  0  0  0  0  0  0  0  0  0  # atno 10765 bound_to 10752
  141.0579  133.9583  157.2721 H   0  0  0  0  0  0  0  0  0  0  0  0  # atno 11005 bound_to 11000
  145.0103  140.8708  143.5228 LP  0  0  0  0  0  0  0  0  0  0  0  0  # atno 17320 bound_to 7965
  145.1625  139.2450  143.5384 LP  0  0  0  0  0  0  0  0  0  0  0  0  # atno 17321 bound_to 7965
  140.7524  143.2990  151.3129 LP  0  0  0  0  0  0  0  0  0  0  0  0  # atno 17342 bound_to 10162
  139.6487  144.0403  152.2610 LP  0  0  0  0  0  0  0  0  0  0  0  0  # atno 17343 bound_to 10162
  156.6900  130.8892  151.3587 LP  0  0  0  0  0  0  0  0  0  0  0  0  # atno 17370 bound_to 10713
  157.7003  130.9325  150.0765 LP  0  0  0  0  0  0  0  0  0  0  0  0  # atno 17371 bound_to 10713
  139.9406  135.0191  156.8696 LP  0  0  0  0  0  0  0  0  0  0  0  0  # atno 17394 bound_to 11000
  140.5927  134.0246  155.7506 LP  0  0  0  0  0  0  0  0  0  0  0  0  # atno 17395 bound_to 11000

$$$$
