AV-unprocessed.smi:1768|AV-procd|sdf|7144|dock9
  -GOLD-   22720 8383D 1   1.00000     0.00000
 Structure written by MMmdl.
 33 34  0  0  0  0  0  0  0  0  1 V2000
  151.6508  131.5507  157.3800 C   0  0  0  0  0  0  0  0  0  0  0  0
  150.8297  132.5663  156.6617 C   0  0  0  0  0  0  0  0  0  0  0  0
  150.6090  133.7952  157.1443 N   0  0  0  0  0  0  0  0  0  0  0  0
  149.8204  134.5594  156.2960 N   0  0  0  0  0  0  0  0  0  0  0  0
  149.4685  133.8816  155.1949 C   0  0  0  0  0  0  0  0  0  0  0  0
  148.6684  134.4248  154.1556 N   0  0  0  0  0  0  0  0  0  0  0  0
  147.4191  134.0793  153.7988 C   0  0  0  0  0  0  0  0  0  0  0  0
  146.7513  133.1874  154.3227 O   0  0  0  0  0  0  0  0  0  0  0  0
  146.9821  134.8385  152.7837 N   0  0  0  0  0  0  0  0  0  0  0  0
  145.6787  134.7280  152.1319 C   0  0  1  0  0  0  0  0  0  0  0  0
  145.5580  135.8409  151.0793 C   0  0  0  0  0  0  0  0  0  0  0  0
  145.5298  133.3189  151.5254 C   0  0  2  0  0  0  0  0  0  0  0  0
  146.5378  132.9898  150.4225 C   0  0  0  0  0  0  0  0  0  0  0  0
  145.8014  131.9278  149.6392 C   0  0  0  0  0  0  0  0  0  0  0  0
  144.3711  132.4545  149.6777 C   0  0  0  0  0  0  0  0  0  0  0  0
  144.2545  133.1774  150.9001 O   0  0  0  0  0  0  0  0  0  0  0  0
  150.0758  132.2371  155.1066 S   0  0  0  0  0  0  0  0  0  0  0  0
  152.0117  131.9481  158.3294 H   0  0  0  0  0  0  0  0  0  0  0  0
  152.5090  131.2683  156.7703 H   0  0  0  0  0  0  0  0  0  0  0  0
  151.0532  130.6610  157.5776 H   0  0  0  0  0  0  0  0  0  0  0  0
  149.0942  135.1719  153.6272 H   0  0  0  0  0  0  0  0  0  0  0  0
  147.6067  135.5428  152.4198 H   0  0  0  0  0  0  0  0  0  0  0  0
  144.8784  134.8704  152.8601 H   0  0  0  0  0  0  0  0  0  0  0  0
  144.5812  135.8270  150.5958 H   0  0  0  0  0  0  0  0  0  0  0  0
  146.3166  135.7383  150.3027 H   0  0  0  0  0  0  0  0  0  0  0  0
  145.6791  136.8241  151.5355 H   0  0  0  0  0  0  0  0  0  0  0  0
  145.5981  132.5610  152.3079 H   0  0  0  0  0  0  0  0  0  0  0  0
  146.7164  133.8606  149.7898 H   0  0  0  0  0  0  0  0  0  0  0  0
  147.4968  132.6447  150.8101 H   0  0  0  0  0  0  0  0  0  0  0  0
  146.1816  131.7976  148.6256 H   0  0  0  0  0  0  0  0  0  0  0  0
  145.8645  130.9694  150.1563 H   0  0  0  0  0  0  0  0  0  0  0  0
  144.1966  133.1441  148.8509 H   0  0  0  0  0  0  0  0  0  0  0  0
  143.6317  131.6558  149.6143 H   0  0  0  0  0  0  0  0  0  0  0  0
  1  2  1  0  0  0  0
  1 18  1  0  0  0  0
  1 19  1  0  0  0  0
  1 20  1  0  0  0  0
  2 17  1  0  0  0  0
  2  3  2  0  0  0  0
  3  4  1  0  0  0  0
  4  5  2  0  0  0  0
  5  6  1  0  0  0  0
  5 17  1  0  0  0  0
  6  7  1  0  0  0  0
  6 21  1  0  0  0  0
  7  8  2  0  0  0  0
  7  9  1  0  0  0  0
  9 10  1  0  0  0  0
  9 22  1  0  0  0  0
 10 11  1  0  0  0  0
 10 12  1  0  0  0  0
 10 23  1  0  0  0  0
 11 24  1  0  0  0  0
 11 25  1  0  0  0  0
 11 26  1  0  0  0  0
 12 16  1  0  0  0  0
 12 13  1  0  0  0  0
 12 27  1  0  0  0  0
 13 14  1  0  0  0  0
 13 28  1  0  0  0  0
 13 29  1  0  0  0  0
 14 15  1  0  0  0  0
 14 30  1  0  0  0  0
 14 31  1  0  0  0  0
 15 16  1  0  0  0  0
 15 32  1  0  0  0  0
 15 33  1  0  0  0  0
M  END
> <s_m_source_file>
AV-unprocessed.smi

> <i_m_source_file_index>
1768

> <i_lp_mmshare_version>
43012

> <i_f3d_flags>
0

> <s_epik_input>
W0NIM11jMW5uYyhzMSlbTkhdQyg9TylbTkhdW0NASF0oW0NIM10pW0NAQEhdMltDSDJdW0NIMl1bQ0gyXU8y

> <s_epik_cmdline>
J2VwaWtfcHl0aG9uJywgJy1waCcsICc3LjAnLCAnLXRuJywgJzgnLCAnLW1hJywgJzIwMCcsICctbWV0YWxfYmluZGluZycsICctaW1hZScsICc8aW5maWxlLm1hZT4nLCAnLW9tYWUnLCAnPG91dGZpbGUubWFlPic=

> <r_lp_tautomer_probability>
1

> <r_epik_Ionization_Penalty>
0.000523083

> <r_epik_Ionization_Penalty_Charging>
0

> <r_epik_Ionization_Penalty_Neutral>
0.000523083

> <r_epik_State_Penalty>
-0

> <r_epik_Charging_Adjusted_Penalty>
0

> <i_epik_Tot_Q>
0

> <i_epik_Tot_abs_Q>
0

> <r_epik_Metal_State_Penalty>
0.223408

> <b_epik_Metal_Only>
0

> <s_lp_Force_Field>
OPLS_2005

> <r_lp_Energy>
16.97

> <b_lp_Chiralities_Consistent>
1

> <s_lp_Variant>
AV-unprocessed.smi:1768-2

> <Gold.Version>
5.8.1

> <Gold.Id.Protein>
6NUR|6NUR_protein|mol2

> <Gold.PLP.Fitness>
35.3535

> <Gold.PLP.PLP>
-29.4327

> <Gold.PLP.part.hbond>
-3.0000

> <Gold.PLP.part.metal>
0.0000

> <Gold.PLP.part.buried>
-4.7807

> <Gold.PLP.part.nonpolar>
-22.6230

> <Gold.PLP.part.repulsive>
0.2278

> <Gold.PLP.ligand.clash>
0.0000

> <Gold.PLP.ligand.torsion>
0.6530

> <Gold.PLP.Chemscore.Hbond>
2.4055

> <Gold.PLP.Chemscore.CHOScore>
0.0000

> <Gold.PLP.Chemscore.Metal>
0.0000

> <Gold.Chemscore.Hbonds>
donor molecule, donor type, donor heavy atom, donor atom, acceptor molecule, acceptor atom, score
      L1  H     6    21       P1  7948  0.86
      L1  H     9    22       P1  7948  1.00
      P1  H  6896  6908       L1     3  0.60

> <Gold.PLP.Chemscore.Internal.Correction>
0.0104

> <Gold.Rescore>
     Score         DG    S(hbond)    S(metal)    S(lipo)     H(rot)  DE(clash)    DE(int)     intcor
     15.27     -15.98       2.00        0.00      60.80       1.29       0.00       0.71       ----

> <Gold.Chemscore.Fitness>
15.2664

> <Gold.Chemscore.DG>
-15.9802

> <Gold.Chemscore.ZeroCoef>
-5.4800

> <Gold.Chemscore.Hbond>
2.0041

> <Gold.Chemscore.Metal>
0.0000

> <Gold.Chemscore.Lipo>
60.8023

> <Gold.Chemscore.Internal_Hbond>
0.0000

> <Gold.Chemscore.DEClash>
0.0000

> <Gold.Chemscore.DEInternal>
0.7138

> <Gold.Chemscore.Rot>
1.2919

> <Gold.Chemscore.Internal.Correction>
   9.000000E+99

> <Gold.Chemscore.Hbonds>
donor molecule, donor type, donor heavy atom, donor atom, acceptor molecule, acceptor atom, score
      L1  H     6    21       P1  7948  0.31
      L1  H     9    22       P1  7948  0.98
      P1  H  6896  6908       L1     3  0.27

> <Gold.Chemscore.Hbond.Weighted>
-6.6936

> <Gold.Chemscore.Metal.Weighted>
-0.0000

> <Gold.Chemscore.Lipo.Weighted>
-7.1139

> <Gold.Chemscore.Internal_Hbond.Weighted>
0.0000

> <Gold.Chemscore.DEClash.Weighted>
0.0000

> <Gold.Chemscore.DEInternal.Weighted>
0.7138

> <Gold.Chemscore.Rot.Weighted>
3.3072

> <Gold.Chemscore.Internal.Correction.Weighted>
   9.000000E+99

> <Gold.Protein.RotatedTorsions>
[ 6907 6896 6895 6894 ] final  102.69 input  -60.11 | X-H torsion
[ 7974 7965 7964 7962 ] final   36.31 input  175.53 | X-H torsion
[ 8008 7997 7996 7995 ] final  -36.28 input   59.86 | X-H torsion
[ 10167 10162 10161 10158 ] final   50.80 input  -65.29 | X-H torsion
[ 10718 10713 10712 10709 ] final   30.24 input   66.30 | X-H torsion
[ 10763 10752 10751 10750 ] final -128.92 input  -60.55 | X-H torsion
[ 11005 11000 10999 10996 ] final  -38.17 input  -57.11 | X-H torsion

> <Gold.Protein.ActiveResidues>
 VAL166  LYS551  ARG553  GLY616  TRP617  ASP618  TYR619  PRO620  LYS621  CYS622 
 ASP623  PHE694  ASN695  SER759  ASP760  ASP761  ALA762  ILE779  LEU786  VAL792 
 PHE793  MET794  SER795  GLU796  ALA797  LYS798  CYS799  TRP800  GLU811  SER814 

> <Gold.Protein.RotatedAtoms>
  152.5317  133.9938  159.7862 H   0  0  0  0  0  0  0  0  0  0  0  0  # atno 6907 bound_to 6896
  151.0169  133.5905  159.2683 H   0  0  0  0  0  0  0  0  0  0  0  0  # atno 6908 bound_to 6896
  151.2958  135.0762  159.9274 H   0  0  0  0  0  0  0  0  0  0  0  0  # atno 6909 bound_to 6896
  146.1220  139.6033  142.9283 H   0  0  0  0  0  0  0  0  0  0  0  0  # atno 7974 bound_to 7965
  154.4076  140.1635  156.2348 H   0  0  0  0  0  0  0  0  0  0  0  0  # atno 8008 bound_to 7997
  155.9252  140.3418  155.6181 H   0  0  0  0  0  0  0  0  0  0  0  0  # atno 8009 bound_to 7997
  155.7174  140.0764  157.2336 H   0  0  0  0  0  0  0  0  0  0  0  0  # atno 8010 bound_to 7997
  140.2686  144.3291  150.6296 H   0  0  0  0  0  0  0  0  0  0  0  0  # atno 10167 bound_to 10162
  157.2570  130.7143  149.6434 H   0  0  0  0  0  0  0  0  0  0  0  0  # atno 10718 bound_to 10713
  154.8757  135.3912  154.3835 H   0  0  0  0  0  0  0  0  0  0  0  0  # atno 10763 bound_to 10752
  153.4579  135.7029  153.6073 H   0  0  0  0  0  0  0  0  0  0  0  0  # atno 10764 bound_to 10752
  153.4585  135.3817  155.2293 H   0  0  0  0  0  0  0  0  0  0  0  0  # atno 10765 bound_to 10752
  141.0007  133.6957  156.2017 H   0  0  0  0  0  0  0  0  0  0  0  0  # atno 11005 bound_to 11000
  145.5445  141.0418  143.2312 LP  0  0  0  0  0  0  0  0  0  0  0  0  # atno 17320 bound_to 7965
  144.7606  139.6965  143.7236 LP  0  0  0  0  0  0  0  0  0  0  0  0  # atno 17321 bound_to 7965
  140.5908  143.2168  151.7256 LP  0  0  0  0  0  0  0  0  0  0  0  0  # atno 17342 bound_to 10162
  139.4995  144.3942  152.0248 LP  0  0  0  0  0  0  0  0  0  0  0  0  # atno 17343 bound_to 10162
  155.9665  130.4409  150.5320 LP  0  0  0  0  0  0  0  0  0  0  0  0  # atno 17370 bound_to 10713
  157.3216  131.0683  151.1927 LP  0  0  0  0  0  0  0  0  0  0  0  0  # atno 17371 bound_to 10713
  140.6894  134.4682  157.5589 LP  0  0  0  0  0  0  0  0  0  0  0  0  # atno 17394 bound_to 11000
  139.9037  134.8497  156.1790 LP  0  0  0  0  0  0  0  0  0  0  0  0  # atno 17395 bound_to 11000

$$$$
