AV-unprocessed.smi:1844|AV-procd|sdf|7509|dock3
  -GOLD-   22720 9213D 1   1.00000     0.00000
 Structure written by MMmdl.
 45 46  0  0  0  0  0  0  0  0  1 V2000
  151.9823  144.1578  157.8300 C   0  0  0  0  0  0  0  0  0  0  0  0
  151.2293  143.1978  157.0373 N   0  0  0  0  0  0  0  0  0  0  0  0
  151.4531  141.8733  157.0316 C   0  0  0  0  0  0  0  0  0  0  0  0
  152.3403  141.3643  157.7186 O   0  0  0  0  0  0  0  0  0  0  0  0
  150.5578  141.1251  156.1458 C   0  0  0  0  0  0  0  0  0  0  0  0
  149.2832  141.6467  155.6758 C   0  0  0  0  0  0  0  0  0  0  0  0
  148.5132  140.9236  154.8392 C   0  0  0  0  0  0  0  0  0  0  0  0
  148.9187  139.5960  154.3695 C   0  0  0  0  0  0  0  0  0  0  0  0
  148.2326  138.9439  153.5826 O   0  0  0  0  0  0  0  0  0  0  0  0
  150.1132  139.1351  154.8507 N   0  0  0  0  0  0  0  0  0  0  0  0
  150.6490  137.8289  154.4228 C   0  0  0  0  0  0  0  0  0  0  0  0
  150.0590  136.6253  155.1786 C   0  0  0  0  0  0  0  0  0  0  0  0
  150.3233  136.4719  156.3702 O   0  0  0  0  0  0  0  0  0  0  0  0
  149.2664  135.7866  154.4915 N   0  0  0  0  0  0  0  0  0  0  0  0
  148.5935  134.5985  155.0083 C   0  0  1  0  0  0  0  0  0  0  0  0
  147.1186  134.5673  154.5526 C   0  0  0  0  0  0  0  0  0  0  0  0
  146.9874  134.3409  153.0362 C   0  0  0  0  0  0  0  0  0  0  0  0
  147.7253  133.0661  152.6007 C   0  0  0  0  0  0  0  0  0  0  0  0
  149.1990  133.0931  153.0373 C   0  0  0  0  0  0  0  0  0  0  0  0
  149.3389  133.3171  154.5584 C   0  0  1  0  0  0  0  0  0  0  0  0
  150.8149  133.3024  154.9937 C   0  0  0  0  0  0  0  0  0  0  0  0
  150.9161  139.8976  155.7216 C   0  0  0  0  0  0  0  0  0  0  0  0
  151.5972  145.1631  157.6592 H   0  0  0  0  0  0  0  0  0  0  0  0
  153.0379  144.1456  157.5553 H   0  0  0  0  0  0  0  0  0  0  0  0
  151.8962  143.9357  158.8943 H   0  0  0  0  0  0  0  0  0  0  0  0
  150.4898  143.5612  156.4540 H   0  0  0  0  0  0  0  0  0  0  0  0
  148.9250  142.6178  155.9845 H   0  0  0  0  0  0  0  0  0  0  0  0
  147.5710  141.3319  154.5040 H   0  0  0  0  0  0  0  0  0  0  0  0
  150.4647  137.6823  153.3575 H   0  0  0  0  0  0  0  0  0  0  0  0
  151.7351  137.8058  154.5255 H   0  0  0  0  0  0  0  0  0  0  0  0
  149.1101  135.9943  153.5157 H   0  0  0  0  0  0  0  0  0  0  0  0
  148.6174  134.6392  156.0988 H   0  0  0  0  0  0  0  0  0  0  0  0
  146.5990  133.7656  155.0790 H   0  0  0  0  0  0  0  0  0  0  0  0
  146.6119  135.4904  154.8364 H   0  0  0  0  0  0  0  0  0  0  0  0
  145.9343  134.2716  152.7619 H   0  0  0  0  0  0  0  0  0  0  0  0
  147.3887  135.2001  152.4969 H   0  0  0  0  0  0  0  0  0  0  0  0
  147.2330  132.1945  153.0338 H   0  0  0  0  0  0  0  0  0  0  0  0
  147.6602  132.9511  151.5183 H   0  0  0  0  0  0  0  0  0  0  0  0
  149.6771  132.1545  152.7549 H   0  0  0  0  0  0  0  0  0  0  0  0
  149.7253  133.8789  152.4934 H   0  0  0  0  0  0  0  0  0  0  0  0
  148.8562  132.4745  155.0560 H   0  0  0  0  0  0  0  0  0  0  0  0
  151.3927  134.0827  154.4968 H   0  0  0  0  0  0  0  0  0  0  0  0
  151.2822  132.3470  154.7543 H   0  0  0  0  0  0  0  0  0  0  0  0
  150.9074  133.4527  156.0697 H   0  0  0  0  0  0  0  0  0  0  0  0
  151.8453  139.4196  156.0001 H   0  0  0  0  0  0  0  0  0  0  0  0
  1  2  1  0  0  0  0
  1 23  1  0  0  0  0
  1 24  1  0  0  0  0
  1 25  1  0  0  0  0
  2  3  1  0  0  0  0
  2 26  1  0  0  0  0
  3  4  2  0  0  0  0
  3  5  1  0  0  0  0
  5 22  2  0  0  0  0
  5  6  1  0  0  0  0
  6  7  2  0  0  0  0
  6 27  1  0  0  0  0
  7  8  1  0  0  0  0
  7 28  1  0  0  0  0
  8  9  2  0  0  0  0
  8 10  1  0  0  0  0
 10 11  1  0  0  0  0
 10 22  1  0  0  0  0
 11 12  1  0  0  0  0
 11 29  1  0  0  0  0
 11 30  1  0  0  0  0
 12 13  2  0  0  0  0
 12 14  1  0  0  0  0
 14 15  1  0  0  0  0
 14 31  1  0  0  0  0
 15 20  1  0  0  0  0
 15 16  1  0  0  0  0
 15 32  1  0  0  0  0
 16 17  1  0  0  0  0
 16 33  1  0  0  0  0
 16 34  1  0  0  0  0
 17 18  1  0  0  0  0
 17 35  1  0  0  0  0
 17 36  1  0  0  0  0
 18 19  1  0  0  0  0
 18 37  1  0  0  0  0
 18 38  1  0  0  0  0
 19 20  1  0  0  0  0
 19 39  1  0  0  0  0
 19 40  1  0  0  0  0
 20 21  1  0  0  0  0
 20 41  1  0  0  0  0
 21 42  1  0  0  0  0
 21 43  1  0  0  0  0
 21 44  1  0  0  0  0
 22 45  1  0  0  0  0
M  END
> <s_m_source_file>
AV-unprocessed.smi

> <i_m_source_file_index>
1844

> <i_lp_mmshare_version>
43012

> <i_f3d_flags>
0

> <s_epik_input>
W0NIM11bTkhdQyg9TyljMVtjSF1bY0hdYyg9TyluKFtjSF0xKVtDSDJdQyg9TylbTkhdW0NAQEhdMltDSDJdW0NIMl1bQ0gyXVtDSDJdW0NASF0yW0NIM10=

> <s_epik_cmdline>
J2VwaWtfcHl0aG9uJywgJy1waCcsICc3LjAnLCAnLXRuJywgJzgnLCAnLW1hJywgJzIwMCcsICctbWV0YWxfYmluZGluZycsICctaW1hZScsICc8aW5maWxlLm1hZT4nLCAnLW9tYWUnLCAnPG91dGZpbGUubWFlPic=

> <r_lp_tautomer_probability>
1

> <r_epik_Ionization_Penalty>
3.66612e-07

> <r_epik_Ionization_Penalty_Charging>
5.18929e-08

> <r_epik_Ionization_Penalty_Neutral>
3.14719e-07

> <r_epik_State_Penalty>
-0

> <r_epik_Charging_Adjusted_Penalty>
5.18929e-08

> <i_epik_Tot_Q>
0

> <i_epik_Tot_abs_Q>
0

> <r_epik_Metal_State_Penalty>
-0

> <b_epik_Metal_Only>
0

> <s_lp_Force_Field>
OPLS_2005

> <r_lp_Energy>
21.2081

> <b_lp_Chiralities_Consistent>
1

> <s_lp_Variant>
AV-unprocessed.smi:1844-2

> <Gold.Version>
5.8.1

> <Gold.Id.Protein>
6NUR|6NUR_protein|mol2

> <Gold.PLP.Fitness>
40.2955

> <Gold.PLP.PLP>
-35.7275

> <Gold.PLP.part.hbond>
-2.0000

> <Gold.PLP.part.metal>
0.0000

> <Gold.PLP.part.buried>
-2.1684

> <Gold.PLP.part.nonpolar>
-33.7794

> <Gold.PLP.part.repulsive>
1.9189

> <Gold.PLP.ligand.clash>
0.0000

> <Gold.PLP.ligand.torsion>
0.7218

> <Gold.PLP.Chemscore.Hbond>
2.0000

> <Gold.PLP.Chemscore.CHOScore>
0.0000

> <Gold.PLP.Chemscore.Metal>
0.0000

> <Gold.Chemscore.Hbonds>
donor molecule, donor type, donor heavy atom, donor atom, acceptor molecule, acceptor atom, score
      L1  H     2    26       P1  8028  0.78
      L1  H    14    31       P1  7948  1.00

> <Gold.PLP.Chemscore.Internal.Correction>
0.0115

> <Gold.Rescore>
     Score         DG    S(hbond)    S(metal)    S(lipo)     H(rot)  DE(clash)    DE(int)     intcor
     16.17     -16.99       1.97        0.00      74.72       1.49       0.22       0.60       ----

> <Gold.Chemscore.Fitness>
16.1660

> <Gold.Chemscore.DG>
-16.9892

> <Gold.Chemscore.ZeroCoef>
-5.4800

> <Gold.Chemscore.Hbond>
1.9724

> <Gold.Chemscore.Metal>
0.0000

> <Gold.Chemscore.Lipo>
74.7151

> <Gold.Chemscore.Internal_Hbond>
0.0000

> <Gold.Chemscore.DEClash>
0.2227

> <Gold.Chemscore.DEInternal>
0.6005

> <Gold.Chemscore.Rot>
1.4923

> <Gold.Chemscore.Internal.Correction>
   9.000000E+99

> <Gold.Chemscore.Hbonds>
donor molecule, donor type, donor heavy atom, donor atom, acceptor molecule, acceptor atom, score
      L1  H     2    26       P1  8028  0.77
      L1  H    14    31       P1  7948  0.90

> <Gold.Chemscore.Hbond.Weighted>
-6.5880

> <Gold.Chemscore.Metal.Weighted>
-0.0000

> <Gold.Chemscore.Lipo.Weighted>
-8.7417

> <Gold.Chemscore.Internal_Hbond.Weighted>
0.0000

> <Gold.Chemscore.DEClash.Weighted>
0.2227

> <Gold.Chemscore.DEInternal.Weighted>
0.6005

> <Gold.Chemscore.Rot.Weighted>
3.8204

> <Gold.Chemscore.Internal.Correction.Weighted>
   9.000000E+99

> <Gold.Protein.RotatedTorsions>
[ 6907 6896 6895 6894 ] final  115.59 input  -60.11 | X-H torsion
[ 7974 7965 7964 7962 ] final  -57.30 input  175.53 | X-H torsion
[ 8008 7997 7996 7995 ] final  179.92 input   59.86 | X-H torsion
[ 10167 10162 10161 10158 ] final   87.85 input  -65.29 | X-H torsion
[ 10718 10713 10712 10709 ] final -115.37 input   66.30 | X-H torsion
[ 10763 10752 10751 10750 ] final  172.13 input  -60.55 | X-H torsion
[ 11005 11000 10999 10996 ] final -120.82 input  -57.11 | X-H torsion

> <Gold.Protein.ActiveResidues>
 VAL166  LYS551  ARG553  GLY616  TRP617  ASP618  TYR619  PRO620  LYS621  CYS622 
 ASP623  PHE694  ASN695  SER759  ASP760  ASP761  ALA762  ILE779  LEU786  VAL792 
 PHE793  MET794  SER795  GLU796  ALA797  LYS798  CYS799  TRP800  GLU811  SER814 

> <Gold.Protein.RotatedAtoms>
  152.4732  133.8077  159.6986 H   0  0  0  0  0  0  0  0  0  0  0  0  # atno 6907 bound_to 6896
  150.8732  133.7466  159.2961 H   0  0  0  0  0  0  0  0  0  0  0  0  # atno 6908 bound_to 6896
  151.4994  135.1064  159.9877 H   0  0  0  0  0  0  0  0  0  0  0  0  # atno 6909 bound_to 6896
  145.8526  140.8341  142.9978 H   0  0  0  0  0  0  0  0  0  0  0  0  # atno 7974 bound_to 7965
  156.0379  140.1297  157.0187 H   0  0  0  0  0  0  0  0  0  0  0  0  # atno 8008 bound_to 7997
  154.4378  140.1036  156.6265 H   0  0  0  0  0  0  0  0  0  0  0  0  # atno 8009 bound_to 7997
  155.5710  140.3466  155.4517 H   0  0  0  0  0  0  0  0  0  0  0  0  # atno 8010 bound_to 7997
  139.8732  144.6481  150.8925 H   0  0  0  0  0  0  0  0  0  0  0  0  # atno 10167 bound_to 10162
  156.0891  130.6077  150.8897 H   0  0  0  0  0  0  0  0  0  0  0  0  # atno 10718 bound_to 10713
  154.4217  135.2758  155.1971 H   0  0  0  0  0  0  0  0  0  0  0  0  # atno 10763 bound_to 10752
  154.3914  135.6065  153.5849 H   0  0  0  0  0  0  0  0  0  0  0  0  # atno 10764 bound_to 10752
  152.9833  135.5904  154.4514 H   0  0  0  0  0  0  0  0  0  0  0  0  # atno 10765 bound_to 10752
  141.0116  134.0256  157.3406 H   0  0  0  0  0  0  0  0  0  0  0  0  # atno 11005 bound_to 11000
  144.6728  140.0976  143.7462 LP  0  0  0  0  0  0  0  0  0  0  0  0  # atno 17320 bound_to 7965
  145.9340  139.2625  143.1308 LP  0  0  0  0  0  0  0  0  0  0  0  0  # atno 17321 bound_to 7965
  140.7757  143.3646  151.1763 LP  0  0  0  0  0  0  0  0  0  0  0  0  # atno 17342 bound_to 10162
  139.7264  143.9142  152.3004 LP  0  0  0  0  0  0  0  0  0  0  0  0  # atno 17343 bound_to 10162
  157.6035  131.0940  150.8919 LP  0  0  0  0  0  0  0  0  0  0  0  0  # atno 17370 bound_to 10713
  156.9072  130.5267  149.5281 LP  0  0  0  0  0  0  0  0  0  0  0  0  # atno 17371 bound_to 10713
  139.9093  135.0187  156.7623 LP  0  0  0  0  0  0  0  0  0  0  0  0  # atno 17394 bound_to 11000
  140.6724  133.9547  155.7864 LP  0  0  0  0  0  0  0  0  0  0  0  0  # atno 17395 bound_to 11000

$$$$
