AV-unprocessed.smi:2009|AV-procd|sdf|8146|dock4
  -GOLD-   2272010383D 1   1.00000     0.00000
 Structure written by MMmdl.
 38 39  0  0  0  0  0  0  0  0  1 V2000
  149.5573  140.5660  157.8946 C   0  0  0  0  0  0  0  0  0  0  0  0
  150.4073  140.4727  156.6183 C   0  0  1  0  0  0  0  0  0  0  0  0
  150.0544  141.5470  155.5639 C   0  0  0  0  0  0  0  0  0  0  0  0
  148.6701  141.5038  155.1203 N   0  0  0  0  0  0  0  0  0  0  0  0
  148.1835  141.3129  153.8438 C   0  0  0  0  0  0  0  0  0  0  0  0
  146.8207  141.3563  153.9169 C   0  0  0  0  0  0  0  0  0  0  0  0
  146.5635  141.5857  155.2973 C   0  0  0  0  0  0  0  0  0  0  0  0
  147.6715  141.6770  156.0140 N   0  0  0  0  0  0  0  0  0  0  0  0
  151.8247  140.5423  156.9827 N   0  0  0  0  0  0  0  0  0  0  0  0
  152.4901  139.4285  158.1195 S   0  0  0  0  0  0  0  0  0  0  0  0
  151.3965  138.5758  158.6103 O   0  0  0  0  0  0  0  0  0  0  0  0
  153.7123  138.8378  157.5534 O   0  0  0  0  0  0  0  0  0  0  0  0
  152.9447  140.5398  159.3678 N   0  0  0  0  0  0  0  0  0  0  0  0
  151.9595  141.5805  159.7223 C   0  0  0  0  0  0  0  0  0  0  0  0
  152.6045  142.7113  160.5416 C   0  0  0  0  0  0  0  0  0  0  0  0
  153.3172  142.1633  161.7814 C   0  0  0  0  0  0  0  0  0  0  0  0
  154.3419  141.1099  161.3514 C   0  0  0  0  0  0  0  0  0  0  0  0
  153.6790  139.9927  160.5292 C   0  0  0  0  0  0  0  0  0  0  0  0
  148.4937  140.5187  157.6595 H   0  0  0  0  0  0  0  0  0  0  0  0
  149.7390  141.4957  158.4349 H   0  0  0  0  0  0  0  0  0  0  0  0
  149.7802  139.7424  158.5736 H   0  0  0  0  0  0  0  0  0  0  0  0
  150.2259  139.4931  156.1744 H   0  0  0  0  0  0  0  0  0  0  0  0
  150.2710  142.5478  155.9381 H   0  0  0  0  0  0  0  0  0  0  0  0
  150.6899  141.4153  154.6873 H   0  0  0  0  0  0  0  0  0  0  0  0
  148.8407  141.1614  153.0002 H   0  0  0  0  0  0  0  0  0  0  0  0
  146.1150  141.2436  153.1076 H   0  0  0  0  0  0  0  0  0  0  0  0
  145.6113  141.6904  155.7962 H   0  0  0  0  0  0  0  0  0  0  0  0
  152.1700  141.4930  157.1113 H   0  0  0  0  0  0  0  0  0  0  0  0
  151.5222  141.9972  158.8150 H   0  0  0  0  0  0  0  0  0  0  0  0
  151.1452  141.1200  160.2830 H   0  0  0  0  0  0  0  0  0  0  0  0
  153.3176  143.2513  159.9176 H   0  0  0  0  0  0  0  0  0  0  0  0
  151.8444  143.4342  160.8385 H   0  0  0  0  0  0  0  0  0  0  0  0
  153.8099  142.9711  162.3228 H   0  0  0  0  0  0  0  0  0  0  0  0
  152.5908  141.7207  162.4639 H   0  0  0  0  0  0  0  0  0  0  0  0
  155.1274  141.5816  160.7592 H   0  0  0  0  0  0  0  0  0  0  0  0
  154.8297  140.6853  162.2290 H   0  0  0  0  0  0  0  0  0  0  0  0
  152.9846  139.4259  161.1506 H   0  0  0  0  0  0  0  0  0  0  0  0
  154.4422  139.2906  160.1954 H   0  0  0  0  0  0  0  0  0  0  0  0
  1  2  1  0  0  0  0
  1 19  1  0  0  0  0
  1 20  1  0  0  0  0
  1 21  1  0  0  0  0
  2  3  1  0  0  0  0
  2  9  1  0  0  0  0
  2 22  1  0  0  0  0
  3  4  1  0  0  0  0
  3 23  1  0  0  0  0
  3 24  1  0  0  0  0
  4  8  1  0  0  0  0
  4  5  1  0  0  0  0
  5  6  2  0  0  0  0
  5 25  1  0  0  0  0
  6  7  1  0  0  0  0
  6 26  1  0  0  0  0
  7  8  2  0  0  0  0
  7 27  1  0  0  0  0
  9 10  1  0  0  0  0
  9 28  1  0  0  0  0
 10 11  2  0  0  0  0
 10 12  2  0  0  0  0
 10 13  1  0  0  0  0
 13 18  1  0  0  0  0
 13 14  1  0  0  0  0
 14 15  1  0  0  0  0
 14 29  1  0  0  0  0
 14 30  1  0  0  0  0
 15 16  1  0  0  0  0
 15 31  1  0  0  0  0
 15 32  1  0  0  0  0
 16 17  1  0  0  0  0
 16 33  1  0  0  0  0
 16 34  1  0  0  0  0
 17 18  1  0  0  0  0
 17 35  1  0  0  0  0
 17 36  1  0  0  0  0
 18 37  1  0  0  0  0
 18 38  1  0  0  0  0
M  END
> <s_m_source_file>
AV-unprocessed.smi

> <i_m_source_file_index>
2009

> <i_lp_mmshare_version>
43012

> <i_f3d_flags>
0

> <s_epik_input>
bjFbY0hdW2NIXVtjSF1uMVtDSDJdW0NAQEhdKFtDSDNdKVtOSF1TKD1PKSg9TylOMltDSDJdW0NIMl1bQ0gyXVtDSDJdW0NIMl0y

> <s_epik_cmdline>
J2VwaWtfcHl0aG9uJywgJy1waCcsICc3LjAnLCAnLXRuJywgJzgnLCAnLW1hJywgJzIwMCcsICctbWV0YWxfYmluZGluZycsICctaW1hZScsICc8aW5maWxlLm1hZT4nLCAnLW9tYWUnLCAnPG91dGZpbGUubWFlPic=

> <r_lp_tautomer_probability>
1

> <r_epik_Ionization_Penalty>
0.0313937

> <r_epik_Ionization_Penalty_Charging>
0

> <r_epik_Ionization_Penalty_Neutral>
0.0313937

> <r_epik_State_Penalty>
0.0259441

> <r_epik_Charging_Adjusted_Penalty>
0.0259441

> <i_epik_Tot_Q>
0

> <i_epik_Tot_abs_Q>
0

> <r_epik_Metal_State_Penalty>
0.365037

> <b_epik_Metal_Only>
0

> <s_lp_Force_Field>
OPLS_2005

> <r_lp_Energy>
8.11637

> <b_lp_Chiralities_Consistent>
1

> <s_lp_Variant>
AV-unprocessed.smi:2009-2

> <Gold.Version>
5.8.1

> <Gold.Id.Protein>
6NUR|6NUR_protein|mol2

> <Gold.PLP.Fitness>
38.6868

> <Gold.PLP.PLP>
-32.7487

> <Gold.PLP.part.hbond>
-1.0000

> <Gold.PLP.part.metal>
0.0000

> <Gold.PLP.part.buried>
-2.6144

> <Gold.PLP.part.nonpolar>
-28.8816

> <Gold.PLP.part.repulsive>
0.1353

> <Gold.PLP.ligand.clash>
0.0000

> <Gold.PLP.ligand.torsion>
0.4261

> <Gold.PLP.Chemscore.Hbond>
1.0000

> <Gold.PLP.Chemscore.CHOScore>
1.0000

> <Gold.PLP.Chemscore.Metal>
0.0000

> <Gold.Chemscore.Hbonds>
donor molecule, donor type, donor heavy atom, donor atom, acceptor molecule, acceptor atom, score
      P1  H  7997  8008       L1    12  1.00
      L1  C     5    25       P1  7957  1.00

> <Gold.PLP.Chemscore.Internal.Correction>
0.7903

> <Gold.Rescore>
     Score         DG    S(hbond)    S(metal)    S(lipo)     H(rot)  DE(clash)    DE(int)     intcor
     10.96     -13.80       0.98        0.00      83.10       1.82       0.00       2.84       ----

> <Gold.Chemscore.Fitness>
10.9603

> <Gold.Chemscore.DG>
-13.7978

> <Gold.Chemscore.ZeroCoef>
-5.4800

> <Gold.Chemscore.Hbond>
0.9771

> <Gold.Chemscore.Metal>
0.0000

> <Gold.Chemscore.Lipo>
83.1024

> <Gold.Chemscore.Internal_Hbond>
0.0000

> <Gold.Chemscore.DEClash>
0.0000

> <Gold.Chemscore.DEInternal>
2.8374

> <Gold.Chemscore.Rot>
1.8237

> <Gold.Chemscore.Internal.Correction>
   9.000000E+99

> <Gold.Chemscore.Hbonds>
donor molecule, donor type, donor heavy atom, donor atom, acceptor molecule, acceptor atom, score
      P1  H  7997  8008       L1    12  0.62

> <Gold.Chemscore.Hbond.Weighted>
-3.2634

> <Gold.Chemscore.Metal.Weighted>
-0.0000

> <Gold.Chemscore.Lipo.Weighted>
-9.7230

> <Gold.Chemscore.Internal_Hbond.Weighted>
0.0000

> <Gold.Chemscore.DEClash.Weighted>
0.0000

> <Gold.Chemscore.DEInternal.Weighted>
2.8374

> <Gold.Chemscore.Rot.Weighted>
4.6686

> <Gold.Chemscore.Internal.Correction.Weighted>
   9.000000E+99

> <Gold.Protein.RotatedTorsions>
[ 6907 6896 6895 6894 ] final -162.50 input  -60.11 | X-H torsion
[ 7974 7965 7964 7962 ] final -137.04 input  175.53 | X-H torsion
[ 8008 7997 7996 7995 ] final  -88.33 input   59.86 | X-H torsion
[ 10167 10162 10161 10158 ] final  104.75 input  -65.29 | X-H torsion
[ 10718 10713 10712 10709 ] final -118.39 input   66.30 | X-H torsion
[ 10763 10752 10751 10750 ] final   40.74 input  -60.55 | X-H torsion
[ 11005 11000 10999 10996 ] final  -10.86 input  -57.11 | X-H torsion

> <Gold.Protein.ActiveResidues>
 VAL166  LYS551  ARG553  GLY616  TRP617  ASP618  TYR619  PRO620  LYS621  CYS622 
 ASP623  PHE694  ASN695  SER759  ASP760  ASP761  ALA762  ILE779  LEU786  VAL792 
 PHE793  MET794  SER795  GLU796  ALA797  LYS798  CYS799  TRP800  GLU811  SER814 

> <Gold.Protein.RotatedAtoms>
  151.3813  133.3820  159.2710 H   0  0  0  0  0  0  0  0  0  0  0  0  # atno 6907 bound_to 6896
  150.9576  134.8969  159.7721 H   0  0  0  0  0  0  0  0  0  0  0  0  # atno 6908 bound_to 6896
  152.5136  134.3770  159.9390 H   0  0  0  0  0  0  0  0  0  0  0  0  # atno 6909 bound_to 6896
  144.8875  140.6596  143.5166 H   0  0  0  0  0  0  0  0  0  0  0  0  # atno 7974 bound_to 7965
  154.6736  140.0555  157.0192 H   0  0  0  0  0  0  0  0  0  0  0  0  # atno 8008 bound_to 7997
  155.1053  140.3233  155.4517 H   0  0  0  0  0  0  0  0  0  0  0  0  # atno 8009 bound_to 7997
  156.2667  140.2024  156.6178 H   0  0  0  0  0  0  0  0  0  0  0  0  # atno 8010 bound_to 7997
  139.7151  144.7070  151.0964 H   0  0  0  0  0  0  0  0  0  0  0  0  # atno 10167 bound_to 10162
  156.1103  130.6243  150.9285 H   0  0  0  0  0  0  0  0  0  0  0  0  # atno 10718 bound_to 10713
  152.9927  135.6182  154.2675 H   0  0  0  0  0  0  0  0  0  0  0  0  # atno 10763 bound_to 10752
  154.2409  135.2788  155.2856 H   0  0  0  0  0  0  0  0  0  0  0  0  # atno 10764 bound_to 10752
  154.5370  135.5772  153.6865 H   0  0  0  0  0  0  0  0  0  0  0  0  # atno 10765 bound_to 10752
  140.7492  133.8606  155.9031 H   0  0  0  0  0  0  0  0  0  0  0  0  # atno 11005 bound_to 11000
  145.3842  139.1630  143.4264 LP  0  0  0  0  0  0  0  0  0  0  0  0  # atno 17320 bound_to 7965
  146.3034  140.3925  142.8696 LP  0  0  0  0  0  0  0  0  0  0  0  0  # atno 17321 bound_to 7965
  140.7742  143.5241  150.9501 LP  0  0  0  0  0  0  0  0  0  0  0  0  # atno 17342 bound_to 10162
  139.8927  143.6934  152.3143 LP  0  0  0  0  0  0  0  0  0  0  0  0  # atno 17343 bound_to 10162
  157.6283  131.0923  150.8490 LP  0  0  0  0  0  0  0  0  0  0  0  0  # atno 17370 bound_to 10713
  156.8602  130.5110  149.5304 LP  0  0  0  0  0  0  0  0  0  0  0  0  # atno 17371 bound_to 10713
  140.9766  134.1460  157.4530 LP  0  0  0  0  0  0  0  0  0  0  0  0  # atno 17394 bound_to 11000
  139.8791  134.9997  156.5967 LP  0  0  0  0  0  0  0  0  0  0  0  0  # atno 17395 bound_to 11000

$$$$
