#       Name:                AV-unprocessed.smi:775
#       Creating user name   scv26
#       Creation time:       Fri Mar 27 01:11:29 2020


#       File generated by GOLD software.
#

@<TRIPOS>MOLECULE
AV-unprocessed.smi:775
    44    45     1
SMALL
NO_CHARGES


@<TRIPOS>ATOM
      1 ****        -2.5164  -1.9991   2.3562 C.3            1 S1                 0.0000
      2 ****        -2.1702  -0.8811   1.3601 C.3            1 S1                 0.0000
      3 ****        -2.6253  -1.2051  -0.0841 C.3            1 S1                 0.0000
      4 ****        -1.9546  -2.3576  -0.6640 N.pl3          1 S1                 0.0000
      5 ****        -0.7942  -2.3884  -1.4103 C.2            1 S1                 0.0000
      6 ****        -0.5551  -3.6922  -1.7371 C.2            1 S1                 0.0000
      7 ****        -1.6419  -4.3941  -1.1451 C.2            1 S1                 0.0000
      8 ****        -2.4780  -3.5923  -0.5056 N.2            1 S1                 0.0000
      9 ****        -0.7213  -0.5851   1.4381 N.4            1 S1                 1.0000
     10 ****        -0.2943   0.6950   0.8300 C.3            1 S1                 0.0000
     11 ****         1.2118   0.9494   0.9990 C.2            1 S1                 0.0000
     12 ****         1.8763   0.1383   1.6465 O.2            1 S1                 0.0000
     13 ****         1.7631   2.0520   0.4328 N.am           1 S1                 0.0000
     14 ****         1.0281   3.0290  -0.3774 C.3            1 S1                 0.0000
     15 ****         1.4983   2.8978  -1.8365 C.3            1 S1                 0.0000
     16 ****         2.9573   2.8375  -1.9426 N.am           1 S1                 0.0000
     17 ****         3.8004   2.5760  -0.9263 C.2            1 S1                 0.0000
     18 ****         5.0178   2.5485  -1.0887 O.2            1 S1                 0.0000
     19 ****         3.2129   2.3044   0.4724 C.3            1 S1                 0.0000
     20 ****        -3.5777  -2.2459   2.3164 H              1 S1                 0.0000
     21 ****        -2.2893  -1.6954   3.3788 H              1 S1                 0.0000
     22 ****        -1.9544  -2.9113   2.1539 H              1 S1                 0.0000
     23 ****        -2.7056   0.0115   1.6866 H              1 S1                 0.0000
     24 ****        -3.7005  -1.3906  -0.0961 H              1 S1                 0.0000
     25 ****        -2.4706  -0.3513  -0.7438 H              1 S1                 0.0000
     26 ****        -0.2399  -1.4912  -1.6440 H              1 S1                 0.0000
     27 ****         0.2685  -4.0851  -2.3150 H              1 S1                 0.0000
     28 ****        -1.8474  -5.4544  -1.1616 H              1 S1                 0.0000
     29 ****        -0.4645  -0.5515   2.4145 H              1 S1                 0.0000
     30 ****        -0.5291   0.6852  -0.2340 H              1 S1                 0.0000
     31 ****        -0.8503   1.5102   1.2948 H              1 S1                 0.0000
     32 ****        -0.0562   2.9487  -0.3207 H              1 S1                 0.0000
     33 ****         1.2636   4.0274  -0.0051 H              1 S1                 0.0000
     34 ****         1.0884   1.9893  -2.2794 H              1 S1                 0.0000
     35 ****         1.1289   3.7343  -2.4302 H              1 S1                 0.0000
     36 ****         3.3576   3.0142  -2.8530 H              1 S1                 0.0000
     37 ****         3.3966   3.1778   1.0989 H              1 S1                 0.0000
     38 ****         3.7787   1.4849   0.9180 H              1 S1                 0.0000
     39 ****        -0.2101  -1.3414   1.0051 H              1 S1                 0.0000
     40 ****        -3.3118  -3.8445  -0.0145 LP             1 S1                 0.0000
     41 ****         1.4336  -0.6635   2.0479 LP             1 S1                 0.0000
     42 ****         2.8581   0.2820   1.7704 LP             1 S1                 0.0000
     43 ****         5.4055   2.7231  -1.9938 LP             1 S1                 0.0000
     44 ****         5.6210   2.3516  -0.3158 LP             1 S1                 0.0000
@<TRIPOS>BOND
    1    1    2 1     
    2    1   20 1     
    3    1   21 1     
    4    1   22 1     
    5    2    3 1     
    6    2    9 1     
    7    2   23 1     
    8    3    4 1     
    9    3   24 1     
   10    3   25 1     
   11    4    8 1     
   12    4    5 1     
   13    5    6 2     
   14    5   26 1     
   15    6    7 1     
   16    6   27 1     
   17    7    8 2     
   18    7   28 1     
   19    9   10 1     
   20    9   29 1     
   21    9   39 1     
   22   10   11 1     
   23   10   30 1     
   24   10   31 1     
   25   11   12 2     
   26   11   13 am    
   27   13   19 1     
   28   13   14 1     
   29   14   15 1     
   30   14   32 1     
   31   14   33 1     
   32   15   16 1     
   33   15   34 1     
   34   15   35 1     
   35   16   17 am    
   36   16   36 1     
   37   17   18 2     
   38   17   19 1     
   39   19   37 1     
   40   19   38 1     
   41    8   40 1     
   42   12   41 1     
   43   12   42 1     
   44   18   43 1     
   45   18   44 1     
@<TRIPOS>SUBSTRUCTURE
      1 S1             1
@<TRIPOS>SET
LONE_PAIRS      STATIC     ATOMS    <user>   **** ""
5 40 41 42 43 44
DONOR_HYDROGENS      STATIC     ATOMS    <user>   **** ""
3 29 39 36
ATOM$BLUE        STATIC     ATOMS    COLORGROUP SYSTEM
5 40 41 42 43 44
ATOM$RED        STATIC     ATOMS    COLORGROUP SYSTEM
3 29 39 36
