AV-unprocessed.smi:1703|AV-procd|sdf|6876|dock5
  -GOLD-   22720 8 73D 1   1.00000     0.00000
 Structure written by MMmdl.
 50 52  0  0  0  0  0  0  0  0  3 V2000
  146.6588  143.5147  159.9300 C   0  0  0  0  0  0  0  0  0  0  0  0
  145.9083  143.6405  158.6000 C   0  0  1  0  0  0  0  0  0  0  0  0
  145.3163  142.2897  158.1434 C   0  0  0  0  0  0  0  0  0  0  0  0
  144.4903  142.4368  156.9166 N   0  3  2  0  0  0  0  0  0  0  0  0
  145.2645  142.5835  155.6542 C   0  0  0  0  0  0  0  0  0  0  0  0
  146.1400  141.3506  155.3337 C   0  0  1  0  0  0  0  0  0  0  0  0
  145.3135  140.2985  154.8791 O   0  0  0  0  0  0  0  0  0  0  0  0
  147.1985  141.6128  154.2437 C   0  0  0  0  0  0  0  0  0  0  0  0
  148.1262  140.4824  154.0594 N   0  0  0  0  0  0  0  0  0  0  0  0
  147.9759  139.3378  153.3304 C   0  0  0  0  0  0  0  0  0  0  0  0
  146.7845  138.9279  152.5290 C   0  0  0  0  0  0  0  0  0  0  0  0
  147.1073  138.6939  151.1752 O   0  0  0  0  0  0  0  0  0  0  0  0
  149.1160  138.6078  153.4829 N   0  3  0  0  0  0  0  0  0  0  0  0
  150.0056  139.2874  154.3145 C   0  0  0  0  0  0  0  0  0  0  0  0
  151.2795  138.9425  154.7554 C   0  0  0  0  0  0  0  0  0  0  0  0
  151.9243  139.8610  155.6088 C   0  0  0  0  0  0  0  0  0  0  0  0
  151.3013  141.0653  155.9940 C   0  0  0  0  0  0  0  0  0  0  0  0
  150.0092  141.4041  155.5408 C   0  0  0  0  0  0  0  0  0  0  0  0
  149.3777  140.4931  154.6921 C   0  0  0  0  0  0  0  0  0  0  0  0
  143.4727  143.4984  157.1100 C   0  0  0  0  0  0  0  0  0  0  0  0
  144.1214  144.8194  157.5737 C   0  0  1  0  0  0  0  0  0  0  0  0
  143.0780  145.9041  157.8615 C   0  0  0  0  0  0  0  0  0  0  0  0
  144.8522  144.5795  158.7720 O   0  0  0  0  0  0  0  0  0  0  0  0
  147.4889  142.8125  159.8463 H   0  0  0  0  0  0  0  0  0  0  0  0
  146.0004  143.1620  160.7245 H   0  0  0  0  0  0  0  0  0  0  0  0
  147.0681  144.4765  160.2394 H   0  0  0  0  0  0  0  0  0  0  0  0
  146.6082  144.0213  157.8551 H   0  0  0  0  0  0  0  0  0  0  0  0
  146.1066  141.5536  158.0061 H   0  0  0  0  0  0  0  0  0  0  0  0
  144.6740  141.8948  158.9318 H   0  0  0  0  0  0  0  0  0  0  0  0
  144.5824  142.7466  154.8183 H   0  0  0  0  0  0  0  0  0  0  0  0
  145.8719  143.4846  155.7174 H   0  0  0  0  0  0  0  0  0  0  0  0
  146.6573  141.0018  156.2254 H   0  0  0  0  0  0  0  0  0  0  0  0
  144.8423  140.5852  154.1118 H   0  0  0  0  0  0  0  0  0  0  0  0
  146.7112  141.7903  153.2842 H   0  0  0  0  0  0  0  0  0  0  0  0
  147.7614  142.5194  154.4614 H   0  0  0  0  0  0  0  0  0  0  0  0
  146.3433  138.0262  152.9538 H   0  0  0  0  0  0  0  0  0  0  0  0
  146.0271  139.7103  152.5838 H   0  0  0  0  0  0  0  0  0  0  0  0
  148.0018  138.9638  151.0295 H   0  0  0  0  0  0  0  0  0  0  0  0
  151.7584  138.0191  154.4633 H   0  0  0  0  0  0  0  0  0  0  0  0
  152.9158  139.6368  155.9757 H   0  0  0  0  0  0  0  0  0  0  0  0
  151.8264  141.7445  156.6503 H   0  0  0  0  0  0  0  0  0  0  0  0
  149.5494  142.3309  155.8491 H   0  0  0  0  0  0  0  0  0  0  0  0
  142.8957  143.6455  156.1962 H   0  0  0  0  0  0  0  0  0  0  0  0
  142.7636  143.1563  157.8653 H   0  0  0  0  0  0  0  0  0  0  0  0
  144.8009  145.1942  156.8065 H   0  0  0  0  0  0  0  0  0  0  0  0
  142.4935  146.1335  156.9701 H   0  0  0  0  0  0  0  0  0  0  0  0
  143.5558  146.8271  158.1911 H   0  0  0  0  0  0  0  0  0  0  0  0
  142.3865  145.5903  158.6438 H   0  0  0  0  0  0  0  0  0  0  0  0
  143.9722  141.5764  156.8101 H   0  0  0  0  0  0  0  0  0  0  0  0
  149.2708  137.7067  153.0488 H   0  0  0  0  0  0  0  0  0  0  0  0
  1  2  1  0  0  0  0
  1 24  1  0  0  0  0
  1 25  1  0  0  0  0
  1 26  1  0  0  0  0
  2 23  1  0  0  0  0
  2  3  1  0  0  0  0
  2 27  1  0  0  0  0
  3  4  1  0  0  0  0
  3 28  1  0  0  0  0
  3 29  1  0  0  0  0
  4  5  1  0  0  0  0
  4 20  1  0  0  0  0
  4 49  1  0  0  0  0
  5  6  1  0  0  0  0
  5 30  1  0  0  0  0
  5 31  1  0  0  0  0
  6  7  1  0  0  0  0
  6  8  1  0  0  0  0
  6 32  1  0  0  0  0
  7 33  1  0  0  0  0
  8  9  1  0  0  0  0
  8 34  1  0  0  0  0
  8 35  1  0  0  0  0
  9 19  1  0  0  0  0
  9 10  1  0  0  0  0
 10 11  1  0  0  0  0
 10 13  2  0  0  0  0
 11 12  1  0  0  0  0
 11 36  1  0  0  0  0
 11 37  1  0  0  0  0
 12 38  1  0  0  0  0
 13 14  1  0  0  0  0
 13 50  1  0  0  0  0
 14 19  2  0  0  0  0
 14 15  1  0  0  0  0
 15 16  2  0  0  0  0
 15 39  1  0  0  0  0
 16 17  1  0  0  0  0
 16 40  1  0  0  0  0
 17 18  2  0  0  0  0
 17 41  1  0  0  0  0
 18 19  1  0  0  0  0
 18 42  1  0  0  0  0
 20 21  1  0  0  0  0
 20 43  1  0  0  0  0
 20 44  1  0  0  0  0
 21 22  1  0  0  0  0
 21 23  1  0  0  0  0
 21 45  1  0  0  0  0
 22 46  1  0  0  0  0
 22 47  1  0  0  0  0
 22 48  1  0  0  0  0
M  CHG  1   4   1
M  CHG  1  13   1
M  END
> <s_m_source_file>
AV-unprocessed.smi

> <i_m_source_file_index>
1703

> <i_lp_mmshare_version>
43012

> <i_f3d_flags>
0

> <s_epik_input>
W0NIM11bQ0BASF0xW0NIMl1OKFtDSDJdW0NASF0oTzEpW0NIM10pW0NIMl1bQ0BIXShbT0hdKVtDSDJdbihjKG4yKVtDSDJdW09IXSljKGMyMylbY0hdW2NIXVtjSF1bY0hdMw==

> <s_epik_cmdline>
J2VwaWtfcHl0aG9uJywgJy1waCcsICc3LjAnLCAnLXRuJywgJzgnLCAnLW1hJywgJzIwMCcsICctbWV0YWxfYmluZGluZycsICctaW1hZScsICc8aW5maWxlLm1hZT4nLCAnLW9tYWUnLCAnPG91dGZpbGUubWFlPic=

> <r_epik_Ionization_Penalty>
2.22579

> <r_epik_Ionization_Penalty_Charging>
2.22492

> <r_epik_Ionization_Penalty_Neutral>
0.000870007

> <r_epik_State_Penalty>
2.3141

> <r_epik_Charging_Adjusted_Penalty>
4.53902

> <i_epik_Tot_Q>
2

> <i_epik_Tot_abs_Q>
2

> <r_epik_Metal_State_Penalty>
6.36517

> <b_epik_Metal_Only>
0

> <s_lp_Force_Field>
OPLS_2005

> <r_lp_Energy>
31.3011

> <b_lp_Chiralities_Consistent>
1

> <s_lp_Variant>
AV-unprocessed.smi:1703-24

> <Gold.Version>
5.8.1

> <Gold.Id.Protein>
6NUR|6NUR_protein|mol2

> <Gold.PLP.Fitness>
51.9008

> <Gold.PLP.PLP>
-40.7890

> <Gold.PLP.part.hbond>
-5.7061

> <Gold.PLP.part.metal>
0.0000

> <Gold.PLP.part.buried>
-1.8964

> <Gold.PLP.part.nonpolar>
-32.2718

> <Gold.PLP.part.repulsive>
0.1503

> <Gold.PLP.ligand.clash>
0.0000

> <Gold.PLP.ligand.torsion>
0.4777

> <Gold.PLP.Chemscore.Hbond>
4.0000

> <Gold.PLP.Chemscore.CHOScore>
0.0000

> <Gold.PLP.Chemscore.Metal>
0.0000

> <Gold.Chemscore.Hbonds>
donor molecule, donor type, donor heavy atom, donor atom, acceptor molecule, acceptor atom, score
      L1  H     7    33       P1 10175  1.00
      L1  H    12    38       P1  7957  1.00
      L1  H    13    50       P1  7948  2.00

> <Gold.PLP.Chemscore.Internal.Correction>
0.0673

> <Gold.Rescore>
     Score         DG    S(hbond)    S(metal)    S(lipo)     H(rot)  DE(clash)    DE(int)     intcor
     14.62     -16.10       2.79        0.00      77.57       3.04       0.77       0.72       ----

> <Gold.Chemscore.Fitness>
14.6220

> <Gold.Chemscore.DG>
-16.1045

> <Gold.Chemscore.ZeroCoef>
-5.4800

> <Gold.Chemscore.Hbond>
2.7921

> <Gold.Chemscore.Metal>
0.0000

> <Gold.Chemscore.Lipo>
77.5691

> <Gold.Chemscore.Internal_Hbond>
0.0000

> <Gold.Chemscore.DEClash>
0.7672

> <Gold.Chemscore.DEInternal>
0.7153

> <Gold.Chemscore.Rot>
3.0378

> <Gold.Chemscore.Internal.Correction>
   9.000000E+99

> <Gold.Chemscore.Hbonds>
donor molecule, donor type, donor heavy atom, donor atom, acceptor molecule, acceptor atom, score
      L1  H     7    33       P1 10175  0.95
      L1  H    12    38       P1  7957  0.25
      L1  H    13    50       P1  7948  0.97

> <Gold.Chemscore.Hbond.Weighted>
-9.3256

> <Gold.Chemscore.Metal.Weighted>
-0.0000

> <Gold.Chemscore.Lipo.Weighted>
-9.0756

> <Gold.Chemscore.Internal_Hbond.Weighted>
0.0000

> <Gold.Chemscore.DEClash.Weighted>
0.7672

> <Gold.Chemscore.DEInternal.Weighted>
0.7153

> <Gold.Chemscore.Rot.Weighted>
7.7767

> <Gold.Chemscore.Internal.Correction.Weighted>
   9.000000E+99

> <Gold.Protein.RotatedTorsions>
[ 6907 6896 6895 6894 ] final -126.50 input  -60.11 | X-H torsion
[ 7974 7965 7964 7962 ] final   70.93 input  175.53 | X-H torsion
[ 8008 7997 7996 7995 ] final -108.55 input   59.86 | X-H torsion
[ 10167 10162 10161 10158 ] final    4.80 input  -65.29 | X-H torsion
[ 10718 10713 10712 10709 ] final  -99.07 input   66.30 | X-H torsion
[ 10763 10752 10751 10750 ] final   85.47 input  -60.55 | X-H torsion
[ 11005 11000 10999 10996 ] final   56.89 input  -57.11 | X-H torsion

> <Gold.Protein.ActiveResidues>
 VAL166  LYS551  ARG553  GLY616  TRP617  ASP618  TYR619  PRO620  LYS621  CYS622 
 ASP623  PHE694  ASN695  SER759  ASP760  ASP761  ALA762  ILE779  LEU786  VAL792 
 PHE793  MET794  SER795  GLU796  ALA797  LYS798  CYS799  TRP800  GLU811  SER814 

> <Gold.Protein.RotatedAtoms>
  150.8975  133.7161  159.2887 H   0  0  0  0  0  0  0  0  0  0  0  0  # atno 6907 bound_to 6896
  151.4691  135.1043  159.9756 H   0  0  0  0  0  0  0  0  0  0  0  0  # atno 6908 bound_to 6896
  152.4857  133.8320  159.7163 H   0  0  0  0  0  0  0  0  0  0  0  0  # atno 6909 bound_to 6896
  145.7721  139.2848  143.1315 H   0  0  0  0  0  0  0  0  0  0  0  0  # atno 7974 bound_to 7965
  154.9460  140.0402  157.2120 H   0  0  0  0  0  0  0  0  0  0  0  0  # atno 8008 bound_to 7997
  154.8024  140.2854  155.5890 H   0  0  0  0  0  0  0  0  0  0  0  0  # atno 8009 bound_to 7997
  156.2963  140.2552  156.2895 H   0  0  0  0  0  0  0  0  0  0  0  0  # atno 8010 bound_to 7997
  140.6516  143.7531  150.7584 H   0  0  0  0  0  0  0  0  0  0  0  0  # atno 10167 bound_to 10162
  156.0124  130.5266  150.6616 H   0  0  0  0  0  0  0  0  0  0  0  0  # atno 10718 bound_to 10713
  153.1478  135.4616  154.9592 H   0  0  0  0  0  0  0  0  0  0  0  0  # atno 10763 bound_to 10752
  154.7800  135.3185  154.8012 H   0  0  0  0  0  0  0  0  0  0  0  0  # atno 10764 bound_to 10752
  153.8523  135.6920  153.4845 H   0  0  0  0  0  0  0  0  0  0  0  0  # atno 10765 bound_to 10752
  140.0494  134.5758  155.9282 H   0  0  0  0  0  0  0  0  0  0  0  0  # atno 11005 bound_to 11000
  146.0159  140.8392  142.9947 LP  0  0  0  0  0  0  0  0  0  0  0  0  # atno 17320 bound_to 7965
  144.6811  140.2558  143.7325 LP  0  0  0  0  0  0  0  0  0  0  0  0  # atno 17321 bound_to 7965
  140.1183  143.4636  152.2329 LP  0  0  0  0  0  0  0  0  0  0  0  0  # atno 17342 bound_to 10162
  139.5732  144.7474  151.3835 LP  0  0  0  0  0  0  0  0  0  0  0  0  # atno 17343 bound_to 10162
  157.4357  131.0855  151.0994 LP  0  0  0  0  0  0  0  0  0  0  0  0  # atno 17370 bound_to 10713
  157.1553  130.6202  149.5594 LP  0  0  0  0  0  0  0  0  0  0  0  0  # atno 17371 bound_to 10713
  141.1923  133.6575  156.5496 LP  0  0  0  0  0  0  0  0  0  0  0  0  # atno 17394 bound_to 11000
  140.3941  134.7415  157.4739 LP  0  0  0  0  0  0  0  0  0  0  0  0  # atno 17395 bound_to 11000

$$$$
