AV-unprocessed.smi:852|AV-procd|sdf|3952|dock7
  -GOLD-   22720 1423D 1   1.00000     0.00000
 Structure written by MMmdl.
 30 31  0  0  0  0  0  0  0  0  1 V2000
  145.2964  135.3851  150.7437 C   0  0  0  0  0  0  0  0  0  0  0  0
  145.3768  134.2319  151.7631 C   0  0  2  0  0  0  0  0  0  0  0  0
  144.5591  134.5729  152.9463 C   0  0  0  0  0  0  0  0  0  0  0  0
  143.9192  134.8397  153.8733 N   0  0  0  0  0  0  0  0  0  0  0  0
  146.7744  134.0225  152.1459 N   0  0  0  0  0  0  0  0  0  0  0  0
  147.3172  132.9224  152.6972 C   0  0  0  0  0  0  0  0  0  0  0  0
  146.6684  131.9237  153.0046 O   0  0  0  0  0  0  0  0  0  0  0  0
  148.8272  132.9551  152.9485 C   0  0  0  0  0  0  0  0  0  0  0  0
  149.1389  132.8652  154.3646 N   0  0  0  0  0  0  0  0  0  0  0  0
  149.8063  131.9302  155.0491 C   0  0  0  0  0  0  0  0  0  0  0  0
  149.8853  132.1683  156.3521 N   0  0  0  0  0  0  0  0  0  0  0  0
  149.2007  133.3483  156.3933 C   0  0  0  0  0  0  0  0  0  0  0  0
  148.9893  134.0599  157.6423 C   0  0  0  0  0  0  0  0  0  0  0  0
  148.8211  134.6264  158.6372 N   0  0  0  0  0  0  0  0  0  0  0  0
  148.7314  133.8173  155.2391 N   0  0  0  0  0  0  0  0  0  0  0  0
  144.8237  132.9672  151.1095 C   0  0  0  0  0  0  0  0  0  0  0  0
  145.4089  132.3795  149.8443 C   0  0  0  0  0  0  0  0  0  0  0  0
  144.0261  132.9940  149.8250 C   0  0  0  0  0  0  0  0  0  0  0  0
  144.2730  135.5276  150.3949 H   0  0  0  0  0  0  0  0  0  0  0  0
  145.9171  135.1876  149.8689 H   0  0  0  0  0  0  0  0  0  0  0  0
  145.6223  136.3325  151.1737 H   0  0  0  0  0  0  0  0  0  0  0  0
  147.4015  134.7865  151.9407 H   0  0  0  0  0  0  0  0  0  0  0  0
  149.3018  132.1233  152.4267 H   0  0  0  0  0  0  0  0  0  0  0  0
  149.2572  133.8747  152.5481 H   0  0  0  0  0  0  0  0  0  0  0  0
  150.2368  131.0548  154.5854 H   0  0  0  0  0  0  0  0  0  0  0  0
  144.4886  132.2324  151.8399 H   0  0  0  0  0  0  0  0  0  0  0  0
  146.2070  132.9224  149.3420 H   0  0  0  0  0  0  0  0  0  0  0  0
  145.4767  131.2954  149.7808 H   0  0  0  0  0  0  0  0  0  0  0  0
  143.1769  132.3180  149.7513 H   0  0  0  0  0  0  0  0  0  0  0  0
  143.9048  133.9452  149.3111 H   0  0  0  0  0  0  0  0  0  0  0  0
  1  2  1  0  0  0  0
  1 19  1  0  0  0  0
  1 20  1  0  0  0  0
  1 21  1  0  0  0  0
  2  3  1  0  0  0  0
  2  5  1  0  0  0  0
  2 16  1  0  0  0  0
  3  4  3  0  0  0  0
  5  6  1  0  0  0  0
  5 22  1  0  0  0  0
  6  7  2  0  0  0  0
  6  8  1  0  0  0  0
  8  9  1  0  0  0  0
  8 23  1  0  0  0  0
  8 24  1  0  0  0  0
  9 15  1  0  0  0  0
  9 10  1  0  0  0  0
 10 11  2  0  0  0  0
 10 25  1  0  0  0  0
 11 12  1  0  0  0  0
 12 13  1  0  0  0  0
 12 15  2  0  0  0  0
 13 14  3  0  0  0  0
 16 18  1  0  0  0  0
 16 17  1  0  0  0  0
 16 26  1  0  0  0  0
 17 18  1  0  0  0  0
 17 27  1  0  0  0  0
 17 28  1  0  0  0  0
 18 29  1  0  0  0  0
 18 30  1  0  0  0  0
M  END
> <s_m_source_file>
AV-unprocessed.smi

> <i_m_source_file_index>
852

> <i_lp_mmshare_version>
43012

> <i_f3d_flags>
0

> <s_epik_input>
W0NIMl0xW0NIMl1bQ0hdMVtDQF0oW0NIM10pKEMjTilbTkhdQyg9TylbQ0gyXW4yW2NIXW5jKG4yKUMjTg==

> <s_epik_cmdline>
J2VwaWtfcHl0aG9uJywgJy1waCcsICc3LjAnLCAnLXRuJywgJzgnLCAnLW1hJywgJzIwMCcsICctbWV0YWxfYmluZGluZycsICctaW1hZScsICc8aW5maWxlLm1hZT4nLCAnLW9tYWUnLCAnPG91dGZpbGUubWFlPic=

> <r_lp_tautomer_probability>
1

> <r_epik_Ionization_Penalty>
2.64294e-06

> <r_epik_Ionization_Penalty_Charging>
0

> <r_epik_Ionization_Penalty_Neutral>
2.64294e-06

> <r_epik_State_Penalty>
-0

> <r_epik_Charging_Adjusted_Penalty>
0

> <i_epik_Tot_Q>
0

> <i_epik_Tot_abs_Q>
0

> <r_epik_Metal_State_Penalty>
-0

> <b_epik_Metal_Only>
0

> <s_lp_Force_Field>
OPLS_2005

> <r_lp_Energy>
16.3367

> <b_lp_Chiralities_Consistent>
1

> <s_lp_Variant>
AV-unprocessed.smi:852-2

> <Gold.Version>
5.8.1

> <Gold.Id.Protein>
6NUR|6NUR_protein|mol2

> <Gold.PLP.Fitness>
33.2939

> <Gold.PLP.PLP>
-28.5967

> <Gold.PLP.part.hbond>
-2.0000

> <Gold.PLP.part.metal>
0.0000

> <Gold.PLP.part.buried>
-5.0915

> <Gold.PLP.part.nonpolar>
-22.5222

> <Gold.PLP.part.repulsive>
0.2802

> <Gold.PLP.ligand.clash>
0.0000

> <Gold.PLP.ligand.torsion>
1.4081

> <Gold.PLP.Chemscore.Hbond>
2.0000

> <Gold.PLP.Chemscore.CHOScore>
0.0000

> <Gold.PLP.Chemscore.Metal>
0.0000

> <Gold.Chemscore.Hbonds>
donor molecule, donor type, donor heavy atom, donor atom, acceptor molecule, acceptor atom, score
      L1  H     5    22       P1  7948  0.89
      P1  H  6896  6909       L1    14  0.99

> <Gold.PLP.Chemscore.Internal.Correction>
1.5134

> <Gold.Rescore>
     Score         DG    S(hbond)    S(metal)    S(lipo)     H(rot)  DE(clash)    DE(int)     intcor
      7.21      -9.92       1.72        0.00      42.61       2.46       0.19       2.52       ----

> <Gold.Chemscore.Fitness>
7.2138

> <Gold.Chemscore.DG>
-9.9211

> <Gold.Chemscore.ZeroCoef>
-5.4800

> <Gold.Chemscore.Hbond>
1.7203

> <Gold.Chemscore.Metal>
0.0000

> <Gold.Chemscore.Lipo>
42.6111

> <Gold.Chemscore.Internal_Hbond>
0.0000

> <Gold.Chemscore.DEClash>
0.1908

> <Gold.Chemscore.DEInternal>
2.5165

> <Gold.Chemscore.Rot>
2.4571

> <Gold.Chemscore.Internal.Correction>
   9.000000E+99

> <Gold.Chemscore.Hbonds>
donor molecule, donor type, donor heavy atom, donor atom, acceptor molecule, acceptor atom, score
      L1  H     5    22       P1  7948  0.67
      P1  H  6896  6909       L1    14  0.36

> <Gold.Chemscore.Hbond.Weighted>
-5.7457

> <Gold.Chemscore.Metal.Weighted>
-0.0000

> <Gold.Chemscore.Lipo.Weighted>
-4.9855

> <Gold.Chemscore.Internal_Hbond.Weighted>
0.0000

> <Gold.Chemscore.DEClash.Weighted>
0.1908

> <Gold.Chemscore.DEInternal.Weighted>
2.5165

> <Gold.Chemscore.Rot.Weighted>
6.2901

> <Gold.Chemscore.Internal.Correction.Weighted>
   9.000000E+99

> <Gold.Protein.RotatedTorsions>
[ 6907 6896 6895 6894 ] final   46.32 input  -60.11 | X-H torsion
[ 7974 7965 7964 7962 ] final  146.96 input  175.53 | X-H torsion
[ 8008 7997 7996 7995 ] final -154.74 input   59.86 | X-H torsion
[ 10167 10162 10161 10158 ] final   89.56 input  -65.29 | X-H torsion
[ 10718 10713 10712 10709 ] final  175.48 input   66.30 | X-H torsion
[ 10763 10752 10751 10750 ] final  150.98 input  -60.55 | X-H torsion
[ 11005 11000 10999 10996 ] final -121.10 input  -57.11 | X-H torsion

> <Gold.Protein.ActiveResidues>
 VAL166  LYS551  ARG553  GLY616  TRP617  ASP618  TYR619  PRO620  LYS621  CYS622 
 ASP623  PHE694  ASN695  SER759  ASP760  ASP761  ALA762  ILE779  LEU786  VAL792 
 PHE793  MET794  SER795  GLU796  ALA797  LYS798  CYS799  TRP800  GLU811  SER814 

> <Gold.Protein.RotatedAtoms>
  152.2550  134.8093  160.0439 H   0  0  0  0  0  0  0  0  0  0  0  0  # atno 6907 bound_to 6896
  151.8760  133.3480  159.3758 H   0  0  0  0  0  0  0  0  0  0  0  0  # atno 6908 bound_to 6896
  150.7097  134.4993  159.5597 H   0  0  0  0  0  0  0  0  0  0  0  0  # atno 6909 bound_to 6896
  144.8629  139.5969  143.5922 H   0  0  0  0  0  0  0  0  0  0  0  0  # atno 7974 bound_to 7965
  155.6911  140.0755  157.2448 H   0  0  0  0  0  0  0  0  0  0  0  0  # atno 8008 bound_to 7997
  154.4088  140.1664  156.2140 H   0  0  0  0  0  0  0  0  0  0  0  0  # atno 8009 bound_to 7997
  155.9451  140.3381  155.6363 H   0  0  0  0  0  0  0  0  0  0  0  0  # atno 8010 bound_to 7997
  139.8561  144.6568  150.9113 H   0  0  0  0  0  0  0  0  0  0  0  0  # atno 10167 bound_to 10162
  156.9342  130.9981  151.2981 H   0  0  0  0  0  0  0  0  0  0  0  0  # atno 10718 bound_to 10713
  154.0963  135.2849  155.3261 H   0  0  0  0  0  0  0  0  0  0  0  0  # atno 10763 bound_to 10752
  154.6586  135.5343  153.7992 H   0  0  0  0  0  0  0  0  0  0  0  0  # atno 10764 bound_to 10752
  153.0395  135.6528  154.1129 H   0  0  0  0  0  0  0  0  0  0  0  0  # atno 10765 bound_to 10752
  141.0095  134.0285  157.3433 H   0  0  0  0  0  0  0  0  0  0  0  0  # atno 11005 bound_to 11000
  146.2874  139.7043  142.9185 LP  0  0  0  0  0  0  0  0  0  0  0  0  # atno 17320 bound_to 7965
  145.4277  141.0412  143.2928 LP  0  0  0  0  0  0  0  0  0  0  0  0  # atno 17321 bound_to 7965
  140.7781  143.3785  151.1520 LP  0  0  0  0  0  0  0  0  0  0  0  0  # atno 17342 bound_to 10162
  139.7418  143.8912  152.3052 LP  0  0  0  0  0  0  0  0  0  0  0  0  # atno 17343 bound_to 10162
  157.5827  130.8388  149.8545 LP  0  0  0  0  0  0  0  0  0  0  0  0  # atno 17370 bound_to 10713
  156.0433  130.3734  150.1380 LP  0  0  0  0  0  0  0  0  0  0  0  0  # atno 17371 bound_to 10713
  139.9082  135.0184  156.7577 LP  0  0  0  0  0  0  0  0  0  0  0  0  # atno 17394 bound_to 11000
  140.6757  133.9519  155.7882 LP  0  0  0  0  0  0  0  0  0  0  0  0  # atno 17395 bound_to 11000

$$$$
