#       Name:                AV-unprocessed.smi:113
#       Creating user name   scv26
#       Creation time:       Thu Mar 26 18:20:56 2020


#       File generated by GOLD software.
#

@<TRIPOS>MOLECULE
AV-unprocessed.smi:113
    63    66     1
SMALL
NO_CHARGES


@<TRIPOS>ATOM
      1 ****        -0.6185  -0.3106  -4.0073 C.3            1 S1                 0.0000
      2 ****        -1.4601  -1.0016  -2.9556 C.ar           1 S1                 0.0000
      3 ****        -1.3976  -0.6459  -1.5944 C.ar           1 S1                 0.0000
      4 ****        -2.2069  -1.3228  -0.6484 C.ar           1 S1                 0.0000
      5 ****        -2.1607  -0.9572   0.8391 C.3            1 S1                 0.0000
      6 ****        -1.2091   0.0709   1.2366 N.am           1 S1                 0.0000
      7 ****        -1.6456   1.4170   1.2295 C.2            1 S1                 0.0000
      8 ****        -2.7947   1.7208   0.9020 O.2            1 S1                 0.0000
      9 ****        -0.6286   2.4002   1.6071 C.2            1 S1                 0.0000
     10 ****        -1.0139   3.8714   1.5867 C.3            1 S1                 0.0000
     11 ****         0.6172   1.9866   1.9438 C.2            1 S1                 0.0000
     12 ****         1.0142   0.6564   1.9714 N.am           1 S1                 0.0000
     13 ****         2.4422   0.2181   2.2736 C.3            1 S1                 0.0000
     14 ****         3.2784   1.2314   3.0632 C.3            1 S1                 0.0000
     15 ****         4.0317   1.9944   1.9715 C.3            1 S1                 0.0000
     16 ****         5.4204   1.9847   2.2452 O.3            1 S1                 0.0000
     17 ****         3.6481   1.2797   0.6543 C.3            1 S1                 0.0000
     18 ****         4.7611   1.0676  -0.3877 C.3            1 S1                 0.0000
     19 ****         5.1452   2.3023  -0.9555 O.3            1 S1                 0.0000
     20 ****         3.1139   0.0285   1.0698 O.3            1 S1                 0.0000
     21 ****         0.1033  -0.3398   1.5595 C.2            1 S1                 0.0000
     22 ****         0.4490  -1.5211   1.4762 O.2            1 S1                 0.0000
     23 ****        -3.0689  -2.3535  -1.1139 C.ar           1 S1                 0.0000
     24 ****        -3.9111  -3.0839  -0.2413 C.2            1 S1                 0.0000
     25 ****        -4.7492  -4.1004  -0.7404 C.2            1 S1                 0.0000
     26 ****        -4.7603  -4.4002  -2.1154 C.2            1 S1                 0.0000
     27 ****        -3.9310  -3.6828  -2.9972 C.2            1 S1                 0.0000
     28 ****        -3.0903  -2.6670  -2.4999 C.ar           1 S1                 0.0000
     29 ****        -2.2949  -1.9844  -3.3504 N.pl3          1 S1                 1.0000
     30 ****         0.2881   0.1044  -3.5661 H              1 S1                 0.0000
     31 ****        -1.1812   0.5033  -4.4653 H              1 S1                 0.0000
     32 ****        -0.3238  -1.0096  -4.7907 H              1 S1                 0.0000
     33 ****        -0.7264   0.1446  -1.2934 H              1 S1                 0.0000
     34 ****        -3.1483  -0.6400   1.1779 H              1 S1                 0.0000
     35 ****        -1.9437  -1.8430   1.4386 H              1 S1                 0.0000
     36 ****        -0.1866   4.5138   1.8894 H              1 S1                 0.0000
     37 ****        -1.8452   4.0577   2.2677 H              1 S1                 0.0000
     38 ****        -1.3183   4.1721   0.5837 H              1 S1                 0.0000
     39 ****         1.3302   2.7572   2.1872 H              1 S1                 0.0000
     40 ****         2.3444  -0.7187   2.8246 H              1 S1                 0.0000
     41 ****         2.6754   1.8482   3.7292 H              1 S1                 0.0000
     42 ****         3.9718   0.6649   3.6869 H              1 S1                 0.0000
     43 ****         3.7108   3.0355   1.9305 H              1 S1                 0.0000
     44 ****         5.5708   2.4429   3.0578 H              1 S1                 0.0000
     45 ****         2.8318   1.8287   0.1814 H              1 S1                 0.0000
     46 ****         5.6280   0.5672   0.0441 H              1 S1                 0.0000
     47 ****         4.3963   0.4274  -1.1912 H              1 S1                 0.0000
     48 ****         5.8322   2.1428  -1.5846 H              1 S1                 0.0000
     49 ****        -3.9310  -2.8823   0.8190 H              1 S1                 0.0000
     50 ****        -5.3861  -4.6525  -0.0647 H              1 S1                 0.0000
     51 ****        -5.4050  -5.1806  -2.4930 H              1 S1                 0.0000
     52 ****        -3.9437  -3.9177  -4.0518 H              1 S1                 0.0000
     53 ****        -2.3258  -2.2249  -4.3410 H              1 S1                 0.0000
     54 ****        -3.4428   1.0084   0.6331 LP             1 S1                 0.0000
     55 ****        -3.0786   2.6796   0.9054 LP             1 S1                 0.0000
     56 ****         5.9130   2.4418   1.5046 LP             1 S1                 0.0000
     57 ****         5.7412   1.0410   2.3262 LP             1 S1                 0.0000
     58 ****         5.4800   2.9136  -0.2384 LP             1 S1                 0.0000
     59 ****         4.3608   2.7221  -1.4120 LP             1 S1                 0.0000
     60 ****         2.4781  -0.3141   0.3782 LP             1 S1                 0.0000
     61 ****         3.8554  -0.6304   1.1965 LP             1 S1                 0.0000
     62 ****        -0.2061  -2.2137   1.1742 LP             1 S1                 0.0000
     63 ****         1.3843  -1.7861   1.7107 LP             1 S1                 0.0000
@<TRIPOS>BOND
    1    1    2 1     
    2    1   30 1     
    3    1   31 1     
    4    1   32 1     
    5    2   29 ar    
    6    2    3 ar    
    7    3    4 ar    
    8    3   33 1     
    9    4    5 1     
   10    4   23 ar    
   11    5    6 1     
   12    5   34 1     
   13    5   35 1     
   14    6   21 am    
   15    6    7 am    
   16    7    8 2     
   17    7    9 1     
   18    9   10 1     
   19    9   11 2     
   20   10   36 1     
   21   10   37 1     
   22   10   38 1     
   23   11   12 1     
   24   11   39 1     
   25   12   13 1     
   26   12   21 am    
   27   13   20 1     
   28   13   14 1     
   29   13   40 1     
   30   14   15 1     
   31   14   41 1     
   32   14   42 1     
   33   15   16 1     
   34   15   17 1     
   35   15   43 1     
   36   16   44 1     
   37   17   18 1     
   38   17   20 1     
   39   17   45 1     
   40   18   19 1     
   41   18   46 1     
   42   18   47 1     
   43   19   48 1     
   44   21   22 2     
   45   23   28 ar    
   46   23   24 1     
   47   24   25 2     
   48   24   49 1     
   49   25   26 1     
   50   25   50 1     
   51   26   27 2     
   52   26   51 1     
   53   27   28 1     
   54   27   52 1     
   55   28   29 ar    
   56   29   53 1     
   57    8   54 1     
   58    8   55 1     
   59   16   56 1     
   60   16   57 1     
   61   19   58 1     
   62   19   59 1     
   63   20   60 1     
   64   20   61 1     
   65   22   62 1     
   66   22   63 1     
@<TRIPOS>SUBSTRUCTURE
      1 S1             1
@<TRIPOS>SET
LONE_PAIRS      STATIC     ATOMS    <user>   **** ""
10 54 55 56 57 58 59 60 61 62 63
DONOR_HYDROGENS      STATIC     ATOMS    <user>   **** ""
3 44 48 53
ATOM$BLUE        STATIC     ATOMS    COLORGROUP SYSTEM
10 54 55 56 57 58 59 60 61 62 63
ATOM$RED        STATIC     ATOMS    COLORGROUP SYSTEM
3 44 48 53
