#       Name:                AV-unprocessed.smi:2482
#       Creating user name   scv26
#       Creation time:       Fri Mar 27 13:42:16 2020


#       File generated by GOLD software.
#

@<TRIPOS>MOLECULE
AV-unprocessed.smi:2482
    40    41     1
SMALL
NO_CHARGES


@<TRIPOS>ATOM
      1 ****        -4.4185  -2.8897  -2.1710 C.3            1 S1                 0.0000
      2 ****        -3.7455  -2.1165  -1.0522 C.ar           1 S1                 0.0000
      3 ****        -4.5769  -1.4461  -0.2256 N.ar           1 S1                 0.0000
      4 ****        -4.0266  -0.7471   0.7866 C.ar           1 S1                 0.0000
      5 ****        -2.6395  -0.6828   1.0169 C.ar           1 S1                 0.0000
      6 ****        -1.7570  -1.3724   0.1559 C.ar           1 S1                 0.0000
      7 ****        -0.4313  -1.3250   0.3675 N.pl3          1 S1                -1.0000
      8 ****         0.3127  -0.3545  -0.2163 C.2            1 S1                 0.0000
      9 ****        -0.0602   0.5501  -0.9663 O.2            1 S1                 0.0000
     10 ****         1.8053  -0.4806   0.1636 C.3            1 S1                 0.0000
     11 ****         2.7235   0.5810  -0.4875 C.3            1 S1                 0.0000
     12 ****         2.4811   1.9239   0.0914 N.4            1 S1                 1.0000
     13 ****         3.2912   2.9788  -0.5531 C.3            1 S1                 0.0000
     14 ****         2.6368   1.8989   1.5632 C.3            1 S1                 0.0000
     15 ****         1.7153   0.8337   2.1793 C.3            1 S1                 0.0000
     16 ****         1.9852  -0.4350   1.5846 O.3            1 S1                 0.0000
     17 ****        -2.3375  -2.1147  -0.9053 C.ar           1 S1                 0.0000
     18 ****        -1.3454  -3.0092  -2.0108 Cl             1 S1                 0.0000
     19 ****        -4.0825  -2.5223  -3.1409 H              1 S1                 0.0000
     20 ****        -5.5040  -2.7911  -2.1308 H              1 S1                 0.0000
     21 ****        -4.1740  -3.9497  -2.0994 H              1 S1                 0.0000
     22 ****        -4.7128  -0.2224   1.4349 H              1 S1                 0.0000
     23 ****        -2.2584  -0.1062   1.8472 H              1 S1                 0.0000
     24 ****         2.1371  -1.4636  -0.1742 H              1 S1                 0.0000
     25 ****         3.7677   0.3052  -0.3331 H              1 S1                 0.0000
     26 ****         2.5670   0.6087  -1.5671 H              1 S1                 0.0000
     27 ****         4.3567   2.8044  -0.3985 H              1 S1                 0.0000
     28 ****         3.0408   3.9583  -0.1449 H              1 S1                 0.0000
     29 ****         3.1006   3.0066  -1.6265 H              1 S1                 0.0000
     30 ****         3.6762   1.6859   1.8180 H              1 S1                 0.0000
     31 ****         2.3984   2.8792   1.9776 H              1 S1                 0.0000
     32 ****         1.8964   0.7602   3.2516 H              1 S1                 0.0000
     33 ****         0.6667   1.1100   2.0618 H              1 S1                 0.0000
     34 ****         1.5125   2.1442  -0.0952 H              1 S1                 0.0000
     35 ****        -5.5676  -1.4677  -0.3602 LP             1 S1                 0.0000
     36 ****         0.0062  -2.0054   0.9554 LP             1 S1                 0.0000
     37 ****        -1.0263   0.6294  -1.2123 LP             1 S1                 0.0000
     38 ****         0.6033   1.2046  -1.3288 LP             1 S1                 0.0000
     39 ****         2.9339  -0.6781   1.7864 LP             1 S1                 0.0000
     40 ****         1.3731  -1.1093   1.9978 LP             1 S1                 0.0000
@<TRIPOS>BOND
    1    1    2 1     
    2    1   19 1     
    3    1   20 1     
    4    1   21 1     
    5    2   17 ar    
    6    2    3 ar    
    7    3    4 ar    
    8    4    5 ar    
    9    4   22 1     
   10    5    6 ar    
   11    5   23 1     
   12    6    7 1     
   13    6   17 ar    
   14    7    8 1     
   15    8    9 2     
   16    8   10 1     
   17   10   16 1     
   18   10   11 1     
   19   10   24 1     
   20   11   12 1     
   21   11   25 1     
   22   11   26 1     
   23   12   13 1     
   24   12   14 1     
   25   12   34 1     
   26   13   27 1     
   27   13   28 1     
   28   13   29 1     
   29   14   15 1     
   30   14   30 1     
   31   14   31 1     
   32   15   16 1     
   33   15   32 1     
   34   15   33 1     
   35   17   18 1     
   36    3   35 1     
   37    7   36 1     
   38    9   37 1     
   39    9   38 1     
   40   16   39 1     
   41   16   40 1     
@<TRIPOS>SUBSTRUCTURE
      1 S1             1
@<TRIPOS>SET
LONE_PAIRS      STATIC     ATOMS    <user>   **** ""
6 35 36 37 38 39 40
DONOR_HYDROGENS      STATIC     ATOMS    <user>   **** ""
1 34
ATOM$BLUE        STATIC     ATOMS    COLORGROUP SYSTEM
6 35 36 37 38 39 40
ATOM$RED        STATIC     ATOMS    COLORGROUP SYSTEM
1 34
