AV-unprocessed.smi:1302|AV-procd|sdf|5425|dock10
  -GOLD-   22720 4583D 1   1.00000     0.00000
 Structure written by MMmdl.
 43 44  0  0  0  0  0  0  0  0  1 V2000
  149.2094  134.5521  154.6088 C   0  0  0  0  0  0  0  0  0  0  0  0
  149.9315  134.3410  155.9488 C   0  0  0  0  0  0  0  0  0  0  0  0
  149.0318  133.6362  156.9725 C   0  0  0  0  0  0  0  0  0  0  0  0
  150.3772  135.6202  156.4931 N   0  0  0  0  0  0  0  0  0  0  0  0
  151.1033  136.5380  155.8329 C   0  0  0  0  0  0  0  0  0  0  0  0
  151.5064  136.3872  154.6793 O   0  0  0  0  0  0  0  0  0  0  0  0
  151.4628  137.7664  156.6175 C   0  0  0  0  0  0  0  0  0  0  0  0
  151.1744  137.8499  157.9954 C   0  0  0  0  0  0  0  0  0  0  0  0
  151.5472  139.0069  158.7062 C   0  0  0  0  0  0  0  0  0  0  0  0
  152.2081  140.0550  158.0231 C   0  0  0  0  0  0  0  0  0  0  0  0
  152.5881  141.2254  158.7153 N   0  0  0  0  0  0  0  0  0  0  0  0
  152.6231  141.1152  160.1712 C   0  0  0  0  0  0  0  0  0  0  0  0
  153.3456  142.3291  160.7856 C   0  0  2  0  0  0  0  0  0  0  0  0
  153.2936  142.3140  162.3169 C   0  0  0  0  0  0  0  0  0  0  0  0
  152.7231  143.5269  160.3296 O   0  0  0  0  0  0  0  0  0  0  0  0
  152.7970  143.6741  158.9143 C   0  0  2  0  0  0  0  0  0  0  0  0
  152.1898  145.0297  158.5390 C   0  0  0  0  0  0  0  0  0  0  0  0
  152.0542  142.5025  158.2464 C   0  0  0  0  0  0  0  0  0  0  0  0
  152.5012  139.9650  156.7023 N   0  0  0  0  0  0  0  0  0  0  0  0
  152.1412  138.8545  156.0249 C   0  0  0  0  0  0  0  0  0  0  0  0
  148.8799  133.6015  154.1889 H   0  0  0  0  0  0  0  0  0  0  0  0
  149.8645  135.0242  153.8759 H   0  0  0  0  0  0  0  0  0  0  0  0
  148.3298  135.1861  154.7271 H   0  0  0  0  0  0  0  0  0  0  0  0
  150.8005  133.7031  155.7777 H   0  0  0  0  0  0  0  0  0  0  0  0
  148.7064  132.6633  156.6030 H   0  0  0  0  0  0  0  0  0  0  0  0
  148.1397  134.2242  157.1906 H   0  0  0  0  0  0  0  0  0  0  0  0
  149.5606  133.4707  157.9120 H   0  0  0  0  0  0  0  0  0  0  0  0
  150.1132  135.8233  157.4464 H   0  0  0  0  0  0  0  0  0  0  0  0
  150.6734  137.0419  158.5090 H   0  0  0  0  0  0  0  0  0  0  0  0
  151.3370  139.0686  159.7635 H   0  0  0  0  0  0  0  0  0  0  0  0
  151.5983  141.0606  160.5413 H   0  0  0  0  0  0  0  0  0  0  0  0
  153.1243  140.2036  160.4936 H   0  0  0  0  0  0  0  0  0  0  0  0
  154.3919  142.3292  160.4746 H   0  0  0  0  0  0  0  0  0  0  0  0
  153.7726  141.4203  162.7171 H   0  0  0  0  0  0  0  0  0  0  0  0
  152.2645  142.3326  162.6769 H   0  0  0  0  0  0  0  0  0  0  0  0
  153.8075  143.1811  162.7325 H   0  0  0  0  0  0  0  0  0  0  0  0
  153.8445  143.6674  158.6076 H   0  0  0  0  0  0  0  0  0  0  0  0
  152.2305  145.1933  157.4618 H   0  0  0  0  0  0  0  0  0  0  0  0
  152.7308  145.8451  159.0197 H   0  0  0  0  0  0  0  0  0  0  0  0
  151.1462  145.0939  158.8487 H   0  0  0  0  0  0  0  0  0  0  0  0
  152.1592  142.5786  157.1634 H   0  0  0  0  0  0  0  0  0  0  0  0
  150.9888  142.5518  158.4763 H   0  0  0  0  0  0  0  0  0  0  0  0
  152.4121  138.8419  154.9792 H   0  0  0  0  0  0  0  0  0  0  0  0
  1  2  1  0  0  0  0
  1 21  1  0  0  0  0
  1 22  1  0  0  0  0
  1 23  1  0  0  0  0
  2  3  1  0  0  0  0
  2  4  1  0  0  0  0
  2 24  1  0  0  0  0
  3 25  1  0  0  0  0
  3 26  1  0  0  0  0
  3 27  1  0  0  0  0
  4  5  1  0  0  0  0
  4 28  1  0  0  0  0
  5  6  2  0  0  0  0
  5  7  1  0  0  0  0
  7 20  1  0  0  0  0
  7  8  2  0  0  0  0
  8  9  1  0  0  0  0
  8 29  1  0  0  0  0
  9 10  2  0  0  0  0
  9 30  1  0  0  0  0
 10 11  1  0  0  0  0
 10 19  1  0  0  0  0
 11 18  1  0  0  0  0
 11 12  1  0  0  0  0
 12 13  1  0  0  0  0
 12 31  1  0  0  0  0
 12 32  1  0  0  0  0
 13 14  1  0  0  0  0
 13 15  1  0  0  0  0
 13 33  1  0  0  0  0
 14 34  1  0  0  0  0
 14 35  1  0  0  0  0
 14 36  1  0  0  0  0
 15 16  1  0  0  0  0
 16 17  1  0  0  0  0
 16 18  1  0  0  0  0
 16 37  1  0  0  0  0
 17 38  1  0  0  0  0
 17 39  1  0  0  0  0
 17 40  1  0  0  0  0
 18 41  1  0  0  0  0
 18 42  1  0  0  0  0
 19 20  2  0  0  0  0
 20 43  1  0  0  0  0
M  END
> <s_m_source_file>
AV-unprocessed.smi

> <i_m_source_file_index>
1302

> <i_lp_mmshare_version>
43012

> <i_f3d_flags>
0

> <s_epik_input>
W0NIM11bQ0hdKFtDSDNdKVtOSF1DKD1PKWMxW2NIXVtjSF1jKG5bY0hdMSlOMltDSDJdW0NAQEhdKFtDSDNdKU9bQ0BASF0oW0NIM10pW0NIMl0y

> <s_epik_cmdline>
J2VwaWtfcHl0aG9uJywgJy1waCcsICc3LjAnLCAnLXRuJywgJzgnLCAnLW1hJywgJzIwMCcsICctbWV0YWxfYmluZGluZycsICctaW1hZScsICc8aW5maWxlLm1hZT4nLCAnLW9tYWUnLCAnPG91dGZpbGUubWFlPic=

> <r_lp_tautomer_probability>
1

> <r_epik_Ionization_Penalty>
2.23089e-05

> <r_epik_Ionization_Penalty_Charging>
0

> <r_epik_Ionization_Penalty_Neutral>
2.23089e-05

> <r_epik_State_Penalty>
-0

> <r_epik_Charging_Adjusted_Penalty>
0

> <i_epik_Tot_Q>
0

> <i_epik_Tot_abs_Q>
0

> <r_epik_Metal_State_Penalty>
-0

> <b_epik_Metal_Only>
0

> <s_lp_Force_Field>
OPLS_2005

> <r_lp_Energy>
16.9164

> <b_lp_Chiralities_Consistent>
1

> <s_lp_Variant>
AV-unprocessed.smi:1302-1

> <Gold.Version>
5.8.1

> <Gold.Id.Protein>
6NUR|6NUR_protein|mol2

> <Gold.PLP.Fitness>
42.7769

> <Gold.PLP.PLP>
-37.0515

> <Gold.PLP.part.hbond>
-2.0000

> <Gold.PLP.part.metal>
0.0000

> <Gold.PLP.part.buried>
-5.6629

> <Gold.PLP.part.nonpolar>
-29.6681

> <Gold.PLP.part.repulsive>
0.2958

> <Gold.PLP.ligand.clash>
0.0000

> <Gold.PLP.ligand.torsion>
0.3059

> <Gold.PLP.Chemscore.Hbond>
2.0000

> <Gold.PLP.Chemscore.CHOScore>
0.0000

> <Gold.PLP.Chemscore.Metal>
0.0000

> <Gold.Chemscore.Hbonds>
donor molecule, donor type, donor heavy atom, donor atom, acceptor molecule, acceptor atom, score
      P1  H  7997  8010       L1    19  1.00
      P1  H 10752 10763       L1     6  1.00

> <Gold.PLP.Chemscore.Internal.Correction>
0.3372

> <Gold.Rescore>
     Score         DG    S(hbond)    S(metal)    S(lipo)     H(rot)  DE(clash)    DE(int)     intcor
     18.95     -20.07       1.77        0.00      99.38       1.15       0.09       1.03       ----

> <Gold.Chemscore.Fitness>
18.9491

> <Gold.Chemscore.DG>
-20.0717

> <Gold.Chemscore.ZeroCoef>
-5.4800

> <Gold.Chemscore.Hbond>
1.7696

> <Gold.Chemscore.Metal>
0.0000

> <Gold.Chemscore.Lipo>
99.3783

> <Gold.Chemscore.Internal_Hbond>
0.0000

> <Gold.Chemscore.DEClash>
0.0908

> <Gold.Chemscore.DEInternal>
1.0318

> <Gold.Chemscore.Rot>
1.1508

> <Gold.Chemscore.Internal.Correction>
   9.000000E+99

> <Gold.Chemscore.Hbonds>
donor molecule, donor type, donor heavy atom, donor atom, acceptor molecule, acceptor atom, score
      P1  H  7997  8010       L1    19  0.39
      P1  H 10752 10763       L1     6  0.69

> <Gold.Chemscore.Hbond.Weighted>
-5.9106

> <Gold.Chemscore.Metal.Weighted>
-0.0000

> <Gold.Chemscore.Lipo.Weighted>
-11.6273

> <Gold.Chemscore.Internal_Hbond.Weighted>
0.0000

> <Gold.Chemscore.DEClash.Weighted>
0.0908

> <Gold.Chemscore.DEInternal.Weighted>
1.0318

> <Gold.Chemscore.Rot.Weighted>
2.9461

> <Gold.Chemscore.Internal.Correction.Weighted>
   9.000000E+99

> <Gold.Protein.RotatedTorsions>
[ 6907 6896 6895 6894 ] final  -68.01 input  -60.11 | X-H torsion
[ 7974 7965 7964 7962 ] final  -63.26 input  175.53 | X-H torsion
[ 8008 7997 7996 7995 ] final   72.84 input   59.86 | X-H torsion
[ 10167 10162 10161 10158 ] final  124.44 input  -65.29 | X-H torsion
[ 10718 10713 10712 10709 ] final  -81.84 input   66.30 | X-H torsion
[ 10763 10752 10751 10750 ] final   68.47 input  -60.55 | X-H torsion
[ 11005 11000 10999 10996 ] final -161.37 input  -57.11 | X-H torsion

> <Gold.Protein.ActiveResidues>
 VAL166  LYS551  ARG553  GLY616  TRP617  ASP618  TYR619  PRO620  LYS621  CYS622 
 ASP623  PHE694  ASN695  SER759  ASP760  ASP761  ALA762  ILE779  LEU786  VAL792 
 PHE793  MET794  SER795  GLU796  ALA797  LYS798  CYS799  TRP800  GLU811  SER814 

> <Gold.Protein.RotatedAtoms>
  150.7378  134.5799  159.5933 H   0  0  0  0  0  0  0  0  0  0  0  0  # atno 6907 bound_to 6896
  152.3216  134.7370  160.0321 H   0  0  0  0  0  0  0  0  0  0  0  0  # atno 6908 bound_to 6896
  151.7884  133.3321  159.3528 H   0  0  0  0  0  0  0  0  0  0  0  0  # atno 6909 bound_to 6896
  145.7812  140.8761  143.0329 H   0  0  0  0  0  0  0  0  0  0  0  0  # atno 7974 bound_to 7965
  155.7749  140.3483  155.5266 H   0  0  0  0  0  0  0  0  0  0  0  0  # atno 8008 bound_to 7997
  155.8786  140.0998  157.1522 H   0  0  0  0  0  0  0  0  0  0  0  0  # atno 8009 bound_to 7997
  154.4023  140.1327  156.4155 H   0  0  0  0  0  0  0  0  0  0  0  0  # atno 8010 bound_to 7997
  139.5741  144.6954  151.3699 H   0  0  0  0  0  0  0  0  0  0  0  0  # atno 10167 bound_to 10162
  156.0043  130.4616  150.4013 H   0  0  0  0  0  0  0  0  0  0  0  0  # atno 10718 bound_to 10713
  153.0237  135.5246  154.7139 H   0  0  0  0  0  0  0  0  0  0  0  0  # atno 10763 bound_to 10752
  154.6213  135.2889  155.0324 H   0  0  0  0  0  0  0  0  0  0  0  0  # atno 10764 bound_to 10752
  154.1310  135.6593  153.4974 H   0  0  0  0  0  0  0  0  0  0  0  0  # atno 10765 bound_to 10752
  140.6212  134.4749  157.5223 H   0  0  0  0  0  0  0  0  0  0  0  0  # atno 11005 bound_to 11000
  144.6796  139.9992  143.7484 LP  0  0  0  0  0  0  0  0  0  0  0  0  # atno 17320 bound_to 7965
  146.0072  139.3139  143.0892 LP  0  0  0  0  0  0  0  0  0  0  0  0  # atno 17321 bound_to 7965
  140.7025  143.7596  150.7426 LP  0  0  0  0  0  0  0  0  0  0  0  0  # atno 17342 bound_to 10162
  140.1111  143.4698  152.2369 LP  0  0  0  0  0  0  0  0  0  0  0  0  # atno 17343 bound_to 10162
  157.2082  131.0454  151.2613 LP  0  0  0  0  0  0  0  0  0  0  0  0  # atno 17370 bound_to 10713
  157.3913  130.7283  149.6699 LP  0  0  0  0  0  0  0  0  0  0  0  0  # atno 17371 bound_to 10713
  139.9153  134.8260  156.1388 LP  0  0  0  0  0  0  0  0  0  0  0  0  # atno 17394 bound_to 11000
  141.0741  133.6783  156.2201 LP  0  0  0  0  0  0  0  0  0  0  0  0  # atno 17395 bound_to 11000

$$$$
