AV-unprocessed.smi:3031|AV-procd|sdf|11550|dock3
  -GOLD-   2272016503D 1   1.00000     0.00000
 Structure written by MMmdl.
 48 49  0  0  0  0  0  0  0  0  3 V2000
  151.7237  142.7042  158.4612 C   0  0  0  0  0  0  0  0  0  0  0  0
  151.1411  141.6819  157.5283 C   0  0  0  0  0  0  0  0  0  0  0  0
  151.2988  140.2673  157.5715 C   0  0  0  0  0  0  0  0  0  0  0  0
  150.6496  139.6477  156.5993 N   0  0  0  0  0  0  0  0  0  0  0  0
  150.0583  140.6410  155.9022 N   0  0  0  0  0  0  0  0  0  0  0  0
  149.2436  140.3249  154.7428 C   0  0  0  0  0  0  0  0  0  0  0  0
  149.3148  138.8331  154.3395 C   0  0  1  0  0  0  0  0  0  0  0  0
  148.7388  137.8952  155.4143 C   0  0  0  0  0  0  0  0  0  0  0  0
  148.6072  138.5955  153.0612 N   0  3  0  0  0  0  0  0  0  0  0  0
  147.1431  138.8100  153.0916 C   0  0  0  0  0  0  0  0  0  0  0  0
  146.3971  137.6705  152.3744 C   0  0  2  0  0  0  0  0  0  0  0  0
  146.4679  137.8950  150.9793 O   0  0  0  0  0  0  0  0  0  0  0  0
  144.9101  137.6067  152.7824 C   0  0  0  0  0  0  0  0  0  0  0  0
  144.3710  136.2219  152.7727 N   0  3  0  0  0  0  0  0  0  0  0  0
  142.8922  136.1590  152.8897 C   0  0  0  0  0  0  0  0  0  0  0  0
  142.4145  134.6967  152.9087 C   0  0  0  0  0  0  0  0  0  0  0  0
  142.8676  134.0321  151.7363 O   0  0  0  0  0  0  0  0  0  0  0  0
  144.2869  134.0050  151.6556 C   0  0  0  0  0  0  0  0  0  0  0  0
  144.8281  135.4439  151.5961 C   0  0  0  0  0  0  0  0  0  0  0  0
  150.3361  141.8789  156.4422 C   0  0  0  0  0  0  0  0  0  0  0  0
  152.4410  142.2608  159.1523 H   0  0  0  0  0  0  0  0  0  0  0  0
  150.9521  143.1836  159.0639 H   0  0  0  0  0  0  0  0  0  0  0  0
  152.2462  143.4925  157.9192 H   0  0  0  0  0  0  0  0  0  0  0  0
  151.8622  139.6756  158.2780 H   0  0  0  0  0  0  0  0  0  0  0  0
  148.2110  140.6090  154.9537 H   0  0  0  0  0  0  0  0  0  0  0  0
  149.5780  140.9640  153.9258 H   0  0  0  0  0  0  0  0  0  0  0  0
  150.3613  138.5570  154.2004 H   0  0  0  0  0  0  0  0  0  0  0  0
  149.3056  137.9520  156.3438 H   0  0  0  0  0  0  0  0  0  0  0  0
  148.7691  136.8559  155.0857 H   0  0  0  0  0  0  0  0  0  0  0  0
  147.7012  138.1422  155.6415 H   0  0  0  0  0  0  0  0  0  0  0  0
  148.9864  139.2375  152.3794 H   0  0  0  0  0  0  0  0  0  0  0  0
  146.8146  138.8520  154.1298 H   0  0  0  0  0  0  0  0  0  0  0  0
  146.8974  139.7729  152.6408 H   0  0  0  0  0  0  0  0  0  0  0  0
  146.8939  136.7281  152.6039 H   0  0  0  0  0  0  0  0  0  0  0  0
  145.6723  138.3210  150.6962 H   0  0  0  0  0  0  0  0  0  0  0  0
  144.7654  138.0354  153.7755 H   0  0  0  0  0  0  0  0  0  0  0  0
  144.3345  138.2331  152.0984 H   0  0  0  0  0  0  0  0  0  0  0  0
  142.5565  136.6575  153.7982 H   0  0  0  0  0  0  0  0  0  0  0  0
  142.4350  136.6850  152.0500 H   0  0  0  0  0  0  0  0  0  0  0  0
  142.7752  134.1794  153.7993 H   0  0  0  0  0  0  0  0  0  0  0  0
  141.3254  134.6581  152.9372 H   0  0  0  0  0  0  0  0  0  0  0  0
  144.7021  133.4666  152.5091 H   0  0  0  0  0  0  0  0  0  0  0  0
  144.5792  133.4564  150.7602 H   0  0  0  0  0  0  0  0  0  0  0  0
  144.4908  135.9325  150.6805 H   0  0  0  0  0  0  0  0  0  0  0  0
  145.9181  135.4224  151.5663 H   0  0  0  0  0  0  0  0  0  0  0  0
  149.9432  142.7891  156.0139 H   0  0  0  0  0  0  0  0  0  0  0  0
  148.8026  137.6542  152.7516 H   0  0  0  0  0  0  0  0  0  0  0  0
  144.7544  135.7563  153.5834 H   0  0  0  0  0  0  0  0  0  0  0  0
  1  2  1  0  0  0  0
  1 21  1  0  0  0  0
  1 22  1  0  0  0  0
  1 23  1  0  0  0  0
  2 20  2  0  0  0  0
  2  3  1  0  0  0  0
  3  4  2  0  0  0  0
  3 24  1  0  0  0  0
  4  5  1  0  0  0  0
  5  6  1  0  0  0  0
  5 20  1  0  0  0  0
  6  7  1  0  0  0  0
  6 25  1  0  0  0  0
  6 26  1  0  0  0  0
  7  8  1  0  0  0  0
  7  9  1  0  0  0  0
  7 27  1  0  0  0  0
  8 28  1  0  0  0  0
  8 29  1  0  0  0  0
  8 30  1  0  0  0  0
  9 10  1  0  0  0  0
  9 31  1  0  0  0  0
  9 47  1  0  0  0  0
 10 11  1  0  0  0  0
 10 32  1  0  0  0  0
 10 33  1  0  0  0  0
 11 12  1  0  0  0  0
 11 13  1  0  0  0  0
 11 34  1  0  0  0  0
 12 35  1  0  0  0  0
 13 14  1  0  0  0  0
 13 36  1  0  0  0  0
 13 37  1  0  0  0  0
 14 19  1  0  0  0  0
 14 15  1  0  0  0  0
 14 48  1  0  0  0  0
 15 16  1  0  0  0  0
 15 38  1  0  0  0  0
 15 39  1  0  0  0  0
 16 17  1  0  0  0  0
 16 40  1  0  0  0  0
 16 41  1  0  0  0  0
 17 18  1  0  0  0  0
 18 19  1  0  0  0  0
 18 42  1  0  0  0  0
 18 43  1  0  0  0  0
 19 44  1  0  0  0  0
 19 45  1  0  0  0  0
 20 46  1  0  0  0  0
M  CHG  1   9   1
M  CHG  1  14   1
M  END
> <s_m_source_file>
AV-unprocessed.smi

> <i_m_source_file_index>
3031

> <i_lp_mmshare_version>
43012

> <i_f3d_flags>
0

> <s_epik_input>
W0NIM11jMVtjSF1ubihbY0hdMSlbQ0gyXVtDQEhdKFtDSDNdKVtOSF1bQ0gyXVtDQEhdKFtPSF0pW0NIMl1OMltDSDJdW0NIMl1PW0NIMl1bQ0gyXTI=

> <s_epik_cmdline>
J2VwaWtfcHl0aG9uJywgJy1waCcsICc3LjAnLCAnLXRuJywgJzgnLCAnLW1hJywgJzIwMCcsICctbWV0YWxfYmluZGluZycsICctaW1hZScsICc8aW5maWxlLm1hZT4nLCAnLW9tYWUnLCAnPG91dGZpbGUubWFlPic=

> <r_lp_tautomer_probability>
1

> <r_epik_Ionization_Penalty>
1.76542

> <r_epik_Ionization_Penalty_Charging>
1.76348

> <r_epik_Ionization_Penalty_Neutral>
0.00194017

> <r_epik_State_Penalty>
1.49348

> <r_epik_Charging_Adjusted_Penalty>
3.25696

> <i_epik_Tot_Q>
2

> <i_epik_Tot_abs_Q>
2

> <r_epik_Metal_State_Penalty>
1.49349

> <b_epik_Metal_Only>
0

> <s_lp_Force_Field>
OPLS_2005

> <r_lp_Energy>
28.4524

> <b_lp_Chiralities_Consistent>
1

> <s_lp_Variant>
AV-unprocessed.smi:3031-10

> <Gold.Version>
5.8.1

> <Gold.Id.Protein>
6NUR|6NUR_protein|mol2

> <Gold.PLP.Fitness>
49.5981

> <Gold.PLP.PLP>
-33.6246

> <Gold.PLP.part.hbond>
-4.9622

> <Gold.PLP.part.metal>
0.0000

> <Gold.PLP.part.buried>
-3.5221

> <Gold.PLP.part.nonpolar>
-27.7644

> <Gold.PLP.part.repulsive>
0.7385

> <Gold.PLP.ligand.clash>
0.0000

> <Gold.PLP.ligand.torsion>
1.1048

> <Gold.PLP.Chemscore.Hbond>
4.9663

> <Gold.PLP.Chemscore.CHOScore>
1.0000

> <Gold.PLP.Chemscore.Metal>
0.0000

> <Gold.Chemscore.Hbonds>
donor molecule, donor type, donor heavy atom, donor atom, acceptor molecule, acceptor atom, score
      L1  H     9    31       P1  7957  1.00
      L1  H     9    47       P1  7948  2.00
      L1  H    12    35       P1 10171  1.00
      P1  H  7954  7966       L1    12  1.00
      L1  C    20    46       P1  8028  1.00

> <Gold.PLP.Chemscore.Internal.Correction>
0.2843

> <Gold.Rescore>
     Score         DG    S(hbond)    S(metal)    S(lipo)     H(rot)  DE(clash)    DE(int)     intcor
     17.42     -20.50       3.68        0.00      83.47       2.74       0.54       2.53       ----

> <Gold.Chemscore.Fitness>
17.4231

> <Gold.Chemscore.DG>
-20.4996

> <Gold.Chemscore.ZeroCoef>
-5.4800

> <Gold.Chemscore.Hbond>
3.6758

> <Gold.Chemscore.Metal>
0.0000

> <Gold.Chemscore.Lipo>
83.4655

> <Gold.Chemscore.Internal_Hbond>
0.0000

> <Gold.Chemscore.DEClash>
0.5418

> <Gold.Chemscore.DEInternal>
2.5346

> <Gold.Chemscore.Rot>
2.7434

> <Gold.Chemscore.Internal.Correction>
   9.000000E+99

> <Gold.Chemscore.Hbonds>
donor molecule, donor type, donor heavy atom, donor atom, acceptor molecule, acceptor atom, score
      L1  H     9    31       P1  7957  0.97
      L1  H     9    47       P1  7948  1.00
      L1  H    12    35       P1 10171  0.95
      P1  H  7954  7966       L1    12  0.94

> <Gold.Chemscore.Hbond.Weighted>
-12.2772

> <Gold.Chemscore.Metal.Weighted>
-0.0000

> <Gold.Chemscore.Lipo.Weighted>
-9.7655

> <Gold.Chemscore.Internal_Hbond.Weighted>
0.0000

> <Gold.Chemscore.DEClash.Weighted>
0.5418

> <Gold.Chemscore.DEInternal.Weighted>
2.5346

> <Gold.Chemscore.Rot.Weighted>
7.0231

> <Gold.Chemscore.Internal.Correction.Weighted>
   9.000000E+99

> <Gold.Protein.RotatedTorsions>
[ 6907 6896 6895 6894 ] final  150.39 input  -60.11 | X-H torsion
[ 7974 7965 7964 7962 ] final  -77.11 input  175.53 | X-H torsion
[ 8008 7997 7996 7995 ] final -101.43 input   59.86 | X-H torsion
[ 10167 10162 10161 10158 ] final   55.16 input  -65.29 | X-H torsion
[ 10718 10713 10712 10709 ] final  129.73 input   66.30 | X-H torsion
[ 10763 10752 10751 10750 ] final -161.63 input  -60.55 | X-H torsion
[ 11005 11000 10999 10996 ] final -164.22 input  -57.11 | X-H torsion

> <Gold.Protein.ActiveResidues>
 VAL166  LYS551  ARG553  GLY616  TRP617  ASP618  TYR619  PRO620  LYS621  CYS622 
 ASP623  PHE694  ASN695  SER759  ASP760  ASP761  ALA762  ILE779  LEU786  VAL792 
 PHE793  MET794  SER795  GLU796  ALA797  LYS798  CYS799  TRP800  GLU811  SER814 

> <Gold.Protein.RotatedAtoms>
  152.1151  133.4322  159.4648 H   0  0  0  0  0  0  0  0  0  0  0  0  # atno 6907 bound_to 6896
  150.6869  134.2602  159.4555 H   0  0  0  0  0  0  0  0  0  0  0  0  # atno 6908 bound_to 6896
  152.0474  134.9674  160.0625 H   0  0  0  0  0  0  0  0  0  0  0  0  # atno 6909 bound_to 6896
  145.6040  140.9402  143.1225 H   0  0  0  0  0  0  0  0  0  0  0  0  # atno 7974 bound_to 7965
  154.8425  140.0434  157.1551 H   0  0  0  0  0  0  0  0  0  0  0  0  # atno 8008 bound_to 7997
  154.9031  140.3003  155.5286 H   0  0  0  0  0  0  0  0  0  0  0  0  # atno 8009 bound_to 7997
  156.2993  140.2372  156.4061 H   0  0  0  0  0  0  0  0  0  0  0  0  # atno 8010 bound_to 7997
  140.2224  144.3774  150.6445 H   0  0  0  0  0  0  0  0  0  0  0  0  # atno 10167 bound_to 10162
  157.5127  131.1097  150.9269 H   0  0  0  0  0  0  0  0  0  0  0  0  # atno 10718 bound_to 10713
  154.7286  135.3041  154.8929 H   0  0  0  0  0  0  0  0  0  0  0  0  # atno 10763 bound_to 10752
  153.9778  135.6734  153.4753 H   0  0  0  0  0  0  0  0  0  0  0  0  # atno 10764 bound_to 10752
  153.0898  135.4965  154.8588 H   0  0  0  0  0  0  0  0  0  0  0  0  # atno 10765 bound_to 10752
  140.5894  134.5061  157.5190 H   0  0  0  0  0  0  0  0  0  0  0  0  # atno 11005 bound_to 11000
  144.7298  139.7762  143.7351 LP  0  0  0  0  0  0  0  0  0  0  0  0  # atno 17320 bound_to 7965
  146.1554  139.4651  143.0022 LP  0  0  0  0  0  0  0  0  0  0  0  0  # atno 17321 bound_to 7965
  140.6245  143.2180  151.6625 LP  0  0  0  0  0  0  0  0  0  0  0  0  # atno 17342 bound_to 10162
  139.5139  144.3427  152.0725 LP  0  0  0  0  0  0  0  0  0  0  0  0  # atno 17343 bound_to 10162
  156.9905  130.5561  149.5303 LP  0  0  0  0  0  0  0  0  0  0  0  0  # atno 17370 bound_to 10713
  156.0300  130.5391  150.8508 LP  0  0  0  0  0  0  0  0  0  0  0  0  # atno 17371 bound_to 10713
  139.9281  134.8016  156.1009 LP  0  0  0  0  0  0  0  0  0  0  0  0  # atno 17394 bound_to 11000
  141.0945  133.6701  156.2614 LP  0  0  0  0  0  0  0  0  0  0  0  0  # atno 17395 bound_to 11000

$$$$
