AV-unprocessed.smi:99|AV-procd|sdf|886|dock7
  -GOLD-   2262017363D 1   1.00000     0.00000
 Structure written by MMmdl.
 52 55  0  0  0  0  0  0  0  0  2 V2000
  152.5120  140.1656  157.2237 O   0  0  0  0  0  0  0  0  0  0  0  0
  151.9214  140.8953  158.0224 C   0  0  0  0  0  0  0  0  0  0  0  0
  150.6780  141.3713  157.8196 O   0  0  0  0  0  0  0  0  0  0  0  0
  149.7767  140.6657  156.9840 C   0  0  0  0  0  0  0  0  0  0  0  0
  149.9497  141.1448  155.5290 C   0  0  1  0  0  0  0  0  0  0  0  0
  150.7721  140.2437  154.7920 O   0  0  0  0  0  0  0  0  0  0  0  0
  150.0160  139.2044  154.2340 C   0  0  1  0  0  0  0  0  0  0  0  0
  150.2159  137.9384  155.0564 N   0  0  0  0  0  0  0  0  0  0  0  0
  149.1722  137.3844  155.7835 C   0  0  0  0  0  0  0  0  0  0  0  0
  149.3425  136.2825  156.5417 C   0  0  0  0  0  0  0  0  0  0  0  0
  150.6631  135.6684  156.6239 C   0  0  0  0  0  0  0  0  0  0  0  0
  150.8018  134.6375  157.2790 O   0  0  0  0  0  0  0  0  0  0  0  0
  151.6936  136.2778  155.9712 N   0  5  0  0  0  0  0  0  0  0  0  0
  151.5264  137.4059  155.2215 C   0  0  0  0  0  0  0  0  0  0  0  0
  152.4651  137.9955  154.6862 O   0  0  0  0  0  0  0  0  0  0  0  0
  148.5470  139.6952  154.2354 C   0  0  2  0  0  0  0  0  0  0  0  0
  147.9827  139.6742  152.9407 O   0  0  0  0  0  0  0  0  0  0  0  0
  148.6564  141.1374  154.7102 C   0  0  1  0  0  0  0  0  0  0  0  0
  147.5121  141.4920  155.4782 O   0  0  0  0  0  0  0  0  0  0  0  0
  146.5133  142.2184  154.9341 C   0  0  0  0  0  0  0  0  0  0  0  0
  146.2137  142.1817  153.7392 O   0  0  0  0  0  0  0  0  0  0  0  0
  145.8163  143.0795  155.9321 C   0  0  0  0  0  0  0  0  0  0  0  0
  144.7623  143.9213  155.5062 C   0  0  0  0  0  0  0  0  0  0  0  0
  144.0856  144.7448  156.4268 C   0  0  0  0  0  0  0  0  0  0  0  0
  144.4555  144.7377  157.7844 C   0  0  0  0  0  0  0  0  0  0  0  0
  145.5034  143.9061  158.2202 C   0  0  0  0  0  0  0  0  0  0  0  0
  146.1810  143.0815  157.3013 C   0  0  0  0  0  0  0  0  0  0  0  0
  152.5116  141.3511  159.3135 C   0  0  0  0  0  0  0  0  0  0  0  0
  153.4787  140.5440  159.9563 C   0  0  0  0  0  0  0  0  0  0  0  0
  154.0576  140.9510  161.1740 C   0  0  0  0  0  0  0  0  0  0  0  0
  153.6773  142.1708  161.7630 C   0  0  0  0  0  0  0  0  0  0  0  0
  152.7172  142.9832  161.1328 C   0  0  0  0  0  0  0  0  0  0  0  0
  152.1368  142.5778  159.9152 C   0  0  0  0  0  0  0  0  0  0  0  0
  149.9332  139.5894  157.0613 H   0  0  0  0  0  0  0  0  0  0  0  0
  148.7625  140.8676  157.3302 H   0  0  0  0  0  0  0  0  0  0  0  0
  150.3951  142.1401  155.5278 H   0  0  0  0  0  0  0  0  0  0  0  0
  150.4047  138.9497  153.2466 H   0  0  0  0  0  0  0  0  0  0  0  0
  148.1914  137.8331  155.7643 H   0  0  0  0  0  0  0  0  0  0  0  0
  148.5136  135.8680  157.0966 H   0  0  0  0  0  0  0  0  0  0  0  0
  147.9484  139.1078  154.9332 H   0  0  0  0  0  0  0  0  0  0  0  0
  148.6702  139.8663  152.3198 H   0  0  0  0  0  0  0  0  0  0  0  0
  148.7751  141.7934  153.8457 H   0  0  0  0  0  0  0  0  0  0  0  0
  144.4610  143.9445  154.4686 H   0  0  0  0  0  0  0  0  0  0  0  0
  143.2817  145.3828  156.0904 H   0  0  0  0  0  0  0  0  0  0  0  0
  143.9360  145.3690  158.4899 H   0  0  0  0  0  0  0  0  0  0  0  0
  145.7889  143.8997  159.2619 H   0  0  0  0  0  0  0  0  0  0  0  0
  146.9807  142.4557  157.6700 H   0  0  0  0  0  0  0  0  0  0  0  0
  153.7873  139.6037  159.5224 H   0  0  0  0  0  0  0  0  0  0  0  0
  154.7944  140.3260  161.6562 H   0  0  0  0  0  0  0  0  0  0  0  0
  154.1218  142.4829  162.6966 H   0  0  0  0  0  0  0  0  0  0  0  0
  152.4248  143.9202  161.5835 H   0  0  0  0  0  0  0  0  0  0  0  0
  151.4047  143.2265  159.4571 H   0  0  0  0  0  0  0  0  0  0  0  0
  1  2  2  0  0  0  0
  2  3  1  0  0  0  0
  2 28  1  0  0  0  0
  3  4  1  0  0  0  0
  4  5  1  0  0  0  0
  4 34  1  0  0  0  0
  4 35  1  0  0  0  0
  5 18  1  0  0  0  0
  5  6  1  0  0  0  0
  5 36  1  0  0  0  0
  6  7  1  0  0  0  0
  7  8  1  0  0  0  0
  7 16  1  0  0  0  0
  7 37  1  0  0  0  0
  8 14  1  0  0  0  0
  8  9  1  0  0  0  0
  9 10  2  0  0  0  0
  9 38  1  0  0  0  0
 10 11  1  0  0  0  0
 10 39  1  0  0  0  0
 11 12  2  0  0  0  0
 11 13  1  0  0  0  0
 13 14  1  0  0  0  0
 14 15  2  0  0  0  0
 16 17  1  0  0  0  0
 16 18  1  0  0  0  0
 16 40  1  0  0  0  0
 17 41  1  0  0  0  0
 18 19  1  0  0  0  0
 18 42  1  0  0  0  0
 19 20  1  0  0  0  0
 20 21  2  0  0  0  0
 20 22  1  0  0  0  0
 22 27  1  0  0  0  0
 22 23  2  0  0  0  0
 23 24  1  0  0  0  0
 23 43  1  0  0  0  0
 24 25  2  0  0  0  0
 24 44  1  0  0  0  0
 25 26  1  0  0  0  0
 25 45  1  0  0  0  0
 26 27  2  0  0  0  0
 26 46  1  0  0  0  0
 27 47  1  0  0  0  0
 28 33  1  0  0  0  0
 28 29  2  0  0  0  0
 29 30  1  0  0  0  0
 29 48  1  0  0  0  0
 30 31  2  0  0  0  0
 30 49  1  0  0  0  0
 31 32  1  0  0  0  0
 31 50  1  0  0  0  0
 32 33  2  0  0  0  0
 32 51  1  0  0  0  0
 33 52  1  0  0  0  0
M  CHG  1  13  -1
M  END
> <s_m_source_file>
AV-unprocessed.smi

> <i_m_source_file_index>
99

> <i_lp_mmshare_version>
43012

> <i_f3d_flags>
0

> <s_epik_input>
W2NIXTFbY0hdW2NIXVtjSF1bY0hdYzFDKD1PKU9bQ0gyXVtDQEBIXTJPW0NAQEhdKG4zW2NIXVtjSF1jKD1PKVtuSF1jMz1PKVtDQEBIXShbT0hdKVtDQEhdMk9DKD1PKWM0W2NIXVtjSF1bY0hdW2NIXVtjSF00

> <s_epik_cmdline>
J2VwaWtfcHl0aG9uJywgJy1waCcsICc3LjAnLCAnLXRuJywgJzgnLCAnLW1hJywgJzIwMCcsICctbWV0YWxfYmluZGluZycsICctaW1hZScsICc8aW5maWxlLm1hZT4nLCAnLW9tYWUnLCAnPG91dGZpbGUubWFlPic=

> <r_lp_tautomer_probability>
1

> <r_epik_Ionization_Penalty>
2.89159

> <r_epik_Ionization_Penalty_Charging>
2.1077e-08

> <r_epik_Ionization_Penalty_Neutral>
2.89159

> <r_epik_State_Penalty>
2.88671

> <r_epik_Charging_Adjusted_Penalty>
2.88671

> <i_epik_Tot_Q>
-1

> <i_epik_Tot_abs_Q>
1

> <r_epik_Metal_State_Penalty>
0.0727308

> <b_epik_Metal_Only>
1

> <s_epik_Chemistry_Notes>
This compound has an ester and may undergo hydrolysis at high or low pH. This compound contains an acetal/aminal-like group ( X-CH(R)-Y where X, Y are N, S, or O) that may be acid/base labile, releasing an aldehyde.

> <s_lp_Force_Field>
OPLS_2005

> <r_lp_Energy>
40.5539

> <b_lp_Chiralities_Consistent>
1

> <s_lp_Variant>
AV-unprocessed.smi:99-22

> <Gold.Version>
5.8.1

> <Gold.Id.Protein>
6NUR|6NUR_protein|mol2

> <Gold.PLP.Fitness>
62.9849

> <Gold.PLP.PLP>
-54.3240

> <Gold.PLP.part.hbond>
-5.3359

> <Gold.PLP.part.metal>
0.0000

> <Gold.PLP.part.buried>
-9.4491

> <Gold.PLP.part.nonpolar>
-40.5847

> <Gold.PLP.part.repulsive>
0.4897

> <Gold.PLP.ligand.clash>
0.0000

> <Gold.PLP.ligand.torsion>
2.3055

> <Gold.PLP.Chemscore.Hbond>
4.3140

> <Gold.PLP.Chemscore.CHOScore>
0.0000

> <Gold.PLP.Chemscore.Metal>
0.0000

> <Gold.Chemscore.Hbonds>
donor molecule, donor type, donor heavy atom, donor atom, acceptor molecule, acceptor atom, score
      L1  H    17    41       P1  7957  0.91
      P1  H  6896  6909       L1    12  0.31
      P1  H  7989  7998       L1     6  1.00
      P1  H  7997  8009       L1     1  0.16
      P1  H 10752 10763       L1    13  2.00

> <Gold.PLP.Chemscore.Internal.Correction>
0.3298

> <Gold.Rescore>
     Score         DG    S(hbond)    S(metal)    S(lipo)     H(rot)  DE(clash)    DE(int)     intcor
     14.14     -17.79       2.65        0.00      98.25       3.13       0.03       3.62       ----

> <Gold.Chemscore.Fitness>
14.1400

> <Gold.Chemscore.DG>
-17.7906

> <Gold.Chemscore.ZeroCoef>
-5.4800

> <Gold.Chemscore.Hbond>
2.6466

> <Gold.Chemscore.Metal>
0.0000

> <Gold.Chemscore.Lipo>
98.2520

> <Gold.Chemscore.Internal_Hbond>
0.0000

> <Gold.Chemscore.DEClash>
0.0331

> <Gold.Chemscore.DEInternal>
3.6174

> <Gold.Chemscore.Rot>
3.1346

> <Gold.Chemscore.Internal.Correction>
   9.000000E+99

> <Gold.Chemscore.Hbonds>
donor molecule, donor type, donor heavy atom, donor atom, acceptor molecule, acceptor atom, score
      L1  H    17    41       P1  7957  0.87
      P1  H  6896  6909       L1    12  0.30
      P1  H  7989  7998       L1     6  0.42
      P1  H  7997  8009       L1     1  0.17
      P1  H 10752 10763       L1    13  0.26

> <Gold.Chemscore.Hbond.Weighted>
-8.8396

> <Gold.Chemscore.Metal.Weighted>
-0.0000

> <Gold.Chemscore.Lipo.Weighted>
-11.4955

> <Gold.Chemscore.Internal_Hbond.Weighted>
0.0000

> <Gold.Chemscore.DEClash.Weighted>
0.0331

> <Gold.Chemscore.DEInternal.Weighted>
3.6174

> <Gold.Chemscore.Rot.Weighted>
8.0246

> <Gold.Chemscore.Internal.Correction.Weighted>
   9.000000E+99

> <Gold.Protein.RotatedTorsions>
[ 6907 6896 6895 6894 ] final    0.58 input  -60.11 | X-H torsion
[ 7974 7965 7964 7962 ] final  122.18 input  175.53 | X-H torsion
[ 8008 7997 7996 7995 ] final -139.69 input   59.86 | X-H torsion
[ 10167 10162 10161 10158 ] final  136.75 input  -65.29 | X-H torsion
[ 10718 10713 10712 10709 ] final -145.41 input   66.30 | X-H torsion
[ 10763 10752 10751 10750 ] final   88.90 input  -60.55 | X-H torsion
[ 11005 11000 10999 10996 ] final   49.37 input  -57.11 | X-H torsion

> <Gold.Protein.ActiveResidues>
 VAL166  LYS551  ARG553  GLY616  TRP617  ASP618  TYR619  PRO620  LYS621  CYS622 
 ASP623  PHE694  ASN695  SER759  ASP760  ASP761  ALA762  ILE779  LEU786  VAL792 
 PHE793  MET794  SER795  GLU796  ALA797  LYS798  CYS799  TRP800  GLU811  SER814 

> <Gold.Protein.RotatedAtoms>
  151.5787  135.1059  160.0011 H   0  0  0  0  0  0  0  0  0  0  0  0  # atno 6907 bound_to 6896
  152.4365  133.7366  159.6628 H   0  0  0  0  0  0  0  0  0  0  0  0  # atno 6908 bound_to 6896
  150.8263  133.8096  159.3140 H   0  0  0  0  0  0  0  0  0  0  0  0  # atno 6909 bound_to 6896
  145.1106  139.3455  143.4765 H   0  0  0  0  0  0  0  0  0  0  0  0  # atno 7974 bound_to 7965
  155.4491  140.0537  157.3003 H   0  0  0  0  0  0  0  0  0  0  0  0  # atno 8008 bound_to 7997
  154.4785  140.2071  155.9776 H   0  0  0  0  0  0  0  0  0  0  0  0  # atno 8009 bound_to 7997
  156.1169  140.3195  155.8157 H   0  0  0  0  0  0  0  0  0  0  0  0  # atno 8010 bound_to 7997
  139.5169  144.6448  151.5470 H   0  0  0  0  0  0  0  0  0  0  0  0  # atno 10167 bound_to 10162
  156.3821  130.7842  151.2035 H   0  0  0  0  0  0  0  0  0  0  0  0  # atno 10718 bound_to 10713
  153.1816  135.4490  155.0035 H   0  0  0  0  0  0  0  0  0  0  0  0  # atno 10763 bound_to 10752
  154.8033  135.3264  154.7496 H   0  0  0  0  0  0  0  0  0  0  0  0  # atno 10764 bound_to 10752
  153.7960  135.6966  153.4918 H   0  0  0  0  0  0  0  0  0  0  0  0  # atno 10765 bound_to 10752
  140.1109  134.4956  155.8679 H   0  0  0  0  0  0  0  0  0  0  0  0  # atno 11005 bound_to 11000
  146.3526  140.1023  142.8607 LP  0  0  0  0  0  0  0  0  0  0  0  0  # atno 17320 bound_to 7965
  145.0851  140.9247  143.4802 LP  0  0  0  0  0  0  0  0  0  0  0  0  # atno 17321 bound_to 7965
  140.6228  143.9225  150.6540 LP  0  0  0  0  0  0  0  0  0  0  0  0  # atno 17342 bound_to 10162
  140.2504  143.3597  152.1410 LP  0  0  0  0  0  0  0  0  0  0  0  0  # atno 17343 bound_to 10162
  157.7493  131.0341  150.4302 LP  0  0  0  0  0  0  0  0  0  0  0  0  # atno 17370 bound_to 10713
  156.4547  130.4019  149.6613 LP  0  0  0  0  0  0  0  0  0  0  0  0  # atno 17371 bound_to 10713
  141.2130  133.6727  156.6702 LP  0  0  0  0  0  0  0  0  0  0  0  0  # atno 17394 bound_to 11000
  140.3093  134.8100  157.4162 LP  0  0  0  0  0  0  0  0  0  0  0  0  # atno 17395 bound_to 11000

$$$$
