#       Name:                AV-unprocessed.smi:3292
#       Creating user name   scv26
#       Creation time:       Fri Mar 27 18:55:51 2020


#       File generated by GOLD software.
#

@<TRIPOS>MOLECULE
AV-unprocessed.smi:3292
    43    44     1
SMALL
NO_CHARGES


@<TRIPOS>ATOM
      1 ****        -2.2266  -1.6355  -2.3048 C.3            1 S1                 0.0000
      2 ****        -1.6648  -0.6547  -1.2628 C.3            1 S1                 0.0000
      3 ****        -2.0222  -1.0419   0.1888 C.3            1 S1                 0.0000
      4 ****        -3.4678  -1.0860   0.4258 N.pl3          1 S1                 0.0000
      5 ****        -4.3154  -0.0171   0.5639 C.2            1 S1                 0.0000
      6 ****        -5.5671  -0.5355   0.7742 C.2            1 S1                 0.0000
      7 ****        -5.4300  -1.8978   0.7593 N.pl3          1 S1                 1.0000
      8 ****        -4.1520  -2.2308   0.5504 C.2            1 S1                 0.0000
      9 ****        -0.2156  -0.5656  -1.4166 N.am           1 S1                 0.0000
     10 ****         0.5325   0.4868  -1.0550 C.2            1 S1                 0.0000
     11 ****         0.0764   1.5136  -0.5513 O.2            1 S1                 0.0000
     12 ****         1.8347   0.2796  -1.2953 N.am           1 S1                 0.0000
     13 ****         2.9085   1.2208  -0.9931 C.3            1 S1                 0.0000
     14 ****         3.5488   0.9403   0.3798 C.3            1 S1                 0.0000
     15 ****         4.7124   1.8524   0.7089 C.3            1 S1                 0.0000
     16 ****         4.8344   1.6774   2.2198 C.3            1 S1                 0.0000
     17 ****         3.5153   1.4142   2.6891 O.3            1 S1                 0.0000
     18 ****         2.6418   1.1861   1.5877 C.3            1 S1                 0.0000
     19 ****        -3.3162  -1.6611  -2.2834 H              1 S1                 0.0000
     20 ****        -1.8654  -2.6495  -2.1307 H              1 S1                 0.0000
     21 ****        -1.9315  -1.3460  -3.3138 H              1 S1                 0.0000
     22 ****        -2.0932   0.3265  -1.4770 H              1 S1                 0.0000
     23 ****        -1.5999  -2.0155   0.4434 H              1 S1                 0.0000
     24 ****        -1.6038  -0.3231   0.8949 H              1 S1                 0.0000
     25 ****        -3.9724   1.0059   0.5025 H              1 S1                 0.0000
     26 ****        -6.5194  -0.0499   0.9305 H              1 S1                 0.0000
     27 ****        -3.7533  -3.2280   0.4905 H              1 S1                 0.0000
     28 ****         0.2507  -1.3638  -1.8228 H              1 S1                 0.0000
     29 ****         2.1071  -0.5988  -1.7123 H              1 S1                 0.0000
     30 ****         3.6639   1.1190  -1.7726 H              1 S1                 0.0000
     31 ****         2.5505   2.2504  -1.0494 H              1 S1                 0.0000
     32 ****         3.9020  -0.0920   0.4108 H              1 S1                 0.0000
     33 ****         5.6273   1.5900   0.1768 H              1 S1                 0.0000
     34 ****         4.4642   2.8881   0.4720 H              1 S1                 0.0000
     35 ****         5.4621   0.8167   2.4534 H              1 S1                 0.0000
     36 ****         5.2646   2.5526   2.7070 H              1 S1                 0.0000
     37 ****         2.0367   2.0817   1.4406 H              1 S1                 0.0000
     38 ****         1.9684   0.3512   1.7825 H              1 S1                 0.0000
     39 ****        -6.1848  -2.5599   0.8888 H              1 S1                 0.0000
     40 ****        -0.9070   1.5972  -0.3899 LP             1 S1                 0.0000
     41 ****         0.6893   2.2639  -0.3036 LP             1 S1                 0.0000
     42 ****         3.1878   2.1998   3.2140 LP             1 S1                 0.0000
     43 ****         3.5279   0.6038   3.2748 LP             1 S1                 0.0000
@<TRIPOS>BOND
    1    1    2 1     
    2    1   19 1     
    3    1   20 1     
    4    1   21 1     
    5    2    3 1     
    6    2    9 1     
    7    2   22 1     
    8    3    4 1     
    9    3   23 1     
   10    3   24 1     
   11    4    8 1     
   12    4    5 1     
   13    5    6 2     
   14    5   25 1     
   15    6    7 1     
   16    6   26 1     
   17    7    8 2     
   18    7   39 1     
   19    8   27 1     
   20    9   10 am    
   21    9   28 1     
   22   10   11 2     
   23   10   12 am    
   24   12   13 1     
   25   12   29 1     
   26   13   14 1     
   27   13   30 1     
   28   13   31 1     
   29   14   18 1     
   30   14   15 1     
   31   14   32 1     
   32   15   16 1     
   33   15   33 1     
   34   15   34 1     
   35   16   17 1     
   36   16   35 1     
   37   16   36 1     
   38   17   18 1     
   39   18   37 1     
   40   18   38 1     
   41   11   40 1     
   42   11   41 1     
   43   17   42 1     
   44   17   43 1     
@<TRIPOS>SUBSTRUCTURE
      1 S1             1
@<TRIPOS>SET
LONE_PAIRS      STATIC     ATOMS    <user>   **** ""
4 40 41 42 43
DONOR_HYDROGENS      STATIC     ATOMS    <user>   **** ""
3 39 28 29
ATOM$BLUE        STATIC     ATOMS    COLORGROUP SYSTEM
4 40 41 42 43
ATOM$RED        STATIC     ATOMS    COLORGROUP SYSTEM
3 39 28 29
