AV-unprocessed.smi:2007|AV-procd|sdf|8137|dock6
  -GOLD-   2272010373D 1   1.00000     0.00000
 Structure written by MMmdl.
 35 36  0  0  0  0  0  0  0  0  2 V2000
  146.6710  141.2278  154.0877 C   0  0  0  0  0  0  0  0  0  0  0  0
  146.7572  139.7700  154.5589 C   0  0  2  0  0  0  0  0  0  0  0  0
  148.0714  139.1115  154.0836 C   0  0  0  0  0  0  0  0  0  0  0  0
  149.2638  139.4275  154.8715 N   0  0  0  0  0  0  0  0  0  0  0  0
  150.4444  138.7610  154.3356 C   0  0  0  0  0  0  0  0  0  0  0  0
  151.7020  139.0695  155.1667 C   0  0  0  0  0  0  0  0  0  0  0  0
  151.9013  140.4781  155.2262 O   0  0  0  0  0  0  0  0  0  0  0  0
  150.7850  141.1661  155.7821 C   0  0  0  0  0  0  0  0  0  0  0  0
  149.5257  140.8627  154.9525 C   0  0  0  0  0  0  0  0  0  0  0  0
  145.6034  139.0374  154.0374 N   0  0  0  0  0  0  0  0  0  0  0  0
  144.9990  137.9831  154.6053 C   0  0  0  0  0  0  0  0  0  0  0  0
  145.3973  137.5492  155.6888 O   0  0  0  0  0  0  0  0  0  0  0  0
  143.9704  137.4912  153.8774 N   0  5  0  0  0  0  0  0  0  0  0  0
  144.2137  136.6780  152.8369 C   0  0  0  0  0  0  0  0  0  0  0  0
  143.3577  135.7321  152.4340 N   0  0  0  0  0  0  0  0  0  0  0  0
  143.8108  135.0075  151.3302 C   0  0  0  0  0  0  0  0  0  0  0  0
  145.0363  135.4174  150.8762 C   0  0  0  0  0  0  0  0  0  0  0  0
  145.6621  136.7335  151.8279 S   0  0  0  0  0  0  0  0  0  0  0  0
  147.5033  141.8150  154.4761 H   0  0  0  0  0  0  0  0  0  0  0  0
  145.7489  141.6970  154.4321 H   0  0  0  0  0  0  0  0  0  0  0  0
  146.6937  141.2969  152.9995 H   0  0  0  0  0  0  0  0  0  0  0  0
  146.7271  139.7953  155.6483 H   0  0  0  0  0  0  0  0  0  0  0  0
  147.9199  138.0310  154.0904 H   0  0  0  0  0  0  0  0  0  0  0  0
  148.2511  139.3766  153.0406 H   0  0  0  0  0  0  0  0  0  0  0  0
  150.2837  137.6825  154.3155 H   0  0  0  0  0  0  0  0  0  0  0  0
  150.6083  139.0719  153.3026 H   0  0  0  0  0  0  0  0  0  0  0  0
  151.6064  138.6656  156.1760 H   0  0  0  0  0  0  0  0  0  0  0  0
  152.5784  138.6037  154.7162 H   0  0  0  0  0  0  0  0  0  0  0  0
  150.6427  140.8651  156.8214 H   0  0  0  0  0  0  0  0  0  0  0  0
  150.9896  142.2367  155.7836 H   0  0  0  0  0  0  0  0  0  0  0  0
  149.6452  141.2747  153.9494 H   0  0  0  0  0  0  0  0  0  0  0  0
  148.6812  141.3813  155.4035 H   0  0  0  0  0  0  0  0  0  0  0  0
  145.2358  139.3491  153.1507 H   0  0  0  0  0  0  0  0  0  0  0  0
  143.1936  134.2164  150.9311 H   0  0  0  0  0  0  0  0  0  0  0  0
  145.6057  135.0297  150.0451 H   0  0  0  0  0  0  0  0  0  0  0  0
  1  2  1  0  0  0  0
  1 19  1  0  0  0  0
  1 20  1  0  0  0  0
  1 21  1  0  0  0  0
  2  3  1  0  0  0  0
  2 10  1  0  0  0  0
  2 22  1  0  0  0  0
  3  4  1  0  0  0  0
  3 23  1  0  0  0  0
  3 24  1  0  0  0  0
  4  9  1  0  0  0  0
  4  5  1  0  0  0  0
  5  6  1  0  0  0  0
  5 25  1  0  0  0  0
  5 26  1  0  0  0  0
  6  7  1  0  0  0  0
  6 27  1  0  0  0  0
  6 28  1  0  0  0  0
  7  8  1  0  0  0  0
  8  9  1  0  0  0  0
  8 29  1  0  0  0  0
  8 30  1  0  0  0  0
  9 31  1  0  0  0  0
  9 32  1  0  0  0  0
 10 11  1  0  0  0  0
 10 33  1  0  0  0  0
 11 12  2  0  0  0  0
 11 13  1  0  0  0  0
 13 14  1  0  0  0  0
 14 18  1  0  0  0  0
 14 15  2  0  0  0  0
 15 16  1  0  0  0  0
 16 17  2  0  0  0  0
 16 34  1  0  0  0  0
 17 18  1  0  0  0  0
 17 35  1  0  0  0  0
M  CHG  1  13  -1
M  END
> <s_m_source_file>
AV-unprocessed.smi

> <i_m_source_file_index>
2007

> <i_lp_mmshare_version>
43012

> <i_f3d_flags>
0

> <s_epik_input>
W0NIMl0xW0NIMl1PW0NIMl1bQ0gyXU4xW0NIMl1bQ0BASF0oW0NIM10pW05IXUMoPU8pW05IXWMybltjSF1bY0hdczI=

> <s_epik_cmdline>
J2VwaWtfcHl0aG9uJywgJy1waCcsICc3LjAnLCAnLXRuJywgJzgnLCAnLW1hJywgJzIwMCcsICctbWV0YWxfYmluZGluZycsICctaW1hZScsICc8aW5maWxlLm1hZT4nLCAnLW9tYWUnLCAnPG91dGZpbGUubWFlPic=

> <r_lp_tautomer_probability>
0.999

> <r_epik_Ionization_Penalty>
7.09127

> <r_epik_Ionization_Penalty_Charging>
5.74083

> <r_epik_Ionization_Penalty_Neutral>
1.35044

> <r_epik_State_Penalty>
5.95014

> <r_epik_Charging_Adjusted_Penalty>
11.691

> <i_epik_Tot_Q>
-1

> <i_epik_Tot_abs_Q>
1

> <r_epik_Metal_State_Penalty>
1.93831

> <b_epik_Metal_Only>
1

> <s_lp_Force_Field>
OPLS_2005

> <r_lp_Energy>
21.0216

> <b_lp_Chiralities_Consistent>
1

> <s_lp_Variant>
AV-unprocessed.smi:2007-5

> <Gold.Version>
5.8.1

> <Gold.Id.Protein>
6NUR|6NUR_protein|mol2

> <Gold.PLP.Fitness>
34.2604

> <Gold.PLP.PLP>
-26.6180

> <Gold.PLP.part.hbond>
-2.0000

> <Gold.PLP.part.metal>
0.0000

> <Gold.PLP.part.buried>
-3.3171

> <Gold.PLP.part.nonpolar>
-23.1912

> <Gold.PLP.part.repulsive>
0.4394

> <Gold.PLP.ligand.clash>
0.0000

> <Gold.PLP.ligand.torsion>
1.4774

> <Gold.PLP.Chemscore.Hbond>
1.5040

> <Gold.PLP.Chemscore.CHOScore>
2.0000

> <Gold.PLP.Chemscore.Metal>
0.0000

> <Gold.Chemscore.Hbonds>
donor molecule, donor type, donor heavy atom, donor atom, acceptor molecule, acceptor atom, score
      L1  H    10    33       P1 10175  0.76
      P1  H  7989  7998       L1     7  0.67
      L1  C    16    34       P1 10186  0.82
      L1  C    17    35       P1  7921  1.00

> <Gold.PLP.Chemscore.Internal.Correction>
0.0853

> <Gold.Rescore>
     Score         DG    S(hbond)    S(metal)    S(lipo)     H(rot)  DE(clash)    DE(int)     intcor
     10.70     -12.14       1.04        0.00      61.12       1.55       0.00       1.44       ----

> <Gold.Chemscore.Fitness>
10.6980

> <Gold.Chemscore.DG>
-12.1406

> <Gold.Chemscore.ZeroCoef>
-5.4800

> <Gold.Chemscore.Hbond>
1.0420

> <Gold.Chemscore.Metal>
0.0000

> <Gold.Chemscore.Lipo>
61.1188

> <Gold.Chemscore.Internal_Hbond>
0.0000

> <Gold.Chemscore.DEClash>
0.0015

> <Gold.Chemscore.DEInternal>
1.4411

> <Gold.Chemscore.Rot>
1.5510

> <Gold.Chemscore.Internal.Correction>
   9.000000E+99

> <Gold.Chemscore.Hbonds>
donor molecule, donor type, donor heavy atom, donor atom, acceptor molecule, acceptor atom, score
      L1  H    10    33       P1 10175  0.70
      P1  H  7989  7998       L1     7  0.04

> <Gold.Chemscore.Hbond.Weighted>
-3.4803

> <Gold.Chemscore.Metal.Weighted>
-0.0000

> <Gold.Chemscore.Lipo.Weighted>
-7.1509

> <Gold.Chemscore.Internal_Hbond.Weighted>
0.0000

> <Gold.Chemscore.DEClash.Weighted>
0.0015

> <Gold.Chemscore.DEInternal.Weighted>
1.4411

> <Gold.Chemscore.Rot.Weighted>
3.9706

> <Gold.Chemscore.Internal.Correction.Weighted>
   9.000000E+99

> <Gold.Protein.RotatedTorsions>
[ 6907 6896 6895 6894 ] final -165.70 input  -60.11 | X-H torsion
[ 7974 7965 7964 7962 ] final  -80.63 input  175.53 | X-H torsion
[ 8008 7997 7996 7995 ] final -173.23 input   59.86 | X-H torsion
[ 10167 10162 10161 10158 ] final   30.86 input  -65.29 | X-H torsion
[ 10718 10713 10712 10709 ] final  -59.34 input   66.30 | X-H torsion
[ 10763 10752 10751 10750 ] final  -33.83 input  -60.55 | X-H torsion
[ 11005 11000 10999 10996 ] final -155.19 input  -57.11 | X-H torsion

> <Gold.Protein.ActiveResidues>
 VAL166  LYS551  ARG553  GLY616  TRP617  ASP618  TYR619  PRO620  LYS621  CYS622 
 ASP623  PHE694  ASN695  SER759  ASP760  ASP761  ALA762  ILE779  LEU786  VAL792 
 PHE793  MET794  SER795  GLU796  ALA797  LYS798  CYS799  TRP800  GLU811  SER814 

> <Gold.Protein.RotatedAtoms>
  151.4318  133.3668  159.2769 H   0  0  0  0  0  0  0  0  0  0  0  0  # atno 6907 bound_to 6896
  150.9220  134.8638  159.7505 H   0  0  0  0  0  0  0  0  0  0  0  0  # atno 6908 bound_to 6896
  152.4986  134.4256  159.9547 H   0  0  0  0  0  0  0  0  0  0  0  0  # atno 6909 bound_to 6896
  145.5573  140.9487  143.1466 H   0  0  0  0  0  0  0  0  0  0  0  0  # atno 7974 bound_to 7965
  155.9548  140.1133  157.0946 H   0  0  0  0  0  0  0  0  0  0  0  0  # atno 8008 bound_to 7997
  154.4118  140.1193  156.5167 H   0  0  0  0  0  0  0  0  0  0  0  0  # atno 8009 bound_to 7997
  155.6796  140.3473  155.4852 H   0  0  0  0  0  0  0  0  0  0  0  0  # atno 8010 bound_to 7997
  140.4640  144.0864  150.6220 H   0  0  0  0  0  0  0  0  0  0  0  0  # atno 10167 bound_to 10162
  156.1069  130.4179  150.0701 H   0  0  0  0  0  0  0  0  0  0  0  0  # atno 10718 bound_to 10713
  153.8367  135.6861  153.4808 H   0  0  0  0  0  0  0  0  0  0  0  0  # atno 10763 bound_to 10752
  153.1478  135.4630  154.9590 H   0  0  0  0  0  0  0  0  0  0  0  0  # atno 10764 bound_to 10752
  154.7863  135.3286  154.7825 H   0  0  0  0  0  0  0  0  0  0  0  0  # atno 10765 bound_to 10752
  140.6892  134.4060  157.5220 H   0  0  0  0  0  0  0  0  0  0  0  0  # atno 11005 bound_to 11000
  144.7500  139.7219  143.7277 LP  0  0  0  0  0  0  0  0  0  0  0  0  # atno 17320 bound_to 7965
  146.1875  139.5098  142.9826 LP  0  0  0  0  0  0  0  0  0  0  0  0  # atno 17321 bound_to 7965
  140.4059  143.2680  151.9892 LP  0  0  0  0  0  0  0  0  0  0  0  0  # atno 17342 bound_to 10162
  139.4809  144.5957  151.7693 LP  0  0  0  0  0  0  0  0  0  0  0  0  # atno 17343 bound_to 10162
  156.8674  130.9512  151.3612 LP  0  0  0  0  0  0  0  0  0  0  0  0  # atno 17370 bound_to 10713
  157.6247  130.8682  149.9168 LP  0  0  0  0  0  0  0  0  0  0  0  0  # atno 17371 bound_to 10713
  139.8928  134.8745  156.2251 LP  0  0  0  0  0  0  0  0  0  0  0  0  # atno 17394 bound_to 11000
  141.0255  133.7017  156.1341 LP  0  0  0  0  0  0  0  0  0  0  0  0  # atno 17395 bound_to 11000

$$$$
