AV-unprocessed.smi:35|AV-procd|sdf|269|dock3
  -GOLD-   2262016 33D 1   1.00000     0.00000
 Structure written by MMmdl.
 28 29  0  0  0  0  0  0  0  0  2 V2000
  151.6681  137.0099  159.5546 O   0  0  0  0  0  0  0  0  0  0  0  0
  151.3885  137.5367  158.4793 C   0  0  0  0  0  0  0  0  0  0  0  0
  152.3293  138.0667  157.6464 N   0  5  0  0  0  0  0  0  0  0  0  0
  152.0157  138.6319  156.4436 C   0  0  0  0  0  0  0  0  0  0  0  0
  152.8566  139.1606  155.7169 O   0  0  0  0  0  0  0  0  0  0  0  0
  150.6599  138.6249  156.0067 N   0  0  0  0  0  0  0  0  0  0  0  0
  150.3014  139.2707  154.6764 C   0  0  2  0  0  0  0  0  0  0  0  0
  150.6284  140.6339  154.7160 O   0  0  0  0  0  0  0  0  0  0  0  0
  149.4660  141.4536  154.8376 C   0  0  2  0  0  0  0  0  0  0  0  0
  149.1027  141.6850  156.3233 C   0  0  0  0  0  0  0  0  0  0  0  0
  150.0032  142.6048  156.9031 O   0  0  0  0  0  0  0  0  0  0  0  0
  148.4410  140.6428  154.0375 C   0  0  2  0  0  0  0  0  0  0  0  0
  147.1010  140.9508  154.3685 O   0  0  0  0  0  0  0  0  0  0  0  0
  148.7868  139.1976  154.3703 C   0  0  1  0  0  0  0  0  0  0  0  0
  148.5141  138.3823  153.2485 O   0  0  0  0  0  0  0  0  0  0  0  0
  149.6779  138.1559  156.8672 C   0  0  0  0  0  0  0  0  0  0  0  0
  149.9926  137.6150  158.0611 C   0  0  0  0  0  0  0  0  0  0  0  0
  148.4831  136.9691  159.1702 Br  0  0  0  0  0  0  0  0  0  0  0  0
  150.9329  138.7620  153.9459 H   0  0  0  0  0  0  0  0  0  0  0  0
  149.6368  142.4163  154.3540 H   0  0  0  0  0  0  0  0  0  0  0  0
  148.1133  142.1333  156.4098 H   0  0  0  0  0  0  0  0  0  0  0  0
  149.0741  140.7603  156.8972 H   0  0  0  0  0  0  0  0  0  0  0  0
  149.6979  143.4799  156.7182 H   0  0  0  0  0  0  0  0  0  0  0  0
  148.6007  140.8345  152.9747 H   0  0  0  0  0  0  0  0  0  0  0  0
  147.1065  141.5141  155.1276 H   0  0  0  0  0  0  0  0  0  0  0  0
  148.2388  138.8575  155.2509 H   0  0  0  0  0  0  0  0  0  0  0  0
  148.5776  138.9222  152.4740 H   0  0  0  0  0  0  0  0  0  0  0  0
  148.6353  138.2148  156.5959 H   0  0  0  0  0  0  0  0  0  0  0  0
  1  2  2  0  0  0  0
  2 17  1  0  0  0  0
  2  3  1  0  0  0  0
  3  4  1  0  0  0  0
  4  5  2  0  0  0  0
  4  6  1  0  0  0  0
  6  7  1  0  0  0  0
  6 16  1  0  0  0  0
  7 14  1  0  0  0  0
  7  8  1  0  0  0  0
  7 19  1  0  0  0  0
  8  9  1  0  0  0  0
  9 10  1  0  0  0  0
  9 12  1  0  0  0  0
  9 20  1  0  0  0  0
 10 11  1  0  0  0  0
 10 21  1  0  0  0  0
 10 22  1  0  0  0  0
 11 23  1  0  0  0  0
 12 13  1  0  0  0  0
 12 14  1  0  0  0  0
 12 24  1  0  0  0  0
 13 25  1  0  0  0  0
 14 15  1  0  0  0  0
 14 26  1  0  0  0  0
 15 27  1  0  0  0  0
 16 17  2  0  0  0  0
 16 28  1  0  0  0  0
 17 18  1  0  0  0  0
M  CHG  1   3  -1
M  END
> <s_m_source_file>
AV-unprocessed.smi

> <i_m_source_file_index>
35

> <i_lp_mmshare_version>
43012

> <i_f3d_flags>
0

> <s_epik_input>
Tz1jMVtuSF1jKD1PKW4oW2NIXWMxQnIpW0NAQEhdMk9bQ0BASF0oW0NIMl1bT0hdKVtDQEBIXShbT0hdKVtDQEhdMltPSF0=

> <s_epik_cmdline>
J2VwaWtfcHl0aG9uJywgJy1waCcsICc3LjAnLCAnLXRuJywgJzgnLCAnLW1hJywgJzIwMCcsICctbWV0YWxfYmluZGluZycsICctaW1hZScsICc8aW5maWxlLm1hZT4nLCAnLW9tYWUnLCAnPG91dGZpbGUubWFlPic=

> <r_epik_Ionization_Penalty>
1.06112

> <r_epik_Ionization_Penalty_Charging>
2.1796e-09

> <r_epik_Ionization_Penalty_Neutral>
1.06112

> <r_epik_State_Penalty>
1.11484

> <r_epik_Charging_Adjusted_Penalty>
1.11484

> <i_epik_Tot_Q>
-1

> <i_epik_Tot_abs_Q>
1

> <r_epik_Metal_State_Penalty>
0.0032876

> <b_epik_Metal_Only>
0

> <s_epik_Chemistry_Notes>
This compound contains an acetal/aminal-like group ( X-CH(R)-Y where X, Y are N, S, or O) that may be acid/base labile, releasing an aldehyde.

> <s_lp_Force_Field>
OPLS_2005

> <r_lp_Energy>
39.1741

> <b_lp_Chiralities_Consistent>
1

> <s_lp_Variant>
AV-unprocessed.smi:35-23

> <Gold.Version>
5.8.1

> <Gold.Id.Protein>
6NUR|6NUR_protein|mol2

> <Gold.PLP.Fitness>
40.2167

> <Gold.PLP.PLP>
-25.5129

> <Gold.PLP.part.hbond>
-5.7245

> <Gold.PLP.part.metal>
0.0000

> <Gold.PLP.part.buried>
-3.0486

> <Gold.PLP.part.nonpolar>
-16.4705

> <Gold.PLP.part.repulsive>
0.1008

> <Gold.PLP.ligand.clash>
0.0000

> <Gold.PLP.ligand.torsion>
0.1188

> <Gold.PLP.Chemscore.Hbond>
4.9600

> <Gold.PLP.Chemscore.CHOScore>
0.0000

> <Gold.PLP.Chemscore.Metal>
0.0000

> <Gold.Chemscore.Hbonds>
donor molecule, donor type, donor heavy atom, donor atom, acceptor molecule, acceptor atom, score
      L1  H    11    23       P1  8028  1.00
      L1  H    15    27       P1  7957  1.00
      P1  H  6896  6909       L1     1  1.00
      P1  H  7989  7998       L1     8  0.96
      P1  H  7997  8009       L1     5  1.00

> <Gold.PLP.Chemscore.Internal.Correction>
0.0613

> <Gold.Rescore>
     Score         DG    S(hbond)    S(metal)    S(lipo)     H(rot)  DE(clash)    DE(int)     intcor
     13.48     -15.04       4.43        0.00      34.64       3.63       0.13       1.43       ----

> <Gold.Chemscore.Fitness>
13.4759

> <Gold.Chemscore.DG>
-15.0408

> <Gold.Chemscore.ZeroCoef>
-5.4800

> <Gold.Chemscore.Hbond>
4.4285

> <Gold.Chemscore.Metal>
0.0000

> <Gold.Chemscore.Lipo>
34.6372

> <Gold.Chemscore.Internal_Hbond>
0.0000

> <Gold.Chemscore.DEClash>
0.1310

> <Gold.Chemscore.DEInternal>
1.4340

> <Gold.Chemscore.Rot>
3.6261

> <Gold.Chemscore.Internal.Correction>
   9.000000E+99

> <Gold.Chemscore.Hbonds>
donor molecule, donor type, donor heavy atom, donor atom, acceptor molecule, acceptor atom, score
      L1  H    11    23       P1  8028  0.97
      L1  H    15    27       P1  7957  0.93
      P1  H  6896  6909       L1     1  0.99
      P1  H  7989  7998       L1     8  0.48
      P1  H  7997  8009       L1     5  0.98

> <Gold.Chemscore.Hbond.Weighted>
-14.7911

> <Gold.Chemscore.Metal.Weighted>
-0.0000

> <Gold.Chemscore.Lipo.Weighted>
-4.0526

> <Gold.Chemscore.Internal_Hbond.Weighted>
0.0000

> <Gold.Chemscore.DEClash.Weighted>
0.1310

> <Gold.Chemscore.DEInternal.Weighted>
1.4340

> <Gold.Chemscore.Rot.Weighted>
9.2828

> <Gold.Chemscore.Internal.Correction.Weighted>
   9.000000E+99

> <Gold.Protein.RotatedTorsions>
[ 6907 6896 6895 6894 ] final  127.72 input  -60.11 | X-H torsion
[ 7974 7965 7964 7962 ] final  -45.98 input  175.53 | X-H torsion
[ 8008 7997 7996 7995 ] final -137.18 input   59.86 | X-H torsion
[ 10167 10162 10161 10158 ] final -169.21 input  -65.29 | X-H torsion
[ 10718 10713 10712 10709 ] final   17.03 input   66.30 | X-H torsion
[ 10763 10752 10751 10750 ] final -145.37 input  -60.55 | X-H torsion
[ 11005 11000 10999 10996 ] final   16.63 input  -57.11 | X-H torsion

> <Gold.Protein.ActiveResidues>
 VAL166  LYS551  ARG553  GLY616  TRP617  ASP618  TYR619  PRO620  LYS621  CYS622 
 ASP623  PHE694  ASN695  SER759  ASP760  ASP761  ALA762  ILE779  LEU786  VAL792 
 PHE793  MET794  SER795  GLU796  ALA797  LYS798  CYS799  TRP800  GLU811  SER814 

> <Gold.Protein.RotatedAtoms>
  152.3786  133.6515  159.6142 H   0  0  0  0  0  0  0  0  0  0  0  0  # atno 6907 bound_to 6896
  150.7723  133.9152  159.3390 H   0  0  0  0  0  0  0  0  0  0  0  0  # atno 6908 bound_to 6896
  151.6961  135.0939  160.0294 H   0  0  0  0  0  0  0  0  0  0  0  0  # atno 6909 bound_to 6896
  145.9766  140.7328  142.9384 H   0  0  0  0  0  0  0  0  0  0  0  0  # atno 7974 bound_to 7965
  155.4075  140.0510  157.3033 H   0  0  0  0  0  0  0  0  0  0  0  0  # atno 8008 bound_to 7997
  154.4961  140.2139  155.9403 H   0  0  0  0  0  0  0  0  0  0  0  0  # atno 8009 bound_to 7997
  156.1408  140.3154  155.8497 H   0  0  0  0  0  0  0  0  0  0  0  0  # atno 8010 bound_to 7997
  139.5937  144.1158  152.1664 H   0  0  0  0  0  0  0  0  0  0  0  0  # atno 10167 bound_to 10162
  157.0763  130.6369  149.5816 H   0  0  0  0  0  0  0  0  0  0  0  0  # atno 10718 bound_to 10713
  154.8386  135.3415  154.6494 H   0  0  0  0  0  0  0  0  0  0  0  0  # atno 10763 bound_to 10752
  153.7106  135.6964  153.5043 H   0  0  0  0  0  0  0  0  0  0  0  0  # atno 10764 bound_to 10752
  153.2454  135.4371  155.0696 H   0  0  0  0  0  0  0  0  0  0  0  0  # atno 10765 bound_to 10752
  140.4450  134.1283  155.7695 H   0  0  0  0  0  0  0  0  0  0  0  0  # atno 11005 bound_to 11000
  144.6850  140.2837  143.7288 LP  0  0  0  0  0  0  0  0  0  0  0  0  # atno 17320 bound_to 7965
  145.7830  139.1898  143.2147 LP  0  0  0  0  0  0  0  0  0  0  0  0  # atno 17321 bound_to 7965
  140.0739  144.5757  150.7172 LP  0  0  0  0  0  0  0  0  0  0  0  0  # atno 17342 bound_to 10162
  140.7194  143.2574  151.4328 LP  0  0  0  0  0  0  0  0  0  0  0  0  # atno 17343 bound_to 10162
  155.9936  130.4998  150.7387 LP  0  0  0  0  0  0  0  0  0  0  0  0  # atno 17370 bound_to 10713
  157.4837  131.0905  151.0507 LP  0  0  0  0  0  0  0  0  0  0  0  0  # atno 17371 bound_to 10713
  141.1689  133.8648  157.1631 LP  0  0  0  0  0  0  0  0  0  0  0  0  # atno 17394 bound_to 11000
  140.0045  135.0014  157.0262 LP  0  0  0  0  0  0  0  0  0  0  0  0  # atno 17395 bound_to 11000

$$$$
