AV-unprocessed.smi:2191|AV-procd|sdf|8894|dock9
  -GOLD-   2272012103D 1   1.00000     0.00000
 Structure written by MMmdl.
 37 39  0  0  0  0  0  0  0  0  2 V2000
  153.3611  138.9528  156.1884 O   0  0  0  0  0  0  0  0  0  0  0  0
  152.2514  139.8127  156.3594 C   0  0  2  0  0  0  0  0  0  0  0  0
  151.8691  139.8238  157.8480 C   0  0  0  0  0  0  0  0  0  0  0  0
  151.1793  141.0332  158.1354 O   0  0  0  0  0  0  0  0  0  0  0  0
  151.6800  141.8516  159.1253 C   0  0  0  0  0  0  0  0  0  0  0  0
  151.1420  143.1525  159.2125 C   0  0  0  0  0  0  0  0  0  0  0  0
  151.5931  144.0555  160.1944 C   0  0  0  0  0  0  0  0  0  0  0  0
  152.5942  143.6645  161.1026 C   0  0  0  0  0  0  0  0  0  0  0  0
  153.1414  142.3703  161.0262 C   0  0  0  0  0  0  0  0  0  0  0  0
  152.6886  141.4666  160.0452 C   0  0  0  0  0  0  0  0  0  0  0  0
  151.0883  139.3280  155.4712 C   0  0  0  0  0  0  0  0  0  0  0  0
  150.1115  140.3885  155.1817 N   0  0  0  0  0  0  0  0  0  0  0  0
  150.1255  141.7004  155.5424 C   0  0  0  0  0  0  0  0  0  0  0  0
  149.0026  142.2793  155.0345 N   0  3  0  0  0  0  0  0  0  0  0  0
  148.2595  141.3240  154.3381 C   0  0  0  0  0  0  0  0  0  0  0  0
  147.0533  141.4316  153.6526 C   0  0  0  0  0  0  0  0  0  0  0  0
  146.5647  140.2575  153.0430 C   0  0  0  0  0  0  0  0  0  0  0  0
  147.2688  139.0389  153.1270 C   0  0  0  0  0  0  0  0  0  0  0  0
  148.4905  138.9412  153.8250 C   0  0  0  0  0  0  0  0  0  0  0  0
  148.9666  140.1060  154.4270 C   0  0  0  0  0  0  0  0  0  0  0  0
  153.4029  138.3701  156.9319 H   0  0  0  0  0  0  0  0  0  0  0  0
  152.5356  140.8186  156.0468 H   0  0  0  0  0  0  0  0  0  0  0  0
  151.1971  138.9891  158.0550 H   0  0  0  0  0  0  0  0  0  0  0  0
  152.7540  139.7024  158.4757 H   0  0  0  0  0  0  0  0  0  0  0  0
  150.3731  143.4611  158.5193 H   0  0  0  0  0  0  0  0  0  0  0  0
  151.1707  145.0480  160.2504 H   0  0  0  0  0  0  0  0  0  0  0  0
  152.9416  144.3557  161.8564 H   0  0  0  0  0  0  0  0  0  0  0  0
  153.9103  142.0687  161.7223 H   0  0  0  0  0  0  0  0  0  0  0  0
  153.1327  140.4834  160.0194 H   0  0  0  0  0  0  0  0  0  0  0  0
  151.4534  138.9028  154.5363 H   0  0  0  0  0  0  0  0  0  0  0  0
  150.5461  138.5281  155.9769 H   0  0  0  0  0  0  0  0  0  0  0  0
  150.8900  142.1934  156.1250 H   0  0  0  0  0  0  0  0  0  0  0  0
  146.5123  142.3642  153.5852 H   0  0  0  0  0  0  0  0  0  0  0  0
  145.6321  140.2924  152.4986 H   0  0  0  0  0  0  0  0  0  0  0  0
  146.8646  138.1606  152.6451 H   0  0  0  0  0  0  0  0  0  0  0  0
  149.0232  138.0033  153.8764 H   0  0  0  0  0  0  0  0  0  0  0  0
  148.7646  143.2555  155.1548 H   0  0  0  0  0  0  0  0  0  0  0  0
  1  2  1  0  0  0  0
  1 21  1  0  0  0  0
  2  3  1  0  0  0  0
  2 11  1  0  0  0  0
  2 22  1  0  0  0  0
  3  4  1  0  0  0  0
  3 23  1  0  0  0  0
  3 24  1  0  0  0  0
  4  5  1  0  0  0  0
  5 10  1  0  0  0  0
  5  6  2  0  0  0  0
  6  7  1  0  0  0  0
  6 25  1  0  0  0  0
  7  8  2  0  0  0  0
  7 26  1  0  0  0  0
  8  9  1  0  0  0  0
  8 27  1  0  0  0  0
  9 10  2  0  0  0  0
  9 28  1  0  0  0  0
 10 29  1  0  0  0  0
 11 12  1  0  0  0  0
 11 30  1  0  0  0  0
 11 31  1  0  0  0  0
 12 20  1  0  0  0  0
 12 13  1  0  0  0  0
 13 14  2  0  0  0  0
 13 32  1  0  0  0  0
 14 15  1  0  0  0  0
 14 37  1  0  0  0  0
 15 20  2  0  0  0  0
 15 16  1  0  0  0  0
 16 17  2  0  0  0  0
 16 33  1  0  0  0  0
 17 18  1  0  0  0  0
 17 34  1  0  0  0  0
 18 19  2  0  0  0  0
 18 35  1  0  0  0  0
 19 20  1  0  0  0  0
 19 36  1  0  0  0  0
M  CHG  1  14   1
M  END
> <s_m_source_file>
AV-unprocessed.smi

> <i_m_source_file_index>
2191

> <i_lp_mmshare_version>
43012

> <i_f3d_flags>
0

> <s_epik_input>
W2NIXTFbY0hdW2NIXVtjSF1jKGMxMiluKFtjSF1uMilbQ0gyXVtDQEhdKFtPSF0pW0NIMl1PYzNbY0hdW2NIXVtjSF1bY0hdW2NIXTM=

> <s_epik_cmdline>
J2VwaWtfcHl0aG9uJywgJy1waCcsICc3LjAnLCAnLXRuJywgJzgnLCAnLW1hJywgJzIwMCcsICctbWV0YWxfYmluZGluZycsICctaW1hZScsICc8aW5maWxlLm1hZT4nLCAnLW9tYWUnLCAnPG91dGZpbGUubWFlPic=

> <r_lp_tautomer_probability>
1

> <r_epik_Ionization_Penalty>
1.35015

> <r_epik_Ionization_Penalty_Charging>
1.35015

> <r_epik_Ionization_Penalty_Neutral>
2.3993e-06

> <r_epik_State_Penalty>
1.42814

> <r_epik_Charging_Adjusted_Penalty>
2.77829

> <i_epik_Tot_Q>
1

> <i_epik_Tot_abs_Q>
1

> <r_epik_Metal_State_Penalty>
5.46522

> <b_epik_Metal_Only>
0

> <s_lp_Force_Field>
OPLS_2005

> <r_lp_Energy>
21.7284

> <b_lp_Chiralities_Consistent>
1

> <s_lp_Variant>
AV-unprocessed.smi:2191-3

> <Gold.Version>
5.8.1

> <Gold.Id.Protein>
6NUR|6NUR_protein|mol2

> <Gold.PLP.Fitness>
48.9371

> <Gold.PLP.PLP>
-42.6770

> <Gold.PLP.part.hbond>
-1.7785

> <Gold.PLP.part.metal>
0.0000

> <Gold.PLP.part.buried>
-0.6825

> <Gold.PLP.part.nonpolar>
-39.5605

> <Gold.PLP.part.repulsive>
0.2164

> <Gold.PLP.ligand.clash>
0.0000

> <Gold.PLP.ligand.torsion>
0.9802

> <Gold.PLP.Chemscore.Hbond>
2.7200

> <Gold.PLP.Chemscore.CHOScore>
0.0000

> <Gold.PLP.Chemscore.Metal>
0.0000

> <Gold.Chemscore.Hbonds>
donor molecule, donor type, donor heavy atom, donor atom, acceptor molecule, acceptor atom, score
      L1  H    14    37       P1  8028  2.00
      P1  H  7997  8009       L1     1  0.62

> <Gold.PLP.Chemscore.Internal.Correction>
0.0604

> <Gold.Rescore>
     Score         DG    S(hbond)    S(metal)    S(lipo)     H(rot)  DE(clash)    DE(int)     intcor
     14.47     -17.41       1.11        0.00     120.69       2.31       0.80       2.14       ----

> <Gold.Chemscore.Fitness>
14.4675

> <Gold.Chemscore.DG>
-17.4082

> <Gold.Chemscore.ZeroCoef>
-5.4800

> <Gold.Chemscore.Hbond>
1.1105

> <Gold.Chemscore.Metal>
0.0000

> <Gold.Chemscore.Lipo>
120.6905

> <Gold.Chemscore.Internal_Hbond>
0.0000

> <Gold.Chemscore.DEClash>
0.7959

> <Gold.Chemscore.DEInternal>
2.1448

> <Gold.Chemscore.Rot>
2.3053

> <Gold.Chemscore.Internal.Correction>
   9.000000E+99

> <Gold.Chemscore.Hbonds>
donor molecule, donor type, donor heavy atom, donor atom, acceptor molecule, acceptor atom, score
      L1  H    14    37       P1  8028  0.93
      P1  H  7997  8009       L1     1  0.05

> <Gold.Chemscore.Hbond.Weighted>
-3.7089

> <Gold.Chemscore.Metal.Weighted>
-0.0000

> <Gold.Chemscore.Lipo.Weighted>
-14.1208

> <Gold.Chemscore.Internal_Hbond.Weighted>
0.0000

> <Gold.Chemscore.DEClash.Weighted>
0.7959

> <Gold.Chemscore.DEInternal.Weighted>
2.1448

> <Gold.Chemscore.Rot.Weighted>
5.9015

> <Gold.Chemscore.Internal.Correction.Weighted>
   9.000000E+99

> <Gold.Protein.RotatedTorsions>
[ 6907 6896 6895 6894 ] final  -55.32 input  -60.11 | X-H torsion
[ 7974 7965 7964 7962 ] final  -68.29 input  175.53 | X-H torsion
[ 8008 7997 7996 7995 ] final -150.81 input   59.86 | X-H torsion
[ 10167 10162 10161 10158 ] final   52.53 input  -65.29 | X-H torsion
[ 10718 10713 10712 10709 ] final   54.44 input   66.30 | X-H torsion
[ 10763 10752 10751 10750 ] final  121.69 input  -60.55 | X-H torsion
[ 11005 11000 10999 10996 ] final   -9.20 input  -57.11 | X-H torsion

> <Gold.Protein.ActiveResidues>
 VAL166  LYS551  ARG553  GLY616  TRP617  ASP618  TYR619  PRO620  LYS621  CYS622 
 ASP623  PHE694  ASN695  SER759  ASP760  ASP761  ALA762  ILE779  LEU786  VAL792 
 PHE793  MET794  SER795  GLU796  ALA797  LYS798  CYS799  TRP800  GLU811  SER814 

> <Gold.Protein.RotatedAtoms>
  150.8262  134.7493  159.6814 H   0  0  0  0  0  0  0  0  0  0  0  0  # atno 6907 bound_to 6896
  152.4372  134.5659  159.9917 H   0  0  0  0  0  0  0  0  0  0  0  0  # atno 6908 bound_to 6896
  151.5831  133.3338  159.3048 H   0  0  0  0  0  0  0  0  0  0  0  0  # atno 6909 bound_to 6896
  145.7183  140.9049  143.0644 H   0  0  0  0  0  0  0  0  0  0  0  0  # atno 7974 bound_to 7965
  155.6295  140.0690  157.2653 H   0  0  0  0  0  0  0  0  0  0  0  0  # atno 8008 bound_to 7997
  154.4209  140.1770  156.1505 H   0  0  0  0  0  0  0  0  0  0  0  0  # atno 8009 bound_to 7997
  155.9945  140.3342  155.6788 H   0  0  0  0  0  0  0  0  0  0  0  0  # atno 8010 bound_to 7997
  140.2503  144.3486  150.6350 H   0  0  0  0  0  0  0  0  0  0  0  0  # atno 10167 bound_to 10162
  157.5257  130.8595  149.8618 H   0  0  0  0  0  0  0  0  0  0  0  0  # atno 10718 bound_to 10713
  153.6181  135.3418  155.3001 H   0  0  0  0  0  0  0  0  0  0  0  0  # atno 10763 bound_to 10752
  154.8605  135.4266  154.2237 H   0  0  0  0  0  0  0  0  0  0  0  0  # atno 10764 bound_to 10752
  153.3104  135.7031  153.7194 H   0  0  0  0  0  0  0  0  0  0  0  0  # atno 10765 bound_to 10752
  140.7317  133.8744  155.8898 H   0  0  0  0  0  0  0  0  0  0  0  0  # atno 11005 bound_to 11000
  144.6923  139.9168  143.7466 LP  0  0  0  0  0  0  0  0  0  0  0  0  # atno 17320 bound_to 7965
  146.0649  139.3640  143.0558 LP  0  0  0  0  0  0  0  0  0  0  0  0  # atno 17321 bound_to 7965
  140.6045  143.2167  151.7007 LP  0  0  0  0  0  0  0  0  0  0  0  0  # atno 17342 bound_to 10162
  139.5048  144.3740  152.0442 LP  0  0  0  0  0  0  0  0  0  0  0  0  # atno 17343 bound_to 10162
  156.0385  130.3745  150.1497 LP  0  0  0  0  0  0  0  0  0  0  0  0  # atno 17370 bound_to 10713
  156.9684  130.9827  151.3464 LP  0  0  0  0  0  0  0  0  0  0  0  0  # atno 17371 bound_to 10713
  140.9915  134.1272  157.4403 LP  0  0  0  0  0  0  0  0  0  0  0  0  # atno 17394 bound_to 11000
  139.8825  135.0042  156.6233 LP  0  0  0  0  0  0  0  0  0  0  0  0  # atno 17395 bound_to 11000

$$$$
