AV-unprocessed.smi:3303|AV-procd|sdf|12683|dock9
  -GOLD-   2272019 23D 1   1.00000     0.00000
 Structure written by MMmdl.
 44 45  0  0  0  0  0  0  0  0  2 V2000
  149.0740  141.6924  154.5936 C   0  0  0  0  0  0  0  0  0  0  0  0
  149.9686  140.9207  155.5797 C   0  0  2  0  0  0  0  0  0  0  0  0
  149.8573  139.4025  155.3096 C   0  0  0  0  0  0  0  0  0  0  0  0
  150.6664  138.5918  156.2554 N   0  3  1  0  0  0  0  0  0  0  0  0
  152.1226  138.6544  155.9709 C   0  0  0  0  0  0  0  0  0  0  0  0
  150.2757  138.8552  157.6698 C   0  0  1  0  0  0  0  0  0  0  0  0
  151.0031  137.9429  158.6727 C   0  0  0  0  0  0  0  0  0  0  0  0
  150.4217  140.3489  158.0192 C   0  0  0  0  0  0  0  0  0  0  0  0
  149.6159  141.2380  157.0527 C   0  0  1  0  0  0  0  0  0  0  0  0
  149.9518  142.6259  157.3471 N   0  0  0  0  0  0  0  0  0  0  0  0
  151.3613  142.8937  157.1064 C   0  0  0  0  0  0  0  0  0  0  0  0
  151.8269  144.0462  158.0066 C   0  0  0  0  0  0  0  0  0  0  0  0
  152.2272  143.5685  159.3895 C   0  0  0  0  0  0  0  0  0  0  0  0
  151.9381  144.3448  160.5320 C   0  0  0  0  0  0  0  0  0  0  0  0
  152.3320  143.8559  161.7927 C   0  0  0  0  0  0  0  0  0  0  0  0
  152.9981  142.6173  161.8621 C   0  0  0  0  0  0  0  0  0  0  0  0
  153.2409  141.9190  160.6624 C   0  0  0  0  0  0  0  0  0  0  0  0
  152.8667  142.3784  159.4486 N   0  0  0  0  0  0  0  0  0  0  0  0
  148.0209  141.4520  154.7425 H   0  0  0  0  0  0  0  0  0  0  0  0
  149.3276  141.4492  153.5614 H   0  0  0  0  0  0  0  0  0  0  0  0
  149.1875  142.7707  154.7078 H   0  0  0  0  0  0  0  0  0  0  0  0
  150.9998  141.2248  155.3943 H   0  0  0  0  0  0  0  0  0  0  0  0
  148.8155  139.0908  155.3989 H   0  0  0  0  0  0  0  0  0  0  0  0
  150.1531  139.1738  154.2849 H   0  0  0  0  0  0  0  0  0  0  0  0
  152.5456  139.6310  156.2056 H   0  0  0  0  0  0  0  0  0  0  0  0
  152.3127  138.4541  154.9161 H   0  0  0  0  0  0  0  0  0  0  0  0
  152.6699  137.9010  156.5367 H   0  0  0  0  0  0  0  0  0  0  0  0
  149.2158  138.6054  157.7425 H   0  0  0  0  0  0  0  0  0  0  0  0
  150.5792  138.0541  159.6711 H   0  0  0  0  0  0  0  0  0  0  0  0
  152.0644  138.1802  158.7473 H   0  0  0  0  0  0  0  0  0  0  0  0
  150.9091  136.8932  158.3925 H   0  0  0  0  0  0  0  0  0  0  0  0
  150.0786  140.5198  159.0408 H   0  0  0  0  0  0  0  0  0  0  0  0
  151.4754  140.6313  158.0051 H   0  0  0  0  0  0  0  0  0  0  0  0
  148.5519  141.0501  157.2090 H   0  0  0  0  0  0  0  0  0  0  0  0
  149.3868  143.2459  156.7842 H   0  0  0  0  0  0  0  0  0  0  0  0
  151.9455  141.9965  157.3155 H   0  0  0  0  0  0  0  0  0  0  0  0
  151.5126  143.1498  156.0570 H   0  0  0  0  0  0  0  0  0  0  0  0
  152.6718  144.5622  157.5481 H   0  0  0  0  0  0  0  0  0  0  0  0
  151.0328  144.7879  158.1078 H   0  0  0  0  0  0  0  0  0  0  0  0
  151.4265  145.2924  160.4471 H   0  0  0  0  0  0  0  0  0  0  0  0
  152.1267  144.4207  162.6899 H   0  0  0  0  0  0  0  0  0  0  0  0
  153.3150  142.2122  162.8117 H   0  0  0  0  0  0  0  0  0  0  0  0
  153.7491  140.9662  160.6780 H   0  0  0  0  0  0  0  0  0  0  0  0
  150.4088  137.6319  156.0744 H   0  0  0  0  0  0  0  0  0  0  0  0
  1  2  1  0  0  0  0
  1 19  1  0  0  0  0
  1 20  1  0  0  0  0
  1 21  1  0  0  0  0
  2  9  1  0  0  0  0
  2  3  1  0  0  0  0
  2 22  1  0  0  0  0
  3  4  1  0  0  0  0
  3 23  1  0  0  0  0
  3 24  1  0  0  0  0
  4  5  1  0  0  0  0
  4  6  1  0  0  0  0
  4 44  1  0  0  0  0
  5 25  1  0  0  0  0
  5 26  1  0  0  0  0
  5 27  1  0  0  0  0
  6  7  1  0  0  0  0
  6  8  1  0  0  0  0
  6 28  1  0  0  0  0
  7 29  1  0  0  0  0
  7 30  1  0  0  0  0
  7 31  1  0  0  0  0
  8  9  1  0  0  0  0
  8 32  1  0  0  0  0
  8 33  1  0  0  0  0
  9 10  1  0  0  0  0
  9 34  1  0  0  0  0
 10 11  1  0  0  0  0
 10 35  1  0  0  0  0
 11 12  1  0  0  0  0
 11 36  1  0  0  0  0
 11 37  1  0  0  0  0
 12 13  1  0  0  0  0
 12 38  1  0  0  0  0
 12 39  1  0  0  0  0
 13 18  1  0  0  0  0
 13 14  2  0  0  0  0
 14 15  1  0  0  0  0
 14 40  1  0  0  0  0
 15 16  2  0  0  0  0
 15 41  1  0  0  0  0
 16 17  1  0  0  0  0
 16 42  1  0  0  0  0
 17 18  2  0  0  0  0
 17 43  1  0  0  0  0
M  CHG  1   4   1
M  END
> <s_m_source_file>
AV-unprocessed.smi

> <i_m_source_file_index>
3303

> <i_lp_mmshare_version>
43012

> <i_f3d_flags>
0

> <s_epik_input>
W0NIM11bQ0BASF0xW0NIMl1OKFtDSDNdKVtDQEBIXShbQ0gzXSlbQ0gyXVtDQEhdMVtOSF1bQ0gyXVtDSDJdYzJbY0hdW2NIXVtjSF1bY0hdbjI=

> <s_epik_cmdline>
J2VwaWtfcHl0aG9uJywgJy1waCcsICc3LjAnLCAnLXRuJywgJzgnLCAnLW1hJywgJzIwMCcsICctbWV0YWxfYmluZGluZycsICctaW1hZScsICc8aW5maWxlLm1hZT4nLCAnLW9tYWUnLCAnPG91dGZpbGUubWFlPic=

> <r_epik_Ionization_Penalty>
2.31085

> <r_epik_Ionization_Penalty_Charging>
0.000313057

> <r_epik_Ionization_Penalty_Neutral>
2.31054

> <r_epik_State_Penalty>
2.4087

> <r_epik_Charging_Adjusted_Penalty>
2.40902

> <i_epik_Tot_Q>
1

> <i_epik_Tot_abs_Q>
1

> <r_epik_Metal_State_Penalty>
2.30979

> <b_epik_Metal_Only>
0

> <s_lp_Force_Field>
OPLS_2005

> <r_lp_Energy>
25.8109

> <b_lp_Chiralities_Consistent>
1

> <s_lp_Variant>
AV-unprocessed.smi:3303-27

> <Gold.Version>
5.8.1

> <Gold.Id.Protein>
6NUR|6NUR_protein|mol2

> <Gold.PLP.Fitness>
44.5140

> <Gold.PLP.PLP>
-42.7407

> <Gold.PLP.part.hbond>
-1.0000

> <Gold.PLP.part.metal>
0.0000

> <Gold.PLP.part.buried>
-4.8595

> <Gold.PLP.part.nonpolar>
-37.2740

> <Gold.PLP.part.repulsive>
0.0325

> <Gold.PLP.ligand.clash>
0.0000

> <Gold.PLP.ligand.torsion>
0.6190

> <Gold.PLP.Chemscore.Hbond>
1.0000

> <Gold.PLP.Chemscore.CHOScore>
0.0000

> <Gold.PLP.Chemscore.Metal>
0.0000

> <Gold.Chemscore.Hbonds>
donor molecule, donor type, donor heavy atom, donor atom, acceptor molecule, acceptor atom, score
      L1  H    10    35       P1  8028  1.00

> <Gold.PLP.Chemscore.Internal.Correction>
0.0114

> <Gold.Rescore>
     Score         DG    S(hbond)    S(metal)    S(lipo)     H(rot)  DE(clash)    DE(int)     intcor
     19.56     -20.36       0.98        0.00     128.13       1.33       0.19       0.60       ----

> <Gold.Chemscore.Fitness>
19.5641

> <Gold.Chemscore.DG>
-20.3630

> <Gold.Chemscore.ZeroCoef>
-5.4800

> <Gold.Chemscore.Hbond>
0.9847

> <Gold.Chemscore.Metal>
0.0000

> <Gold.Chemscore.Lipo>
128.1338

> <Gold.Chemscore.Internal_Hbond>
0.0000

> <Gold.Chemscore.DEClash>
0.1947

> <Gold.Chemscore.DEInternal>
0.6042

> <Gold.Chemscore.Rot>
1.3272

> <Gold.Chemscore.Internal.Correction>
   9.000000E+99

> <Gold.Chemscore.Hbonds>
donor molecule, donor type, donor heavy atom, donor atom, acceptor molecule, acceptor atom, score
      L1  H    10    35       P1  8028  0.98

> <Gold.Chemscore.Hbond.Weighted>
-3.2890

> <Gold.Chemscore.Metal.Weighted>
-0.0000

> <Gold.Chemscore.Lipo.Weighted>
-14.9917

> <Gold.Chemscore.Internal_Hbond.Weighted>
0.0000

> <Gold.Chemscore.DEClash.Weighted>
0.1947

> <Gold.Chemscore.DEInternal.Weighted>
0.6042

> <Gold.Chemscore.Rot.Weighted>
3.3976

> <Gold.Chemscore.Internal.Correction.Weighted>
   9.000000E+99

> <Gold.Protein.RotatedTorsions>
[ 6907 6896 6895 6894 ] final -133.80 input  -60.11 | X-H torsion
[ 7974 7965 7964 7962 ] final   -3.84 input  175.53 | X-H torsion
[ 8008 7997 7996 7995 ] final -156.74 input   59.86 | X-H torsion
[ 10167 10162 10161 10158 ] final -127.71 input  -65.29 | X-H torsion
[ 10718 10713 10712 10709 ] final   62.30 input   66.30 | X-H torsion
[ 10763 10752 10751 10750 ] final -154.65 input  -60.55 | X-H torsion
[ 11005 11000 10999 10996 ] final -147.60 input  -57.11 | X-H torsion

> <Gold.Protein.ActiveResidues>
 VAL166  LYS551  ARG553  GLY616  TRP617  ASP618  TYR619  PRO620  LYS621  CYS622 
 ASP623  PHE694  ASN695  SER759  ASP760  ASP761  ALA762  ILE779  LEU786  VAL792 
 PHE793  MET794  SER795  GLU796  ALA797  LYS798  CYS799  TRP800  GLU811  SER814 

> <Gold.Protein.RotatedAtoms>
  150.9783  133.6271  159.2726 H   0  0  0  0  0  0  0  0  0  0  0  0  # atno 6907 bound_to 6896
  151.3535  135.0888  159.9420 H   0  0  0  0  0  0  0  0  0  0  0  0  # atno 6908 bound_to 6896
  152.5207  133.9371  159.7663 H   0  0  0  0  0  0  0  0  0  0  0  0  # atno 6909 bound_to 6896
  146.2383  140.1781  142.8332 H   0  0  0  0  0  0  0  0  0  0  0  0  # atno 7974 bound_to 7965
  155.7218  140.0791  157.2327 H   0  0  0  0  0  0  0  0  0  0  0  0  # atno 8008 bound_to 7997
  154.4044  140.1611  156.2465 H   0  0  0  0  0  0  0  0  0  0  0  0  # atno 8009 bound_to 7997
  155.9189  140.3399  155.6160 H   0  0  0  0  0  0  0  0  0  0  0  0  # atno 8010 bound_to 7997
  139.9580  143.5981  152.2454 H   0  0  0  0  0  0  0  0  0  0  0  0  # atno 10167 bound_to 10162
  157.5891  130.9042  149.9570 H   0  0  0  0  0  0  0  0  0  0  0  0  # atno 10718 bound_to 10713
  154.7843  135.3185  154.7920 H   0  0  0  0  0  0  0  0  0  0  0  0  # atno 10763 bound_to 10752
  153.8624  135.6852  153.4786 H   0  0  0  0  0  0  0  0  0  0  0  0  # atno 10764 bound_to 10752
  153.1490  135.4707  154.9547 H   0  0  0  0  0  0  0  0  0  0  0  0  # atno 10765 bound_to 10752
  140.7700  134.3200  157.5077 H   0  0  0  0  0  0  0  0  0  0  0  0  # atno 11005 bound_to 11000
  144.9957  140.8587  143.5312 LP  0  0  0  0  0  0  0  0  0  0  0  0  # atno 17320 bound_to 7965
  145.1793  139.2360  143.5301 LP  0  0  0  0  0  0  0  0  0  0  0  0  # atno 17321 bound_to 7965
  139.6576  144.7662  151.2025 LP  0  0  0  0  0  0  0  0  0  0  0  0  # atno 17342 bound_to 10162
  140.7562  143.6061  150.8651 LP  0  0  0  0  0  0  0  0  0  0  0  0  # atno 17343 bound_to 10162
  156.0943  130.3660  150.0336 LP  0  0  0  0  0  0  0  0  0  0  0  0  # atno 17370 bound_to 10713
  156.8462  130.9443  151.3628 LP  0  0  0  0  0  0  0  0  0  0  0  0  # atno 17371 bound_to 10713
  139.8757  134.9255  156.3375 LP  0  0  0  0  0  0  0  0  0  0  0  0  # atno 17394 bound_to 11000
  140.9583  133.7405  156.0366 LP  0  0  0  0  0  0  0  0  0  0  0  0  # atno 17395 bound_to 11000

$$$$
