#       Name:                AV-unprocessed.smi:153
#       Creating user name   scv26
#       Creation time:       Thu Mar 26 18:48:59 2020


#       File generated by GOLD software.
#

@<TRIPOS>MOLECULE
AV-unprocessed.smi:153
    71    74     1
SMALL
NO_CHARGES


@<TRIPOS>ATOM
      1 ****        -2.6871  -4.2697   3.6014 C.3            1 S1                 0.0000
      2 ****        -3.8029  -3.2905   3.9847 C.3            1 S1                 0.0000
      3 ****        -4.9877  -4.0338   4.2416 O.3            1 S1                 0.0000
      4 ****        -6.0767  -3.1346   4.1716 C.3            1 S1                 0.0000
      5 ****        -5.7442  -2.3384   2.9191 C.3            1 S1                 0.0000
      6 ****        -4.2198  -2.1923   2.9590 C.3            1 S1                 0.0000
      7 ****        -3.9354  -0.9329   3.5414 O.3            1 S1                 0.0000
      8 ****        -3.6389  -2.2565   1.5143 C.3            1 S1                 0.0000
      9 ****        -2.2494  -1.8401   1.3585 N.pl3          1 S1                 0.0000
     10 ****        -1.1627  -2.6561   1.1464 C.2            1 S1                 0.0000
     11 ****        -0.0211  -2.0408   1.0154 N.2            1 S1                 0.0000
     12 ****        -0.3373  -0.6890   1.1040 C.ar           1 S1                 0.0000
     13 ****         0.4109   0.5280   1.0233 C.ar           1 S1                 0.0000
     14 ****         1.7617   0.6144   0.8457 N.pl3          1 S1                 0.0000
     15 ****         2.5821  -0.5908   0.8822 C.3            1 S1                 0.0000
     16 ****         2.3478   1.8240   0.2620 C.3            1 S1                 0.0000
     17 ****         2.2992   1.8187  -1.2798 C.3            1 S1                 0.0000
     18 ****         1.0623   2.3683  -1.6894 O.3            1 S1                 0.0000
     19 ****         3.4164   2.6926  -1.8845 C.3            1 S1                 0.0000
     20 ****         3.4284   2.6629  -3.3698 N.4            1 S1                 1.0000
     21 ****         4.1122   3.8411  -3.9542 C.3            1 S1                 0.0000
     22 ****         4.0416   3.7979  -5.4899 C.3            1 S1                 0.0000
     23 ****         4.6144   2.5841  -5.9601 O.3            1 S1                 0.0000
     24 ****         3.9137   1.4447  -5.4775 C.3            1 S1                 0.0000
     25 ****         3.9803   1.4090  -3.9411 C.3            1 S1                 0.0000
     26 ****        -0.2956   1.6854   1.1303 N.ar           1 S1                 0.0000
     27 ****        -1.6195   1.6712   1.2991 C.ar           1 S1                 0.0000
     28 ****        -2.4343   0.6216   1.3916 N.ar           1 S1                 0.0000
     29 ****        -1.7442  -0.5504   1.2977 C.ar           1 S1                 0.0000
     30 ****        -1.7296  -3.7582   3.5196 H              1 S1                 0.0000
     31 ****        -2.8982  -4.7833   2.6638 H              1 S1                 0.0000
     32 ****        -2.5717  -5.0336   4.3705 H              1 S1                 0.0000
     33 ****        -3.5250  -2.8258   4.9334 H              1 S1                 0.0000
     34 ****        -7.0304  -3.6577   4.1001 H              1 S1                 0.0000
     35 ****        -6.0924  -2.4959   5.0563 H              1 S1                 0.0000
     36 ****        -6.0434  -2.9272   2.0507 H              1 S1                 0.0000
     37 ****        -6.2796  -1.3892   2.8655 H              1 S1                 0.0000
     38 ****        -4.2178  -0.2550   2.9464 H              1 S1                 0.0000
     39 ****        -3.7530  -3.2592   1.1015 H              1 S1                 0.0000
     40 ****        -4.2309  -1.6088   0.8659 H              1 S1                 0.0000
     41 ****        -1.2387  -3.7321   1.0929 H              1 S1                 0.0000
     42 ****         2.4055  -1.1513   1.8007 H              1 S1                 0.0000
     43 ****         3.6435  -0.3441   0.8514 H              1 S1                 0.0000
     44 ****         2.3655  -1.2326   0.0277 H              1 S1                 0.0000
     45 ****         1.9162   2.7383   0.6716 H              1 S1                 0.0000
     46 ****         3.3904   1.8471   0.5806 H              1 S1                 0.0000
     47 ****         2.3796   0.7955  -1.6452 H              1 S1                 0.0000
     48 ****         0.3656   1.8891  -1.2655 H              1 S1                 0.0000
     49 ****         3.2782   3.7193  -1.5405 H              1 S1                 0.0000
     50 ****         4.3932   2.3773  -1.5143 H              1 S1                 0.0000
     51 ****         3.6449   4.7585  -3.5937 H              1 S1                 0.0000
     52 ****         5.1532   3.8598  -3.6270 H              1 S1                 0.0000
     53 ****         3.0104   3.8863  -5.8359 H              1 S1                 0.0000
     54 ****         4.5930   4.6369  -5.9148 H              1 S1                 0.0000
     55 ****         2.8786   1.4649  -5.8230 H              1 S1                 0.0000
     56 ****         4.3703   0.5467  -5.8940 H              1 S1                 0.0000
     57 ****         5.0145   1.2818  -3.6171 H              1 S1                 0.0000
     58 ****         3.4244   0.5443  -3.5814 H              1 S1                 0.0000
     59 ****        -2.0929   2.6392   1.3726 H              1 S1                 0.0000
     60 ****         2.4626   2.7228  -3.6609 H              1 S1                 0.0000
     61 ****        -4.9423  -4.4449   5.1520 LP             1 S1                 0.0000
     62 ****        -5.0946  -4.7537   3.5558 LP             1 S1                 0.0000
     63 ****        -2.9520  -0.8509   3.7033 LP             1 S1                 0.0000
     64 ****        -4.4245  -0.8448   4.4091 LP             1 S1                 0.0000
     65 ****         0.8815  -2.4497   0.8810 LP             1 S1                 0.0000
     66 ****         0.9704   2.2895  -2.6821 LP             1 S1                 0.0000
     67 ****         1.0177   3.3319  -1.4260 LP             1 S1                 0.0000
     68 ****         5.5643   2.5341  -5.6515 LP             1 S1                 0.0000
     69 ****         4.5881   2.5802  -6.9598 LP             1 S1                 0.0000
     70 ****         0.1847   2.5611   1.0817 LP             1 S1                 0.0000
     71 ****        -3.4247   0.6851   1.5141 LP             1 S1                 0.0000
@<TRIPOS>BOND
    1    1    2 1     
    2    1   30 1     
    3    1   31 1     
    4    1   32 1     
    5    2    6 1     
    6    2    3 1     
    7    2   33 1     
    8    3    4 1     
    9    4    5 1     
   10    4   34 1     
   11    4   35 1     
   12    5    6 1     
   13    5   36 1     
   14    5   37 1     
   15    6    7 1     
   16    6    8 1     
   17    7   38 1     
   18    8    9 1     
   19    8   39 1     
   20    8   40 1     
   21    9   29 1     
   22    9   10 1     
   23   10   11 2     
   24   10   41 1     
   25   11   12 1     
   26   12   29 ar    
   27   12   13 ar    
   28   13   14 1     
   29   13   26 ar    
   30   14   15 1     
   31   14   16 1     
   32   15   42 1     
   33   15   43 1     
   34   15   44 1     
   35   16   17 1     
   36   16   45 1     
   37   16   46 1     
   38   17   18 1     
   39   17   19 1     
   40   17   47 1     
   41   18   48 1     
   42   19   20 1     
   43   19   49 1     
   44   19   50 1     
   45   20   25 1     
   46   20   21 1     
   47   20   60 1     
   48   21   22 1     
   49   21   51 1     
   50   21   52 1     
   51   22   23 1     
   52   22   53 1     
   53   22   54 1     
   54   23   24 1     
   55   24   25 1     
   56   24   55 1     
   57   24   56 1     
   58   25   57 1     
   59   25   58 1     
   60   26   27 ar    
   61   27   28 ar    
   62   27   59 1     
   63   28   29 ar    
   64    3   61 1     
   65    3   62 1     
   66    7   63 1     
   67    7   64 1     
   68   11   65 1     
   69   18   66 1     
   70   18   67 1     
   71   23   68 1     
   72   23   69 1     
   73   26   70 1     
   74   28   71 1     
@<TRIPOS>SUBSTRUCTURE
      1 S1             1
@<TRIPOS>SET
LONE_PAIRS      STATIC     ATOMS    <user>   **** ""
11 61 62 63 64 65 66 67 68 69 70 71
DONOR_HYDROGENS      STATIC     ATOMS    <user>   **** ""
3 38 48 60
ATOM$BLUE        STATIC     ATOMS    COLORGROUP SYSTEM
11 61 62 63 64 65 66 67 68 69 70 71
ATOM$RED        STATIC     ATOMS    COLORGROUP SYSTEM
3 38 48 60
