AV-unprocessed.smi:454|AV-procd|sdf|2612|dock7
  -GOLD-   2262023 13D 1   1.00000     0.00000
 Structure written by MMmdl.
 43 44  0  0  0  0  0  0  0  0  1 V2000
  150.1795  130.0156  154.5318 C   0  0  0  0  0  0  0  0  0  0  0  0
  150.0730  131.1799  155.3319 O   0  0  0  0  0  0  0  0  0  0  0  0
  151.3171  131.5724  155.8881 C   0  0  0  0  0  0  0  0  0  0  0  0
  151.1549  132.9337  156.5719 C   0  0  0  0  0  0  0  0  0  0  0  0
  150.2470  133.7985  155.8318 N   0  0  0  0  0  0  0  0  0  0  0  0
  150.4945  135.1741  155.7326 C   0  0  0  0  0  0  0  0  0  0  0  0
  149.6153  135.9636  154.9600 C   0  0  0  0  0  0  0  0  0  0  0  0
  149.8607  137.3462  154.8499 C   0  0  0  0  0  0  0  0  0  0  0  0
  150.9828  137.8797  155.5115 C   0  0  0  0  0  0  0  0  0  0  0  0
  151.3540  139.6250  155.4064 S   0  0  0  0  0  0  0  0  0  0  0  0
  152.8166  139.7858  155.3889 O   0  0  0  0  0  0  0  0  0  0  0  0
  150.5388  140.2064  154.3284 O   0  0  0  0  0  0  0  0  0  0  0  0
  150.7660  140.2541  156.9182 N   0  0  0  0  0  0  0  0  0  0  0  0
  150.1951  141.6123  156.9658 C   0  0  0  0  0  0  0  0  0  0  0  0
  151.2112  142.6331  157.5136 C   0  0  0  0  0  0  0  0  0  0  0  0
  151.7101  142.2100  158.8192 N   0  0  0  0  0  0  0  0  0  0  0  0
  152.6474  143.2035  159.3234 C   0  0  0  0  0  0  0  0  0  0  0  0
  152.3933  140.9262  158.6827 C   0  0  0  0  0  0  0  0  0  0  0  0
  151.4186  139.8456  158.1753 C   0  0  0  0  0  0  0  0  0  0  0  0
  151.8003  137.0204  156.2710 C   0  0  0  0  0  0  0  0  0  0  0  0
  151.5681  135.6944  156.3761 N   0  0  0  0  0  0  0  0  0  0  0  0
  149.2009  129.7593  154.1261 H   0  0  0  0  0  0  0  0  0  0  0  0
  150.5342  129.1659  155.1169 H   0  0  0  0  0  0  0  0  0  0  0  0
  150.8604  130.1732  153.6944 H   0  0  0  0  0  0  0  0  0  0  0  0
  151.6320  130.8325  156.6257 H   0  0  0  0  0  0  0  0  0  0  0  0
  152.0909  131.6169  155.1197 H   0  0  0  0  0  0  0  0  0  0  0  0
  150.7950  132.8011  157.5929 H   0  0  0  0  0  0  0  0  0  0  0  0
  152.1271  133.4239  156.6330 H   0  0  0  0  0  0  0  0  0  0  0  0
  149.3497  133.4301  155.5509 H   0  0  0  0  0  0  0  0  0  0  0  0
  148.7673  135.5209  154.4583 H   0  0  0  0  0  0  0  0  0  0  0  0
  149.2084  137.9745  154.2616 H   0  0  0  0  0  0  0  0  0  0  0  0
  149.8483  141.9146  155.9780 H   0  0  0  0  0  0  0  0  0  0  0  0
  149.3143  141.5933  157.6088 H   0  0  0  0  0  0  0  0  0  0  0  0
  152.0420  142.7581  156.8194 H   0  0  0  0  0  0  0  0  0  0  0  0
  150.7299  143.6074  157.6077 H   0  0  0  0  0  0  0  0  0  0  0  0
  153.0259  142.9094  160.3031 H   0  0  0  0  0  0  0  0  0  0  0  0
  152.1570  144.1711  159.4344 H   0  0  0  0  0  0  0  0  0  0  0  0
  153.4981  143.3269  158.6513 H   0  0  0  0  0  0  0  0  0  0  0  0
  153.2423  141.0263  158.0067 H   0  0  0  0  0  0  0  0  0  0  0  0
  152.7952  140.6242  159.6505 H   0  0  0  0  0  0  0  0  0  0  0  0
  150.6453  139.6711  158.9241 H   0  0  0  0  0  0  0  0  0  0  0  0
  151.9390  138.8976  158.0436 H   0  0  0  0  0  0  0  0  0  0  0  0
  152.6677  137.3960  156.7933 H   0  0  0  0  0  0  0  0  0  0  0  0
  1  2  1  0  0  0  0
  1 22  1  0  0  0  0
  1 23  1  0  0  0  0
  1 24  1  0  0  0  0
  2  3  1  0  0  0  0
  3  4  1  0  0  0  0
  3 25  1  0  0  0  0
  3 26  1  0  0  0  0
  4  5  1  0  0  0  0
  4 27  1  0  0  0  0
  4 28  1  0  0  0  0
  5  6  1  0  0  0  0
  5 29  1  0  0  0  0
  6 21  1  0  0  0  0
  6  7  2  0  0  0  0
  7  8  1  0  0  0  0
  7 30  1  0  0  0  0
  8  9  2  0  0  0  0
  8 31  1  0  0  0  0
  9 10  1  0  0  0  0
  9 20  1  0  0  0  0
 10 11  2  0  0  0  0
 10 12  2  0  0  0  0
 10 13  1  0  0  0  0
 13 19  1  0  0  0  0
 13 14  1  0  0  0  0
 14 15  1  0  0  0  0
 14 32  1  0  0  0  0
 14 33  1  0  0  0  0
 15 16  1  0  0  0  0
 15 34  1  0  0  0  0
 15 35  1  0  0  0  0
 16 17  1  0  0  0  0
 16 18  1  0  0  0  0
 17 36  1  0  0  0  0
 17 37  1  0  0  0  0
 17 38  1  0  0  0  0
 18 19  1  0  0  0  0
 18 39  1  0  0  0  0
 18 40  1  0  0  0  0
 19 41  1  0  0  0  0
 19 42  1  0  0  0  0
 20 21  2  0  0  0  0
 20 43  1  0  0  0  0
M  END
> <s_m_source_file>
AV-unprocessed.smi

> <i_m_source_file_index>
454

> <i_lp_mmshare_version>
43012

> <i_f3d_flags>
0

> <s_epik_input>
W0NIM11PW0NIMl1bQ0gyXVtOSF1jMVtjSF1bY0hdYyhbY0hdbjEpUyg9TykoPU8pTjJbQ0gyXVtDSDJdTihbQ0gzXSlbQ0gyXVtDSDJdMg==

> <s_epik_cmdline>
J2VwaWtfcHl0aG9uJywgJy1waCcsICc3LjAnLCAnLXRuJywgJzgnLCAnLW1hJywgJzIwMCcsICctbWV0YWxfYmluZGluZycsICctaW1hZScsICc8aW5maWxlLm1hZT4nLCAnLW9tYWUnLCAnPG91dGZpbGUubWFlPic=

> <r_lp_tautomer_probability>
1

> <r_epik_Ionization_Penalty>
0.0786276

> <r_epik_Ionization_Penalty_Charging>
0

> <r_epik_Ionization_Penalty_Neutral>
0.0786276

> <r_epik_State_Penalty>
0.0691961

> <r_epik_Charging_Adjusted_Penalty>
0.0691961

> <i_epik_Tot_Q>
0

> <i_epik_Tot_abs_Q>
0

> <r_epik_Metal_State_Penalty>
0.0691754

> <b_epik_Metal_Only>
0

> <s_lp_Force_Field>
OPLS_2005

> <r_lp_Energy>
0.101834

> <b_lp_Chiralities_Consistent>
1

> <s_lp_Variant>
AV-unprocessed.smi:454-1

> <Gold.Version>
5.8.1

> <Gold.Id.Protein>
6NUR|6NUR_protein|mol2

> <Gold.PLP.Fitness>
39.5122

> <Gold.PLP.PLP>
-33.1892

> <Gold.PLP.part.hbond>
-4.0000

> <Gold.PLP.part.metal>
0.0000

> <Gold.PLP.part.buried>
-3.7211

> <Gold.PLP.part.nonpolar>
-25.7359

> <Gold.PLP.part.repulsive>
0.2207

> <Gold.PLP.ligand.clash>
0.0000

> <Gold.PLP.ligand.torsion>
2.4175

> <Gold.PLP.Chemscore.Hbond>
2.3500

> <Gold.PLP.Chemscore.CHOScore>
0.0000

> <Gold.PLP.Chemscore.Metal>
0.0000

> <Gold.Chemscore.Hbonds>
donor molecule, donor type, donor heavy atom, donor atom, acceptor molecule, acceptor atom, score
      P1  H  7989  7998       L1    12  0.98
      P1  H  7997  8008       L1    11  1.00
      P1  H 10752 10764       L1    21  0.25

> <Gold.PLP.Chemscore.Internal.Correction>
4.1080

> <Gold.Rescore>
     Score         DG    S(hbond)    S(metal)    S(lipo)     H(rot)  DE(clash)    DE(int)     intcor
     14.31     -16.70       1.89        0.00      72.58       1.40       0.02       2.37       ----

> <Gold.Chemscore.Fitness>
14.3072

> <Gold.Chemscore.DG>
-16.6985

> <Gold.Chemscore.ZeroCoef>
-5.4800

> <Gold.Chemscore.Hbond>
1.8872

> <Gold.Chemscore.Metal>
0.0000

> <Gold.Chemscore.Lipo>
72.5772

> <Gold.Chemscore.Internal_Hbond>
0.0000

> <Gold.Chemscore.DEClash>
0.0234

> <Gold.Chemscore.DEInternal>
2.3678

> <Gold.Chemscore.Rot>
1.3970

> <Gold.Chemscore.Internal.Correction>
   9.000000E+99

> <Gold.Chemscore.Hbonds>
donor molecule, donor type, donor heavy atom, donor atom, acceptor molecule, acceptor atom, score
      P1  H  7989  7998       L1    12  0.27
      P1  H  7997  8008       L1    11  1.00

> <Gold.Chemscore.Hbond.Weighted>
-6.3034

> <Gold.Chemscore.Metal.Weighted>
-0.0000

> <Gold.Chemscore.Lipo.Weighted>
-8.4915

> <Gold.Chemscore.Internal_Hbond.Weighted>
0.0000

> <Gold.Chemscore.DEClash.Weighted>
0.0234

> <Gold.Chemscore.DEInternal.Weighted>
2.3678

> <Gold.Chemscore.Rot.Weighted>
3.5764

> <Gold.Chemscore.Internal.Correction.Weighted>
   9.000000E+99

> <Gold.Protein.RotatedTorsions>
[ 6907 6896 6895 6894 ] final  116.91 input  -60.11 | X-H torsion
[ 7974 7965 7964 7962 ] final -166.44 input  175.53 | X-H torsion
[ 8008 7997 7996 7995 ] final  -36.79 input   59.86 | X-H torsion
[ 10167 10162 10161 10158 ] final   34.25 input  -65.29 | X-H torsion
[ 10718 10713 10712 10709 ] final  103.26 input   66.30 | X-H torsion
[ 10763 10752 10751 10750 ] final  -10.56 input  -60.55 | X-H torsion
[ 11005 11000 10999 10996 ] final -142.49 input  -57.11 | X-H torsion

> <Gold.Protein.ActiveResidues>
 VAL166  LYS551  ARG553  GLY616  TRP617  ASP618  TYR619  PRO620  LYS621  CYS622 
 ASP623  PHE694  ASN695  SER759  ASP760  ASP761  ALA762  ILE779  LEU786  VAL792 
 PHE793  MET794  SER795  GLU796  ALA797  LYS798  CYS799  TRP800  GLU811  SER814 

> <Gold.Protein.RotatedAtoms>
  152.4647  133.7897  159.6894 H   0  0  0  0  0  0  0  0  0  0  0  0  # atno 6907 bound_to 6896
  150.8606  133.7640  159.3000 H   0  0  0  0  0  0  0  0  0  0  0  0  # atno 6908 bound_to 6896
  151.5206  135.1070  159.9929 H   0  0  0  0  0  0  0  0  0  0  0  0  # atno 6909 bound_to 6896
  144.7245  140.2666  143.6257 H   0  0  0  0  0  0  0  0  0  0  0  0  # atno 7974 bound_to 7965
  154.4066  140.1621  156.2432 H   0  0  0  0  0  0  0  0  0  0  0  0  # atno 8008 bound_to 7997
  155.9183  140.3423  155.6130 H   0  0  0  0  0  0  0  0  0  0  0  0  # atno 8009 bound_to 7997
  155.7253  140.0773  157.2303 H   0  0  0  0  0  0  0  0  0  0  0  0  # atno 8010 bound_to 7997
  140.4332  144.1294  150.6162 H   0  0  0  0  0  0  0  0  0  0  0  0  # atno 10167 bound_to 10162
  157.6778  131.0774  150.5528 H   0  0  0  0  0  0  0  0  0  0  0  0  # atno 10718 bound_to 10713
  153.4710  135.7017  153.5993 H   0  0  0  0  0  0  0  0  0  0  0  0  # atno 10763 bound_to 10752
  153.4247  135.3817  155.2133 H   0  0  0  0  0  0  0  0  0  0  0  0  # atno 10764 bound_to 10752
  154.8725  135.3936  154.4148 H   0  0  0  0  0  0  0  0  0  0  0  0  # atno 10765 bound_to 10752
  140.8220  134.2620  157.4896 H   0  0  0  0  0  0  0  0  0  0  0  0  # atno 11005 bound_to 11000
  145.8084  139.1993  143.2007 LP  0  0  0  0  0  0  0  0  0  0  0  0  # atno 17320 bound_to 7965
  146.0617  140.7964  142.9731 LP  0  0  0  0  0  0  0  0  0  0  0  0  # atno 17321 bound_to 7965
  140.4403  143.2529  151.9481 LP  0  0  0  0  0  0  0  0  0  0  0  0  # atno 17342 bound_to 10162
  139.4786  144.5660  151.8164 LP  0  0  0  0  0  0  0  0  0  0  0  0  # atno 17343 bound_to 10162
  156.5832  130.4310  149.5968 LP  0  0  0  0  0  0  0  0  0  0  0  0  # atno 17370 bound_to 10713
  156.2644  130.6981  151.1759 LP  0  0  0  0  0  0  0  0  0  0  0  0  # atno 17371 bound_to 10713
  139.8708  134.9540  156.4163 LP  0  0  0  0  0  0  0  0  0  0  0  0  # atno 17394 bound_to 11000
  140.9089  133.7726  155.9768 LP  0  0  0  0  0  0  0  0  0  0  0  0  # atno 17395 bound_to 11000

$$$$
