AV-unprocessed.smi:3029|AV-procd|sdf|11530|dock9
  -GOLD-   2272016473D 1   1.00000     0.00000
 Structure written by MMmdl.
 41 42  0  0  0  0  0  0  0  0  3 V2000
  145.8535  131.5083  158.0766 O   0  0  0  0  0  0  0  0  0  0  0  0
  146.1759  132.5848  158.5792 C   0  0  0  0  0  0  0  0  0  0  0  0
  146.8154  132.6633  159.8966 C   0  0  0  0  0  0  0  0  0  0  0  0
  147.1558  133.8437  160.4499 C   0  0  0  0  0  0  0  0  0  0  0  0
  146.8965  135.0861  159.7490 C   0  0  0  0  0  0  0  0  0  0  0  0
  147.2426  136.3598  160.3406 N   0  3  0  0  0  0  0  0  0  0  0  0
  146.7873  137.3881  159.8490 O   0  0  0  0  0  0  0  0  0  0  0  0
  147.9827  136.3722  161.3188 O   0  5  0  0  0  0  0  0  0  0  0  0
  146.3154  135.0112  158.5356 C   0  0  0  0  0  0  0  0  0  0  0  0
  145.9570  133.7807  157.9517 N   0  0  0  0  0  0  0  0  0  0  0  0
  145.2980  133.8429  156.6379 C   0  0  0  0  0  0  0  0  0  0  0  0
  146.0248  132.9799  155.5905 C   0  0  0  0  0  0  0  0  0  0  0  0
  145.3577  133.0778  154.3004 N   0  0  0  0  0  0  0  0  0  0  0  0
  146.2970  133.0452  153.1839 C   0  0  1  0  0  0  0  0  0  0  0  0
  147.1346  131.7531  153.2919 C   0  0  0  0  0  0  0  0  0  0  0  0
  146.3330  130.4909  152.9272 C   0  0  0  0  0  0  0  0  0  0  0  0
  145.6714  130.6221  151.5492 C   0  0  0  0  0  0  0  0  0  0  0  0
  144.7871  131.8756  151.4765 C   0  0  0  0  0  0  0  0  0  0  0  0
  145.5877  133.1546  151.8039 C   0  0  1  0  0  0  0  0  0  0  0  0
  144.7608  134.4434  151.5911 C   0  0  0  0  0  0  0  0  0  0  0  0
  145.4572  135.5360  151.9043 F   0  0  0  0  0  0  0  0  0  0  0  0
  144.3604  134.5276  150.3225 F   0  0  0  0  0  0  0  0  0  0  0  0
  143.6737  134.4060  152.3617 F   0  0  0  0  0  0  0  0  0  0  0  0
  147.0169  131.7497  160.4364 H   0  0  0  0  0  0  0  0  0  0  0  0
  147.6236  133.8499  161.4236 H   0  0  0  0  0  0  0  0  0  0  0  0
  146.0728  135.8763  157.9351 H   0  0  0  0  0  0  0  0  0  0  0  0
  144.2748  133.4800  156.7455 H   0  0  0  0  0  0  0  0  0  0  0  0
  145.1906  134.8673  156.2772 H   0  0  0  0  0  0  0  0  0  0  0  0
  147.0682  133.2834  155.5100 H   0  0  0  0  0  0  0  0  0  0  0  0
  146.0186  131.9365  155.9077 H   0  0  0  0  0  0  0  0  0  0  0  0
  144.6940  132.3215  154.2107 H   0  0  0  0  0  0  0  0  0  0  0  0
  146.9901  133.8821  153.2831 H   0  0  0  0  0  0  0  0  0  0  0  0
  147.9867  131.8314  152.6156 H   0  0  0  0  0  0  0  0  0  0  0  0
  147.5568  131.6531  154.2928 H   0  0  0  0  0  0  0  0  0  0  0  0
  146.9879  129.6193  152.9423 H   0  0  0  0  0  0  0  0  0  0  0  0
  145.5667  130.3100  153.6822 H   0  0  0  0  0  0  0  0  0  0  0  0
  146.4397  130.6698  150.7767 H   0  0  0  0  0  0  0  0  0  0  0  0
  145.0753  129.7341  151.3375 H   0  0  0  0  0  0  0  0  0  0  0  0
  144.3531  131.9496  150.4792 H   0  0  0  0  0  0  0  0  0  0  0  0
  143.9492  131.7751  152.1676 H   0  0  0  0  0  0  0  0  0  0  0  0
  146.3917  133.2040  151.0675 H   0  0  0  0  0  0  0  0  0  0  0  0
  1  2  2  0  0  0  0
  2 10  1  0  0  0  0
  2  3  1  0  0  0  0
  3  4  2  0  0  0  0
  3 24  1  0  0  0  0
  4  5  1  0  0  0  0
  4 25  1  0  0  0  0
  5  6  1  0  0  0  0
  5  9  2  0  0  0  0
  6  7  2  0  0  0  0
  6  8  1  0  0  0  0
  9 10  1  0  0  0  0
  9 26  1  0  0  0  0
 10 11  1  0  0  0  0
 11 12  1  0  0  0  0
 11 27  1  0  0  0  0
 11 28  1  0  0  0  0
 12 13  1  0  0  0  0
 12 29  1  0  0  0  0
 12 30  1  0  0  0  0
 13 14  1  0  0  0  0
 13 31  1  0  0  0  0
 14 19  1  0  0  0  0
 14 15  1  0  0  0  0
 14 32  1  0  0  0  0
 15 16  1  0  0  0  0
 15 33  1  0  0  0  0
 15 34  1  0  0  0  0
 16 17  1  0  0  0  0
 16 35  1  0  0  0  0
 16 36  1  0  0  0  0
 17 18  1  0  0  0  0
 17 37  1  0  0  0  0
 17 38  1  0  0  0  0
 18 19  1  0  0  0  0
 18 39  1  0  0  0  0
 18 40  1  0  0  0  0
 19 20  1  0  0  0  0
 19 41  1  0  0  0  0
 20 21  1  0  0  0  0
 20 22  1  0  0  0  0
 20 23  1  0  0  0  0
M  CHG  1   6   1
M  CHG  1   8  -1
M  END
> <s_m_source_file>
AV-unprocessed.smi

> <i_m_source_file_index>
3029

> <i_lp_mmshare_version>
43012

> <i_f3d_flags>
0

> <s_epik_input>
Tz1jMVtjSF1bY0hdYyhbTitdKD1PKVtPLV0pW2NIXW4xW0NIMl1bQ0gyXVtOSF1bQ0BASF0yW0NIMl1bQ0gyXVtDSDJdW0NIMl1bQ0BIXTJDKEYpKEYpRg==

> <s_epik_cmdline>
J2VwaWtfcHl0aG9uJywgJy1waCcsICc3LjAnLCAnLXRuJywgJzgnLCAnLW1hJywgJzIwMCcsICctbWV0YWxfYmluZGluZycsICctaW1hZScsICc8aW5maWxlLm1hZT4nLCAnLW9tYWUnLCAnPG91dGZpbGUubWFlPic=

> <r_lp_tautomer_probability>
1

> <r_epik_Ionization_Penalty>
1.65565

> <r_epik_Ionization_Penalty_Charging>
3.32684e-10

> <r_epik_Ionization_Penalty_Neutral>
1.65565

> <r_epik_State_Penalty>
1.75811

> <r_epik_Charging_Adjusted_Penalty>
1.75811

> <i_epik_Tot_Q>
0

> <i_epik_Tot_abs_Q>
2

> <r_epik_Metal_State_Penalty>
1.75811

> <b_epik_Metal_Only>
0

> <s_lp_Force_Field>
OPLS_2005

> <r_lp_Energy>
39.0204

> <b_lp_Chiralities_Consistent>
1

> <s_lp_Variant>
AV-unprocessed.smi:3029-6

> <Gold.Version>
5.8.1

> <Gold.Id.Protein>
6NUR|6NUR_protein|mol2

> <Gold.PLP.Fitness>
35.3671

> <Gold.PLP.PLP>
-28.5792

> <Gold.PLP.part.hbond>
-2.9297

> <Gold.PLP.part.metal>
0.0000

> <Gold.PLP.part.buried>
-5.0887

> <Gold.PLP.part.nonpolar>
-20.9989

> <Gold.PLP.part.repulsive>
0.0344

> <Gold.PLP.ligand.clash>
0.0000

> <Gold.PLP.ligand.torsion>
0.4324

> <Gold.PLP.Chemscore.Hbond>
2.5076

> <Gold.PLP.Chemscore.CHOScore>
0.0000

> <Gold.PLP.Chemscore.Metal>
0.0000

> <Gold.Chemscore.Hbonds>
donor molecule, donor type, donor heavy atom, donor atom, acceptor molecule, acceptor atom, score
      L1  H    13    31       P1 10957  0.58
      P1  H  6931  6943       L1     8  0.50
      P1  H  6934  6947       L1     7  1.00

> <Gold.PLP.Chemscore.Internal.Correction>
0.1298

> <Gold.Rescore>
     Score         DG    S(hbond)    S(metal)    S(lipo)     H(rot)  DE(clash)    DE(int)     intcor
     12.80     -16.03       2.75        0.00      52.37       1.86       0.00       3.23       ----

> <Gold.Chemscore.Fitness>
12.8025

> <Gold.Chemscore.DG>
-16.0344

> <Gold.Chemscore.ZeroCoef>
-5.4800

> <Gold.Chemscore.Hbond>
2.7500

> <Gold.Chemscore.Metal>
0.0000

> <Gold.Chemscore.Lipo>
52.3657

> <Gold.Chemscore.Internal_Hbond>
0.0000

> <Gold.Chemscore.DEClash>
0.0000

> <Gold.Chemscore.DEInternal>
3.2319

> <Gold.Chemscore.Rot>
1.8584

> <Gold.Chemscore.Internal.Correction>
   9.000000E+99

> <Gold.Chemscore.Hbonds>
donor molecule, donor type, donor heavy atom, donor atom, acceptor molecule, acceptor atom, score
      L1  H    13    31       P1 10957  0.22
      P1  H  6931  6943       L1     8  0.49
      P1  H  6934  6947       L1     7  0.84

> <Gold.Chemscore.Hbond.Weighted>
-9.1851

> <Gold.Chemscore.Metal.Weighted>
-0.0000

> <Gold.Chemscore.Lipo.Weighted>
-6.1268

> <Gold.Chemscore.Internal_Hbond.Weighted>
0.0000

> <Gold.Chemscore.DEClash.Weighted>
0.0000

> <Gold.Chemscore.DEInternal.Weighted>
3.2319

> <Gold.Chemscore.Rot.Weighted>
4.7576

> <Gold.Chemscore.Internal.Correction.Weighted>
   9.000000E+99

> <Gold.Protein.RotatedTorsions>
[ 6907 6896 6895 6894 ] final   87.69 input  -60.11 | X-H torsion
[ 7974 7965 7964 7962 ] final   46.70 input  175.53 | X-H torsion
[ 8008 7997 7996 7995 ] final  -38.09 input   59.86 | X-H torsion
[ 10167 10162 10161 10158 ] final  155.37 input  -65.29 | X-H torsion
[ 10718 10713 10712 10709 ] final  -30.14 input   66.30 | X-H torsion
[ 10763 10752 10751 10750 ] final  101.80 input  -60.55 | X-H torsion
[ 11005 11000 10999 10996 ] final -112.32 input  -57.11 | X-H torsion

> <Gold.Protein.ActiveResidues>
 VAL166  LYS551  ARG553  GLY616  TRP617  ASP618  TYR619  PRO620  LYS621  CYS622 
 ASP623  PHE694  ASN695  SER759  ASP760  ASP761  ALA762  ILE779  LEU786  VAL792 
 PHE793  MET794  SER795  GLU796  ALA797  LYS798  CYS799  TRP800  GLU811  SER814 

> <Gold.Protein.RotatedAtoms>
  152.5415  134.2236  159.8797 H   0  0  0  0  0  0  0  0  0  0  0  0  # atno 6907 bound_to 6896
  151.2212  133.4494  159.2608 H   0  0  0  0  0  0  0  0  0  0  0  0  # atno 6908 bound_to 6896
  151.0804  134.9867  159.8409 H   0  0  0  0  0  0  0  0  0  0  0  0  # atno 6909 bound_to 6896
  146.0366  139.4828  142.9804 H   0  0  0  0  0  0  0  0  0  0  0  0  # atno 7974 bound_to 7965
  154.4042  140.1587  156.2644 H   0  0  0  0  0  0  0  0  0  0  0  0  # atno 8008 bound_to 7997
  155.9008  140.3433  155.6003 H   0  0  0  0  0  0  0  0  0  0  0  0  # atno 8009 bound_to 7997
  155.7450  140.0797  157.2219 H   0  0  0  0  0  0  0  0  0  0  0  0  # atno 8010 bound_to 7997
  139.4821  144.5104  151.8032 H   0  0  0  0  0  0  0  0  0  0  0  0  # atno 10167 bound_to 10162
  156.4036  130.4395  149.7304 H   0  0  0  0  0  0  0  0  0  0  0  0  # atno 10718 bound_to 10713
  153.3314  135.4032  155.1498 H   0  0  0  0  0  0  0  0  0  0  0  0  # atno 10763 bound_to 10752
  154.8624  135.3611  154.5466 H   0  0  0  0  0  0  0  0  0  0  0  0  # atno 10764 bound_to 10752
  153.5905  135.7074  153.5484 H   0  0  0  0  0  0  0  0  0  0  0  0  # atno 10765 bound_to 10752
  141.0682  133.9423  157.2537 H   0  0  0  0  0  0  0  0  0  0  0  0  # atno 11005 bound_to 11000
  145.6954  141.0152  143.1533 LP  0  0  0  0  0  0  0  0  0  0  0  0  # atno 17320 bound_to 7965
  144.7054  139.8582  143.7431 LP  0  0  0  0  0  0  0  0  0  0  0  0  # atno 17321 bound_to 7965
  140.4607  144.1726  150.5906 LP  0  0  0  0  0  0  0  0  0  0  0  0  # atno 17342 bound_to 10162
  140.4487  143.2495  151.9376 LP  0  0  0  0  0  0  0  0  0  0  0  0  # atno 17343 bound_to 10162
  156.4311  130.7815  151.2835 LP  0  0  0  0  0  0  0  0  0  0  0  0  # atno 17370 bound_to 10713
  157.7505  131.0154  150.3502 LP  0  0  0  0  0  0  0  0  0  0  0  0  # atno 17371 bound_to 10713
  139.9497  135.0177  156.8958 LP  0  0  0  0  0  0  0  0  0  0  0  0  # atno 17394 bound_to 11000
  140.5729  134.0426  155.7436 LP  0  0  0  0  0  0  0  0  0  0  0  0  # atno 17395 bound_to 11000

$$$$
