AV-unprocessed.smi:3044|AV-procd|sdf|11608|dock10
  -GOLD-   2272016593D 1   1.00000     0.00000
 Structure written by MMmdl.
 41 42  0  0  0  0  0  0  0  0  1 V2000
  148.7393  140.1145  156.8064 C   0  0  0  0  0  0  0  0  0  0  0  0
  149.6602  139.4658  155.7876 C   0  0  0  0  0  0  0  0  0  0  0  0
  149.1347  139.3080  154.5521 N   0  0  0  0  0  0  0  0  0  0  0  0
  149.8993  138.7338  153.6008 C   0  0  0  0  0  0  0  0  0  0  0  0
  151.2123  138.2858  153.8350 C   0  0  0  0  0  0  0  0  0  0  0  0
  151.7585  138.4506  155.1216 C   0  0  0  0  0  0  0  0  0  0  0  0
  150.9764  139.0667  156.1295 C   0  0  0  0  0  0  0  0  0  0  0  0
  151.4314  139.2601  157.4650 N   0  0  0  0  0  0  0  0  0  0  0  0
  152.6688  139.0925  157.9674 C   0  0  0  0  0  0  0  0  0  0  0  0
  153.6562  138.7653  157.3103 O   0  0  0  0  0  0  0  0  0  0  0  0
  152.8263  139.3705  159.4604 C   0  0  0  0  0  0  0  0  0  0  0  0
  152.3487  140.6816  159.7231 O   0  0  0  0  0  0  0  0  0  0  0  0
  153.3157  141.7128  159.5572 C   0  0  1  0  0  0  0  0  0  0  0  0
  152.6822  142.9946  158.9759 C   0  0  0  0  0  0  0  0  0  0  0  0
  151.6691  143.6173  159.9491 C   0  0  0  0  0  0  0  0  0  0  0  0
  152.3134  143.9009  161.3147 C   0  0  0  0  0  0  0  0  0  0  0  0
  152.9382  142.6295  161.9202 C   0  0  2  0  0  0  0  0  0  0  0  0
  153.5922  142.9194  163.2788 C   0  0  0  0  0  0  0  0  0  0  0  0
  153.9430  141.9960  160.9351 C   0  0  0  0  0  0  0  0  0  0  0  0
  149.1698  141.0499  157.1641 H   0  0  0  0  0  0  0  0  0  0  0  0
  148.5894  139.4534  157.6602 H   0  0  0  0  0  0  0  0  0  0  0  0
  147.7604  140.3364  156.3792 H   0  0  0  0  0  0  0  0  0  0  0  0
  149.4488  138.6213  152.6259 H   0  0  0  0  0  0  0  0  0  0  0  0
  151.7857  137.8208  153.0469 H   0  0  0  0  0  0  0  0  0  0  0  0
  152.7565  138.0877  155.3109 H   0  0  0  0  0  0  0  0  0  0  0  0
  150.7433  139.6262  158.1068 H   0  0  0  0  0  0  0  0  0  0  0  0
  152.2695  138.6382  160.0479 H   0  0  0  0  0  0  0  0  0  0  0  0
  153.8799  139.2720  159.7209 H   0  0  0  0  0  0  0  0  0  0  0  0
  154.1058  141.3608  158.8918 H   0  0  0  0  0  0  0  0  0  0  0  0
  153.4710  143.7200  158.7731 H   0  0  0  0  0  0  0  0  0  0  0  0
  152.2065  142.7992  158.0159 H   0  0  0  0  0  0  0  0  0  0  0  0
  151.2704  144.5410  159.5287 H   0  0  0  0  0  0  0  0  0  0  0  0
  150.8201  142.9442  160.0754 H   0  0  0  0  0  0  0  0  0  0  0  0
  153.0781  144.6707  161.2021 H   0  0  0  0  0  0  0  0  0  0  0  0
  151.5638  144.3085  161.9937 H   0  0  0  0  0  0  0  0  0  0  0  0
  152.1350  141.9114  162.0923 H   0  0  0  0  0  0  0  0  0  0  0  0
  154.4103  143.6340  163.1809 H   0  0  0  0  0  0  0  0  0  0  0  0
  153.9963  142.0092  163.7227 H   0  0  0  0  0  0  0  0  0  0  0  0
  152.8694  143.3351  163.9814 H   0  0  0  0  0  0  0  0  0  0  0  0
  154.3428  141.0707  161.3518 H   0  0  0  0  0  0  0  0  0  0  0  0
  154.7948  142.6654  160.8079 H   0  0  0  0  0  0  0  0  0  0  0  0
  1  2  1  0  0  0  0
  1 20  1  0  0  0  0
  1 21  1  0  0  0  0
  1 22  1  0  0  0  0
  2  7  1  0  0  0  0
  2  3  2  0  0  0  0
  3  4  1  0  0  0  0
  4  5  2  0  0  0  0
  4 23  1  0  0  0  0
  5  6  1  0  0  0  0
  5 24  1  0  0  0  0
  6  7  2  0  0  0  0
  6 25  1  0  0  0  0
  7  8  1  0  0  0  0
  8  9  1  0  0  0  0
  8 26  1  0  0  0  0
  9 10  2  0  0  0  0
  9 11  1  0  0  0  0
 11 12  1  0  0  0  0
 11 27  1  0  0  0  0
 11 28  1  0  0  0  0
 12 13  1  0  0  0  0
 13 19  1  0  0  0  0
 13 14  1  0  0  0  0
 13 29  1  0  0  0  0
 14 15  1  0  0  0  0
 14 30  1  0  0  0  0
 14 31  1  0  0  0  0
 15 16  1  0  0  0  0
 15 32  1  0  0  0  0
 15 33  1  0  0  0  0
 16 17  1  0  0  0  0
 16 34  1  0  0  0  0
 16 35  1  0  0  0  0
 17 18  1  0  0  0  0
 17 19  1  0  0  0  0
 17 36  1  0  0  0  0
 18 37  1  0  0  0  0
 18 38  1  0  0  0  0
 18 39  1  0  0  0  0
 19 40  1  0  0  0  0
 19 41  1  0  0  0  0
M  END
> <s_m_source_file>
AV-unprocessed.smi

> <i_m_source_file_index>
3044

> <i_lp_mmshare_version>
43012

> <i_f3d_flags>
0

> <s_epik_input>
W0NIM11jMW5bY0hdW2NIXVtjSF1jMVtOSF1DKD1PKVtDSDJdT1tDQEBIXTJbQ0gyXVtDSDJdW0NIMl1bQ0BASF0oW0NIM10pW0NIMl0y

> <s_epik_cmdline>
J2VwaWtfcHl0aG9uJywgJy1waCcsICc3LjAnLCAnLXRuJywgJzgnLCAnLW1hJywgJzIwMCcsICctbWV0YWxfYmluZGluZycsICctaW1hZScsICc8aW5maWxlLm1hZT4nLCAnLW9tYWUnLCAnPG91dGZpbGUubWFlPic=

> <r_epik_Ionization_Penalty>
0.0077122

> <r_epik_Ionization_Penalty_Charging>
0

> <r_epik_Ionization_Penalty_Neutral>
0.0077122

> <r_epik_State_Penalty>
0.00577497

> <r_epik_Charging_Adjusted_Penalty>
0.00577497

> <i_epik_Tot_Q>
0

> <i_epik_Tot_abs_Q>
0

> <r_epik_Metal_State_Penalty>
-0

> <b_epik_Metal_Only>
0

> <s_lp_Force_Field>
OPLS_2005

> <r_lp_Energy>
18.191

> <b_lp_Chiralities_Consistent>
1

> <s_lp_Variant>
AV-unprocessed.smi:3044-4

> <Gold.Version>
5.8.1

> <Gold.Id.Protein>
6NUR|6NUR_protein|mol2

> <Gold.PLP.Fitness>
45.1406

> <Gold.PLP.PLP>
-37.7485

> <Gold.PLP.part.hbond>
-0.9399

> <Gold.PLP.part.metal>
0.0000

> <Gold.PLP.part.buried>
-2.9310

> <Gold.PLP.part.nonpolar>
-33.3544

> <Gold.PLP.part.repulsive>
0.1933

> <Gold.PLP.ligand.clash>
0.0000

> <Gold.PLP.ligand.torsion>
0.6805

> <Gold.PLP.Chemscore.Hbond>
1.0000

> <Gold.PLP.Chemscore.CHOScore>
1.9167

> <Gold.PLP.Chemscore.Metal>
0.0000

> <Gold.Chemscore.Hbonds>
donor molecule, donor type, donor heavy atom, donor atom, acceptor molecule, acceptor atom, score
      P1  H  7997  8010       L1    10  1.00
      L1  C     4    23       P1  7948  0.74
      L1  C     4    23       P1  7957  0.87

> <Gold.PLP.Chemscore.Internal.Correction>
0.0029

> <Gold.Rescore>
     Score         DG    S(hbond)    S(metal)    S(lipo)     H(rot)  DE(clash)    DE(int)     intcor
     17.90     -19.78       0.95        0.00     123.57       1.31       0.04       1.84       ----

> <Gold.Chemscore.Fitness>
17.8995

> <Gold.Chemscore.DG>
-19.7808

> <Gold.Chemscore.ZeroCoef>
-5.4800

> <Gold.Chemscore.Hbond>
0.9543

> <Gold.Chemscore.Metal>
0.0000

> <Gold.Chemscore.Lipo>
123.5699

> <Gold.Chemscore.Internal_Hbond>
0.0000

> <Gold.Chemscore.DEClash>
0.0443

> <Gold.Chemscore.DEInternal>
1.8370

> <Gold.Chemscore.Rot>
1.3064

> <Gold.Chemscore.Internal.Correction>
   9.000000E+99

> <Gold.Chemscore.Hbonds>
donor molecule, donor type, donor heavy atom, donor atom, acceptor molecule, acceptor atom, score
      P1  H  7997  8010       L1    10  0.77

> <Gold.Chemscore.Hbond.Weighted>
-3.1875

> <Gold.Chemscore.Metal.Weighted>
-0.0000

> <Gold.Chemscore.Lipo.Weighted>
-14.4577

> <Gold.Chemscore.Internal_Hbond.Weighted>
0.0000

> <Gold.Chemscore.DEClash.Weighted>
0.0443

> <Gold.Chemscore.DEInternal.Weighted>
1.8370

> <Gold.Chemscore.Rot.Weighted>
3.3443

> <Gold.Chemscore.Internal.Correction.Weighted>
   9.000000E+99

> <Gold.Protein.RotatedTorsions>
[ 6907 6896 6895 6894 ] final -119.35 input  -60.11 | X-H torsion
[ 7974 7965 7964 7962 ] final  173.48 input  175.53 | X-H torsion
[ 8008 7997 7996 7995 ] final   34.15 input   59.86 | X-H torsion
[ 10167 10162 10161 10158 ] final   20.21 input  -65.29 | X-H torsion
[ 10718 10713 10712 10709 ] final   89.61 input   66.30 | X-H torsion
[ 10763 10752 10751 10750 ] final -115.11 input  -60.55 | X-H torsion
[ 11005 11000 10999 10996 ] final  -10.97 input  -57.11 | X-H torsion

> <Gold.Protein.ActiveResidues>
 VAL166  LYS551  ARG553  GLY616  TRP617  ASP618  TYR619  PRO620  LYS621  CYS622 
 ASP623  PHE694  ASN695  SER759  ASP760  ASP761  ALA762  ILE779  LEU786  VAL792 
 PHE793  MET794  SER795  GLU796  ALA797  LYS798  CYS799  TRP800  GLU811  SER814 

> <Gold.Protein.RotatedAtoms>
  150.8298  133.8111  159.3103 H   0  0  0  0  0  0  0  0  0  0  0  0  # atno 6907 bound_to 6896
  151.5844  135.1055  160.0034 H   0  0  0  0  0  0  0  0  0  0  0  0  # atno 6908 bound_to 6896
  152.4378  133.7352  159.6666 H   0  0  0  0  0  0  0  0  0  0  0  0  # atno 6909 bound_to 6896
  144.7243  139.9654  143.6436 H   0  0  0  0  0  0  0  0  0  0  0  0  # atno 7974 bound_to 7965
  155.1502  140.3274  155.4433 H   0  0  0  0  0  0  0  0  0  0  0  0  # atno 8008 bound_to 7997
  156.2576  140.1978  156.6564 H   0  0  0  0  0  0  0  0  0  0  0  0  # atno 8009 bound_to 7997
  154.6478  140.0562  156.9907 H   0  0  0  0  0  0  0  0  0  0  0  0  # atno 8010 bound_to 7997
  140.5521  143.9491  150.6585 H   0  0  0  0  0  0  0  0  0  0  0  0  # atno 10167 bound_to 10162
  157.6956  131.0339  150.3451 H   0  0  0  0  0  0  0  0  0  0  0  0  # atno 10718 bound_to 10713
  154.8468  135.4393  154.1612 H   0  0  0  0  0  0  0  0  0  0  0  0  # atno 10763 bound_to 10752
  153.2748  135.6948  153.7450 H   0  0  0  0  0  0  0  0  0  0  0  0  # atno 10764 bound_to 10752
  153.6676  135.3424  155.3119 H   0  0  0  0  0  0  0  0  0  0  0  0  # atno 10765 bound_to 10752
  140.7504  133.8597  155.9040 H   0  0  0  0  0  0  0  0  0  0  0  0  # atno 11005 bound_to 11000
  146.0605  139.3599  143.0584 LP  0  0  0  0  0  0  0  0  0  0  0  0  # atno 17320 bound_to 7965
  145.8099  140.9731  143.0954 LP  0  0  0  0  0  0  0  0  0  0  0  0  # atno 17321 bound_to 7965
  140.2919  143.3318  152.1054 LP  0  0  0  0  0  0  0  0  0  0  0  0  # atno 17342 bound_to 10162
  139.5032  144.6750  151.6151 LP  0  0  0  0  0  0  0  0  0  0  0  0  # atno 17343 bound_to 10162
  156.3907  130.3897  149.7032 LP  0  0  0  0  0  0  0  0  0  0  0  0  # atno 17370 bound_to 10713
  156.4383  130.7848  151.2869 LP  0  0  0  0  0  0  0  0  0  0  0  0  # atno 17371 bound_to 10713
  140.9756  134.1473  157.4539 LP  0  0  0  0  0  0  0  0  0  0  0  0  # atno 17394 bound_to 11000
  139.8789  134.9993  156.5949 LP  0  0  0  0  0  0  0  0  0  0  0  0  # atno 17395 bound_to 11000

$$$$
