#       Name:                AV-unprocessed.smi:160
#       Creating user name   scv26
#       Creation time:       Thu Mar 26 19:09:30 2020


#       File generated by GOLD software.
#

@<TRIPOS>MOLECULE
AV-unprocessed.smi:160
    41    42     1
SMALL
NO_CHARGES


@<TRIPOS>ATOM
      1 ****        -3.6518   2.1566   0.2332 N.pl3          1 S1                -1.0000
      2 ****        -4.1153   0.8897   0.3021 C.2            1 S1                 0.0000
      3 ****        -5.2962   0.5502   0.3696 O.2            1 S1                 0.0000
      4 ****        -3.0423  -0.1729   0.2900 C.2            1 S1                 0.0000
      5 ****        -3.3752  -1.4988   0.3429 N.2            1 S1                 0.0000
      6 ****        -2.1586  -2.0248   0.3072 C.2            1 S1                 0.0000
      7 ****        -1.1736  -1.1255   0.2335 N.pl3          1 S1                 0.0000
      8 ****         0.3105  -1.3357   0.1786 C.3            1 S1                 0.0000
      9 ****         0.9154  -0.4522   1.0758 O.3            1 S1                 0.0000
     10 ****         1.5049   0.6306   0.3631 C.3            1 S1                 0.0000
     11 ****         2.6012   1.2829   1.2197 C.3            1 S1                 0.0000
     12 ****         2.0282   2.1970   2.1297 O.3            1 S1                 0.0000
     13 ****         2.0423  -0.0842  -0.8780 C.3            1 S1                 0.0000
     14 ****         2.3586   0.8023  -1.9354 O.3            1 S1                 0.0000
     15 ****         0.9261  -1.0710  -1.2171 C.3            1 S1                 0.0000
     16 ****         0.0131  -0.5570  -2.1754 O.3            1 S1                 0.0000
     17 ****        -1.7371   0.1085   0.2279 N.2            1 S1                 0.0000
     18 ****         0.4505  -2.3611   0.5227 H              1 S1                 0.0000
     19 ****         0.7412   1.3558   0.0750 H              1 S1                 0.0000
     20 ****         2.9395  -0.6448  -0.6112 H              1 S1                 0.0000
     21 ****         1.3375  -2.0019  -1.6083 H              1 S1                 0.0000
     22 ****        -2.6367   2.3035   0.1801 H              1 S1                 0.0000
     23 ****        -1.9818  -3.0899   0.3327 H              1 S1                 0.0000
     24 ****         3.1882   0.5338   1.7520 H              1 S1                 0.0000
     25 ****         3.2889   1.8426   0.5855 H              1 S1                 0.0000
     26 ****         2.7216   2.6015   2.6277 H              1 S1                 0.0000
     27 ****         2.5391   0.2919  -2.7098 H              1 S1                 0.0000
     28 ****        -0.7393  -1.1273  -2.2141 H              1 S1                 0.0000
     29 ****        -4.2820   2.9330   0.2339 LP             1 S1                 0.0000
     30 ****        -6.0162   1.2441   0.3771 LP             1 S1                 0.0000
     31 ****        -5.5357  -0.4195   0.4170 LP             1 S1                 0.0000
     32 ****        -4.2709  -1.9405   0.3935 LP             1 S1                 0.0000
     33 ****         1.6235  -0.9352   1.5910 LP             1 S1                 0.0000
     34 ****         0.2265  -0.0976   1.7080 LP             1 S1                 0.0000
     35 ****         1.4079   1.7135   2.7472 LP             1 S1                 0.0000
     36 ****         1.5205   2.8977   1.6285 LP             1 S1                 0.0000
     37 ****         3.1637   1.3435  -1.6927 LP             1 S1                 0.0000
     38 ****         1.5856   1.4131  -2.1064 LP             1 S1                 0.0000
     39 ****         0.4531  -0.5192  -3.0726 LP             1 S1                 0.0000
     40 ****        -0.2749   0.3621  -1.9064 LP             1 S1                 0.0000
     41 ****        -1.2896   1.0019   0.1876 LP             1 S1                 0.0000
@<TRIPOS>BOND
    1    1    2 1     
    2    1   22 1     
    3    2    3 2     
    4    2    4 1     
    5    4   17 2     
    6    4    5 1     
    7    5    6 2     
    8    6    7 1     
    9    6   23 1     
   10    7    8 1     
   11    7   17 1     
   12    8   18 1     
   13    8   15 1     
   14    8    9 1     
   15    9   10 1     
   16   10   19 1     
   17   10   11 1     
   18   10   13 1     
   19   11   12 1     
   20   11   24 1     
   21   11   25 1     
   22   12   26 1     
   23   13   20 1     
   24   13   14 1     
   25   13   15 1     
   26   14   27 1     
   27   15   21 1     
   28   15   16 1     
   29   16   28 1     
   30    1   29 1     
   31    3   30 1     
   32    3   31 1     
   33    5   32 1     
   34    9   33 1     
   35    9   34 1     
   36   12   35 1     
   37   12   36 1     
   38   14   37 1     
   39   14   38 1     
   40   16   39 1     
   41   16   40 1     
   42   17   41 1     
@<TRIPOS>SUBSTRUCTURE
      1 S1             1
@<TRIPOS>SET
LONE_PAIRS      STATIC     ATOMS    <user>   **** ""
13 29 30 31 32 33 34 35 36 37 38 39 40 41
DONOR_HYDROGENS      STATIC     ATOMS    <user>   **** ""
4 22 26 27 28
ATOM$BLUE        STATIC     ATOMS    COLORGROUP SYSTEM
13 29 30 31 32 33 34 35 36 37 38 39 40 41
ATOM$RED        STATIC     ATOMS    COLORGROUP SYSTEM
4 22 26 27 28
