AV-unprocessed.smi:1587|AV-procd|sdf|6387|dock2
  -GOLD-   22720 7 23D 1   1.00000     0.00000
 Structure written by MMmdl.
 36 37  0  0  0  0  0  0  0  0  1 V2000
  150.6194  140.8432  156.9308 O   0  0  0  0  0  0  0  0  0  0  0  0
  150.2300  141.9533  156.5672 C   0  0  0  0  0  0  0  0  0  0  0  0
  149.5713  142.1645  155.4183 N   0  0  0  0  0  0  0  0  0  0  0  0
  149.2209  141.1298  154.4529 C   0  0  0  0  0  0  0  0  0  0  0  0
  148.7797  139.8316  155.1550 C   0  0  0  0  0  0  0  0  0  0  0  0
  149.8665  138.9146  155.4927 N   0  0  0  0  0  0  0  0  0  0  0  0
  149.4146  137.5310  155.6250 C   0  0  0  0  0  0  0  0  0  0  0  0
  150.5763  136.5749  155.9483 C   0  0  0  0  0  0  0  0  0  0  0  0
  151.5848  136.6887  154.9497 O   0  0  0  0  0  0  0  0  0  0  0  0
  152.0857  138.0157  154.8264 C   0  0  0  0  0  0  0  0  0  0  0  0
  150.9281  138.9725  154.4931 C   0  0  0  0  0  0  0  0  0  0  0  0
  150.3988  143.0996  157.2499 N   0  0  0  0  0  0  0  0  0  0  0  0
  151.0555  143.2918  158.4949 C   0  0  0  0  0  0  0  0  0  0  0  0
  151.0531  144.6215  158.9741 C   0  0  0  0  0  0  0  0  0  0  0  0
  151.6804  144.9175  160.1999 C   0  0  0  0  0  0  0  0  0  0  0  0
  152.2952  143.8751  160.9161 C   0  0  0  0  0  0  0  0  0  0  0  0
  152.2531  142.5798  160.3682 C   0  0  0  0  0  0  0  0  0  0  0  0
  151.6526  142.2938  159.1935 N   0  0  0  0  0  0  0  0  0  0  0  0
  149.2891  143.1077  155.1961 H   0  0  0  0  0  0  0  0  0  0  0  0
  148.4351  141.4905  153.7869 H   0  0  0  0  0  0  0  0  0  0  0  0
  150.1000  140.9558  153.8336 H   0  0  0  0  0  0  0  0  0  0  0  0
  148.2118  140.0765  156.0540 H   0  0  0  0  0  0  0  0  0  0  0  0
  148.0827  139.3139  154.4943 H   0  0  0  0  0  0  0  0  0  0  0  0
  148.6690  137.4489  156.4150 H   0  0  0  0  0  0  0  0  0  0  0  0
  148.9301  137.2097  154.7016 H   0  0  0  0  0  0  0  0  0  0  0  0
  150.9992  136.7999  156.9286 H   0  0  0  0  0  0  0  0  0  0  0  0
  150.2217  135.5446  155.9811 H   0  0  0  0  0  0  0  0  0  0  0  0
  152.5794  138.3141  155.7527 H   0  0  0  0  0  0  0  0  0  0  0  0
  152.8388  138.0411  154.0390 H   0  0  0  0  0  0  0  0  0  0  0  0
  150.5254  138.7212  153.5106 H   0  0  0  0  0  0  0  0  0  0  0  0
  151.3137  139.9900  154.4202 H   0  0  0  0  0  0  0  0  0  0  0  0
  150.0141  143.9326  156.8296 H   0  0  0  0  0  0  0  0  0  0  0  0
  150.5755  145.4107  158.4116 H   0  0  0  0  0  0  0  0  0  0  0  0
  151.6893  145.9270  160.5834 H   0  0  0  0  0  0  0  0  0  0  0  0
  152.7861  144.0624  161.8597 H   0  0  0  0  0  0  0  0  0  0  0  0
  152.7139  141.7516  160.8857 H   0  0  0  0  0  0  0  0  0  0  0  0
  1  2  2  0  0  0  0
  2  3  1  0  0  0  0
  2 12  1  0  0  0  0
  3  4  1  0  0  0  0
  3 19  1  0  0  0  0
  4  5  1  0  0  0  0
  4 20  1  0  0  0  0
  4 21  1  0  0  0  0
  5  6  1  0  0  0  0
  5 22  1  0  0  0  0
  5 23  1  0  0  0  0
  6 11  1  0  0  0  0
  6  7  1  0  0  0  0
  7  8  1  0  0  0  0
  7 24  1  0  0  0  0
  7 25  1  0  0  0  0
  8  9  1  0  0  0  0
  8 26  1  0  0  0  0
  8 27  1  0  0  0  0
  9 10  1  0  0  0  0
 10 11  1  0  0  0  0
 10 28  1  0  0  0  0
 10 29  1  0  0  0  0
 11 30  1  0  0  0  0
 11 31  1  0  0  0  0
 12 13  1  0  0  0  0
 12 32  1  0  0  0  0
 13 18  1  0  0  0  0
 13 14  2  0  0  0  0
 14 15  1  0  0  0  0
 14 33  1  0  0  0  0
 15 16  2  0  0  0  0
 15 34  1  0  0  0  0
 16 17  1  0  0  0  0
 16 35  1  0  0  0  0
 17 18  2  0  0  0  0
 17 36  1  0  0  0  0
M  END
> <s_m_source_file>
AV-unprocessed.smi

> <i_m_source_file_index>
1587

> <i_lp_mmshare_version>
43012

> <i_f3d_flags>
0

> <s_epik_input>
bjFbY0hdW2NIXVtjSF1bY0hdYzFbTkhdQyg9TylbTkhdW0NIMl1bQ0gyXU4yW0NIMl1bQ0gyXU9bQ0gyXVtDSDJdMg==

> <s_epik_cmdline>
J2VwaWtfcHl0aG9uJywgJy1waCcsICc3LjAnLCAnLXRuJywgJzgnLCAnLW1hJywgJzIwMCcsICctbWV0YWxfYmluZGluZycsICctaW1hZScsICc8aW5maWxlLm1hZT4nLCAnLW9tYWUnLCAnPG91dGZpbGUubWFlPic=

> <r_epik_Ionization_Penalty>
0.266037

> <r_epik_Ionization_Penalty_Charging>
0

> <r_epik_Ionization_Penalty_Neutral>
0.266037

> <r_epik_State_Penalty>
0.257924

> <r_epik_Charging_Adjusted_Penalty>
0.257924

> <i_epik_Tot_Q>
0

> <i_epik_Tot_abs_Q>
0

> <r_epik_Metal_State_Penalty>
0.257923

> <b_epik_Metal_Only>
0

> <s_lp_Force_Field>
OPLS_2005

> <r_lp_Energy>
22.0776

> <b_lp_Chiralities_Consistent>
1

> <s_lp_Variant>
AV-unprocessed.smi:1587-1

> <Gold.Version>
5.8.1

> <Gold.Id.Protein>
6NUR|6NUR_protein|mol2

> <Gold.PLP.Fitness>
44.2923

> <Gold.PLP.PLP>
-36.4463

> <Gold.PLP.part.hbond>
-3.0000

> <Gold.PLP.part.metal>
0.0000

> <Gold.PLP.part.buried>
-4.7179

> <Gold.PLP.part.nonpolar>
-28.3716

> <Gold.PLP.part.repulsive>
0.4104

> <Gold.PLP.ligand.clash>
0.0103

> <Gold.PLP.ligand.torsion>
0.5867

> <Gold.PLP.Chemscore.Hbond>
3.0000

> <Gold.PLP.Chemscore.CHOScore>
0.0000

> <Gold.PLP.Chemscore.Metal>
0.0000

> <Gold.Chemscore.Hbonds>
donor molecule, donor type, donor heavy atom, donor atom, acceptor molecule, acceptor atom, score
      L1  H     3    19       P1  8028  1.00
      L1  H    12    32       P1  8028  1.00
      P1  H 10752 10765       L1     9  1.00

> <Gold.PLP.Chemscore.Internal.Correction>
0.0297

> <Gold.Rescore>
     Score         DG    S(hbond)    S(metal)    S(lipo)     H(rot)  DE(clash)    DE(int)     intcor
     15.52     -20.59       2.83        0.00      82.34       1.55       0.06       5.00       ----

> <Gold.Chemscore.Fitness>
15.5226

> <Gold.Chemscore.DG>
-20.5887

> <Gold.Chemscore.ZeroCoef>
-5.4800

> <Gold.Chemscore.Hbond>
2.8260

> <Gold.Chemscore.Metal>
0.0000

> <Gold.Chemscore.Lipo>
82.3398

> <Gold.Chemscore.Internal_Hbond>
0.0000

> <Gold.Chemscore.DEClash>
0.0640

> <Gold.Chemscore.DEInternal>
5.0022

> <Gold.Chemscore.Rot>
1.5484

> <Gold.Chemscore.Internal.Correction>
   9.000000E+99

> <Gold.Chemscore.Hbonds>
donor molecule, donor type, donor heavy atom, donor atom, acceptor molecule, acceptor atom, score
      L1  H     3    19       P1  8028  0.97
      L1  H    12    32       P1  8028  0.95
      P1  H 10752 10765       L1     9  0.59

> <Gold.Chemscore.Hbond.Weighted>
-9.4389

> <Gold.Chemscore.Metal.Weighted>
-0.0000

> <Gold.Chemscore.Lipo.Weighted>
-9.6338

> <Gold.Chemscore.Internal_Hbond.Weighted>
0.0000

> <Gold.Chemscore.DEClash.Weighted>
0.0640

> <Gold.Chemscore.DEInternal.Weighted>
5.0022

> <Gold.Chemscore.Rot.Weighted>
3.9639

> <Gold.Chemscore.Internal.Correction.Weighted>
   9.000000E+99

> <Gold.Protein.RotatedTorsions>
[ 6907 6896 6895 6894 ] final  -80.66 input  -60.11 | X-H torsion
[ 7974 7965 7964 7962 ] final  -28.77 input  175.53 | X-H torsion
[ 8008 7997 7996 7995 ] final  129.09 input   59.86 | X-H torsion
[ 10167 10162 10161 10158 ] final -140.28 input  -65.29 | X-H torsion
[ 10718 10713 10712 10709 ] final  -36.57 input   66.30 | X-H torsion
[ 10763 10752 10751 10750 ] final -169.57 input  -60.55 | X-H torsion
[ 11005 11000 10999 10996 ] final   89.06 input  -57.11 | X-H torsion

> <Gold.Protein.ActiveResidues>
 VAL166  LYS551  ARG553  GLY616  TRP617  ASP618  TYR619  PRO620  LYS621  CYS622 
 ASP623  PHE694  ASN695  SER759  ASP760  ASP761  ALA762  ILE779  LEU786  VAL792 
 PHE793  MET794  SER795  GLU796  ALA797  LYS798  CYS799  TRP800  GLU811  SER814 

> <Gold.Protein.RotatedAtoms>
  150.6925  134.3936  159.5087 H   0  0  0  0  0  0  0  0  0  0  0  0  # atno 6907 bound_to 6896
  152.1721  134.8823  160.0542 H   0  0  0  0  0  0  0  0  0  0  0  0  # atno 6908 bound_to 6896
  151.9845  133.3734  159.4157 H   0  0  0  0  0  0  0  0  0  0  0  0  # atno 6909 bound_to 6896
  146.1264  140.5326  142.8712 H   0  0  0  0  0  0  0  0  0  0  0  0  # atno 7974 bound_to 7965
  156.2929  140.2629  156.2543 H   0  0  0  0  0  0  0  0  0  0  0  0  # atno 8008 bound_to 7997
  154.9852  140.0389  157.2313 H   0  0  0  0  0  0  0  0  0  0  0  0  # atno 8009 bound_to 7997
  154.7736  140.2782  155.6123 H   0  0  0  0  0  0  0  0  0  0  0  0  # atno 8010 bound_to 7997
  139.8297  143.7463  152.2666 H   0  0  0  0  0  0  0  0  0  0  0  0  # atno 10167 bound_to 10162
  156.3253  130.4271  149.7922 H   0  0  0  0  0  0  0  0  0  0  0  0  # atno 10718 bound_to 10713
  154.6509  135.2911  154.9988 H   0  0  0  0  0  0  0  0  0  0  0  0  # atno 10763 bound_to 10752
  154.1082  135.6566  153.4884 H   0  0  0  0  0  0  0  0  0  0  0  0  # atno 10764 bound_to 10752
  153.0376  135.5258  154.7416 H   0  0  0  0  0  0  0  0  0  0  0  0  # atno 10765 bound_to 10752
  139.8883  134.8527  156.3088 H   0  0  0  0  0  0  0  0  0  0  0  0  # atno 11005 bound_to 11000
  144.7647  140.5502  143.6711 LP  0  0  0  0  0  0  0  0  0  0  0  0  # atno 17320 bound_to 7965
  145.5356  139.1475  143.3475 LP  0  0  0  0  0  0  0  0  0  0  0  0  # atno 17321 bound_to 7965
  139.7667  144.7489  151.0284 LP  0  0  0  0  0  0  0  0  0  0  0  0  # atno 17342 bound_to 10162
  140.7807  143.4690  151.0172 LP  0  0  0  0  0  0  0  0  0  0  0  0  # atno 17343 bound_to 10162
  156.5215  130.8217  151.3205 LP  0  0  0  0  0  0  0  0  0  0  0  0  # atno 17370 bound_to 10713
  157.7420  130.9881  150.2484 LP  0  0  0  0  0  0  0  0  0  0  0  0  # atno 17371 bound_to 10713
  140.9864  133.7235  156.0748 LP  0  0  0  0  0  0  0  0  0  0  0  0  # atno 17394 bound_to 11000
  140.7683  134.3862  157.5513 LP  0  0  0  0  0  0  0  0  0  0  0  0  # atno 17395 bound_to 11000

$$$$
