AV-unprocessed.smi:3060|AV-procd|sdf|11678|dock8
  -GOLD-   2272017 83D 1   1.00000     0.00000
 Structure written by MMmdl.
 42 43  0  0  0  0  0  0  0  0  1 V2000
  146.7120  142.3119  154.1711 C   0  0  0  0  0  0  0  0  0  0  0  0
  147.3869  140.9384  154.2453 C   0  0  0  0  0  0  0  0  0  0  0  0
  147.6246  140.4888  155.6524 C   0  0  0  0  0  0  0  0  0  0  0  0
  146.7291  140.5377  156.6301 N   0  0  0  0  0  0  0  0  0  0  0  0
  147.4083  140.0379  157.7250 N   0  0  0  0  0  0  0  0  0  0  0  0
  148.6333  139.7211  157.4186 N   0  0  0  0  0  0  0  0  0  0  0  0
  148.7924  140.0053  156.1021 N   0  0  0  0  0  0  0  0  0  0  0  0
  150.0649  139.7667  155.4360 C   0  0  0  0  0  0  0  0  0  0  0  0
  151.2236  140.5298  156.0890 C   0  0  0  0  0  0  0  0  0  0  0  0
  152.3725  140.3470  155.6883 O   0  0  0  0  0  0  0  0  0  0  0  0
  150.9191  141.3593  157.1018 N   0  0  0  0  0  0  0  0  0  0  0  0
  151.8627  142.1751  157.8619 C   0  0  0  0  0  0  0  0  0  0  0  0
  151.8863  141.6616  159.3227 C   0  0  0  0  0  0  0  0  0  0  0  0
  152.9870  142.2671  160.2166 C   0  0  0  0  0  0  0  0  0  0  0  0
  152.5203  143.3626  161.1950 C   0  0  0  0  0  0  0  0  0  0  0  0
  151.5539  144.4251  160.6414 C   0  0  0  0  0  0  0  0  0  0  0  0
  152.1066  145.3487  159.5411 C   0  0  0  0  0  0  0  0  0  0  0  0
  152.4778  144.6890  158.1988 C   0  0  0  0  0  0  0  0  0  0  0  0
  151.4652  143.6570  157.6622 C   0  0  0  0  0  0  0  0  0  0  0  0
  146.5495  142.6091  153.1349 H   0  0  0  0  0  0  0  0  0  0  0  0
  147.3260  143.0780  154.6455 H   0  0  0  0  0  0  0  0  0  0  0  0
  145.7427  142.3013  154.6708 H   0  0  0  0  0  0  0  0  0  0  0  0
  146.7631  140.1965  153.7456 H   0  0  0  0  0  0  0  0  0  0  0  0
  148.3321  140.9554  153.7024 H   0  0  0  0  0  0  0  0  0  0  0  0
  150.2824  138.6987  155.4442 H   0  0  0  0  0  0  0  0  0  0  0  0
  149.9729  140.0608  154.3893 H   0  0  0  0  0  0  0  0  0  0  0  0
  149.9475  141.4409  157.3633 H   0  0  0  0  0  0  0  0  0  0  0  0
  152.8593  142.0441  157.4362 H   0  0  0  0  0  0  0  0  0  0  0  0
  150.9052  141.7592  159.7882 H   0  0  0  0  0  0  0  0  0  0  0  0
  152.0693  140.5865  159.2855 H   0  0  0  0  0  0  0  0  0  0  0  0
  153.4129  141.4646  160.8202 H   0  0  0  0  0  0  0  0  0  0  0  0
  153.8239  142.6149  159.6135 H   0  0  0  0  0  0  0  0  0  0  0  0
  152.0206  142.8727  162.0316 H   0  0  0  0  0  0  0  0  0  0  0  0
  153.3945  143.8529  161.6244 H   0  0  0  0  0  0  0  0  0  0  0  0
  150.6244  143.9606  160.3162 H   0  0  0  0  0  0  0  0  0  0  0  0
  151.2590  145.0600  161.4776 H   0  0  0  0  0  0  0  0  0  0  0  0
  151.3489  146.1076  159.3424 H   0  0  0  0  0  0  0  0  0  0  0  0
  152.9714  145.8932  159.9217 H   0  0  0  0  0  0  0  0  0  0  0  0
  152.5650  145.4913  157.4652 H   0  0  0  0  0  0  0  0  0  0  0  0
  153.4773  144.2603  158.2397 H   0  0  0  0  0  0  0  0  0  0  0  0
  151.3843  143.8258  156.5869 H   0  0  0  0  0  0  0  0  0  0  0  0
  150.4642  143.8510  158.0485 H   0  0  0  0  0  0  0  0  0  0  0  0
  1  2  1  0  0  0  0
  1 20  1  0  0  0  0
  1 21  1  0  0  0  0
  1 22  1  0  0  0  0
  2  3  1  0  0  0  0
  2 23  1  0  0  0  0
  2 24  1  0  0  0  0
  3  7  1  0  0  0  0
  3  4  2  0  0  0  0
  4  5  1  0  0  0  0
  5  6  2  0  0  0  0
  6  7  1  0  0  0  0
  7  8  1  0  0  0  0
  8  9  1  0  0  0  0
  8 25  1  0  0  0  0
  8 26  1  0  0  0  0
  9 10  2  0  0  0  0
  9 11  1  0  0  0  0
 11 12  1  0  0  0  0
 11 27  1  0  0  0  0
 12 19  1  0  0  0  0
 12 13  1  0  0  0  0
 12 28  1  0  0  0  0
 13 14  1  0  0  0  0
 13 29  1  0  0  0  0
 13 30  1  0  0  0  0
 14 15  1  0  0  0  0
 14 31  1  0  0  0  0
 14 32  1  0  0  0  0
 15 16  1  0  0  0  0
 15 33  1  0  0  0  0
 15 34  1  0  0  0  0
 16 17  1  0  0  0  0
 16 35  1  0  0  0  0
 16 36  1  0  0  0  0
 17 18  1  0  0  0  0
 17 37  1  0  0  0  0
 17 38  1  0  0  0  0
 18 19  1  0  0  0  0
 18 39  1  0  0  0  0
 18 40  1  0  0  0  0
 19 41  1  0  0  0  0
 19 42  1  0  0  0  0
M  END
> <s_m_source_file>
AV-unprocessed.smi

> <i_m_source_file_index>
3060

> <i_lp_mmshare_version>
43012

> <i_f3d_flags>
0

> <s_epik_input>
W0NIM11bQ0gyXWMxbm5ubjFbQ0gyXUMoPU8pW05IXVtDSF0yW0NIMl1bQ0gyXVtDSDJdW0NIMl1bQ0gyXVtDSDJdW0NIMl0y

> <s_epik_cmdline>
J2VwaWtfcHl0aG9uJywgJy1waCcsICc3LjAnLCAnLXRuJywgJzgnLCAnLW1hJywgJzIwMCcsICctbWV0YWxfYmluZGluZycsICctaW1hZScsICc8aW5maWxlLm1hZT4nLCAnLW9tYWUnLCAnPG91dGZpbGUubWFlPic=

> <r_lp_tautomer_probability>
1

> <r_epik_Ionization_Penalty>
4.54698e-07

> <r_epik_Ionization_Penalty_Charging>
0

> <r_epik_Ionization_Penalty_Neutral>
4.54698e-07

> <r_epik_State_Penalty>
-0

> <r_epik_Charging_Adjusted_Penalty>
0

> <i_epik_Tot_Q>
0

> <i_epik_Tot_abs_Q>
0

> <r_epik_Metal_State_Penalty>
-0

> <b_epik_Metal_Only>
0

> <s_lp_Force_Field>
OPLS_2005

> <r_lp_Energy>
19.51

> <b_lp_Chiralities_Consistent>
1

> <s_lp_Variant>
AV-unprocessed.smi:3060-1

> <Gold.Version>
5.8.1

> <Gold.Id.Protein>
6NUR|6NUR_protein|mol2

> <Gold.PLP.Fitness>
42.9572

> <Gold.PLP.PLP>
-40.0755

> <Gold.PLP.part.hbond>
-2.0000

> <Gold.PLP.part.metal>
0.0000

> <Gold.PLP.part.buried>
-2.8033

> <Gold.PLP.part.nonpolar>
-34.2235

> <Gold.PLP.part.repulsive>
0.0802

> <Gold.PLP.ligand.clash>
0.0000

> <Gold.PLP.ligand.torsion>
0.1751

> <Gold.PLP.Chemscore.Hbond>
1.0682

> <Gold.PLP.Chemscore.CHOScore>
0.0000

> <Gold.PLP.Chemscore.Metal>
0.0000

> <Gold.Chemscore.Hbonds>
donor molecule, donor type, donor heavy atom, donor atom, acceptor molecule, acceptor atom, score
      P1  H  7989  7998       L1    10  0.06
      P1  H  7997  8008       L1    10  0.96

> <Gold.PLP.Chemscore.Internal.Correction>
0.0274

> <Gold.Rescore>
     Score         DG    S(hbond)    S(metal)    S(lipo)     H(rot)  DE(clash)    DE(int)     intcor
     17.35     -17.58       0.99        0.00     111.64       1.66       0.19       0.04       ----

> <Gold.Chemscore.Fitness>
17.3543

> <Gold.Chemscore.DG>
-17.5843

> <Gold.Chemscore.ZeroCoef>
-5.4800

> <Gold.Chemscore.Hbond>
0.9862

> <Gold.Chemscore.Metal>
0.0000

> <Gold.Chemscore.Lipo>
111.6440

> <Gold.Chemscore.Internal_Hbond>
0.0000

> <Gold.Chemscore.DEClash>
0.1937

> <Gold.Chemscore.DEInternal>
0.0363

> <Gold.Chemscore.Rot>
1.6609

> <Gold.Chemscore.Internal.Correction>
   9.000000E+99

> <Gold.Chemscore.Hbonds>
donor molecule, donor type, donor heavy atom, donor atom, acceptor molecule, acceptor atom, score
      P1  H  7997  8008       L1    10  0.89

> <Gold.Chemscore.Hbond.Weighted>
-3.2938

> <Gold.Chemscore.Metal.Weighted>
-0.0000

> <Gold.Chemscore.Lipo.Weighted>
-13.0623

> <Gold.Chemscore.Internal_Hbond.Weighted>
0.0000

> <Gold.Chemscore.DEClash.Weighted>
0.1937

> <Gold.Chemscore.DEInternal.Weighted>
0.0363

> <Gold.Chemscore.Rot.Weighted>
4.2518

> <Gold.Chemscore.Internal.Correction.Weighted>
   9.000000E+99

> <Gold.Protein.RotatedTorsions>
[ 6907 6896 6895 6894 ] final  -85.69 input  -60.11 | X-H torsion
[ 7974 7965 7964 7962 ] final  106.72 input  175.53 | X-H torsion
[ 8008 7997 7996 7995 ] final  -25.01 input   59.86 | X-H torsion
[ 10167 10162 10161 10158 ] final  145.11 input  -65.29 | X-H torsion
[ 10718 10713 10712 10709 ] final   80.63 input   66.30 | X-H torsion
[ 10763 10752 10751 10750 ] final  -59.01 input  -60.55 | X-H torsion
[ 11005 11000 10999 10996 ] final  -94.23 input  -57.11 | X-H torsion

> <Gold.Protein.ActiveResidues>
 VAL166  LYS551  ARG553  GLY616  TRP617  ASP618  TYR619  PRO620  LYS621  CYS622 
 ASP623  PHE694  ASN695  SER759  ASP760  ASP761  ALA762  ILE779  LEU786  VAL792 
 PHE793  MET794  SER795  GLU796  ALA797  LYS798  CYS799  TRP800  GLU811  SER814 

> <Gold.Protein.RotatedAtoms>
  150.6869  134.3166  159.4768 H   0  0  0  0  0  0  0  0  0  0  0  0  # atno 6907 bound_to 6896
  152.1046  134.9314  160.0578 H   0  0  0  0  0  0  0  0  0  0  0  0  # atno 6908 bound_to 6896
  152.0580  133.4014  159.4442 H   0  0  0  0  0  0  0  0  0  0  0  0  # atno 6909 bound_to 6896
  145.3029  139.2564  143.3804 H   0  0  0  0  0  0  0  0  0  0  0  0  # atno 7974 bound_to 7965
  154.4498  140.1938  156.0553 H   0  0  0  0  0  0  0  0  0  0  0  0  # atno 8008 bound_to 7997
  156.0624  140.3295  155.7450 H   0  0  0  0  0  0  0  0  0  0  0  0  # atno 8009 bound_to 7997
  155.5391  140.0585  157.2864 H   0  0  0  0  0  0  0  0  0  0  0  0  # atno 8010 bound_to 7997
  139.4933  144.5925  151.6651 H   0  0  0  0  0  0  0  0  0  0  0  0  # atno 10167 bound_to 10162
  157.6811  130.9968  150.2107 H   0  0  0  0  0  0  0  0  0  0  0  0  # atno 10718 bound_to 10713
  154.2470  135.6333  153.5227 H   0  0  0  0  0  0  0  0  0  0  0  0  # atno 10763 bound_to 10752
  152.9919  135.5555  154.5849 H   0  0  0  0  0  0  0  0  0  0  0  0  # atno 10764 bound_to 10752
  154.5367  135.2892  155.1106 H   0  0  0  0  0  0  0  0  0  0  0  0  # atno 10765 bound_to 10752
  141.1476  133.7942  157.0269 H   0  0  0  0  0  0  0  0  0  0  0  0  # atno 11005 bound_to 11000
  146.3145  140.3548  142.8659 LP  0  0  0  0  0  0  0  0  0  0  0  0  # atno 17320 bound_to 7965
  144.9078  140.7721  143.5826 LP  0  0  0  0  0  0  0  0  0  0  0  0  # atno 17321 bound_to 7965
  140.5555  144.0355  150.6146 LP  0  0  0  0  0  0  0  0  0  0  0  0  # atno 17342 bound_to 10162
  140.3423  143.3012  152.0575 LP  0  0  0  0  0  0  0  0  0  0  0  0  # atno 17343 bound_to 10162
  156.2779  130.3729  149.7965 LP  0  0  0  0  0  0  0  0  0  0  0  0  # atno 17370 bound_to 10713
  156.5663  130.8405  151.3343 LP  0  0  0  0  0  0  0  0  0  0  0  0  # atno 17371 bound_to 10713
  140.0779  134.9665  157.1576 LP  0  0  0  0  0  0  0  0  0  0  0  0  # atno 17394 bound_to 11000
  140.3618  134.2486  155.7186 LP  0  0  0  0  0  0  0  0  0  0  0  0  # atno 17395 bound_to 11000

$$$$
