#       Name:                AV-unprocessed.smi:2718
#       Creating user name   scv26
#       Creation time:       Fri Mar 27 14:53:20 2020


#       File generated by GOLD software.
#

@<TRIPOS>MOLECULE
AV-unprocessed.smi:2718
    51    52     1
SMALL
NO_CHARGES


@<TRIPOS>ATOM
      1 ****        -0.5278  -2.0750   3.0797 C.3            1 S1                 0.0000
      2 ****        -1.2766  -1.1767   2.1156 C.2            1 S1                 0.0000
      3 ****        -1.0492   0.3095   2.3295 C.3            1 S1                 0.0000
      4 ****        -2.0719  -1.6814   1.1522 C.2            1 S1                 0.0000
      5 ****        -2.8523  -0.9143   0.1376 C.3            1 S1                 0.0000
      6 ****        -2.2316  -0.1394  -1.0203 C.3            1 S1                 0.0000
      7 ****        -0.7386  -0.1073  -1.1928 C.2            1 S1                 0.0000
      8 ****         0.0073  -1.0634  -0.9791 O.2            1 S1                 0.0000
      9 ****        -0.2720   1.0929  -1.5701 N.am           1 S1                 0.0000
     10 ****         1.1413   1.4343  -1.6972 C.3            1 S1                 0.0000
     11 ****         1.7945   1.7217  -0.3282 C.3            1 S1                 0.0000
     12 ****         1.1522   2.9110   0.4074 C.3            1 S1                 0.0000
     13 ****         3.2806   1.9001  -0.4616 C.2            1 S1                 0.0000
     14 ****         3.8493   2.9064  -1.1396 N.2            1 S1                 0.0000
     15 ****         5.2110   2.7073  -1.0335 N.2            1 S1                 0.0000
     16 ****         5.3311   1.5987  -0.3046 C.2            1 S1                 0.0000
     17 ****         4.1724   1.0449   0.0829 N.pl3          1 S1                 0.0000
     18 ****         3.9668  -0.1539   0.8720 C.3            1 S1                 0.0000
     19 ****        -3.0401  -1.4059  -1.2900 C.3            1 S1                 0.0000
     20 ****        -2.4185  -2.7184  -1.7641 C.3            1 S1                 0.0000
     21 ****        -4.3972  -1.2387  -1.9523 C.3            1 S1                 0.0000
     22 ****        -0.8219  -1.8572   4.1065 H              1 S1                 0.0000
     23 ****         0.5465  -1.9131   2.9881 H              1 S1                 0.0000
     24 ****        -0.7288  -3.1291   2.8855 H              1 S1                 0.0000
     25 ****         0.0059   0.5487   2.1968 H              1 S1                 0.0000
     26 ****        -1.3368   0.5909   3.3425 H              1 S1                 0.0000
     27 ****        -1.6235   0.9243   1.6373 H              1 S1                 0.0000
     28 ****        -2.1768  -2.7548   1.0920 H              1 S1                 0.0000
     29 ****        -3.7218  -0.4532   0.6024 H              1 S1                 0.0000
     30 ****        -2.7290   0.7986  -1.2637 H              1 S1                 0.0000
     31 ****        -0.9387   1.8342  -1.7308 H              1 S1                 0.0000
     32 ****         1.6668   0.6218  -2.2025 H              1 S1                 0.0000
     33 ****         1.2288   2.3055  -2.3470 H              1 S1                 0.0000
     34 ****         1.6207   0.8478   0.2984 H              1 S1                 0.0000
     35 ****         1.6098   3.0558   1.3865 H              1 S1                 0.0000
     36 ****         0.0855   2.7546   0.5679 H              1 S1                 0.0000
     37 ****         1.2709   3.8372  -0.1558 H              1 S1                 0.0000
     38 ****         6.2925   1.1778  -0.0485 H              1 S1                 0.0000
     39 ****         4.9268  -0.5927   1.1462 H              1 S1                 0.0000
     40 ****         3.3969  -0.8819   0.2937 H              1 S1                 0.0000
     41 ****         3.4184   0.0924   1.7816 H              1 S1                 0.0000
     42 ****        -2.1352  -2.6418  -2.8141 H              1 S1                 0.0000
     43 ****        -3.1345  -3.5344  -1.6615 H              1 S1                 0.0000
     44 ****        -1.5359  -2.9942  -1.1906 H              1 S1                 0.0000
     45 ****        -4.2908  -1.2215  -3.0374 H              1 S1                 0.0000
     46 ****        -4.8695  -0.3066  -1.6407 H              1 S1                 0.0000
     47 ****        -5.0589  -2.0609  -1.6785 H              1 S1                 0.0000
     48 ****        -0.3730  -1.9347  -0.6689 LP             1 S1                 0.0000
     49 ****         0.9934  -0.9686  -1.1157 LP             1 S1                 0.0000
     50 ****         3.3836   3.6480  -1.6224 LP             1 S1                 0.0000
     51 ****         5.9435   3.2694  -1.4177 LP             1 S1                 0.0000
@<TRIPOS>BOND
    1    1    2 1     
    2    1   22 1     
    3    1   23 1     
    4    1   24 1     
    5    2    3 1     
    6    2    4 2     
    7    3   25 1     
    8    3   26 1     
    9    3   27 1     
   10    4    5 1     
   11    4   28 1     
   12    5   19 1     
   13    5    6 1     
   14    5   29 1     
   15    6    7 1     
   16    6   19 1     
   17    6   30 1     
   18    7    8 2     
   19    7    9 am    
   20    9   10 1     
   21    9   31 1     
   22   10   11 1     
   23   10   32 1     
   24   10   33 1     
   25   11   12 1     
   26   11   13 1     
   27   11   34 1     
   28   12   35 1     
   29   12   36 1     
   30   12   37 1     
   31   13   17 1     
   32   13   14 2     
   33   14   15 1     
   34   15   16 2     
   35   16   17 1     
   36   16   38 1     
   37   17   18 1     
   38   18   39 1     
   39   18   40 1     
   40   18   41 1     
   41   19   20 1     
   42   19   21 1     
   43   20   42 1     
   44   20   43 1     
   45   20   44 1     
   46   21   45 1     
   47   21   46 1     
   48   21   47 1     
   49    8   48 1     
   50    8   49 1     
   51   14   50 1     
   52   15   51 1     
@<TRIPOS>SUBSTRUCTURE
      1 S1             1
@<TRIPOS>SET
LONE_PAIRS      STATIC     ATOMS    <user>   **** ""
4 48 49 50 51
DONOR_HYDROGENS      STATIC     ATOMS    <user>   **** ""
1 31
ATOM$BLUE        STATIC     ATOMS    COLORGROUP SYSTEM
4 48 49 50 51
ATOM$RED        STATIC     ATOMS    COLORGROUP SYSTEM
1 31
