AV-unprocessed.smi:38|AV-procd|sdf|339|dock4
  -GOLD-   2262016173D 1   1.00000     0.00000
 Structure written by MMmdl.
 28 29  0  0  0  0  0  0  0  0  1 V2000
  151.3063  145.3684  158.7777 O   0  0  0  0  0  0  0  0  0  0  0  0
  151.4551  144.1717  158.5384 C   0  0  0  0  0  0  0  0  0  0  0  0
  150.8803  143.6064  157.3964 N   0  0  0  0  0  0  0  0  0  0  0  0
  150.9754  142.2655  157.0182 C   0  0  0  0  0  0  0  0  0  0  0  0
  150.4397  141.8835  155.9788 O   0  0  0  0  0  0  0  0  0  0  0  0
  151.7077  141.4072  157.8687 N   0  0  0  0  0  0  0  0  0  0  0  0
  151.8423  139.9429  157.5194 C   0  0  1  0  0  0  0  0  0  0  0  0
  150.4662  139.2792  157.4031 C   0  0  0  0  0  0  0  0  0  0  0  0
  150.6537  138.3603  156.2122 C   0  0  2  0  0  0  0  0  0  0  0  0
  151.1719  137.1094  156.6248 O   0  0  0  0  0  0  0  0  0  0  0  0
  151.6491  139.1500  155.3500 C   0  0  2  0  0  0  0  0  0  0  0  0
  152.4888  138.3467  154.3416 C   0  0  0  0  0  0  0  0  0  0  0  0
  151.8238  137.1511  153.9928 O   0  0  0  0  0  0  0  0  0  0  0  0
  152.4855  139.8301  156.2832 O   0  0  0  0  0  0  0  0  0  0  0  0
  152.3072  141.9284  159.0075 C   0  0  0  0  0  0  0  0  0  0  0  0
  152.2107  143.2317  159.3610 C   0  0  0  0  0  0  0  0  0  0  0  0
  152.8213  143.6635  160.4775 F   0  0  0  0  0  0  0  0  0  0  0  0
  150.3548  144.2211  156.7916 H   0  0  0  0  0  0  0  0  0  0  0  0
  152.4857  139.4718  158.2639 H   0  0  0  0  0  0  0  0  0  0  0  0
  149.7152  138.1845  155.6854 H   0  0  0  0  0  0  0  0  0  0  0  0
  151.0942  139.9183  154.8095 H   0  0  0  0  0  0  0  0  0  0  0  0
  150.1868  138.7733  158.3281 H   0  0  0  0  0  0  0  0  0  0  0  0
  149.7118  140.0334  157.1741 H   0  0  0  0  0  0  0  0  0  0  0  0
  151.9266  137.2646  157.1727 H   0  0  0  0  0  0  0  0  0  0  0  0
  152.6362  138.9322  153.4339 H   0  0  0  0  0  0  0  0  0  0  0  0
  153.4793  138.1177  154.7350 H   0  0  0  0  0  0  0  0  0  0  0  0
  151.6719  137.1534  153.0600 H   0  0  0  0  0  0  0  0  0  0  0  0
  152.8840  141.2772  159.6465 H   0  0  0  0  0  0  0  0  0  0  0  0
  1  2  2  0  0  0  0
  2 16  1  0  0  0  0
  2  3  1  0  0  0  0
  3 18  1  0  0  0  0
  3  4  1  0  0  0  0
  4  5  2  0  0  0  0
  4  6  1  0  0  0  0
  6  7  1  0  0  0  0
  6 15  1  0  0  0  0
  7 19  1  0  0  0  0
  7 14  1  0  0  0  0
  7  8  1  0  0  0  0
  8  9  1  0  0  0  0
  8 22  1  0  0  0  0
  8 23  1  0  0  0  0
  9 20  1  0  0  0  0
  9 10  1  0  0  0  0
  9 11  1  0  0  0  0
 10 24  1  0  0  0  0
 11 21  1  0  0  0  0
 11 12  1  0  0  0  0
 11 14  1  0  0  0  0
 12 13  1  0  0  0  0
 12 25  1  0  0  0  0
 12 26  1  0  0  0  0
 13 27  1  0  0  0  0
 15 16  2  0  0  0  0
 15 28  1  0  0  0  0
 16 17  1  0  0  0  0
M  END
> <s_m_source_file>
AV-unprocessed.smi

> <i_m_source_file_index>
38

> <i_lp_mmshare_version>
43012

> <i_f3d_flags>
0

> <s_epik_input>
Tz1jMVtuSF1jKD1PKW4oW2NIXWMxRilbQ0BIXTJbQ0gyXVtDQEhdKFtPSF0pW0NASF0oTzIpW0NIMl1bT0hd

> <s_epik_cmdline>
J2VwaWtfcHl0aG9uJywgJy1waCcsICc3LjAnLCAnLXRuJywgJzgnLCAnLW1hJywgJzIwMCcsICctbWV0YWxfYmluZGluZycsICctaW1hZScsICc8aW5maWxlLm1hZT4nLCAnLW9tYWUnLCAnPG91dGZpbGUubWFlPic=

> <r_lp_tautomer_probability>
0.999537

> <r_epik_Ionization_Penalty>
0.0357432

> <r_epik_Ionization_Penalty_Charging>
0.0357431

> <r_epik_Ionization_Penalty_Neutral>
1.19946e-07

> <r_epik_State_Penalty>
0.0298169

> <r_epik_Charging_Adjusted_Penalty>
0.06556

> <i_epik_Tot_Q>
0

> <i_epik_Tot_abs_Q>
0

> <r_epik_Metal_State_Penalty>
2.348

> <b_epik_Metal_Only>
0

> <s_epik_Chemistry_Notes>
This compound contains an acetal/aminal-like group ( X-CH(R)-Y where X, Y are N, S, or O) that may be acid/base labile, releasing an aldehyde.

> <s_lp_Force_Field>
OPLS_2005

> <r_lp_Energy>
29.3974

> <b_lp_Chiralities_Consistent>
1

> <s_lp_Variant>
AV-unprocessed.smi:38-5

> <Gold.Version>
5.8.1

> <Gold.Id.Protein>
6NUR|6NUR_protein|mol2

> <Gold.PLP.Fitness>
43.7127

> <Gold.PLP.PLP>
-32.9593

> <Gold.PLP.part.hbond>
-4.6073

> <Gold.PLP.part.metal>
0.0000

> <Gold.PLP.part.buried>
-5.8062

> <Gold.PLP.part.nonpolar>
-22.2712

> <Gold.PLP.part.repulsive>
0.2266

> <Gold.PLP.ligand.clash>
0.0000

> <Gold.PLP.ligand.torsion>
0.4804

> <Gold.PLP.Chemscore.Hbond>
3.9040

> <Gold.PLP.Chemscore.CHOScore>
0.0000

> <Gold.PLP.Chemscore.Metal>
0.0000

> <Gold.Chemscore.Hbonds>
donor molecule, donor type, donor heavy atom, donor atom, acceptor molecule, acceptor atom, score
      L1  H     3    18       P1  8028  1.00
      L1  H    13    27       P1  7949  0.88
      P1  H  7997  8008       L1    14  1.00
      P1  H 10752 10763       L1    13  1.00

> <Gold.PLP.Chemscore.Internal.Correction>
0.0022

> <Gold.Rescore>
     Score         DG    S(hbond)    S(metal)    S(lipo)     H(rot)  DE(clash)    DE(int)     intcor
     12.33     -14.93       3.50        0.00      44.60       2.91       0.36       2.25       ----

> <Gold.Chemscore.Fitness>
12.3266

> <Gold.Chemscore.DG>
-14.9343

> <Gold.Chemscore.ZeroCoef>
-5.4800

> <Gold.Chemscore.Hbond>
3.5018

> <Gold.Chemscore.Metal>
0.0000

> <Gold.Chemscore.Lipo>
44.6005

> <Gold.Chemscore.Internal_Hbond>
0.0000

> <Gold.Chemscore.DEClash>
0.3609

> <Gold.Chemscore.DEInternal>
2.2467

> <Gold.Chemscore.Rot>
2.9141

> <Gold.Chemscore.Internal.Correction>
   9.000000E+99

> <Gold.Chemscore.Hbonds>
donor molecule, donor type, donor heavy atom, donor atom, acceptor molecule, acceptor atom, score
      L1  H     3    18       P1  8028  0.96
      L1  H    13    27       P1  7949  0.79
      P1  H  7997  8008       L1    14  0.94
      P1  H 10752 10763       L1    13  0.27

> <Gold.Chemscore.Hbond.Weighted>
-11.6961

> <Gold.Chemscore.Metal.Weighted>
-0.0000

> <Gold.Chemscore.Lipo.Weighted>
-5.2183

> <Gold.Chemscore.Internal_Hbond.Weighted>
0.0000

> <Gold.Chemscore.DEClash.Weighted>
0.3609

> <Gold.Chemscore.DEInternal.Weighted>
2.2467

> <Gold.Chemscore.Rot.Weighted>
7.4601

> <Gold.Chemscore.Internal.Correction.Weighted>
   9.000000E+99

> <Gold.Protein.RotatedTorsions>
[ 6907 6896 6895 6894 ] final -173.04 input  -60.11 | X-H torsion
[ 7974 7965 7964 7962 ] final -150.23 input  175.53 | X-H torsion
[ 8008 7997 7996 7995 ] final  -37.97 input   59.86 | X-H torsion
[ 10167 10162 10161 10158 ] final -113.87 input  -65.29 | X-H torsion
[ 10718 10713 10712 10709 ] final    3.87 input   66.30 | X-H torsion
[ 10763 10752 10751 10750 ] final   37.26 input  -60.55 | X-H torsion
[ 11005 11000 10999 10996 ] final  -53.31 input  -57.11 | X-H torsion

> <Gold.Protein.ActiveResidues>
 VAL166  LYS551  ARG553  GLY616  TRP617  ASP618  TYR619  PRO620  LYS621  CYS622 
 ASP623  PHE694  ASN695  SER759  ASP760  ASP761  ALA762  ILE779  LEU786  VAL792 
 PHE793  MET794  SER795  GLU796  ALA797  LYS798  CYS799  TRP800  GLU811  SER814 

> <Gold.Protein.RotatedAtoms>
  151.5498  133.3419  159.2950 H   0  0  0  0  0  0  0  0  0  0  0  0  # atno 6907 bound_to 6896
  150.8486  134.7805  159.7001 H   0  0  0  0  0  0  0  0  0  0  0  0  # atno 6908 bound_to 6896
  152.4537  134.5345  159.9872 H   0  0  0  0  0  0  0  0  0  0  0  0  # atno 6909 bound_to 6896
  144.7920  140.4959  143.5766 H   0  0  0  0  0  0  0  0  0  0  0  0  # atno 7974 bound_to 7965
  154.4044  140.1590  156.2624 H   0  0  0  0  0  0  0  0  0  0  0  0  # atno 8008 bound_to 7997
  155.9025  140.3432  155.6014 H   0  0  0  0  0  0  0  0  0  0  0  0  # atno 8009 bound_to 7997
  155.7432  140.0795  157.2227 H   0  0  0  0  0  0  0  0  0  0  0  0  # atno 8010 bound_to 7997
  140.1071  143.4560  152.1776 H   0  0  0  0  0  0  0  0  0  0  0  0  # atno 10167 bound_to 10162
  156.8842  130.5664  149.5652 H   0  0  0  0  0  0  0  0  0  0  0  0  # atno 10718 bound_to 10713
  153.0044  135.6283  154.2117 H   0  0  0  0  0  0  0  0  0  0  0  0  # atno 10763 bound_to 10752
  154.1860  135.2811  155.3039 H   0  0  0  0  0  0  0  0  0  0  0  0  # atno 10764 bound_to 10752
  154.5797  135.5651  153.7233 H   0  0  0  0  0  0  0  0  0  0  0  0  # atno 10765 bound_to 10752
  141.0969  133.6623  156.4154 H   0  0  0  0  0  0  0  0  0  0  0  0  # atno 11005 bound_to 11000
  145.5771  139.1486  143.3256 LP  0  0  0  0  0  0  0  0  0  0  0  0  # atno 17320 bound_to 7965
  146.2175  140.5902  142.9032 LP  0  0  0  0  0  0  0  0  0  0  0  0  # atno 17321 bound_to 7965
  139.5639  144.7423  151.4077 LP  0  0  0  0  0  0  0  0  0  0  0  0  # atno 17342 bound_to 10162
  140.6946  143.7780  150.7307 LP  0  0  0  0  0  0  0  0  0  0  0  0  # atno 17343 bound_to 10162
  156.0662  130.5704  150.9293 LP  0  0  0  0  0  0  0  0  0  0  0  0  # atno 17370 bound_to 10713
  157.6122  131.0935  150.8774 LP  0  0  0  0  0  0  0  0  0  0  0  0  # atno 17371 bound_to 10713
  140.5117  134.6389  157.5286 LP  0  0  0  0  0  0  0  0  0  0  0  0  # atno 17394 bound_to 11000
  139.9809  134.7139  155.9862 LP  0  0  0  0  0  0  0  0  0  0  0  0  # atno 17395 bound_to 11000

$$$$
