AV-unprocessed.smi:2816|AV-procd|sdf|10845|dock1
  -GOLD-   2272015283D 1   1.00000     0.00000
 Structure written by MMmdl.
 43 45  0  0  0  0  0  0  0  0  1 V2000
  153.1978  131.0186  155.7334 C   0  0  0  0  0  0  0  0  0  0  0  0
  152.2202  129.9354  156.2217 C   0  0  0  0  0  0  0  0  0  0  0  0
  151.7072  129.1244  155.0179 C   0  0  0  0  0  0  0  0  0  0  0  0
  152.9381  129.0131  157.2242 C   0  0  0  0  0  0  0  0  0  0  0  0
  150.7907  130.7920  157.0518 S   0  0  0  0  0  0  0  0  0  0  0  0
  149.8941  129.7658  157.6075 O   0  0  0  0  0  0  0  0  0  0  0  0
  151.3421  131.8221  157.9467 O   0  0  0  0  0  0  0  0  0  0  0  0
  149.8975  131.6370  155.7451 C   0  0  0  0  0  0  0  0  0  0  0  0
  149.7335  133.0362  155.7944 C   0  0  0  0  0  0  0  0  0  0  0  0
  149.0676  133.6647  154.7257 C   0  0  0  0  0  0  0  0  0  0  0  0
  148.6012  132.8756  153.6473 C   0  0  0  0  0  0  0  0  0  0  0  0
  147.9351  133.4068  152.5329 N   0  0  0  0  0  0  0  0  0  0  0  0
  146.7985  132.7211  151.9294 C   0  0  1  0  0  0  0  0  0  0  0  0
  145.4817  132.9563  152.6824 C   0  0  0  0  0  0  0  0  0  0  0  0
  144.5808  133.5234  151.5789 C   0  0  2  0  0  0  0  0  0  0  0  0
  144.2240  132.4706  150.5206 C   0  0  0  0  0  0  0  0  0  0  0  0
  145.5442  132.3306  149.7631 C   0  0  0  0  0  0  0  0  0  0  0  0
  146.4584  133.2881  150.5400 C   0  0  1  0  0  0  0  0  0  0  0  0
  145.5243  134.3041  150.8675 O   0  0  0  0  0  0  0  0  0  0  0  0
  148.8276  131.4831  153.7049 C   0  0  0  0  0  0  0  0  0  0  0  0
  149.4662  130.8682  154.7225 N   0  0  0  0  0  0  0  0  0  0  0  0
  154.0622  130.5789  155.2346 H   0  0  0  0  0  0  0  0  0  0  0  0
  153.5678  131.6218  156.5633 H   0  0  0  0  0  0  0  0  0  0  0  0
  152.7187  131.6949  155.0246 H   0  0  0  0  0  0  0  0  0  0  0  0
  151.1673  129.7566  154.3125 H   0  0  0  0  0  0  0  0  0  0  0  0
  151.0334  128.3260  155.3289 H   0  0  0  0  0  0  0  0  0  0  0  0
  152.5317  128.6595  154.4764 H   0  0  0  0  0  0  0  0  0  0  0  0
  153.8280  128.5667  156.7796 H   0  0  0  0  0  0  0  0  0  0  0  0
  152.2982  128.1937  157.5494 H   0  0  0  0  0  0  0  0  0  0  0  0
  153.2553  129.5594  158.1128 H   0  0  0  0  0  0  0  0  0  0  0  0
  150.1100  133.6155  156.6243 H   0  0  0  0  0  0  0  0  0  0  0  0
  148.9305  134.7351  154.7481 H   0  0  0  0  0  0  0  0  0  0  0  0
  148.0847  134.3761  152.2907 H   0  0  0  0  0  0  0  0  0  0  0  0
  147.0291  131.6587  151.8417 H   0  0  0  0  0  0  0  0  0  0  0  0
  145.0790  132.0426  153.1199 H   0  0  0  0  0  0  0  0  0  0  0  0
  145.5989  133.6896  153.4820 H   0  0  0  0  0  0  0  0  0  0  0  0
  143.7240  134.0848  151.9528 H   0  0  0  0  0  0  0  0  0  0  0  0
  143.8886  131.5337  150.9663 H   0  0  0  0  0  0  0  0  0  0  0  0
  143.4390  132.8345  149.8568 H   0  0  0  0  0  0  0  0  0  0  0  0
  145.9217  131.3078  149.7523 H   0  0  0  0  0  0  0  0  0  0  0  0
  145.4277  132.6619  148.7306 H   0  0  0  0  0  0  0  0  0  0  0  0
  147.3200  133.6298  149.9649 H   0  0  0  0  0  0  0  0  0  0  0  0
  148.4925  130.8403  152.9038 H   0  0  0  0  0  0  0  0  0  0  0  0
  1  2  1  0  0  0  0
  1 22  1  0  0  0  0
  1 23  1  0  0  0  0
  1 24  1  0  0  0  0
  2  3  1  0  0  0  0
  2  4  1  0  0  0  0
  2  5  1  0  0  0  0
  3 25  1  0  0  0  0
  3 26  1  0  0  0  0
  3 27  1  0  0  0  0
  4 28  1  0  0  0  0
  4 29  1  0  0  0  0
  4 30  1  0  0  0  0
  5  6  2  0  0  0  0
  5  7  2  0  0  0  0
  5  8  1  0  0  0  0
  8 21  1  0  0  0  0
  8  9  2  0  0  0  0
  9 10  1  0  0  0  0
  9 31  1  0  0  0  0
 10 11  2  0  0  0  0
 10 32  1  0  0  0  0
 11 12  1  0  0  0  0
 11 20  1  0  0  0  0
 12 13  1  0  0  0  0
 12 33  1  0  0  0  0
 13 18  1  0  0  0  0
 13 14  1  0  0  0  0
 13 34  1  0  0  0  0
 14 15  1  0  0  0  0
 14 35  1  0  0  0  0
 14 36  1  0  0  0  0
 15 19  1  0  0  0  0
 15 16  1  0  0  0  0
 15 37  1  0  0  0  0
 16 17  1  0  0  0  0
 16 38  1  0  0  0  0
 16 39  1  0  0  0  0
 17 18  1  0  0  0  0
 17 40  1  0  0  0  0
 17 41  1  0  0  0  0
 18 19  1  0  0  0  0
 18 42  1  0  0  0  0
 20 21  2  0  0  0  0
 20 43  1  0  0  0  0
M  END
> <s_m_source_file>
AV-unprocessed.smi

> <i_m_source_file_index>
2816

> <i_lp_mmshare_version>
43012

> <i_f3d_flags>
0

> <s_epik_input>
W0NIM11DKFtDSDNdKShbQ0gzXSlTKD1PKSg9TyljMVtjSF1bY0hdYyhbY0hdbjEpW05IXVtDQEhdKFtDSDJdW0NAQEhdMjMpW0NAQEhdKE8zKVtDSDJdW0NIMl0y

> <s_epik_cmdline>
J2VwaWtfcHl0aG9uJywgJy1waCcsICc3LjAnLCAnLXRuJywgJzgnLCAnLW1hJywgJzIwMCcsICctbWV0YWxfYmluZGluZycsICctaW1hZScsICc8aW5maWxlLm1hZT4nLCAnLW9tYWUnLCAnPG91dGZpbGUubWFlPic=

> <r_lp_tautomer_probability>
1

> <r_epik_Ionization_Penalty>
1.94439e-07

> <r_epik_Ionization_Penalty_Charging>
0

> <r_epik_Ionization_Penalty_Neutral>
1.94439e-07

> <r_epik_State_Penalty>
-0

> <r_epik_Charging_Adjusted_Penalty>
0

> <i_epik_Tot_Q>
0

> <i_epik_Tot_abs_Q>
0

> <r_epik_Metal_State_Penalty>
-0

> <b_epik_Metal_Only>
0

> <s_lp_Force_Field>
OPLS_2005

> <r_lp_Energy>
42.0373

> <b_lp_Chiralities_Consistent>
1

> <s_lp_Variant>
AV-unprocessed.smi:2816-4

> <Gold.Version>
5.8.1

> <Gold.Id.Protein>
6NUR|6NUR_protein|mol2

> <Gold.PLP.Fitness>
39.4481

> <Gold.PLP.PLP>
-32.5082

> <Gold.PLP.part.hbond>
-1.9717

> <Gold.PLP.part.metal>
0.0000

> <Gold.PLP.part.buried>
-3.8542

> <Gold.PLP.part.nonpolar>
-25.9144

> <Gold.PLP.part.repulsive>
0.2140

> <Gold.PLP.ligand.clash>
0.0000

> <Gold.PLP.ligand.torsion>
2.0244

> <Gold.PLP.Chemscore.Hbond>
1.9000

> <Gold.PLP.Chemscore.CHOScore>
1.0000

> <Gold.PLP.Chemscore.Metal>
0.0000

> <Gold.Chemscore.Hbonds>
donor molecule, donor type, donor heavy atom, donor atom, acceptor molecule, acceptor atom, score
      L1  H    12    33       P1  7948  0.88
      P1  H  6896  6907       L1     7  1.00
      L1  C    20    43       P1 10747  0.71

> <Gold.PLP.Chemscore.Internal.Correction>
2.2888

> <Gold.Rescore>
     Score         DG    S(hbond)    S(metal)    S(lipo)     H(rot)  DE(clash)    DE(int)     intcor
     13.18     -16.68       1.13        0.00      88.40       1.15       0.50       3.00       ----

> <Gold.Chemscore.Fitness>
13.1794

> <Gold.Chemscore.DG>
-16.6766

> <Gold.Chemscore.ZeroCoef>
-5.4800

> <Gold.Chemscore.Hbond>
1.1347

> <Gold.Chemscore.Metal>
0.0000

> <Gold.Chemscore.Lipo>
88.4038

> <Gold.Chemscore.Internal_Hbond>
0.0000

> <Gold.Chemscore.DEClash>
0.4992

> <Gold.Chemscore.DEInternal>
2.9981

> <Gold.Chemscore.Rot>
1.1471

> <Gold.Chemscore.Internal.Correction>
   9.000000E+99

> <Gold.Chemscore.Hbonds>
donor molecule, donor type, donor heavy atom, donor atom, acceptor molecule, acceptor atom, score
      L1  H    12    33       P1  7948  0.17
      P1  H  6896  6907       L1     7  0.98

> <Gold.Chemscore.Hbond.Weighted>
-3.7900

> <Gold.Chemscore.Metal.Weighted>
-0.0000

> <Gold.Chemscore.Lipo.Weighted>
-10.3432

> <Gold.Chemscore.Internal_Hbond.Weighted>
0.0000

> <Gold.Chemscore.DEClash.Weighted>
0.4992

> <Gold.Chemscore.DEInternal.Weighted>
2.9981

> <Gold.Chemscore.Rot.Weighted>
2.9366

> <Gold.Chemscore.Internal.Correction.Weighted>
   9.000000E+99

> <Gold.Protein.RotatedTorsions>
[ 6907 6896 6895 6894 ] final -171.51 input  -60.11 | X-H torsion
[ 7974 7965 7964 7962 ] final   -6.01 input  175.53 | X-H torsion
[ 8008 7997 7996 7995 ] final   34.63 input   59.86 | X-H torsion
[ 10167 10162 10161 10158 ] final  -50.68 input  -65.29 | X-H torsion
[ 10718 10713 10712 10709 ] final   83.33 input   66.30 | X-H torsion
[ 10763 10752 10751 10750 ] final   93.39 input  -60.55 | X-H torsion
[ 11005 11000 10999 10996 ] final  -28.31 input  -57.11 | X-H torsion

> <Gold.Protein.ActiveResidues>
 VAL166  LYS551  ARG553  GLY616  TRP617  ASP618  TYR619  PRO620  LYS621  CYS622 
 ASP623  PHE694  ASN695  SER759  ASP760  ASP761  ALA762  ILE779  LEU786  VAL792 
 PHE793  MET794  SER795  GLU796  ALA797  LYS798  CYS799  TRP800  GLU811  SER814 

> <Gold.Protein.RotatedAtoms>
  151.5251  133.3459  159.2907 H   0  0  0  0  0  0  0  0  0  0  0  0  # atno 6907 bound_to 6896
  150.8628  134.7987  159.7107 H   0  0  0  0  0  0  0  0  0  0  0  0  # atno 6908 bound_to 6896
  152.4642  134.5122  159.9809 H   0  0  0  0  0  0  0  0  0  0  0  0  # atno 6909 bound_to 6896
  146.2340  140.2106  142.8335 H   0  0  0  0  0  0  0  0  0  0  0  0  # atno 7974 bound_to 7965
  155.1579  140.3281  155.4417 H   0  0  0  0  0  0  0  0  0  0  0  0  # atno 8008 bound_to 7997
  156.2552  140.1965  156.6638 H   0  0  0  0  0  0  0  0  0  0  0  0  # atno 8009 bound_to 7997
  154.6426  140.0568  156.9849 H   0  0  0  0  0  0  0  0  0  0  0  0  # atno 8010 bound_to 7997
  140.6626  143.2648  151.4394 H   0  0  0  0  0  0  0  0  0  0  0  0  # atno 10167 bound_to 10162
  157.6876  131.0086  150.2507 H   0  0  0  0  0  0  0  0  0  0  0  0  # atno 10718 bound_to 10713
  153.2297  135.4327  155.0582 H   0  0  0  0  0  0  0  0  0  0  0  0  # atno 10763 bound_to 10752
  154.8291  135.3376  154.6805 H   0  0  0  0  0  0  0  0  0  0  0  0  # atno 10764 bound_to 10752
  153.7233  135.7015  153.5063 H   0  0  0  0  0  0  0  0  0  0  0  0  # atno 10765 bound_to 10752
  140.9197  133.7407  156.0785 H   0  0  0  0  0  0  0  0  0  0  0  0  # atno 11005 bound_to 11000
  144.9709  140.8368  143.5456 LP  0  0  0  0  0  0  0  0  0  0  0  0  # atno 17320 bound_to 7965
  145.2088  139.2215  143.5154 LP  0  0  0  0  0  0  0  0  0  0  0  0  # atno 17321 bound_to 7965
  139.5864  144.1595  152.2034 LP  0  0  0  0  0  0  0  0  0  0  0  0  # atno 17342 bound_to 10162
  140.0936  144.5600  150.7037 LP  0  0  0  0  0  0  0  0  0  0  0  0  # atno 17343 bound_to 10162
  156.3104  130.3771  149.7667 LP  0  0  0  0  0  0  0  0  0  0  0  0  # atno 17370 bound_to 10713
  156.5269  130.8240  151.3223 LP  0  0  0  0  0  0  0  0  0  0  0  0  # atno 17371 bound_to 10713
  140.8003  134.3516  157.5441 LP  0  0  0  0  0  0  0  0  0  0  0  0  # atno 17394 bound_to 11000
  139.8773  134.9194  156.3225 LP  0  0  0  0  0  0  0  0  0  0  0  0  # atno 17395 bound_to 11000

$$$$
