#       Name:                AV-unprocessed.smi:619
#       Creating user name   scv26
#       Creation time:       Fri Mar 27 00:00:59 2020


#       File generated by GOLD software.
#

@<TRIPOS>MOLECULE
AV-unprocessed.smi:619
    42    43     1
SMALL
NO_CHARGES


@<TRIPOS>ATOM
      1 ****        -2.0245   4.8904  -0.3507 C.3            1 S1                 0.0000
      2 ****        -1.2264   3.7117  -0.3401 O.3            1 S1                 0.0000
      3 ****         0.1491   3.8458  -0.3503 C.ar           1 S1                 0.0000
      4 ****         0.6755   5.0963  -0.3682 N.ar           1 S1                 0.0000
      5 ****         2.0177   5.2290  -0.3838 C.ar           1 S1                 0.0000
      6 ****         2.8999   4.1332  -0.3895 C.ar           1 S1                 0.0000
      7 ****         2.3566   2.8353  -0.3707 C.ar           1 S1                 0.0000
      8 ****         0.9495   2.6796  -0.3383 C.ar           1 S1                 0.0000
      9 ****         0.2970   1.4157  -0.3388 N.am           1 S1                 0.0000
     10 ****         0.7730   0.2271   0.0689 C.2            1 S1                 0.0000
     11 ****         1.8871   0.0377   0.5567 O.2            1 S1                 0.0000
     12 ****        -0.1384  -0.7408  -0.1060 N.am           1 S1                 0.0000
     13 ****         0.0329  -2.1517   0.2306 C.3            1 S1                 0.0000
     14 ****        -0.2221  -3.0160  -1.0189 C.3            1 S1                 0.0000
     15 ****        -0.1374  -4.5154  -0.6912 C.3            1 S1                 0.0000
     16 ****        -1.1036  -4.8921   0.4426 C.3            1 S1                 0.0000
     17 ****        -0.8484  -4.0381   1.6945 C.3            1 S1                 0.0000
     18 ****        -0.9269  -2.5365   1.3732 C.3            1 S1                 0.0000
     19 ****        -3.0780   4.6119  -0.3361 H              1 S1                 0.0000
     20 ****        -1.8512   5.4816  -1.2511 H              1 S1                 0.0000
     21 ****        -1.8346   5.5097   0.5271 H              1 S1                 0.0000
     22 ****         2.3996   6.2391  -0.3994 H              1 S1                 0.0000
     23 ****         3.9689   4.2846  -0.4134 H              1 S1                 0.0000
     24 ****         3.0263   1.9897  -0.3975 H              1 S1                 0.0000
     25 ****        -0.6697   1.4312  -0.6295 H              1 S1                 0.0000
     26 ****        -1.0278  -0.4811  -0.5064 H              1 S1                 0.0000
     27 ****         1.0541  -2.3409   0.5664 H              1 S1                 0.0000
     28 ****        -1.2078  -2.7923  -1.4299 H              1 S1                 0.0000
     29 ****         0.5003  -2.7693  -1.7978 H              1 S1                 0.0000
     30 ****        -0.3606  -5.1036  -1.5815 H              1 S1                 0.0000
     31 ****         0.8831  -4.7686  -0.4011 H              1 S1                 0.0000
     32 ****        -2.1324  -4.7524   0.1079 H              1 S1                 0.0000
     33 ****        -0.9987  -5.9499   0.6854 H              1 S1                 0.0000
     34 ****        -1.5721  -4.2899   2.4701 H              1 S1                 0.0000
     35 ****         0.1358  -4.2726   2.1019 H              1 S1                 0.0000
     36 ****        -0.6939  -1.9573   2.2676 H              1 S1                 0.0000
     37 ****        -1.9512  -2.2810   1.0979 H              1 S1                 0.0000
     38 ****        -1.4769   3.1785  -1.1481 LP             1 S1                 0.0000
     39 ****        -1.4669   3.1999   0.4847 LP             1 S1                 0.0000
     40 ****         0.0819   5.9011  -0.3698 LP             1 S1                 0.0000
     41 ****         2.5178   0.8045   0.6756 LP             1 S1                 0.0000
     42 ****         2.1615  -0.8830   0.8341 LP             1 S1                 0.0000
@<TRIPOS>BOND
    1    1    2 1     
    2    1   19 1     
    3    1   20 1     
    4    1   21 1     
    5    2    3 1     
    6    3    8 ar    
    7    3    4 ar    
    8    4    5 ar    
    9    5    6 ar    
   10    5   22 1     
   11    6    7 ar    
   12    6   23 1     
   13    7    8 ar    
   14    7   24 1     
   15    8    9 1     
   16    9   10 am    
   17    9   25 1     
   18   10   11 2     
   19   10   12 am    
   20   12   13 1     
   21   12   26 1     
   22   13   18 1     
   23   13   14 1     
   24   13   27 1     
   25   14   15 1     
   26   14   28 1     
   27   14   29 1     
   28   15   16 1     
   29   15   30 1     
   30   15   31 1     
   31   16   17 1     
   32   16   32 1     
   33   16   33 1     
   34   17   18 1     
   35   17   34 1     
   36   17   35 1     
   37   18   36 1     
   38   18   37 1     
   39    2   38 1     
   40    2   39 1     
   41    4   40 1     
   42   11   41 1     
   43   11   42 1     
@<TRIPOS>SUBSTRUCTURE
      1 S1             1
@<TRIPOS>SET
LONE_PAIRS      STATIC     ATOMS    <user>   **** ""
5 38 39 40 41 42
DONOR_HYDROGENS      STATIC     ATOMS    <user>   **** ""
2 25 26
ATOM$BLUE        STATIC     ATOMS    COLORGROUP SYSTEM
5 38 39 40 41 42
ATOM$RED        STATIC     ATOMS    COLORGROUP SYSTEM
2 25 26
