AV-unprocessed.smi:294|AV-procd|sdf|2253|dock6
  -GOLD-   2262022143D 1   1.00000     0.00000
 Structure written by MMmdl.
 29 30  0  0  0  0  0  0  0  0  1 V2000
  146.5887  136.7053  157.2710 N   0  0  0  0  0  0  0  0  0  0  0  0
  147.0543  137.4447  156.5122 C   0  0  0  0  0  0  0  0  0  0  0  0
  147.6391  138.3733  155.5598 C   0  0  0  0  0  0  0  0  0  0  0  0
  147.6987  138.0849  154.2272 N   0  0  0  0  0  0  0  0  0  0  0  0
  148.2921  139.1936  153.8024 C   0  0  0  0  0  0  0  0  0  0  0  0
  148.5637  140.0710  154.7746 N   0  0  0  0  0  0  0  0  0  0  0  0
  149.1859  141.3814  154.7151 C   0  0  0  0  0  0  0  0  0  0  0  0
  150.4214  141.4474  155.6141 C   0  0  0  0  0  0  0  0  0  0  0  0
  151.3112  140.6049  155.5000 O   0  0  0  0  0  0  0  0  0  0  0  0
  150.4627  142.4521  156.5030 N   0  0  0  0  0  0  0  0  0  0  0  0
  151.5571  142.7061  157.4333 C   0  0  1  0  0  0  0  0  0  0  0  0
  151.5032  144.1475  157.9719 C   0  0  0  0  0  0  0  0  0  0  0  0
  152.4327  144.2514  159.1872 C   0  0  0  0  0  0  0  0  0  0  0  0
  152.4099  142.6014  159.9854 S   0  0  0  0  0  0  0  0  0  0  0  0
  153.7866  142.0897  160.0622 O   0  0  0  0  0  0  0  0  0  0  0  0
  151.5493  142.6428  161.1773 O   0  0  0  0  0  0  0  0  0  0  0  0
  151.5151  141.7477  158.6337 C   0  0  0  0  0  0  0  0  0  0  0  0
  148.1374  139.5451  155.9491 N   0  0  0  0  0  0  0  0  0  0  0  0
  148.5289  139.3727  152.7635 H   0  0  0  0  0  0  0  0  0  0  0  0
  149.4628  141.6107  153.6847 H   0  0  0  0  0  0  0  0  0  0  0  0
  148.4551  142.1289  155.0266 H   0  0  0  0  0  0  0  0  0  0  0  0
  149.6853  143.0968  156.5245 H   0  0  0  0  0  0  0  0  0  0  0  0
  152.5121  142.5801  156.9195 H   0  0  0  0  0  0  0  0  0  0  0  0
  151.7643  144.8778  157.2053 H   0  0  0  0  0  0  0  0  0  0  0  0
  150.4852  144.3733  158.2930 H   0  0  0  0  0  0  0  0  0  0  0  0
  153.4564  144.4583  158.8740 H   0  0  0  0  0  0  0  0  0  0  0  0
  152.1231  145.0191  159.8965 H   0  0  0  0  0  0  0  0  0  0  0  0
  150.4916  141.5771  158.9697 H   0  0  0  0  0  0  0  0  0  0  0  0
  151.9787  140.7830  158.4258 H   0  0  0  0  0  0  0  0  0  0  0  0
  1  2  3  0  0  0  0
  2  3  1  0  0  0  0
  3 18  2  0  0  0  0
  3  4  1  0  0  0  0
  4  5  2  0  0  0  0
  5  6  1  0  0  0  0
  5 19  1  0  0  0  0
  6  7  1  0  0  0  0
  6 18  1  0  0  0  0
  7  8  1  0  0  0  0
  7 20  1  0  0  0  0
  7 21  1  0  0  0  0
  8  9  2  0  0  0  0
  8 10  1  0  0  0  0
 10 11  1  0  0  0  0
 10 22  1  0  0  0  0
 11 17  1  0  0  0  0
 11 12  1  0  0  0  0
 11 23  1  0  0  0  0
 12 13  1  0  0  0  0
 12 24  1  0  0  0  0
 12 25  1  0  0  0  0
 13 14  1  0  0  0  0
 13 26  1  0  0  0  0
 13 27  1  0  0  0  0
 14 15  2  0  0  0  0
 14 16  2  0  0  0  0
 14 17  1  0  0  0  0
 17 28  1  0  0  0  0
 17 29  1  0  0  0  0
M  END
> <s_m_source_file>
AV-unprocessed.smi

> <i_m_source_file_index>
294

> <i_lp_mmshare_version>
43012

> <i_f3d_flags>
0

> <s_epik_input>
TiNDYzFuW2NIXW4objEpW0NIMl1DKD1PKVtOSF1bQ0BASF0oW0NIMl0yKVtDSDJdW0NIMl1TMig9Tyk9Tw==

> <s_epik_cmdline>
J2VwaWtfcHl0aG9uJywgJy1waCcsICc3LjAnLCAnLXRuJywgJzgnLCAnLW1hJywgJzIwMCcsICctbWV0YWxfYmluZGluZycsICctaW1hZScsICc8aW5maWxlLm1hZT4nLCAnLW9tYWUnLCAnPG91dGZpbGUubWFlPic=

> <r_lp_tautomer_probability>
1

> <r_epik_Ionization_Penalty>
6.08231e-07

> <r_epik_Ionization_Penalty_Charging>
0

> <r_epik_Ionization_Penalty_Neutral>
6.08231e-07

> <r_epik_State_Penalty>
-0

> <r_epik_Charging_Adjusted_Penalty>
0

> <i_epik_Tot_Q>
0

> <i_epik_Tot_abs_Q>
0

> <r_epik_Metal_State_Penalty>
-0

> <b_epik_Metal_Only>
0

> <s_lp_Force_Field>
OPLS_2005

> <r_lp_Energy>
6.26763

> <b_lp_Chiralities_Consistent>
1

> <s_lp_Variant>
AV-unprocessed.smi:294-2

> <Gold.Version>
5.8.1

> <Gold.Id.Protein>
6NUR|6NUR_protein|mol2

> <Gold.PLP.Fitness>
38.1098

> <Gold.PLP.PLP>
-29.7036

> <Gold.PLP.part.hbond>
-3.0000

> <Gold.PLP.part.metal>
0.0000

> <Gold.PLP.part.buried>
-3.7920

> <Gold.PLP.part.nonpolar>
-22.2829

> <Gold.PLP.part.repulsive>
0.3277

> <Gold.PLP.ligand.clash>
0.0000

> <Gold.PLP.ligand.torsion>
0.2982

> <Gold.PLP.Chemscore.Hbond>
2.0006

> <Gold.PLP.Chemscore.CHOScore>
1.0000

> <Gold.PLP.Chemscore.Metal>
0.0000

> <Gold.Chemscore.Hbonds>
donor molecule, donor type, donor heavy atom, donor atom, acceptor molecule, acceptor atom, score
      L1  H    10    22       P1  8028  0.90
      P1  H  6933  6945       L1    16  0.40
      P1  H  7989  7998       L1     9  0.69
      L1  C     5    19       P1  7957  1.00

> <Gold.PLP.Chemscore.Internal.Correction>
0.0006

> <Gold.Rescore>
     Score         DG    S(hbond)    S(metal)    S(lipo)     H(rot)  DE(clash)    DE(int)     intcor
     11.35     -11.69       1.70        0.00      51.52       2.15       0.04       0.30       ----

> <Gold.Chemscore.Fitness>
11.3471

> <Gold.Chemscore.DG>
-11.6852

> <Gold.Chemscore.ZeroCoef>
-5.4800

> <Gold.Chemscore.Hbond>
1.7045

> <Gold.Chemscore.Metal>
0.0000

> <Gold.Chemscore.Lipo>
51.5203

> <Gold.Chemscore.Internal_Hbond>
0.0000

> <Gold.Chemscore.DEClash>
0.0391

> <Gold.Chemscore.DEInternal>
0.2989

> <Gold.Chemscore.Rot>
2.1546

> <Gold.Chemscore.Internal.Correction>
   9.000000E+99

> <Gold.Chemscore.Hbonds>
donor molecule, donor type, donor heavy atom, donor atom, acceptor molecule, acceptor atom, score
      L1  H    10    22       P1  8028  0.85
      P1  H  6933  6945       L1    16  0.37
      P1  H  7989  7998       L1     9  0.11

> <Gold.Chemscore.Hbond.Weighted>
-5.6930

> <Gold.Chemscore.Metal.Weighted>
-0.0000

> <Gold.Chemscore.Lipo.Weighted>
-6.0279

> <Gold.Chemscore.Internal_Hbond.Weighted>
0.0000

> <Gold.Chemscore.DEClash.Weighted>
0.0391

> <Gold.Chemscore.DEInternal.Weighted>
0.2989

> <Gold.Chemscore.Rot.Weighted>
5.5158

> <Gold.Chemscore.Internal.Correction.Weighted>
   9.000000E+99

> <Gold.Protein.RotatedTorsions>
[ 6907 6896 6895 6894 ] final   -3.79 input  -60.11 | X-H torsion
[ 7974 7965 7964 7962 ] final   45.29 input  175.53 | X-H torsion
[ 8008 7997 7996 7995 ] final  103.73 input   59.86 | X-H torsion
[ 10167 10162 10161 10158 ] final  114.22 input  -65.29 | X-H torsion
[ 10718 10713 10712 10709 ] final  -74.89 input   66.30 | X-H torsion
[ 10763 10752 10751 10750 ] final   99.01 input  -60.55 | X-H torsion
[ 11005 11000 10999 10996 ] final  -23.26 input  -57.11 | X-H torsion

> <Gold.Protein.ActiveResidues>
 VAL166  LYS551  ARG553  GLY616  TRP617  ASP618  TYR619  PRO620  LYS621  CYS622 
 ASP623  PHE694  ASN695  SER759  ASP760  ASP761  ALA762  ILE779  LEU786  VAL792 
 PHE793  MET794  SER795  GLU796  ALA797  LYS798  CYS799  TRP800  GLU811  SER814 

> <Gold.Protein.RotatedAtoms>
  151.5081  135.1064  159.9846 H   0  0  0  0  0  0  0  0  0  0  0  0  # atno 6907 bound_to 6896
  152.4673  133.7947  159.6931 H   0  0  0  0  0  0  0  0  0  0  0  0  # atno 6908 bound_to 6896
  150.8663  133.7506  159.3001 H   0  0  0  0  0  0  0  0  0  0  0  0  # atno 6909 bound_to 6896
  146.0493  139.4980  142.9728 H   0  0  0  0  0  0  0  0  0  0  0  0  # atno 7974 bound_to 7965
  156.1510  140.3160  155.8648 H   0  0  0  0  0  0  0  0  0  0  0  0  # atno 8008 bound_to 7997
  155.3971  140.0497  157.3055 H   0  0  0  0  0  0  0  0  0  0  0  0  # atno 8009 bound_to 7997
  154.5058  140.2146  155.9265 H   0  0  0  0  0  0  0  0  0  0  0  0  # atno 8010 bound_to 7997
  139.6404  144.7123  151.2248 H   0  0  0  0  0  0  0  0  0  0  0  0  # atno 10167 bound_to 10162
  156.0226  130.4427  150.2960 H   0  0  0  0  0  0  0  0  0  0  0  0  # atno 10718 bound_to 10713
  153.2961  135.4128  155.1211 H   0  0  0  0  0  0  0  0  0  0  0  0  # atno 10763 bound_to 10752
  154.8535  135.3530  154.5915 H   0  0  0  0  0  0  0  0  0  0  0  0  # atno 10764 bound_to 10752
  153.6339  135.7059  153.5324 H   0  0  0  0  0  0  0  0  0  0  0  0  # atno 10765 bound_to 10752
  140.8735  133.7704  156.0215 H   0  0  0  0  0  0  0  0  0  0  0  0  # atno 11005 bound_to 11000
  145.6752  141.0206  143.1636 LP  0  0  0  0  0  0  0  0  0  0  0  0  # atno 17320 bound_to 7965
  144.7114  139.8357  143.7413 LP  0  0  0  0  0  0  0  0  0  0  0  0  # atno 17321 bound_to 7965
  140.7488  143.6322  150.8412 LP  0  0  0  0  0  0  0  0  0  0  0  0  # atno 17342 bound_to 10162
  139.9958  143.5797  152.2893 LP  0  0  0  0  0  0  0  0  0  0  0  0  # atno 17343 bound_to 10162
  157.1063  131.0209  151.3065 LP  0  0  0  0  0  0  0  0  0  0  0  0  # atno 17370 bound_to 10713
  157.4740  130.7725  149.7350 LP  0  0  0  0  0  0  0  0  0  0  0  0  # atno 17371 bound_to 10713
  140.8545  134.2914  157.5261 LP  0  0  0  0  0  0  0  0  0  0  0  0  # atno 17394 bound_to 11000
  139.8714  134.9486  156.4000 LP  0  0  0  0  0  0  0  0  0  0  0  0  # atno 17395 bound_to 11000

$$$$
