#       Name:                AV-unprocessed.smi:2822
#       Creating user name   scv26
#       Creation time:       Fri Mar 27 15:31:03 2020


#       File generated by GOLD software.
#

@<TRIPOS>MOLECULE
AV-unprocessed.smi:2822
    43    45     1
SMALL
NO_CHARGES


@<TRIPOS>ATOM
      1 ****        -4.8008   1.2897  -0.2296 Cl             1 S1                 0.0000
      2 ****        -3.9220   2.7787  -0.2018 C.ar           1 S1                 0.0000
      3 ****        -4.6307   3.9960  -0.1354 C.ar           1 S1                 0.0000
      4 ****        -3.9605   5.1676  -0.1131 N.pl3          1 S1                 1.0000
      5 ****        -2.6133   5.2374  -0.1513 C.ar           1 S1                 0.0000
      6 ****        -1.8492   4.0547  -0.2167 C.ar           1 S1                 0.0000
      7 ****        -2.5058   2.7984  -0.2428 C.ar           1 S1                 0.0000
      8 ****        -1.8030   1.5851  -0.3110 N.pl3          1 S1                 0.0000
      9 ****        -0.3612   1.5436  -0.1167 C.3            1 S1                 0.0000
     10 ****         0.1704   0.1029  -0.1201 C.3            1 S1                 0.0000
     11 ****         1.7152   0.0719  -0.1079 C.3            1 S1                 0.0000
     12 ****         2.2334  -1.3123   0.0132 N.4            1 S1                 1.0000
     13 ****         2.1649  -2.0835  -1.2581 C.3            1 S1                 0.0000
     14 ****         2.7728  -3.4844  -1.0973 C.3            1 S1                 0.0000
     15 ****         2.0767  -4.2495   0.0335 C.3            1 S1                 0.0000
     16 ****         2.1610  -3.4431   1.3363 C.3            1 S1                 0.0000
     17 ****         1.6195  -2.0063   1.1791 C.3            1 S1                 0.0000
     18 ****         0.0799  -1.9199   1.1161 C.3            1 S1                 0.0000
     19 ****        -0.3107  -0.5528   1.0500 O.3            1 S1                 0.0000
     20 ****        -5.7081   4.0667  -0.1001 H              1 S1                 0.0000
     21 ****        -2.1891   6.2309  -0.1295 H              1 S1                 0.0000
     22 ****        -0.7727   4.1317  -0.2487 H              1 S1                 0.0000
     23 ****        -2.3205   0.7194  -0.2471 H              1 S1                 0.0000
     24 ****         0.1108   2.1026  -0.9256 H              1 S1                 0.0000
     25 ****        -0.0986   2.0390   0.8190 H              1 S1                 0.0000
     26 ****        -0.2065  -0.4074  -1.0078 H              1 S1                 0.0000
     27 ****         2.1208   0.5472  -1.0019 H              1 S1                 0.0000
     28 ****         2.0846   0.6481   0.7416 H              1 S1                 0.0000
     29 ****         1.1334  -2.1720  -1.5984 H              1 S1                 0.0000
     30 ****         2.7042  -1.5425  -2.0364 H              1 S1                 0.0000
     31 ****         2.6836  -4.0388  -2.0320 H              1 S1                 0.0000
     32 ****         3.8400  -3.4024  -0.8863 H              1 S1                 0.0000
     33 ****         1.0345  -4.4356  -0.2277 H              1 S1                 0.0000
     34 ****         2.5423  -5.2264   0.1669 H              1 S1                 0.0000
     35 ****         1.6303  -3.9624   2.1351 H              1 S1                 0.0000
     36 ****         3.2048  -3.3951   1.6502 H              1 S1                 0.0000
     37 ****         1.9280  -1.4554   2.0691 H              1 S1                 0.0000
     38 ****        -0.3266  -2.4683   0.2654 H              1 S1                 0.0000
     39 ****        -0.3578  -2.3602   2.0123 H              1 S1                 0.0000
     40 ****         3.2186  -1.2298   0.2204 H              1 S1                 0.0000
     41 ****        -4.4944   6.0362  -0.0661 H              1 S1                 0.0000
     42 ****        -1.3095  -0.5053   1.0551 LP             1 S1                 0.0000
     43 ****         0.0497  -0.0783   1.8532 LP             1 S1                 0.0000
@<TRIPOS>BOND
    1    1    2 1     
    2    2    7 ar    
    3    2    3 ar    
    4    3    4 ar    
    5    3   20 1     
    6    4    5 ar    
    7    4   41 1     
    8    5    6 ar    
    9    5   21 1     
   10    6    7 ar    
   11    6   22 1     
   12    7    8 1     
   13    8    9 1     
   14    8   23 1     
   15    9   10 1     
   16    9   24 1     
   17    9   25 1     
   18   10   19 1     
   19   10   11 1     
   20   10   26 1     
   21   11   12 1     
   22   11   27 1     
   23   11   28 1     
   24   12   17 1     
   25   12   13 1     
   26   12   40 1     
   27   13   14 1     
   28   13   29 1     
   29   13   30 1     
   30   14   15 1     
   31   14   31 1     
   32   14   32 1     
   33   15   16 1     
   34   15   33 1     
   35   15   34 1     
   36   16   17 1     
   37   16   35 1     
   38   16   36 1     
   39   17   18 1     
   40   17   37 1     
   41   18   19 1     
   42   18   38 1     
   43   18   39 1     
   44   19   42 1     
   45   19   43 1     
@<TRIPOS>SUBSTRUCTURE
      1 S1             1
@<TRIPOS>SET
LONE_PAIRS      STATIC     ATOMS    <user>   **** ""
2 42 43
DONOR_HYDROGENS      STATIC     ATOMS    <user>   **** ""
3 41 23 40
ATOM$BLUE        STATIC     ATOMS    COLORGROUP SYSTEM
2 42 43
ATOM$RED        STATIC     ATOMS    COLORGROUP SYSTEM
3 41 23 40
