AV-unprocessed.smi:1843|AV-procd|sdf|7505|dock10
  -GOLD-   22720 9213D 1   1.00000     0.00000
 Structure written by MMmdl.
 36 38  0  0  0  0  0  0  0  0  2 V2000
  152.9020  139.3594  157.4555 O   0  0  0  0  0  0  0  0  0  0  0  0
  151.8053  139.4032  158.0176 C   0  0  0  0  0  0  0  0  0  0  0  0
  151.0024  138.3502  158.2914 N   0  5  0  0  0  0  0  0  0  0  0  0
  151.1393  137.2045  157.6036 C   0  0  0  0  0  0  0  0  0  0  0  0
  152.3300  136.7552  157.1824 N   0  0  0  0  0  0  0  0  0  0  0  0
  152.2451  135.5570  156.4880 N   0  0  0  0  0  0  0  0  0  0  0  0
  150.9871  135.1211  156.3874 C   0  0  0  0  0  0  0  0  0  0  0  0
  150.6335  133.8523  155.6864 C   0  0  0  0  0  0  0  0  0  0  0  0
  149.7685  133.8480  154.4447 C   0  0  0  0  0  0  0  0  0  0  0  0
  149.2257  133.3046  155.7419 C   0  0  0  0  0  0  0  0  0  0  0  0
  149.7925  136.1646  157.1416 S   0  0  0  0  0  0  0  0  0  0  0  0
  151.3098  140.5791  158.4293 N   0  0  0  0  0  0  0  0  0  0  0  0
  151.9583  141.8831  158.2995 C   0  0  1  0  0  0  0  0  0  0  0  0
  151.0026  142.8908  157.6315 C   0  0  0  0  0  0  0  0  0  0  0  0
  151.6631  144.2708  157.4812 C   0  0  0  0  0  0  0  0  0  0  0  0
  152.1580  144.8032  158.8352 C   0  0  0  0  0  0  0  0  0  0  0  0
  153.1084  143.8035  159.5194 C   0  0  0  0  0  0  0  0  0  0  0  0
  152.4785  142.4042  159.6625 C   0  0  1  0  0  0  0  0  0  0  0  0
  151.4310  142.4630  160.6133 O   0  0  0  0  0  0  0  0  0  0  0  0
  151.4586  133.1443  155.7343 H   0  0  0  0  0  0  0  0  0  0  0  0
  149.3631  134.7953  154.0948 H   0  0  0  0  0  0  0  0  0  0  0  0
  150.0172  133.1319  153.6644 H   0  0  0  0  0  0  0  0  0  0  0  0
  149.1102  132.2261  155.8271 H   0  0  0  0  0  0  0  0  0  0  0  0
  148.4730  133.8971  156.2584 H   0  0  0  0  0  0  0  0  0  0  0  0
  150.4070  140.5652  158.8808 H   0  0  0  0  0  0  0  0  0  0  0  0
  152.8154  141.7640  157.6335 H   0  0  0  0  0  0  0  0  0  0  0  0
  150.7002  142.5223  156.6506 H   0  0  0  0  0  0  0  0  0  0  0  0
  150.0884  142.9863  158.2192 H   0  0  0  0  0  0  0  0  0  0  0  0
  152.5018  144.2009  156.7877 H   0  0  0  0  0  0  0  0  0  0  0  0
  150.9557  144.9743  157.0412 H   0  0  0  0  0  0  0  0  0  0  0  0
  152.6643  145.7587  158.6962 H   0  0  0  0  0  0  0  0  0  0  0  0
  151.3033  145.0011  159.4834 H   0  0  0  0  0  0  0  0  0  0  0  0
  154.0217  143.7224  158.9285 H   0  0  0  0  0  0  0  0  0  0  0  0
  153.4118  144.1832  160.4957 H   0  0  0  0  0  0  0  0  0  0  0  0
  153.2317  141.7199  160.0548 H   0  0  0  0  0  0  0  0  0  0  0  0
  151.2760  143.3717  160.8235 H   0  0  0  0  0  0  0  0  0  0  0  0
  1  2  2  0  0  0  0
  2  3  1  0  0  0  0
  2 12  1  0  0  0  0
  3  4  1  0  0  0  0
  4 11  1  0  0  0  0
  4  5  2  0  0  0  0
  5  6  1  0  0  0  0
  6  7  2  0  0  0  0
  7  8  1  0  0  0  0
  7 11  1  0  0  0  0
  8 10  1  0  0  0  0
  8  9  1  0  0  0  0
  8 20  1  0  0  0  0
  9 10  1  0  0  0  0
  9 21  1  0  0  0  0
  9 22  1  0  0  0  0
 10 23  1  0  0  0  0
 10 24  1  0  0  0  0
 12 13  1  0  0  0  0
 12 25  1  0  0  0  0
 13 18  1  0  0  0  0
 13 14  1  0  0  0  0
 13 26  1  0  0  0  0
 14 15  1  0  0  0  0
 14 27  1  0  0  0  0
 14 28  1  0  0  0  0
 15 16  1  0  0  0  0
 15 29  1  0  0  0  0
 15 30  1  0  0  0  0
 16 17  1  0  0  0  0
 16 31  1  0  0  0  0
 16 32  1  0  0  0  0
 17 18  1  0  0  0  0
 17 33  1  0  0  0  0
 17 34  1  0  0  0  0
 18 19  1  0  0  0  0
 18 35  1  0  0  0  0
 19 36  1  0  0  0  0
M  CHG  1   3  -1
M  END
> <s_m_source_file>
AV-unprocessed.smi

> <i_m_source_file_index>
1843

> <i_lp_mmshare_version>
43012

> <i_f3d_flags>
0

> <s_epik_input>
W09IXVtDQEBIXTFbQ0gyXVtDSDJdW0NIMl1bQ0gyXVtDQEhdMVtOSF1DKD1PKVtOSF1jMm5uYyhzMilbQ0hdM1tDSDJdW0NIMl0z

> <s_epik_cmdline>
J2VwaWtfcHl0aG9uJywgJy1waCcsICc3LjAnLCAnLXRuJywgJzgnLCAnLW1hJywgJzIwMCcsICctbWV0YWxfYmluZGluZycsICctaW1hZScsICc8aW5maWxlLm1hZT4nLCAnLW9tYWUnLCAnPG91dGZpbGUubWFlPic=

> <r_lp_tautomer_probability>
1

> <r_epik_Ionization_Penalty>
4.7996

> <r_epik_Ionization_Penalty_Charging>
4.64516

> <r_epik_Ionization_Penalty_Neutral>
0.154442

> <r_epik_State_Penalty>
4.64493

> <r_epik_Charging_Adjusted_Penalty>
9.29009

> <i_epik_Tot_Q>
-1

> <i_epik_Tot_abs_Q>
1

> <r_epik_Metal_State_Penalty>
0.896144

> <b_epik_Metal_Only>
1

> <s_lp_Force_Field>
OPLS_2005

> <r_lp_Energy>
9.18757

> <b_lp_Chiralities_Consistent>
1

> <s_lp_Variant>
AV-unprocessed.smi:1843-6

> <Gold.Version>
5.8.1

> <Gold.Id.Protein>
6NUR|6NUR_protein|mol2

> <Gold.PLP.Fitness>
38.7617

> <Gold.PLP.PLP>
-33.5293

> <Gold.PLP.part.hbond>
-3.0000

> <Gold.PLP.part.metal>
0.0000

> <Gold.PLP.part.buried>
-5.0002

> <Gold.PLP.part.nonpolar>
-25.9200

> <Gold.PLP.part.repulsive>
0.1356

> <Gold.PLP.ligand.clash>
0.0000

> <Gold.PLP.ligand.torsion>
0.5219

> <Gold.PLP.Chemscore.Hbond>
2.0419

> <Gold.PLP.Chemscore.CHOScore>
0.0000

> <Gold.PLP.Chemscore.Metal>
0.0000

> <Gold.Chemscore.Hbonds>
donor molecule, donor type, donor heavy atom, donor atom, acceptor molecule, acceptor atom, score
      P1  H  6933  6945       L1    19  0.04
      P1  H  7997  8008       L1     1  1.00
      P1  H 10752 10764       L1     6  1.00

> <Gold.PLP.Chemscore.Internal.Correction>
0.1505

> <Gold.Rescore>
     Score         DG    S(hbond)    S(metal)    S(lipo)     H(rot)  DE(clash)    DE(int)     intcor
     16.13     -18.21       1.96        0.00      90.32       1.72       0.00       2.07       ----

> <Gold.Chemscore.Fitness>
16.1349

> <Gold.Chemscore.DG>
-18.2080

> <Gold.Chemscore.ZeroCoef>
-5.4800

> <Gold.Chemscore.Hbond>
1.9622

> <Gold.Chemscore.Metal>
0.0000

> <Gold.Chemscore.Lipo>
90.3173

> <Gold.Chemscore.Internal_Hbond>
0.0000

> <Gold.Chemscore.DEClash>
0.0009

> <Gold.Chemscore.DEInternal>
2.0722

> <Gold.Chemscore.Rot>
1.7160

> <Gold.Chemscore.Internal.Correction>
   9.000000E+99

> <Gold.Chemscore.Hbonds>
donor molecule, donor type, donor heavy atom, donor atom, acceptor molecule, acceptor atom, score
      P1  H  7997  8008       L1     1  0.99
      P1  H 10752 10764       L1     6  0.87

> <Gold.Chemscore.Hbond.Weighted>
-6.5539

> <Gold.Chemscore.Metal.Weighted>
-0.0000

> <Gold.Chemscore.Lipo.Weighted>
-10.5671

> <Gold.Chemscore.Internal_Hbond.Weighted>
0.0000

> <Gold.Chemscore.DEClash.Weighted>
0.0009

> <Gold.Chemscore.DEInternal.Weighted>
2.0722

> <Gold.Chemscore.Rot.Weighted>
4.3930

> <Gold.Chemscore.Internal.Correction.Weighted>
   9.000000E+99

> <Gold.Protein.RotatedTorsions>
[ 6907 6896 6895 6894 ] final  169.13 input  -60.11 | X-H torsion
[ 7974 7965 7964 7962 ] final  148.49 input  175.53 | X-H torsion
[ 8008 7997 7996 7995 ] final  -84.64 input   59.86 | X-H torsion
[ 10167 10162 10161 10158 ] final  131.68 input  -65.29 | X-H torsion
[ 10718 10713 10712 10709 ] final    4.63 input   66.30 | X-H torsion
[ 10763 10752 10751 10750 ] final  -11.21 input  -60.55 | X-H torsion
[ 11005 11000 10999 10996 ] final   86.89 input  -57.11 | X-H torsion

> <Gold.Protein.ActiveResidues>
 VAL166  LYS551  ARG553  GLY616  TRP617  ASP618  TYR619  PRO620  LYS621  CYS622 
 ASP623  PHE694  ASN695  SER759  ASP760  ASP761  ALA762  ILE779  LEU786  VAL792 
 PHE793  MET794  SER795  GLU796  ALA797  LYS798  CYS799  TRP800  GLU811  SER814 

> <Gold.Protein.RotatedAtoms>
  151.8367  133.3417  159.3630 H   0  0  0  0  0  0  0  0  0  0  0  0  # atno 6907 bound_to 6896
  150.7247  134.5431  159.5766 H   0  0  0  0  0  0  0  0  0  0  0  0  # atno 6908 bound_to 6896
  152.2895  134.7738  160.0431 H   0  0  0  0  0  0  0  0  0  0  0  0  # atno 6909 bound_to 6896
  144.8510  139.6160  143.5974 H   0  0  0  0  0  0  0  0  0  0  0  0  # atno 7974 bound_to 7965
  154.6320  140.0602  156.9743 H   0  0  0  0  0  0  0  0  0  0  0  0  # atno 8008 bound_to 7997
  155.1651  140.3286  155.4385 H   0  0  0  0  0  0  0  0  0  0  0  0  # atno 8009 bound_to 7997
  156.2488  140.1924  156.6756 H   0  0  0  0  0  0  0  0  0  0  0  0  # atno 8010 bound_to 7997
  139.5373  144.6695  151.4742 H   0  0  0  0  0  0  0  0  0  0  0  0  # atno 10167 bound_to 10162
  156.8955  130.5703  149.5649 H   0  0  0  0  0  0  0  0  0  0  0  0  # atno 10718 bound_to 10713
  153.4805  135.7017  153.5941 H   0  0  0  0  0  0  0  0  0  0  0  0  # atno 10763 bound_to 10752
  153.4156  135.3838  155.2079 H   0  0  0  0  0  0  0  0  0  0  0  0  # atno 10764 bound_to 10752
  154.8722  135.3915  154.4254 H   0  0  0  0  0  0  0  0  0  0  0  0  # atno 10765 bound_to 10752
  139.8933  134.8386  156.2784 H   0  0  0  0  0  0  0  0  0  0  0  0  # atno 11005 bound_to 11000
  146.2785  139.6814  142.9246 LP  0  0  0  0  0  0  0  0  0  0  0  0  # atno 17320 bound_to 7965
  145.4500  141.0427  143.2810 LP  0  0  0  0  0  0  0  0  0  0  0  0  # atno 17321 bound_to 7965
  140.6586  143.8546  150.6862 LP  0  0  0  0  0  0  0  0  0  0  0  0  # atno 17342 bound_to 10162
  140.1934  143.4018  152.1846 LP  0  0  0  0  0  0  0  0  0  0  0  0  # atno 17343 bound_to 10162
  156.0608  130.5661  150.9188 LP  0  0  0  0  0  0  0  0  0  0  0  0  # atno 17370 bound_to 10713
  157.6058  131.0939  150.8882 LP  0  0  0  0  0  0  0  0  0  0  0  0  # atno 17371 bound_to 10713
  141.0055  133.7126  156.1027 LP  0  0  0  0  0  0  0  0  0  0  0  0  # atno 17394 bound_to 11000
  140.7440  134.4119  157.5551 LP  0  0  0  0  0  0  0  0  0  0  0  0  # atno 17395 bound_to 11000

$$$$
