AV-unprocessed.smi:2032|AV-procd|sdf|8237|dock5
  -GOLD-   2272010503D 1   1.00000     0.00000
 Structure written by MMmdl.
 43 44  0  0  0  0  0  0  0  0  2 V2000
  152.6165  138.5470  154.8821 C   0  0  0  0  0  0  0  0  0  0  0  0
  151.2380  137.9330  154.6129 C   0  0  2  0  0  0  0  0  0  0  0  0
  150.2302  138.9800  154.1013 C   0  0  0  0  0  0  0  0  0  0  0  0
  148.8760  138.3842  153.9399 N   0  3  2  0  0  0  0  0  0  0  0  0
  147.8232  139.2815  153.3586 C   0  0  2  0  0  0  0  0  0  0  0  0
  147.5867  140.4839  154.3011 C   0  0  0  0  0  0  0  0  0  0  0  0
  146.4855  138.5562  153.0390 C   0  0  0  0  0  0  0  0  0  0  0  0
  146.6757  137.2778  152.3566 N   0  0  0  0  0  0  0  0  0  0  0  0
  145.6973  136.4256  152.0150 C   0  0  0  0  0  0  0  0  0  0  0  0
  144.5051  136.6388  152.2371 O   0  0  0  0  0  0  0  0  0  0  0  0
  146.1914  135.3352  151.4031 N   0  0  0  0  0  0  0  0  0  0  0  0
  145.4751  134.2492  150.8349 C   0  0  0  0  0  0  0  0  0  0  0  0
  144.1436  134.2071  150.7087 N   0  0  0  0  0  0  0  0  0  0  0  0
  143.7114  133.0240  150.1041 C   0  0  0  0  0  0  0  0  0  0  0  0
  144.7346  132.1710  149.7735 C   0  0  0  0  0  0  0  0  0  0  0  0
  146.2910  132.8227  150.2118 S   0  0  0  0  0  0  0  0  0  0  0  0
  148.4530  137.7738  155.2296 C   0  0  0  0  0  0  0  0  0  0  0  0
  149.4856  136.7534  155.7433 C   0  0  1  0  0  0  0  0  0  0  0  0
  149.5087  135.4411  154.9388 C   0  0  0  0  0  0  0  0  0  0  0  0
  150.7702  137.3643  155.8308 O   0  0  0  0  0  0  0  0  0  0  0  0
  153.0373  138.9823  153.9754 H   0  0  0  0  0  0  0  0  0  0  0  0
  153.3158  137.7916  155.2419 H   0  0  0  0  0  0  0  0  0  0  0  0
  152.5597  139.3331  155.6357 H   0  0  0  0  0  0  0  0  0  0  0  0
  151.3616  137.1493  153.8652 H   0  0  0  0  0  0  0  0  0  0  0  0
  150.1766  139.8267  154.7879 H   0  0  0  0  0  0  0  0  0  0  0  0
  150.6085  139.3517  153.1495 H   0  0  0  0  0  0  0  0  0  0  0  0
  148.2056  139.6633  152.4106 H   0  0  0  0  0  0  0  0  0  0  0  0
  146.9088  141.2146  153.8611 H   0  0  0  0  0  0  0  0  0  0  0  0
  148.4997  141.0297  154.5302 H   0  0  0  0  0  0  0  0  0  0  0  0
  147.1526  140.1594  155.2474 H   0  0  0  0  0  0  0  0  0  0  0  0
  145.9551  138.3120  153.9594 H   0  0  0  0  0  0  0  0  0  0  0  0
  145.8258  139.2076  152.4628 H   0  0  0  0  0  0  0  0  0  0  0  0
  147.6260  137.0200  152.1333 H   0  0  0  0  0  0  0  0  0  0  0  0
  147.1953  135.2860  151.3110 H   0  0  0  0  0  0  0  0  0  0  0  0
  142.6541  132.8712  149.9455 H   0  0  0  0  0  0  0  0  0  0  0  0
  144.6667  131.2028  149.3001 H   0  0  0  0  0  0  0  0  0  0  0  0
  148.3302  138.5657  155.9703 H   0  0  0  0  0  0  0  0  0  0  0  0
  147.4857  137.2826  155.1437 H   0  0  0  0  0  0  0  0  0  0  0  0
  149.2099  136.4898  156.7648 H   0  0  0  0  0  0  0  0  0  0  0  0
  148.5470  134.9317  155.0050 H   0  0  0  0  0  0  0  0  0  0  0  0
  150.2678  134.7612  155.3260 H   0  0  0  0  0  0  0  0  0  0  0  0
  149.7137  135.6049  153.8813 H   0  0  0  0  0  0  0  0  0  0  0  0
  148.9900  137.6282  153.2798 H   0  0  0  0  0  0  0  0  0  0  0  0
  1  2  1  0  0  0  0
  1 21  1  0  0  0  0
  1 22  1  0  0  0  0
  1 23  1  0  0  0  0
  2 20  1  0  0  0  0
  2  3  1  0  0  0  0
  2 24  1  0  0  0  0
  3  4  1  0  0  0  0
  3 25  1  0  0  0  0
  3 26  1  0  0  0  0
  4  5  1  0  0  0  0
  4 17  1  0  0  0  0
  4 43  1  0  0  0  0
  5  6  1  0  0  0  0
  5  7  1  0  0  0  0
  5 27  1  0  0  0  0
  6 28  1  0  0  0  0
  6 29  1  0  0  0  0
  6 30  1  0  0  0  0
  7  8  1  0  0  0  0
  7 31  1  0  0  0  0
  7 32  1  0  0  0  0
  8  9  1  0  0  0  0
  8 33  1  0  0  0  0
  9 10  2  0  0  0  0
  9 11  1  0  0  0  0
 11 12  1  0  0  0  0
 11 34  1  0  0  0  0
 12 16  1  0  0  0  0
 12 13  2  0  0  0  0
 13 14  1  0  0  0  0
 14 15  2  0  0  0  0
 14 35  1  0  0  0  0
 15 16  1  0  0  0  0
 15 36  1  0  0  0  0
 17 18  1  0  0  0  0
 17 37  1  0  0  0  0
 17 38  1  0  0  0  0
 18 19  1  0  0  0  0
 18 20  1  0  0  0  0
 18 39  1  0  0  0  0
 19 40  1  0  0  0  0
 19 41  1  0  0  0  0
 19 42  1  0  0  0  0
M  CHG  1   4   1
M  END
> <s_m_source_file>
AV-unprocessed.smi

> <i_m_source_file_index>
2032

> <i_lp_mmshare_version>
43012

> <i_f3d_flags>
0

> <s_epik_input>
W0NIM11bQ0BASF0xW0NIMl1OKFtDSDJdW0NASF0oTzEpW0NIM10pW0NASF0oW0NIM10pW0NIMl1bTkhdQyg9TylbTkhdYzJuW2NIXVtjSF1zMg==

> <s_epik_cmdline>
J2VwaWtfcHl0aG9uJywgJy1waCcsICc3LjAnLCAnLXRuJywgJzgnLCAnLW1hJywgJzIwMCcsICctbWV0YWxfYmluZGluZycsICctaW1hZScsICc8aW5maWxlLm1hZT4nLCAnLW9tYWUnLCAnPG91dGZpbGUubWFlPic=

> <r_lp_tautomer_probability>
0.999

> <r_epik_Ionization_Penalty>
0.695838

> <r_epik_Ionization_Penalty_Charging>
0.695697

> <r_epik_Ionization_Penalty_Neutral>
0.000141198

> <r_epik_State_Penalty>
0.717972

> <r_epik_Charging_Adjusted_Penalty>
1.41367

> <i_epik_Tot_Q>
1

> <i_epik_Tot_abs_Q>
1

> <r_epik_Metal_State_Penalty>
0.756405

> <b_epik_Metal_Only>
0

> <s_lp_Force_Field>
OPLS_2005

> <r_lp_Energy>
21.5501

> <b_lp_Chiralities_Consistent>
1

> <s_lp_Variant>
AV-unprocessed.smi:2032-7

> <Gold.Version>
5.8.1

> <Gold.Id.Protein>
6NUR|6NUR_protein|mol2

> <Gold.PLP.Fitness>
47.1930

> <Gold.PLP.PLP>
-32.7901

> <Gold.PLP.part.hbond>
-3.0615

> <Gold.PLP.part.metal>
0.0000

> <Gold.PLP.part.buried>
-2.6348

> <Gold.PLP.part.nonpolar>
-28.0066

> <Gold.PLP.part.repulsive>
0.5393

> <Gold.PLP.ligand.clash>
0.0000

> <Gold.PLP.ligand.torsion>
0.1154

> <Gold.PLP.Chemscore.Hbond>
3.8960

> <Gold.PLP.Chemscore.CHOScore>
0.9648

> <Gold.PLP.Chemscore.Metal>
0.0000

> <Gold.Chemscore.Hbonds>
donor molecule, donor type, donor heavy atom, donor atom, acceptor molecule, acceptor atom, score
      L1  H     4    43       P1  7948  2.00
      L1  H     8    33       P1  7948  1.00
      L1  H    11    34       P1  7948  0.90
      L1  C    14    35       P1 10186  0.99

> <Gold.PLP.Chemscore.Internal.Correction>
0.0512

> <Gold.Rescore>
     Score         DG    S(hbond)    S(metal)    S(lipo)     H(rot)  DE(clash)    DE(int)     intcor
     16.90     -19.64       2.63        0.00      81.15       1.61       1.37       1.38       ----

> <Gold.Chemscore.Fitness>
16.8981

> <Gold.Chemscore.DG>
-19.6440

> <Gold.Chemscore.ZeroCoef>
-5.4800

> <Gold.Chemscore.Hbond>
2.6327

> <Gold.Chemscore.Metal>
0.0000

> <Gold.Chemscore.Lipo>
81.1540

> <Gold.Chemscore.Internal_Hbond>
0.0000

> <Gold.Chemscore.DEClash>
1.3677

> <Gold.Chemscore.DEInternal>
1.3782

> <Gold.Chemscore.Rot>
1.6110

> <Gold.Chemscore.Internal.Correction>
   9.000000E+99

> <Gold.Chemscore.Hbonds>
donor molecule, donor type, donor heavy atom, donor atom, acceptor molecule, acceptor atom, score
      L1  H     4    43       P1  7948  0.98
      L1  H     8    33       P1  7948  0.95
      L1  H    11    34       P1  7948  0.68

> <Gold.Chemscore.Hbond.Weighted>
-8.7931

> <Gold.Chemscore.Metal.Weighted>
-0.0000

> <Gold.Chemscore.Lipo.Weighted>
-9.4950

> <Gold.Chemscore.Internal_Hbond.Weighted>
0.0000

> <Gold.Chemscore.DEClash.Weighted>
1.3677

> <Gold.Chemscore.DEInternal.Weighted>
1.3782

> <Gold.Chemscore.Rot.Weighted>
4.1242

> <Gold.Chemscore.Internal.Correction.Weighted>
   9.000000E+99

> <Gold.Protein.RotatedTorsions>
[ 6907 6896 6895 6894 ] final -112.73 input  -60.11 | X-H torsion
[ 7974 7965 7964 7962 ] final  144.94 input  175.53 | X-H torsion
[ 8008 7997 7996 7995 ] final  -77.85 input   59.86 | X-H torsion
[ 10167 10162 10161 10158 ] final  -75.37 input  -65.29 | X-H torsion
[ 10718 10713 10712 10709 ] final -121.55 input   66.30 | X-H torsion
[ 10763 10752 10751 10750 ] final  -55.02 input  -60.55 | X-H torsion
[ 11005 11000 10999 10996 ] final  142.07 input  -57.11 | X-H torsion

> <Gold.Protein.ActiveResidues>
 VAL166  LYS551  ARG553  GLY616  TRP617  ASP618  TYR619  PRO620  LYS621  CYS622 
 ASP623  PHE694  ASN695  SER759  ASP760  ASP761  ALA762  ILE779  LEU786  VAL792 
 PHE793  MET794  SER795  GLU796  ALA797  LYS798  CYS799  TRP800  GLU811  SER814 

> <Gold.Protein.RotatedAtoms>
  150.7779  133.9046  159.3351 H   0  0  0  0  0  0  0  0  0  0  0  0  # atno 6907 bound_to 6896
  151.6917  135.0943  160.0244 H   0  0  0  0  0  0  0  0  0  0  0  0  # atno 6908 bound_to 6896
  152.3821  133.6522  159.6205 H   0  0  0  0  0  0  0  0  0  0  0  0  # atno 6909 bound_to 6896
  144.8793  139.5723  143.5850 H   0  0  0  0  0  0  0  0  0  0  0  0  # atno 7974 bound_to 7965
  154.5635  140.0703  156.8855 H   0  0  0  0  0  0  0  0  0  0  0  0  # atno 8008 bound_to 7997
  155.2767  140.3369  155.4243 H   0  0  0  0  0  0  0  0  0  0  0  0  # atno 8009 bound_to 7997
  156.2061  140.1741  156.7781 H   0  0  0  0  0  0  0  0  0  0  0  0  # atno 8010 bound_to 7997
  140.4948  143.2373  151.7848 H   0  0  0  0  0  0  0  0  0  0  0  0  # atno 10167 bound_to 10162
  156.1346  130.6421  150.9676 H   0  0  0  0  0  0  0  0  0  0  0  0  # atno 10718 bound_to 10713
  154.1841  135.6438  153.5042 H   0  0  0  0  0  0  0  0  0  0  0  0  # atno 10763 bound_to 10752
  153.0051  135.5413  154.6483 H   0  0  0  0  0  0  0  0  0  0  0  0  # atno 10764 bound_to 10752
  154.5855  135.2929  155.0662 H   0  0  0  0  0  0  0  0  0  0  0  0  # atno 10765 bound_to 10752
  140.0449  134.9286  157.0912 H   0  0  0  0  0  0  0  0  0  0  0  0  # atno 11005 bound_to 11000
  146.2984  139.7349  142.9109 LP  0  0  0  0  0  0  0  0  0  0  0  0  # atno 17320 bound_to 7965
  145.3983  141.0382  143.3085 LP  0  0  0  0  0  0  0  0  0  0  0  0  # atno 17321 bound_to 7965
  139.4859  144.4601  151.9552 LP  0  0  0  0  0  0  0  0  0  0  0  0  # atno 17342 bound_to 10162
  140.3688  144.2881  150.5923 LP  0  0  0  0  0  0  0  0  0  0  0  0  # atno 17343 bound_to 10162
  157.6520  131.0895  150.8029 LP  0  0  0  0  0  0  0  0  0  0  0  0  # atno 17370 bound_to 10713
  156.8110  130.4952  149.5356 LP  0  0  0  0  0  0  0  0  0  0  0  0  # atno 17371 bound_to 10713
  140.4009  134.2083  155.7163 LP  0  0  0  0  0  0  0  0  0  0  0  0  # atno 17394 bound_to 11000
  141.1902  133.8222  157.0928 LP  0  0  0  0  0  0  0  0  0  0  0  0  # atno 17395 bound_to 11000

$$$$
