#       Name:                AV-unprocessed.smi:243
#       Creating user name   scv26
#       Creation time:       Thu Mar 26 20:47:21 2020


#       File generated by GOLD software.
#

@<TRIPOS>MOLECULE
AV-unprocessed.smi:243
    66    69     1
SMALL
NO_CHARGES


@<TRIPOS>ATOM
      1 ****        -5.3437  -1.5928   0.6732 C.3            1 S1                 0.0000
      2 ****        -4.2724  -0.7580  -0.0423 C.3            1 S1                 0.0000
      3 ****        -4.4892   0.7057   0.1116 N.4            1 S1                 1.0000
      4 ****        -3.7929   1.5179  -0.9164 C.3            1 S1                 0.0000
      5 ****        -2.2788   1.5720  -0.6614 C.3            1 S1                 0.0000
      6 ****        -1.9595   2.1169   0.7499 C.3            1 S1                 0.0000
      7 ****        -0.5124   2.2138   0.9967 N.3            1 S1                 0.0000
      8 ****         0.1882   3.3343   0.3796 C.3            1 S1                 0.0000
      9 ****         0.2006   1.0596   1.0155 C.ar           1 S1                 0.0000
     10 ****         0.3007   0.4011   2.1972 N.ar           1 S1                 0.0000
     11 ****         0.9947  -0.7378   2.2774 C.ar           1 S1                 0.0000
     12 ****         1.6586  -1.3792   1.3142 N.ar           1 S1                 0.0000
     13 ****         1.5710  -0.7170   0.1253 C.ar           1 S1                 0.0000
     14 ****         0.8671   0.4976  -0.1122 C.ar           1 S1                 0.0000
     15 ****         0.9892   0.8585  -1.4491 N.2            1 S1                 0.0000
     16 ****         1.7274  -0.0833  -1.9690 C.2            1 S1                 0.0000
     17 ****         2.1312  -1.0645  -1.0919 N.pl3          1 S1                 0.0000
     18 ****         2.9587  -2.2220  -1.3973 C.3            1 S1                 0.0000
     19 ****         4.4726  -1.9703  -1.1989 C.3            1 S1                 0.0000
     20 ****         4.7120  -1.6348   0.1571 O.3            1 S1                 0.0000
     21 ****         5.3268  -3.1806  -1.5521 C.3            1 S1                 0.0000
     22 ****         6.6491  -2.5480  -1.9655 C.3            1 S1                 0.0000
     23 ****         6.2427  -1.3984  -2.6890 O.3            1 S1                 0.0000
     24 ****         5.0676  -0.8597  -2.0888 C.3            1 S1                 0.0000
     25 ****        -2.7361   1.3171   1.8316 C.3            1 S1                 0.0000
     26 ****        -2.5758   1.9367   3.2319 C.3            1 S1                 0.0000
     27 ****        -4.2398   1.2395   1.4770 C.3            1 S1                 0.0000
     28 ****        -5.2183  -2.6511   0.4438 H              1 S1                 0.0000
     29 ****        -6.3465  -1.3036   0.3575 H              1 S1                 0.0000
     30 ****        -5.2867  -1.4910   1.7566 H              1 S1                 0.0000
     31 ****        -3.2779  -1.0464   0.2978 H              1 S1                 0.0000
     32 ****        -4.3137  -1.0082  -1.1030 H              1 S1                 0.0000
     33 ****        -3.9992   1.1248  -1.9126 H              1 S1                 0.0000
     34 ****        -4.2024   2.5287  -0.8982 H              1 S1                 0.0000
     35 ****        -1.8607   0.5736  -0.7897 H              1 S1                 0.0000
     36 ****        -1.8127   2.1974  -1.4230 H              1 S1                 0.0000
     37 ****        -2.3376   3.1398   0.7858 H              1 S1                 0.0000
     38 ****         1.2540   3.3111   0.6123 H              1 S1                 0.0000
     39 ****        -0.2112   4.2755   0.7580 H              1 S1                 0.0000
     40 ****         0.0730   3.3321  -0.7040 H              1 S1                 0.0000
     41 ****         1.0243  -1.2000   3.2532 H              1 S1                 0.0000
     42 ****         2.0004  -0.0858  -3.0142 H              1 S1                 0.0000
     43 ****         2.6305  -3.0541  -0.7728 H              1 S1                 0.0000
     44 ****         2.7593  -2.5174  -2.4282 H              1 S1                 0.0000
     45 ****         5.6367  -1.4752   0.2684 H              1 S1                 0.0000
     46 ****         5.4297  -3.8991  -0.7379 H              1 S1                 0.0000
     47 ****         4.9014  -3.7069  -2.4079 H              1 S1                 0.0000
     48 ****         7.2286  -2.2453  -1.0918 H              1 S1                 0.0000
     49 ****         7.2634  -3.2107  -2.5753 H              1 S1                 0.0000
     50 ****         4.3910  -0.5718  -2.8926 H              1 S1                 0.0000
     51 ****         5.3064   0.0427  -1.5238 H              1 S1                 0.0000
     52 ****        -2.3517   0.2986   1.8734 H              1 S1                 0.0000
     53 ****        -2.9540   2.9591   3.2579 H              1 S1                 0.0000
     54 ****        -1.5337   1.9651   3.5483 H              1 S1                 0.0000
     55 ****        -3.1233   1.3617   3.9791 H              1 S1                 0.0000
     56 ****        -4.6736   2.2394   1.5258 H              1 S1                 0.0000
     57 ****        -4.7772   0.6510   2.2196 H              1 S1                 0.0000
     58 ****        -5.4747   0.8406  -0.0641 H              1 S1                 0.0000
     59 ****        -0.5497   2.4625   1.9645 LP             1 S1                 0.0000
     60 ****        -0.1469   0.7697   3.0119 LP             1 S1                 0.0000
     61 ****         2.1568  -2.2360   1.4470 LP             1 S1                 0.0000
     62 ****         0.6001   1.6575  -1.9076 LP             1 S1                 0.0000
     63 ****         4.4269  -2.3904   0.7467 LP             1 S1                 0.0000
     64 ****         4.1966  -0.8121   0.3969 LP             1 S1                 0.0000
     65 ****         6.0487  -1.6508  -3.6370 LP             1 S1                 0.0000
     66 ****         6.9723  -0.7149  -2.6687 LP             1 S1                 0.0000
@<TRIPOS>BOND
    1    1    2 1     
    2    1   28 1     
    3    1   29 1     
    4    1   30 1     
    5    2    3 1     
    6    2   31 1     
    7    2   32 1     
    8    3   27 1     
    9    3    4 1     
   10    3   58 1     
   11    4    5 1     
   12    4   33 1     
   13    4   34 1     
   14    5    6 1     
   15    5   35 1     
   16    5   36 1     
   17    6    7 1     
   18    6   25 1     
   19    6   37 1     
   20    7    8 1     
   21    7    9 1     
   22    8   38 1     
   23    8   39 1     
   24    8   40 1     
   25    9   14 ar    
   26    9   10 ar    
   27   10   11 ar    
   28   11   12 ar    
   29   11   41 1     
   30   12   13 ar    
   31   13   17 1     
   32   13   14 ar    
   33   14   15 1     
   34   15   16 2     
   35   16   17 1     
   36   16   42 1     
   37   17   18 1     
   38   18   19 1     
   39   18   43 1     
   40   18   44 1     
   41   19   24 1     
   42   19   20 1     
   43   19   21 1     
   44   20   45 1     
   45   21   22 1     
   46   21   46 1     
   47   21   47 1     
   48   22   23 1     
   49   22   48 1     
   50   22   49 1     
   51   23   24 1     
   52   24   50 1     
   53   24   51 1     
   54   25   26 1     
   55   25   27 1     
   56   25   52 1     
   57   26   53 1     
   58   26   54 1     
   59   26   55 1     
   60   27   56 1     
   61   27   57 1     
   62    7   59 1     
   63   10   60 1     
   64   12   61 1     
   65   15   62 1     
   66   20   63 1     
   67   20   64 1     
   68   23   65 1     
   69   23   66 1     
@<TRIPOS>SUBSTRUCTURE
      1 S1             1
@<TRIPOS>SET
LONE_PAIRS      STATIC     ATOMS    <user>   **** ""
8 59 60 61 62 63 64 65 66
DONOR_HYDROGENS      STATIC     ATOMS    <user>   **** ""
2 58 45
ATOM$BLUE        STATIC     ATOMS    COLORGROUP SYSTEM
8 59 60 61 62 63 64 65 66
ATOM$RED        STATIC     ATOMS    COLORGROUP SYSTEM
2 58 45
