AV-unprocessed.smi:906|AV-procd|sdf|4100|dock4
  -GOLD-   22720 1593D 1   1.00000     0.00000
 Structure written by MMmdl.
 47 48  0  0  0  0  0  0  0  0  1 V2000
  151.7192  145.5719  160.8208 C   0  0  0  0  0  0  0  0  0  0  0  0
  151.9205  144.1274  160.4137 C   0  0  0  0  0  0  0  0  0  0  0  0
  152.8422  143.3046  161.0949 C   0  0  0  0  0  0  0  0  0  0  0  0
  152.9899  141.9700  160.6712 C   0  0  0  0  0  0  0  0  0  0  0  0
  152.2151  141.5109  159.5860 C   0  0  0  0  0  0  0  0  0  0  0  0
  152.3493  140.0862  159.0758 C   0  0  0  0  0  0  0  0  0  0  0  0
  151.3325  139.7420  157.9743 C   0  0  0  0  0  0  0  0  0  0  0  0
  150.6119  138.5127  158.2923 N   0  0  0  0  0  0  0  0  0  0  0  0
  149.3107  138.2762  158.0564 C   0  0  0  0  0  0  0  0  0  0  0  0
  148.5612  139.1306  157.5815 O   0  0  0  0  0  0  0  0  0  0  0  0
  148.9063  137.0149  158.3482 N   0  0  0  0  0  0  0  0  0  0  0  0
  149.6750  135.9831  159.0594 C   0  0  0  0  0  0  0  0  0  0  0  0
  149.0465  135.7690  160.4496 C   0  0  0  0  0  0  0  0  0  0  0  0
  147.6421  135.3587  160.3107 N   0  0  0  0  0  0  0  0  0  0  0  0
  146.9653  135.0106  161.5721 C   0  0  2  0  0  0  0  0  0  0  0  0
  146.7622  136.2106  162.5234 C   0  0  0  0  0  0  0  0  0  0  0  0
  147.6394  133.8092  162.2773 C   0  0  0  0  0  0  0  0  0  0  0  0
  147.9956  132.8883  161.3809 F   0  0  0  0  0  0  0  0  0  0  0  0
  148.7147  134.1723  162.9765 F   0  0  0  0  0  0  0  0  0  0  0  0
  146.7672  133.2514  163.1169 F   0  0  0  0  0  0  0  0  0  0  0  0
  146.8790  136.3499  159.5414 C   0  0  0  0  0  0  0  0  0  0  0  0
  147.5250  136.5643  158.1591 C   0  0  0  0  0  0  0  0  0  0  0  0
  151.3220  142.4153  158.9739 C   0  0  0  0  0  0  0  0  0  0  0  0
  151.1729  143.6964  159.3739 N   0  0  0  0  0  0  0  0  0  0  0  0
  152.3020  145.8173  161.7094 H   0  0  0  0  0  0  0  0  0  0  0  0
  150.6686  145.7630  161.0409 H   0  0  0  0  0  0  0  0  0  0  0  0
  152.0289  146.2386  160.0156 H   0  0  0  0  0  0  0  0  0  0  0  0
  153.4252  143.6849  161.9207 H   0  0  0  0  0  0  0  0  0  0  0  0
  153.6913  141.3154  161.1673 H   0  0  0  0  0  0  0  0  0  0  0  0
  153.3620  139.9364  158.6994 H   0  0  0  0  0  0  0  0  0  0  0  0
  152.2324  139.3988  159.9141 H   0  0  0  0  0  0  0  0  0  0  0  0
  150.6146  140.5542  157.8583 H   0  0  0  0  0  0  0  0  0  0  0  0
  151.8573  139.6514  157.0219 H   0  0  0  0  0  0  0  0  0  0  0  0
  151.1590  137.7573  158.6785 H   0  0  0  0  0  0  0  0  0  0  0  0
  149.6460  135.0544  158.4872 H   0  0  0  0  0  0  0  0  0  0  0  0
  150.7330  136.2185  159.1732 H   0  0  0  0  0  0  0  0  0  0  0  0
  149.6172  135.0072  160.9769 H   0  0  0  0  0  0  0  0  0  0  0  0
  149.1208  136.6898  161.0289 H   0  0  0  0  0  0  0  0  0  0  0  0
  145.9727  134.6567  161.2898 H   0  0  0  0  0  0  0  0  0  0  0  0
  146.1512  135.9209  163.3783 H   0  0  0  0  0  0  0  0  0  0  0  0
  146.2517  137.0408  162.0362 H   0  0  0  0  0  0  0  0  0  0  0  0
  147.7074  136.5823  162.9189 H   0  0  0  0  0  0  0  0  0  0  0  0
  145.8534  136.0040  159.4081 H   0  0  0  0  0  0  0  0  0  0  0  0
  146.8322  137.2981  160.0773 H   0  0  0  0  0  0  0  0  0  0  0  0
  146.9279  137.2694  157.5796 H   0  0  0  0  0  0  0  0  0  0  0  0
  147.5195  135.6339  157.5889 H   0  0  0  0  0  0  0  0  0  0  0  0
  150.7147  142.1046  158.1364 H   0  0  0  0  0  0  0  0  0  0  0  0
  1  2  1  0  0  0  0
  1 25  1  0  0  0  0
  1 26  1  0  0  0  0
  1 27  1  0  0  0  0
  2 24  1  0  0  0  0
  2  3  2  0  0  0  0
  3  4  1  0  0  0  0
  3 28  1  0  0  0  0
  4  5  2  0  0  0  0
  4 29  1  0  0  0  0
  5  6  1  0  0  0  0
  5 23  1  0  0  0  0
  6  7  1  0  0  0  0
  6 30  1  0  0  0  0
  6 31  1  0  0  0  0
  7  8  1  0  0  0  0
  7 32  1  0  0  0  0
  7 33  1  0  0  0  0
  8  9  1  0  0  0  0
  8 34  1  0  0  0  0
  9 10  2  0  0  0  0
  9 11  1  0  0  0  0
 11 22  1  0  0  0  0
 11 12  1  0  0  0  0
 12 13  1  0  0  0  0
 12 35  1  0  0  0  0
 12 36  1  0  0  0  0
 13 14  1  0  0  0  0
 13 37  1  0  0  0  0
 13 38  1  0  0  0  0
 14 15  1  0  0  0  0
 14 21  1  0  0  0  0
 15 16  1  0  0  0  0
 15 17  1  0  0  0  0
 15 39  1  0  0  0  0
 16 40  1  0  0  0  0
 16 41  1  0  0  0  0
 16 42  1  0  0  0  0
 17 18  1  0  0  0  0
 17 19  1  0  0  0  0
 17 20  1  0  0  0  0
 21 22  1  0  0  0  0
 21 43  1  0  0  0  0
 21 44  1  0  0  0  0
 22 45  1  0  0  0  0
 22 46  1  0  0  0  0
 23 24  2  0  0  0  0
 23 47  1  0  0  0  0
M  END
> <s_m_source_file>
AV-unprocessed.smi

> <i_m_source_file_index>
906

> <i_lp_mmshare_version>
43012

> <i_f3d_flags>
0

> <s_epik_input>
W0NIM11jMVtjSF1bY0hdYyhbY0hdbjEpW0NIMl1bQ0gyXVtOSF1DKD1PKU4yW0NIMl1bQ0gyXU4oW0NASF0oW0NIM10pQyhGKShGKUYpW0NIMl1bQ0gyXTI=

> <s_epik_cmdline>
J2VwaWtfcHl0aG9uJywgJy1waCcsICc3LjAnLCAnLXRuJywgJzgnLCAnLW1hJywgJzIwMCcsICctbWV0YWxfYmluZGluZycsICctaW1hZScsICc8aW5maWxlLm1hZT4nLCAnLW9tYWUnLCAnPG91dGZpbGUubWFlPic=

> <r_epik_Ionization_Penalty>
0.0782886

> <r_epik_Ionization_Penalty_Charging>
0

> <r_epik_Ionization_Penalty_Neutral>
0.0782886

> <r_epik_State_Penalty>
0.0661423

> <r_epik_Charging_Adjusted_Penalty>
0.0661423

> <i_epik_Tot_Q>
0

> <i_epik_Tot_abs_Q>
0

> <r_epik_Metal_State_Penalty>
0.060629

> <b_epik_Metal_Only>
0

> <s_lp_Force_Field>
OPLS_2005

> <r_lp_Energy>
48.1538

> <b_lp_Chiralities_Consistent>
1

> <s_lp_Variant>
AV-unprocessed.smi:906-1

> <Gold.Version>
5.8.1

> <Gold.Id.Protein>
6NUR|6NUR_protein|mol2

> <Gold.PLP.Fitness>
43.8929

> <Gold.PLP.PLP>
-45.2669

> <Gold.PLP.part.hbond>
0.0000

> <Gold.PLP.part.metal>
0.0000

> <Gold.PLP.part.buried>
-6.1464

> <Gold.PLP.part.nonpolar>
-39.0837

> <Gold.PLP.part.repulsive>
0.1837

> <Gold.PLP.ligand.clash>
0.0000

> <Gold.PLP.ligand.torsion>
0.9981

> <Gold.PLP.Chemscore.Hbond>
0.0000

> <Gold.PLP.Chemscore.CHOScore>
0.0000

> <Gold.PLP.Chemscore.Metal>
0.0000

> <Gold.PLP.Chemscore.Internal.Correction>
0.6222

> <Gold.Rescore>
     Score         DG    S(hbond)    S(metal)    S(lipo)     H(rot)  DE(clash)    DE(int)     intcor
     12.98     -14.12       0.00        0.00     108.49       1.58       0.08       1.06       ----

> <Gold.Chemscore.Fitness>
12.9825

> <Gold.Chemscore.DG>
-14.1181

> <Gold.Chemscore.ZeroCoef>
-5.4800

> <Gold.Chemscore.Hbond>
0.0000

> <Gold.Chemscore.Metal>
0.0000

> <Gold.Chemscore.Lipo>
108.4915

> <Gold.Chemscore.Internal_Hbond>
0.0000

> <Gold.Chemscore.DEClash>
0.0798

> <Gold.Chemscore.DEInternal>
1.0558

> <Gold.Chemscore.Rot>
1.5841

> <Gold.Chemscore.Internal.Correction>
   9.000000E+99

> <Gold.Chemscore.Hbond.Weighted>
-0.0000

> <Gold.Chemscore.Metal.Weighted>
-0.0000

> <Gold.Chemscore.Lipo.Weighted>
-12.6935

> <Gold.Chemscore.Internal_Hbond.Weighted>
0.0000

> <Gold.Chemscore.DEClash.Weighted>
0.0798

> <Gold.Chemscore.DEInternal.Weighted>
1.0558

> <Gold.Chemscore.Rot.Weighted>
4.0554

> <Gold.Chemscore.Internal.Correction.Weighted>
   9.000000E+99

> <Gold.Protein.RotatedTorsions>
[ 6907 6896 6895 6894 ] final  -95.25 input  -60.11 | X-H torsion
[ 7974 7965 7964 7962 ] final  -38.08 input  175.53 | X-H torsion
[ 8008 7997 7996 7995 ] final  -30.78 input   59.86 | X-H torsion
[ 10167 10162 10161 10158 ] final  -29.35 input  -65.29 | X-H torsion
[ 10718 10713 10712 10709 ] final  165.20 input   66.30 | X-H torsion
[ 10763 10752 10751 10750 ] final   50.75 input  -60.55 | X-H torsion
[ 11005 11000 10999 10996 ] final  147.64 input  -57.11 | X-H torsion

> <Gold.Protein.ActiveResidues>
 VAL166  LYS551  ARG553  GLY616  TRP617  ASP618  TYR619  PRO620  LYS621  CYS622 
 ASP623  PHE694  ASN695  SER759  ASP760  ASP761  ALA762  ILE779  LEU786  VAL792 
 PHE793  MET794  SER795  GLU796  ALA797  LYS798  CYS799  TRP800  GLU811  SER814 

> <Gold.Protein.RotatedAtoms>
  150.6959  134.1687  159.4203 H   0  0  0  0  0  0  0  0  0  0  0  0  # atno 6907 bound_to 6896
  151.9665  135.0095  160.0560 H   0  0  0  0  0  0  0  0  0  0  0  0  # atno 6908 bound_to 6896
  152.1879  133.4718  159.5029 H   0  0  0  0  0  0  0  0  0  0  0  0  # atno 6909 bound_to 6896
  146.0518  140.6470  142.9038 H   0  0  0  0  0  0  0  0  0  0  0  0  # atno 7974 bound_to 7965
  154.4237  140.1782  156.1462 H   0  0  0  0  0  0  0  0  0  0  0  0  # atno 8008 bound_to 7997
  155.9952  140.3365  155.6767 H   0  0  0  0  0  0  0  0  0  0  0  0  # atno 8009 bound_to 7997
  155.6318  140.0670  157.2637 H   0  0  0  0  0  0  0  0  0  0  0  0  # atno 8010 bound_to 7997
  140.7261  143.3935  151.1388 H   0  0  0  0  0  0  0  0  0  0  0  0  # atno 10167 bound_to 10162
  157.0835  131.0398  151.2566 H   0  0  0  0  0  0  0  0  0  0  0  0  # atno 10718 bound_to 10713
  152.9784  135.5868  154.4304 H   0  0  0  0  0  0  0  0  0  0  0  0  # atno 10763 bound_to 10752
  154.3918  135.2768  155.2152 H   0  0  0  0  0  0  0  0  0  0  0  0  # atno 10764 bound_to 10752
  154.4021  135.6101  153.5958 H   0  0  0  0  0  0  0  0  0  0  0  0  # atno 10765 bound_to 10752
  140.0893  134.9051  157.1625 H   0  0  0  0  0  0  0  0  0  0  0  0  # atno 11005 bound_to 11000
  144.7127  140.4097  143.7068 LP  0  0  0  0  0  0  0  0  0  0  0  0  # atno 17320 bound_to 7965
  145.6711  139.1599  143.2754 LP  0  0  0  0  0  0  0  0  0  0  0  0  # atno 17321 bound_to 7965
  139.7544  143.8730  152.3085 LP  0  0  0  0  0  0  0  0  0  0  0  0  # atno 17342 bound_to 10162
  139.8594  144.7125  150.9117 LP  0  0  0  0  0  0  0  0  0  0  0  0  # atno 17343 bound_to 10162
  157.4781  130.7748  149.7387 LP  0  0  0  0  0  0  0  0  0  0  0  0  # atno 17370 bound_to 10713
  155.9917  130.3936  150.2973 LP  0  0  0  0  0  0  0  0  0  0  0  0  # atno 17371 bound_to 10713
  140.3375  134.2741  155.7217 LP  0  0  0  0  0  0  0  0  0  0  0  0  # atno 17394 bound_to 11000
  141.2073  133.7810  157.0129 LP  0  0  0  0  0  0  0  0  0  0  0  0  # atno 17395 bound_to 11000

$$$$
