AV-unprocessed.smi:1978|AV-procd|sdf|8008|dock7
  -GOLD-   2272010193D 1   1.00000     0.00000
 Structure written by MMmdl.
 44 45  0  0  0  0  0  0  0  0  3 V2000
  153.0477  142.5263  161.0592 C   0  0  0  0  0  0  0  0  0  0  0  0
  152.7811  141.7844  159.7948 C   0  0  0  0  0  0  0  0  0  0  0  0
  151.9845  142.0430  158.7152 C   0  0  0  0  0  0  0  0  0  0  0  0
  152.2096  140.9212  157.8736 C   0  0  0  0  0  0  0  0  0  0  0  0
  151.5497  140.8128  156.6210 N   0  0  0  0  0  0  0  0  0  0  0  0
  151.4812  139.7546  155.7929 C   0  0  0  0  0  0  0  0  0  0  0  0
  152.0336  138.6891  156.0916 O   0  0  0  0  0  0  0  0  0  0  0  0
  150.7709  140.0290  154.6639 N   0  5  0  0  0  0  0  0  0  0  0  0
  150.1223  139.0256  153.8183 C   0  0  0  0  0  0  0  0  0  0  0  0
  149.1798  138.1154  154.6516 C   0  0  2  0  0  0  0  0  0  0  0  0
  149.8789  136.8547  155.2278 C   0  0  0  0  0  0  0  0  0  0  0  0
  147.9518  137.8040  153.8532 N   0  3  1  0  0  0  0  0  0  0  0  0
  146.8797  137.0308  154.5481 C   0  0  0  0  0  0  0  0  0  0  0  0
  145.8419  136.5038  153.5447 C   0  0  0  0  0  0  0  0  0  0  0  0
  145.2488  137.6466  152.7124 C   0  0  0  0  0  0  0  0  0  0  0  0
  146.3738  138.4378  152.0293 C   0  0  0  0  0  0  0  0  0  0  0  0
  147.4271  138.9427  153.0381 C   0  0  1  0  0  0  0  0  0  0  0  0
  146.9075  140.1206  153.8887 C   0  0  0  0  0  0  0  0  0  0  0  0
  153.0672  140.0557  158.3941 N   0  0  0  0  0  0  0  0  0  0  0  0
  153.4372  140.6043  159.6278 O   0  0  0  0  0  0  0  0  0  0  0  0
  152.4334  143.4250  161.1204 H   0  0  0  0  0  0  0  0  0  0  0  0
  154.0937  142.8274  161.1172 H   0  0  0  0  0  0  0  0  0  0  0  0
  152.8247  141.9050  161.9265 H   0  0  0  0  0  0  0  0  0  0  0  0
  151.3450  142.8979  158.5544 H   0  0  0  0  0  0  0  0  0  0  0  0
  151.0733  141.6450  156.3068 H   0  0  0  0  0  0  0  0  0  0  0  0
  149.5452  139.4914  153.0178 H   0  0  0  0  0  0  0  0  0  0  0  0
  150.8571  138.4014  153.3094 H   0  0  0  0  0  0  0  0  0  0  0  0
  148.8595  138.7119  155.5072 H   0  0  0  0  0  0  0  0  0  0  0  0
  150.6718  137.1197  155.9293 H   0  0  0  0  0  0  0  0  0  0  0  0
  150.3294  136.2279  154.4562 H   0  0  0  0  0  0  0  0  0  0  0  0
  149.1784  136.2313  155.7823 H   0  0  0  0  0  0  0  0  0  0  0  0
  147.3157  136.1813  155.0747 H   0  0  0  0  0  0  0  0  0  0  0  0
  146.3877  137.6477  155.3003 H   0  0  0  0  0  0  0  0  0  0  0  0
  146.3115  135.7745  152.8834 H   0  0  0  0  0  0  0  0  0  0  0  0
  145.0476  135.9757  154.0730 H   0  0  0  0  0  0  0  0  0  0  0  0
  144.5634  137.2478  151.9641 H   0  0  0  0  0  0  0  0  0  0  0  0
  144.6596  138.3053  153.3513 H   0  0  0  0  0  0  0  0  0  0  0  0
  146.8627  137.7951  151.2958 H   0  0  0  0  0  0  0  0  0  0  0  0
  145.9564  139.2733  151.4662 H   0  0  0  0  0  0  0  0  0  0  0  0
  148.2597  139.3230  152.4443 H   0  0  0  0  0  0  0  0  0  0  0  0
  146.5270  140.9179  153.2502 H   0  0  0  0  0  0  0  0  0  0  0  0
  147.6995  140.5567  154.4968 H   0  0  0  0  0  0  0  0  0  0  0  0
  146.0984  139.8261  154.5564 H   0  0  0  0  0  0  0  0  0  0  0  0
  148.3020  137.1640  153.1545 H   0  0  0  0  0  0  0  0  0  0  0  0
  1  2  1  0  0  0  0
  1 21  1  0  0  0  0
  1 22  1  0  0  0  0
  1 23  1  0  0  0  0
  2 20  1  0  0  0  0
  2  3  2  0  0  0  0
  3  4  1  0  0  0  0
  3 24  1  0  0  0  0
  4  5  1  0  0  0  0
  4 19  2  0  0  0  0
  5  6  1  0  0  0  0
  5 25  1  0  0  0  0
  6  7  2  0  0  0  0
  6  8  1  0  0  0  0
  8  9  1  0  0  0  0
  9 10  1  0  0  0  0
  9 26  1  0  0  0  0
  9 27  1  0  0  0  0
 10 11  1  0  0  0  0
 10 12  1  0  0  0  0
 10 28  1  0  0  0  0
 11 29  1  0  0  0  0
 11 30  1  0  0  0  0
 11 31  1  0  0  0  0
 12 17  1  0  0  0  0
 12 13  1  0  0  0  0
 12 44  1  0  0  0  0
 13 14  1  0  0  0  0
 13 32  1  0  0  0  0
 13 33  1  0  0  0  0
 14 15  1  0  0  0  0
 14 34  1  0  0  0  0
 14 35  1  0  0  0  0
 15 16  1  0  0  0  0
 15 36  1  0  0  0  0
 15 37  1  0  0  0  0
 16 17  1  0  0  0  0
 16 38  1  0  0  0  0
 16 39  1  0  0  0  0
 17 18  1  0  0  0  0
 17 40  1  0  0  0  0
 18 41  1  0  0  0  0
 18 42  1  0  0  0  0
 18 43  1  0  0  0  0
 19 20  1  0  0  0  0
M  CHG  1   8  -1
M  CHG  1  12   1
M  END
> <s_m_source_file>
AV-unprocessed.smi

> <i_m_source_file_index>
1978

> <i_lp_mmshare_version>
43012

> <i_f3d_flags>
0

> <s_epik_input>
W0NIM11jMVtjSF1jKG5vMSlbTkhdQyg9TylbTkhdW0NIMl1bQ0BIXShbQ0gzXSlOMltDSDJdW0NIMl1bQ0gyXVtDSDJdW0NASF0yW0NIM10=

> <s_epik_cmdline>
J2VwaWtfcHl0aG9uJywgJy1waCcsICc3LjAnLCAnLXRuJywgJzgnLCAnLW1hJywgJzIwMCcsICctbWV0YWxfYmluZGluZycsICctaW1hZScsICc8aW5maWxlLm1hZT4nLCAnLW9tYWUnLCAnPG91dGZpbGUubWFlPic=

> <r_epik_Ionization_Penalty>
6.7666

> <r_epik_Ionization_Penalty_Charging>
6.7666

> <r_epik_Ionization_Penalty_Neutral>
5.77131e-06

> <r_epik_State_Penalty>
6.79217

> <r_epik_Charging_Adjusted_Penalty>
13.5588

> <i_epik_Tot_Q>
0

> <i_epik_Tot_abs_Q>
2

> <r_epik_Metal_State_Penalty>
2.72569

> <b_epik_Metal_Only>
1

> <s_lp_Force_Field>
OPLS_2005

> <r_lp_Energy>
20.2617

> <b_lp_Chiralities_Consistent>
1

> <s_lp_Variant>
AV-unprocessed.smi:1978-17

> <Gold.Version>
5.8.1

> <Gold.Id.Protein>
6NUR|6NUR_protein|mol2

> <Gold.PLP.Fitness>
40.7188

> <Gold.PLP.PLP>
-30.0404

> <Gold.PLP.part.hbond>
-3.0000

> <Gold.PLP.part.metal>
0.0000

> <Gold.PLP.part.buried>
-2.7968

> <Gold.PLP.part.nonpolar>
-25.5110

> <Gold.PLP.part.repulsive>
0.1987

> <Gold.PLP.ligand.clash>
0.0000

> <Gold.PLP.ligand.torsion>
0.7611

> <Gold.PLP.Chemscore.Hbond>
4.0000

> <Gold.PLP.Chemscore.CHOScore>
0.0000

> <Gold.PLP.Chemscore.Metal>
0.0000

> <Gold.Chemscore.Hbonds>
donor molecule, donor type, donor heavy atom, donor atom, acceptor molecule, acceptor atom, score
      L1  H    12    44       P1  7948  2.00
      P1  H  7989  7998       L1     8  1.00
      P1  H  7997  8009       L1    19  0.94

> <Gold.PLP.Chemscore.Internal.Correction>
0.2006

> <Gold.Rescore>
     Score         DG    S(hbond)    S(metal)    S(lipo)     H(rot)  DE(clash)    DE(int)     intcor
     12.61     -16.16       1.80        0.00      73.05       1.52       0.28       3.27       ----

> <Gold.Chemscore.Fitness>
12.6105

> <Gold.Chemscore.DG>
-16.1634

> <Gold.Chemscore.ZeroCoef>
-5.4800

> <Gold.Chemscore.Hbond>
1.8038

> <Gold.Chemscore.Metal>
0.0000

> <Gold.Chemscore.Lipo>
73.0547

> <Gold.Chemscore.Internal_Hbond>
0.0000

> <Gold.Chemscore.DEClash>
0.2824

> <Gold.Chemscore.DEInternal>
3.2704

> <Gold.Chemscore.Rot>
1.5190

> <Gold.Chemscore.Internal.Correction>
   9.000000E+99

> <Gold.Chemscore.Hbonds>
donor molecule, donor type, donor heavy atom, donor atom, acceptor molecule, acceptor atom, score
      L1  H    12    44       P1  7948  1.00
      P1  H  7989  7998       L1     8  0.23
      P1  H  7997  8009       L1    19  0.32

> <Gold.Chemscore.Hbond.Weighted>
-6.0246

> <Gold.Chemscore.Metal.Weighted>
-0.0000

> <Gold.Chemscore.Lipo.Weighted>
-8.5474

> <Gold.Chemscore.Internal_Hbond.Weighted>
0.0000

> <Gold.Chemscore.DEClash.Weighted>
0.2824

> <Gold.Chemscore.DEInternal.Weighted>
3.2704

> <Gold.Chemscore.Rot.Weighted>
3.8886

> <Gold.Chemscore.Internal.Correction.Weighted>
   9.000000E+99

> <Gold.Protein.RotatedTorsions>
[ 6907 6896 6895 6894 ] final   10.05 input  -60.11 | X-H torsion
[ 7974 7965 7964 7962 ] final  152.62 input  175.53 | X-H torsion
[ 8008 7997 7996 7995 ] final  147.47 input   59.86 | X-H torsion
[ 10167 10162 10161 10158 ] final  -48.21 input  -65.29 | X-H torsion
[ 10718 10713 10712 10709 ] final -151.50 input   66.30 | X-H torsion
[ 10763 10752 10751 10750 ] final  -20.52 input  -60.55 | X-H torsion
[ 11005 11000 10999 10996 ] final   17.00 input  -57.11 | X-H torsion

> <Gold.Protein.ActiveResidues>
 VAL166  LYS551  ARG553  GLY616  TRP617  ASP618  TYR619  PRO620  LYS621  CYS622 
 ASP623  PHE694  ASN695  SER759  ASP760  ASP761  ALA762  ILE779  LEU786  VAL792 
 PHE793  MET794  SER795  GLU796  ALA797  LYS798  CYS799  TRP800  GLU811  SER814 

> <Gold.Protein.RotatedAtoms>
  151.7321  135.0872  160.0301 H   0  0  0  0  0  0  0  0  0  0  0  0  # atno 6907 bound_to 6896
  152.3534  133.6203  159.5970 H   0  0  0  0  0  0  0  0  0  0  0  0  # atno 6908 bound_to 6896
  150.7555  133.9454  159.3510 H   0  0  0  0  0  0  0  0  0  0  0  0  # atno 6909 bound_to 6896
  144.8210  139.6693  143.6100 H   0  0  0  0  0  0  0  0  0  0  0  0  # atno 7974 bound_to 7965
  156.2823  140.2154  156.5543 H   0  0  0  0  0  0  0  0  0  0  0  0  # atno 8008 bound_to 7997
  154.7265  140.0499  157.0710 H   0  0  0  0  0  0  0  0  0  0  0  0  # atno 8009 bound_to 7997
  155.0409  140.3145  155.4728 H   0  0  0  0  0  0  0  0  0  0  0  0  # atno 8010 bound_to 7997
  140.6741  143.2750  151.4038 H   0  0  0  0  0  0  0  0  0  0  0  0  # atno 10167 bound_to 10162
  156.4601  130.8209  151.2440 H   0  0  0  0  0  0  0  0  0  0  0  0  # atno 10718 bound_to 10713
  153.6217  135.6992  153.5308 H   0  0  0  0  0  0  0  0  0  0  0  0  # atno 10763 bound_to 10752
  153.2932  135.4151  155.1185 H   0  0  0  0  0  0  0  0  0  0  0  0  # atno 10764 bound_to 10752
  154.8542  135.3630  154.5758 H   0  0  0  0  0  0  0  0  0  0  0  0  # atno 10765 bound_to 10752
  140.4408  134.1323  155.7690 H   0  0  0  0  0  0  0  0  0  0  0  0  # atno 11005 bound_to 11000
  146.2515  139.6210  142.9424 LP  0  0  0  0  0  0  0  0  0  0  0  0  # atno 17320 bound_to 7965
  145.5106  141.0435  143.2490 LP  0  0  0  0  0  0  0  0  0  0  0  0  # atno 17321 bound_to 7965
  139.6024  144.1267  152.2212 LP  0  0  0  0  0  0  0  0  0  0  0  0  # atno 17342 bound_to 10162
  140.0656  144.5821  150.7230 LP  0  0  0  0  0  0  0  0  0  0  0  0  # atno 17343 bound_to 10162
  157.7498  131.0110  150.3327 LP  0  0  0  0  0  0  0  0  0  0  0  0  # atno 17370 bound_to 10713
  156.3725  130.3866  149.7164 LP  0  0  0  0  0  0  0  0  0  0  0  0  # atno 17371 bound_to 10713
  141.1706  133.8616  157.1582 LP  0  0  0  0  0  0  0  0  0  0  0  0  # atno 17394 bound_to 11000
  140.0071  135.0004  157.0316 LP  0  0  0  0  0  0  0  0  0  0  0  0  # atno 17395 bound_to 11000

$$$$
