AV-unprocessed.smi:1473|AV-procd|sdf|5970|dock1
  -GOLD-   22720 6 53D 1   1.00000     0.00000
 Structure written by MMmdl.
 33 34  0  0  0  0  0  0  0  0  2 V2000
  153.5965  135.7348  157.1940 N   0  5  0  0  0  0  0  0  0  0  0  0
  153.2778  137.0753  158.0313 S   0  0  0  0  0  0  0  0  0  0  0  0
  152.6920  136.8220  159.3569 O   0  0  0  0  0  0  0  0  0  0  0  0
  154.3234  138.1036  157.9182 O   0  0  0  0  0  0  0  0  0  0  0  0
  151.9828  137.6139  157.0367 N   0  0  0  0  0  0  0  0  0  0  0  0
  152.2009  138.5988  155.9824 C   0  0  0  0  0  0  0  0  0  0  0  0
  151.6247  139.9519  156.3420 C   0  0  0  0  0  0  0  0  0  0  0  0
  150.5510  140.4934  155.6072 C   0  0  0  0  0  0  0  0  0  0  0  0
  150.0620  141.7625  155.9727 C   0  0  0  0  0  0  0  0  0  0  0  0
  150.5718  142.4882  156.9907 N   0  0  0  0  0  0  0  0  0  0  0  0
  151.6086  141.9691  157.6924 C   0  0  0  0  0  0  0  0  0  0  0  0
  152.1481  142.7247  158.7431 N   0  0  0  0  0  0  0  0  0  0  0  0
  151.4805  144.0054  158.9411 C   0  0  0  0  0  0  0  0  0  0  0  0
  152.2115  144.8177  160.0237 C   0  0  0  0  0  0  0  0  0  0  0  0
  152.2843  144.0543  161.2247 O   0  0  0  0  0  0  0  0  0  0  0  0
  153.0023  142.8370  161.0417 C   0  0  0  0  0  0  0  0  0  0  0  0
  152.2936  141.9732  159.9835 C   0  0  0  0  0  0  0  0  0  0  0  0
  152.1651  140.7053  157.4038 C   0  0  0  0  0  0  0  0  0  0  0  0
  152.8821  135.0342  157.4260 H   0  0  0  0  0  0  0  0  0  0  0  0
  151.0544  137.5816  157.4567 H   0  0  0  0  0  0  0  0  0  0  0  0
  153.2718  138.7038  155.8049 H   0  0  0  0  0  0  0  0  0  0  0  0
  151.7601  138.2328  155.0546 H   0  0  0  0  0  0  0  0  0  0  0  0
  150.1141  139.9518  154.7809 H   0  0  0  0  0  0  0  0  0  0  0  0
  149.2406  142.2082  155.4314 H   0  0  0  0  0  0  0  0  0  0  0  0
  151.4623  144.5611  158.0027 H   0  0  0  0  0  0  0  0  0  0  0  0
  150.4442  143.8409  159.2401 H   0  0  0  0  0  0  0  0  0  0  0  0
  153.2147  145.0926  159.6936 H   0  0  0  0  0  0  0  0  0  0  0  0
  151.6758  145.7457  160.2232 H   0  0  0  0  0  0  0  0  0  0  0  0
  154.0302  143.0509  160.7447 H   0  0  0  0  0  0  0  0  0  0  0  0
  153.0490  142.3051  161.9920 H   0  0  0  0  0  0  0  0  0  0  0  0
  151.3113  141.6715  160.3501 H   0  0  0  0  0  0  0  0  0  0  0  0
  152.8645  141.0623  159.7993 H   0  0  0  0  0  0  0  0  0  0  0  0
  152.9949  140.3236  157.9813 H   0  0  0  0  0  0  0  0  0  0  0  0
  1  2  1  0  0  0  0
  1 19  1  0  0  0  0
  2  3  2  0  0  0  0
  2  4  2  0  0  0  0
  2  5  1  0  0  0  0
  5  6  1  0  0  0  0
  5 20  1  0  0  0  0
  6  7  1  0  0  0  0
  6 21  1  0  0  0  0
  6 22  1  0  0  0  0
  7 18  1  0  0  0  0
  7  8  2  0  0  0  0
  8  9  1  0  0  0  0
  8 23  1  0  0  0  0
  9 10  2  0  0  0  0
  9 24  1  0  0  0  0
 10 11  1  0  0  0  0
 11 12  1  0  0  0  0
 11 18  2  0  0  0  0
 12 17  1  0  0  0  0
 12 13  1  0  0  0  0
 13 14  1  0  0  0  0
 13 25  1  0  0  0  0
 13 26  1  0  0  0  0
 14 15  1  0  0  0  0
 14 27  1  0  0  0  0
 14 28  1  0  0  0  0
 15 16  1  0  0  0  0
 16 17  1  0  0  0  0
 16 29  1  0  0  0  0
 16 30  1  0  0  0  0
 17 31  1  0  0  0  0
 17 32  1  0  0  0  0
 18 33  1  0  0  0  0
M  CHG  1   1  -1
M  END
> <s_m_source_file>
AV-unprocessed.smi

> <i_m_source_file_index>
1473

> <i_lp_mmshare_version>
43012

> <i_f3d_flags>
0

> <s_epik_input>
W05IMl1TKD1PKSg9TylbTkhdW0NIMl1jMVtjSF1bY0hdbmMoW2NIXTEpTjJbQ0gyXVtDSDJdT1tDSDJdW0NIMl0y

> <s_epik_cmdline>
J2VwaWtfcHl0aG9uJywgJy1waCcsICc3LjAnLCAnLXRuJywgJzgnLCAnLW1hJywgJzIwMCcsICctbWV0YWxfYmluZGluZycsICctaW1hZScsICc8aW5maWxlLm1hZT4nLCAnLW9tYWUnLCAnPG91dGZpbGUubWFlPic=

> <r_lp_tautomer_probability>
1

> <r_epik_Ionization_Penalty>
2.7939

> <r_epik_Ionization_Penalty_Charging>
2.75358

> <r_epik_Ionization_Penalty_Neutral>
0.0403146

> <r_epik_State_Penalty>
2.98411

> <r_epik_Charging_Adjusted_Penalty>
5.73769

> <i_epik_Tot_Q>
-1

> <i_epik_Tot_abs_Q>
1

> <r_epik_Metal_State_Penalty>
0.875881

> <b_epik_Metal_Only>
1

> <s_lp_Force_Field>
OPLS_2005

> <r_lp_Energy>
15.423

> <b_lp_Chiralities_Consistent>
1

> <s_lp_Variant>
AV-unprocessed.smi:1473-5

> <Gold.Version>
5.8.1

> <Gold.Id.Protein>
6NUR|6NUR_protein|mol2

> <Gold.PLP.Fitness>
44.5920

> <Gold.PLP.PLP>
-31.0852

> <Gold.PLP.part.hbond>
-3.0000

> <Gold.PLP.part.metal>
0.0000

> <Gold.PLP.part.buried>
-4.8096

> <Gold.PLP.part.nonpolar>
-22.9078

> <Gold.PLP.part.repulsive>
0.6527

> <Gold.PLP.ligand.clash>
0.0000

> <Gold.PLP.ligand.torsion>
0.7398

> <Gold.PLP.Chemscore.Hbond>
3.8437

> <Gold.PLP.Chemscore.CHOScore>
0.7628

> <Gold.PLP.Chemscore.Metal>
0.0000

> <Gold.Chemscore.Hbonds>
donor molecule, donor type, donor heavy atom, donor atom, acceptor molecule, acceptor atom, score
      P1  H  6896  6908       L1     3  1.00
      P1  H  7997  8010       L1     4  0.77
      P1  H 10752 10763       L1     1  2.00
      L1  C     9    24       P1  8028  0.75

> <Gold.PLP.Chemscore.Internal.Correction>
1.1666

> <Gold.Rescore>
     Score         DG    S(hbond)    S(metal)    S(lipo)     H(rot)  DE(clash)    DE(int)     intcor
     16.82     -17.82       2.44        0.00      76.94       1.88       0.28       0.72       ----

> <Gold.Chemscore.Fitness>
16.8246

> <Gold.Chemscore.DG>
-17.8242

> <Gold.Chemscore.ZeroCoef>
-5.4800

> <Gold.Chemscore.Hbond>
2.4428

> <Gold.Chemscore.Metal>
0.0000

> <Gold.Chemscore.Lipo>
76.9374

> <Gold.Chemscore.Internal_Hbond>
0.0000

> <Gold.Chemscore.DEClash>
0.2800

> <Gold.Chemscore.DEInternal>
0.7195

> <Gold.Chemscore.Rot>
1.8814

> <Gold.Chemscore.Internal.Correction>
   9.000000E+99

> <Gold.Chemscore.Hbonds>
donor molecule, donor type, donor heavy atom, donor atom, acceptor molecule, acceptor atom, score
      P1  H  6896  6908       L1     3  0.94
      P1  H  7997  8010       L1     4  0.74
      P1  H 10752 10763       L1     1  0.30

> <Gold.Chemscore.Hbond.Weighted>
-8.1590

> <Gold.Chemscore.Metal.Weighted>
-0.0000

> <Gold.Chemscore.Lipo.Weighted>
-9.0017

> <Gold.Chemscore.Internal_Hbond.Weighted>
0.0000

> <Gold.Chemscore.DEClash.Weighted>
0.2800

> <Gold.Chemscore.DEInternal.Weighted>
0.7195

> <Gold.Chemscore.Rot.Weighted>
4.8165

> <Gold.Chemscore.Internal.Correction.Weighted>
   9.000000E+99

> <Gold.Protein.RotatedTorsions>
[ 6907 6896 6895 6894 ] final -101.62 input  -60.11 | X-H torsion
[ 7974 7965 7964 7962 ] final  140.33 input  175.53 | X-H torsion
[ 8008 7997 7996 7995 ] final   13.56 input   59.86 | X-H torsion
[ 10167 10162 10161 10158 ] final  -70.35 input  -65.29 | X-H torsion
[ 10718 10713 10712 10709 ] final  -36.32 input   66.30 | X-H torsion
[ 10763 10752 10751 10750 ] final  141.33 input  -60.55 | X-H torsion
[ 11005 11000 10999 10996 ] final -126.40 input  -57.11 | X-H torsion

> <Gold.Protein.ActiveResidues>
 VAL166  LYS551  ARG553  GLY616  TRP617  ASP618  TYR619  PRO620  LYS621  CYS622 
 ASP623  PHE694  ASN695  SER759  ASP760  ASP761  ALA762  ILE779  LEU786  VAL792 
 PHE793  MET794  SER795  GLU796  ALA797  LYS798  CYS799  TRP800  GLU811  SER814 

> <Gold.Protein.RotatedAtoms>
  150.7162  134.0707  159.3863 H   0  0  0  0  0  0  0  0  0  0  0  0  # atno 6907 bound_to 6896
  151.8689  135.0494  160.0486 H   0  0  0  0  0  0  0  0  0  0  0  0  # atno 6908 bound_to 6896
  152.2659  133.5303  159.5446 H   0  0  0  0  0  0  0  0  0  0  0  0  # atno 6909 bound_to 6896
  144.9196  139.5185  143.5669 H   0  0  0  0  0  0  0  0  0  0  0  0  # atno 7974 bound_to 7965
  154.8362  140.2907  155.5689 H   0  0  0  0  0  0  0  0  0  0  0  0  # atno 8008 bound_to 7997
  156.3009  140.2522  156.3227 H   0  0  0  0  0  0  0  0  0  0  0  0  # atno 8009 bound_to 7997
  154.9176  140.0387  157.1970 H   0  0  0  0  0  0  0  0  0  0  0  0  # atno 8010 bound_to 7997
  140.5359  143.2318  151.7177 H   0  0  0  0  0  0  0  0  0  0  0  0  # atno 10167 bound_to 10162
  156.3282  130.4275  149.7896 H   0  0  0  0  0  0  0  0  0  0  0  0  # atno 10718 bound_to 10713
  153.9374  135.2983  155.3444 H   0  0  0  0  0  0  0  0  0  0  0  0  # atno 10763 bound_to 10752
  154.7495  135.4987  153.9267 H   0  0  0  0  0  0  0  0  0  0  0  0  # atno 10764 bound_to 10752
  153.1060  135.6747  153.9692 H   0  0  0  0  0  0  0  0  0  0  0  0  # atno 10765 bound_to 10752
  140.9684  134.0839  157.3895 H   0  0  0  0  0  0  0  0  0  0  0  0  # atno 11005 bound_to 11000
  146.3198  139.8066  142.8954 LP  0  0  0  0  0  0  0  0  0  0  0  0  # atno 17320 bound_to 7965
  145.3318  141.0268  143.3442 LP  0  0  0  0  0  0  0  0  0  0  0  0  # atno 17321 bound_to 7965
  139.4971  144.4043  152.0148 LP  0  0  0  0  0  0  0  0  0  0  0  0  # atno 17342 bound_to 10162
  140.3148  144.3496  150.6024 LP  0  0  0  0  0  0  0  0  0  0  0  0  # atno 17343 bound_to 10162
  156.5179  130.8201  151.3193 LP  0  0  0  0  0  0  0  0  0  0  0  0  # atno 17370 bound_to 10713
  157.7425  130.9892  150.2524 LP  0  0  0  0  0  0  0  0  0  0  0  0  # atno 17371 bound_to 10713
  139.8903  135.0111  156.6728 LP  0  0  0  0  0  0  0  0  0  0  0  0  # atno 17394 bound_to 11000
  140.7365  133.9014  155.8248 LP  0  0  0  0  0  0  0  0  0  0  0  0  # atno 17395 bound_to 11000

$$$$
