#       Name:                AV-unprocessed.smi:1275
#       Creating user name   scv26
#       Creation time:       Fri Mar 27 04:47:31 2020


#       File generated by GOLD software.
#

@<TRIPOS>MOLECULE
AV-unprocessed.smi:1275
    51    52     1
SMALL
NO_CHARGES


@<TRIPOS>ATOM
      1 ****        -4.3594   7.2191  -0.5747 C.3            1 S1                 0.0000
      2 ****        -3.8010   5.9335  -0.7797 O.3            1 S1                 0.0000
      3 ****        -4.2165   4.9985   0.2018 C.3            1 S1                 0.0000
      4 ****        -3.5772   3.6393  -0.0966 C.3            1 S1                 0.0000
      5 ****        -2.1982   3.6916   0.2568 O.3            1 S1                 0.0000
      6 ****        -1.4274   2.5622   0.0731 C.ar           1 S1                 0.0000
      7 ****        -0.0673   2.6086   0.4382 C.ar           1 S1                 0.0000
      8 ****         0.7256   1.4587   0.2609 C.ar           1 S1                 0.0000
      9 ****         0.1279   0.2916  -0.2711 C.ar           1 S1                 0.0000
     10 ****         0.8242  -0.9230  -0.5136 N.am           1 S1                 0.0000
     11 ****         1.9304  -1.3957   0.0939 C.2            1 S1                 0.0000
     12 ****         2.5234  -0.7882   0.9858 O.2            1 S1                 0.0000
     13 ****         2.3437  -2.6043  -0.3652 N.am           1 S1                 0.0000
     14 ****         1.6278  -3.4890  -1.2961 C.3            1 S1                 0.0000
     15 ****         1.1640  -4.7321  -0.5164 C.3            1 S1                 0.0000
     16 ****         2.2914  -5.3789   0.0698 O.3            1 S1                 0.0000
     17 ****         3.0334  -4.5389   0.9530 C.3            1 S1                 0.0000
     18 ****         4.1973  -5.3549   1.5260 C.3            1 S1                 0.0000
     19 ****         3.5165  -3.2961   0.1780 C.3            1 S1                 0.0000
     20 ****        -1.2360   0.3547  -0.6229 C.ar           1 S1                 0.0000
     21 ****        -2.0023   1.4526  -0.4534 N.ar           1 S1                 0.0000
     22 ****        -4.0120   7.8973  -1.3537 H              1 S1                 0.0000
     23 ****        -4.0581   7.6306   0.3894 H              1 S1                 0.0000
     24 ****        -5.4489   7.1876  -0.6172 H              1 S1                 0.0000
     25 ****        -3.9477   5.3356   1.2041 H              1 S1                 0.0000
     26 ****        -5.3028   4.9034   0.1681 H              1 S1                 0.0000
     27 ****        -4.0743   2.8727   0.5000 H              1 S1                 0.0000
     28 ****        -3.7098   3.3843  -1.1494 H              1 S1                 0.0000
     29 ****         0.3618   3.5123   0.8450 H              1 S1                 0.0000
     30 ****         1.7716   1.4995   0.5218 H              1 S1                 0.0000
     31 ****         0.3872  -1.5474  -1.1758 H              1 S1                 0.0000
     32 ****         0.7730  -3.0258  -1.7879 H              1 S1                 0.0000
     33 ****         2.3034  -3.7845  -2.1000 H              1 S1                 0.0000
     34 ****         0.4447  -4.4607   0.2578 H              1 S1                 0.0000
     35 ****         0.6649  -5.4329  -1.1854 H              1 S1                 0.0000
     36 ****         2.3859  -4.2301   1.7756 H              1 S1                 0.0000
     37 ****         4.7902  -4.7587   2.2201 H              1 S1                 0.0000
     38 ****         4.8602  -5.7064   0.7351 H              1 S1                 0.0000
     39 ****         3.8318  -6.2280   2.0670 H              1 S1                 0.0000
     40 ****         4.1742  -3.5906  -0.6413 H              1 S1                 0.0000
     41 ****         4.1182  -2.6602   0.8289 H              1 S1                 0.0000
     42 ****        -1.7325  -0.5056  -1.0478 H              1 S1                 0.0000
     43 ****        -2.8043   6.0082  -0.7499 LP             1 S1                 0.0000
     44 ****        -4.0835   5.6008  -1.6795 LP             1 S1                 0.0000
     45 ****        -2.1512   3.9261   1.2277 LP             1 S1                 0.0000
     46 ****        -1.7828   4.4234  -0.2835 LP             1 S1                 0.0000
     47 ****         2.1876   0.1023   1.2927 LP             1 S1                 0.0000
     48 ****         3.3407  -1.1854   1.4031 LP             1 S1                 0.0000
     49 ****         2.8993  -5.6823  -0.6640 LP             1 S1                 0.0000
     50 ****         1.9685  -6.1730   0.5847 LP             1 S1                 0.0000
     51 ****        -2.9690   1.4480  -0.7095 LP             1 S1                 0.0000
@<TRIPOS>BOND
    1    1    2 1     
    2    1   22 1     
    3    1   23 1     
    4    1   24 1     
    5    2    3 1     
    6    3    4 1     
    7    3   25 1     
    8    3   26 1     
    9    4    5 1     
   10    4   27 1     
   11    4   28 1     
   12    5    6 1     
   13    6   21 ar    
   14    6    7 ar    
   15    7    8 ar    
   16    7   29 1     
   17    8    9 ar    
   18    8   30 1     
   19    9   10 1     
   20    9   20 ar    
   21   10   11 am    
   22   10   31 1     
   23   11   12 2     
   24   11   13 am    
   25   13   19 1     
   26   13   14 1     
   27   14   15 1     
   28   14   32 1     
   29   14   33 1     
   30   15   16 1     
   31   15   34 1     
   32   15   35 1     
   33   16   17 1     
   34   17   18 1     
   35   17   19 1     
   36   17   36 1     
   37   18   37 1     
   38   18   38 1     
   39   18   39 1     
   40   19   40 1     
   41   19   41 1     
   42   20   21 ar    
   43   20   42 1     
   44    2   43 1     
   45    2   44 1     
   46    5   45 1     
   47    5   46 1     
   48   12   47 1     
   49   12   48 1     
   50   16   49 1     
   51   16   50 1     
   52   21   51 1     
@<TRIPOS>SUBSTRUCTURE
      1 S1             1
@<TRIPOS>SET
LONE_PAIRS      STATIC     ATOMS    <user>   **** ""
9 43 44 45 46 47 48 49 50 51
DONOR_HYDROGENS      STATIC     ATOMS    <user>   **** ""
1 31
ATOM$BLUE        STATIC     ATOMS    COLORGROUP SYSTEM
9 43 44 45 46 47 48 49 50 51
ATOM$RED        STATIC     ATOMS    COLORGROUP SYSTEM
1 31
