#       Name:                AV-unprocessed.smi:1240
#       Creating user name   scv26
#       Creation time:       Fri Mar 27 04:30:45 2020


#       File generated by GOLD software.
#

@<TRIPOS>MOLECULE
AV-unprocessed.smi:1240
    55    57     1
SMALL
NO_CHARGES


@<TRIPOS>ATOM
      1 ****        -2.9852  -0.3735   0.0383 O.2            1 S1                 0.0000
      2 ****        -2.1511   0.3454  -0.5238 C.2            1 S1                 0.0000
      3 ****        -0.8660   0.0348  -0.8409 N.pl3          1 S1                -1.0000
      4 ****        -0.2357  -1.2614  -0.5909 C.3            1 S1                 0.0000
      5 ****         1.3202  -1.1149  -0.4398 C.3            1 S1                 0.0000
      6 ****         2.0801  -2.4791  -0.4835 C.3            1 S1                 0.0000
      7 ****         2.0175  -3.2512  -1.7991 C.3            1 S1                 0.0000
      8 ****         3.2008  -4.2060  -1.6831 C.3            1 S1                 0.0000
      9 ****         4.1645  -3.5335  -0.8814 O.3            1 S1                 0.0000
     10 ****         3.6026  -2.3401  -0.3492 C.3            1 S1                 0.0000
     11 ****         1.7914  -0.3280   0.7571 N.4            1 S1                 1.0000
     12 ****         1.7800   1.1521   0.6245 C.3            1 S1                 0.0000
     13 ****         2.6111   1.7809   1.7543 C.3            1 S1                 0.0000
     14 ****         2.1015   1.3624   3.0158 O.3            1 S1                 0.0000
     15 ****         2.1757  -0.0488   3.1861 C.3            1 S1                 0.0000
     16 ****         1.3292  -0.7475   2.1097 C.3            1 S1                 0.0000
     17 ****        -2.4660   1.6071  -0.8672 N.am           1 S1                 0.0000
     18 ****        -3.7138   2.2767  -0.7531 C.ar           1 S1                 0.0000
     19 ****        -3.6962   3.6809  -0.6030 C.ar           1 S1                 0.0000
     20 ****        -4.9142   4.3844  -0.5117 C.ar           1 S1                 0.0000
     21 ****        -6.0849   3.7147  -0.5823 N.pl3          1 S1                 1.0000
     22 ****        -6.1514   2.3754  -0.7437 C.ar           1 S1                 0.0000
     23 ****        -4.9664   1.6184  -0.8399 C.ar           1 S1                 0.0000
     24 ****        -0.6302  -1.7556   0.2978 H              1 S1                 0.0000
     25 ****        -0.4469  -1.9439  -1.4136 H              1 S1                 0.0000
     26 ****         1.6688  -0.5669  -1.3168 H              1 S1                 0.0000
     27 ****         1.7327  -3.1372   0.3158 H              1 S1                 0.0000
     28 ****         1.0775  -3.7830  -1.9498 H              1 S1                 0.0000
     29 ****         2.1649  -2.5766  -2.6440 H              1 S1                 0.0000
     30 ****         2.9026  -5.1210  -1.1701 H              1 S1                 0.0000
     31 ****         3.6104  -4.4801  -2.6555 H              1 S1                 0.0000
     32 ****         3.9667  -1.4979  -0.9396 H              1 S1                 0.0000
     33 ****         3.9206  -2.1886   0.6827 H              1 S1                 0.0000
     34 ****         2.1902   1.4481  -0.3413 H              1 S1                 0.0000
     35 ****         0.7606   1.5344   0.6752 H              1 S1                 0.0000
     36 ****         3.6631   1.5048   1.6640 H              1 S1                 0.0000
     37 ****         2.5613   2.8682   1.6963 H              1 S1                 0.0000
     38 ****         3.2148  -0.3786   3.1382 H              1 S1                 0.0000
     39 ****         1.8065  -0.3047   4.1793 H              1 S1                 0.0000
     40 ****         0.2800  -0.4851   2.2535 H              1 S1                 0.0000
     41 ****         1.4126  -1.8280   2.2245 H              1 S1                 0.0000
     42 ****        -1.6996   2.1666  -1.2112 H              1 S1                 0.0000
     43 ****        -2.7584   4.2150  -0.5512 H              1 S1                 0.0000
     44 ****        -4.9862   5.4550  -0.3885 H              1 S1                 0.0000
     45 ****        -7.1435   1.9521  -0.7985 H              1 S1                 0.0000
     46 ****        -5.0354   0.5517  -0.9918 H              1 S1                 0.0000
     47 ****         2.7781  -0.5398   0.7695 H              1 S1                 0.0000
     48 ****        -6.9553   4.2429  -0.5168 H              1 S1                 0.0000
     49 ****        -2.7394  -1.3027   0.3143 LP             1 S1                 0.0000
     50 ****        -3.9056  -0.0258   0.2169 LP             1 S1                 0.0000
     51 ****        -0.3115   0.7438  -1.2766 LP             1 S1                 0.0000
     52 ****         4.9603  -3.3042  -1.4418 LP             1 S1                 0.0000
     53 ****         4.4465  -4.1309  -0.1307 LP             1 S1                 0.0000
     54 ****         1.1449   1.6451   3.0862 LP             1 S1                 0.0000
     55 ****         2.6332   1.8022   3.7395 LP             1 S1                 0.0000
@<TRIPOS>BOND
    1    1    2 2     
    2    2    3 1     
    3    2   17 am    
    4    3    4 1     
    5    4    5 1     
    6    4   24 1     
    7    4   25 1     
    8    5    6 1     
    9    5   11 1     
   10    5   26 1     
   11    6   10 1     
   12    6    7 1     
   13    6   27 1     
   14    7    8 1     
   15    7   28 1     
   16    7   29 1     
   17    8    9 1     
   18    8   30 1     
   19    8   31 1     
   20    9   10 1     
   21   10   32 1     
   22   10   33 1     
   23   11   16 1     
   24   11   12 1     
   25   11   47 1     
   26   12   13 1     
   27   12   34 1     
   28   12   35 1     
   29   13   14 1     
   30   13   36 1     
   31   13   37 1     
   32   14   15 1     
   33   15   16 1     
   34   15   38 1     
   35   15   39 1     
   36   16   40 1     
   37   16   41 1     
   38   17   18 1     
   39   17   42 1     
   40   18   23 ar    
   41   18   19 ar    
   42   19   20 ar    
   43   19   43 1     
   44   20   21 ar    
   45   20   44 1     
   46   21   22 ar    
   47   21   48 1     
   48   22   23 ar    
   49   22   45 1     
   50   23   46 1     
   51    1   49 1     
   52    1   50 1     
   53    3   51 1     
   54    9   52 1     
   55    9   53 1     
   56   14   54 1     
   57   14   55 1     
@<TRIPOS>SUBSTRUCTURE
      1 S1             1
@<TRIPOS>SET
LONE_PAIRS      STATIC     ATOMS    <user>   **** ""
7 49 50 51 52 53 54 55
DONOR_HYDROGENS      STATIC     ATOMS    <user>   **** ""
3 47 42 48
ATOM$BLUE        STATIC     ATOMS    COLORGROUP SYSTEM
7 49 50 51 52 53 54 55
ATOM$RED        STATIC     ATOMS    COLORGROUP SYSTEM
3 47 42 48
