AV-unprocessed.smi:1503|AV-procd|sdf|6068|dock9
  -GOLD-   22720 6183D 1   1.00000     0.00000
 Structure written by MMmdl.
 44 45  0  0  0  0  0  0  0  0  1 V2000
  149.3044  133.2526  153.5404 C   0  0  0  0  0  0  0  0  0  0  0  0
  148.2434  133.7194  154.2155 C   0  0  0  0  0  0  0  0  0  0  0  0
  148.1688  135.0916  154.8563 C   0  0  0  0  0  0  0  0  0  0  0  0
  149.2594  135.9501  154.4102 N   0  0  0  0  0  0  0  0  0  0  0  0
  150.1045  136.6115  155.2164 C   0  0  0  0  0  0  0  0  0  0  0  0
  150.0380  136.5679  156.4452 O   0  0  0  0  0  0  0  0  0  0  0  0
  151.1836  137.4483  154.5232 C   0  0  0  0  0  0  0  0  0  0  0  0
  150.6655  138.8138  154.0331 C   0  0  0  0  0  0  0  0  0  0  0  0
  150.8091  139.8978  155.0979 C   0  0  0  0  0  0  0  0  0  0  0  0
  149.8523  140.8369  155.3402 C   0  0  0  0  0  0  0  0  0  0  0  0
  148.5344  140.8868  154.5873 C   0  0  0  0  0  0  0  0  0  0  0  0
  150.0287  141.8231  156.3188 N   0  0  0  0  0  0  0  0  0  0  0  0
  151.1176  141.8604  157.0211 C   0  0  0  0  0  0  0  0  0  0  0  0
  151.4172  142.7920  158.0177 N   0  0  0  0  0  0  0  0  0  0  0  0
  151.4599  144.2299  157.7395 C   0  0  0  0  0  0  0  0  0  0  0  0
  151.2524  145.0537  159.0213 C   0  0  0  0  0  0  0  0  0  0  0  0
  152.2145  144.6745  159.9958 O   0  0  0  0  0  0  0  0  0  0  0  0
  152.0804  143.3052  160.3509 C   0  0  0  0  0  0  0  0  0  0  0  0
  152.3138  142.4230  159.1130 C   0  0  0  0  0  0  0  0  0  0  0  0
  152.1290  140.9198  156.7976 N   0  0  0  0  0  0  0  0  0  0  0  0
  152.0550  139.9299  155.8807 C   0  0  0  0  0  0  0  0  0  0  0  0
  152.9831  139.1337  155.7471 O   0  0  0  0  0  0  0  0  0  0  0  0
  152.9703  140.9765  157.3524 H   0  0  0  0  0  0  0  0  0  0  0  0
  150.1967  133.8483  153.4147 H   0  0  0  0  0  0  0  0  0  0  0  0
  149.2927  132.2650  153.1031 H   0  0  0  0  0  0  0  0  0  0  0  0
  147.3674  133.0946  154.3156 H   0  0  0  0  0  0  0  0  0  0  0  0
  147.2217  135.5705  154.6057 H   0  0  0  0  0  0  0  0  0  0  0  0
  148.1908  134.9834  155.9416 H   0  0  0  0  0  0  0  0  0  0  0  0
  149.3852  136.0446  153.4127 H   0  0  0  0  0  0  0  0  0  0  0  0
  152.0168  137.6012  155.2110 H   0  0  0  0  0  0  0  0  0  0  0  0
  151.5741  136.8723  153.6837 H   0  0  0  0  0  0  0  0  0  0  0  0
  151.1999  139.1237  153.1335 H   0  0  0  0  0  0  0  0  0  0  0  0
  149.6232  138.7239  153.7270 H   0  0  0  0  0  0  0  0  0  0  0  0
  148.0383  139.9164  154.6138 H   0  0  0  0  0  0  0  0  0  0  0  0
  148.7020  141.1641  153.5464 H   0  0  0  0  0  0  0  0  0  0  0  0
  147.8557  141.6197  155.0255 H   0  0  0  0  0  0  0  0  0  0  0  0
  152.4291  144.4694  157.3002 H   0  0  0  0  0  0  0  0  0  0  0  0
  150.7062  144.5251  157.0094 H   0  0  0  0  0  0  0  0  0  0  0  0
  151.3668  146.1161  158.8060 H   0  0  0  0  0  0  0  0  0  0  0  0
  150.2432  144.9155  159.4131 H   0  0  0  0  0  0  0  0  0  0  0  0
  152.8106  143.0670  161.1242 H   0  0  0  0  0  0  0  0  0  0  0  0
  151.0933  143.1220  160.7782 H   0  0  0  0  0  0  0  0  0  0  0  0
  152.1698  141.3778  159.3906 H   0  0  0  0  0  0  0  0  0  0  0  0
  153.3456  142.5225  158.7730 H   0  0  0  0  0  0  0  0  0  0  0  0
  1  2  2  0  0  0  0
  1 24  1  0  0  0  0
  1 25  1  0  0  0  0
  2  3  1  0  0  0  0
  2 26  1  0  0  0  0
  3  4  1  0  0  0  0
  3 27  1  0  0  0  0
  3 28  1  0  0  0  0
  4  5  1  0  0  0  0
  4 29  1  0  0  0  0
  5  6  2  0  0  0  0
  5  7  1  0  0  0  0
  7  8  1  0  0  0  0
  7 30  1  0  0  0  0
  7 31  1  0  0  0  0
  8  9  1  0  0  0  0
  8 32  1  0  0  0  0
  8 33  1  0  0  0  0
  9 21  1  0  0  0  0
  9 10  2  0  0  0  0
 10 11  1  0  0  0  0
 10 12  1  0  0  0  0
 11 34  1  0  0  0  0
 11 35  1  0  0  0  0
 11 36  1  0  0  0  0
 12 13  2  0  0  0  0
 13 14  1  0  0  0  0
 13 20  1  0  0  0  0
 14 19  1  0  0  0  0
 14 15  1  0  0  0  0
 15 16  1  0  0  0  0
 15 37  1  0  0  0  0
 15 38  1  0  0  0  0
 16 17  1  0  0  0  0
 16 39  1  0  0  0  0
 16 40  1  0  0  0  0
 17 18  1  0  0  0  0
 18 19  1  0  0  0  0
 18 41  1  0  0  0  0
 18 42  1  0  0  0  0
 19 43  1  0  0  0  0
 19 44  1  0  0  0  0
 20 23  1  0  0  0  0
 20 21  1  0  0  0  0
 21 22  2  0  0  0  0
M  END
> <s_m_source_file>
AV-unprocessed.smi

> <i_m_source_file_index>
1503

> <i_lp_mmshare_version>
43012

> <i_f3d_flags>
0

> <s_epik_input>
W0NIMl09W0NIXVtDSDJdW05IXUMoPU8pW0NIMl1bQ0gyXWMxYyhbQ0gzXSluYyhbbkhdYzE9TylOMltDSDJdW0NIMl1PW0NIMl1bQ0gyXTI=

> <s_epik_cmdline>
J2VwaWtfcHl0aG9uJywgJy1waCcsICc3LjAnLCAnLXRuJywgJzgnLCAnLW1hJywgJzIwMCcsICctbWV0YWxfYmluZGluZycsICctaW1hZScsICc8aW5maWxlLm1hZT4nLCAnLW9tYWUnLCAnPG91dGZpbGUubWFlPic=

> <r_lp_tautomer_probability>
0.878553

> <r_epik_Ionization_Penalty>
0.00125265

> <r_epik_Ionization_Penalty_Charging>
0.00122759

> <r_epik_Ionization_Penalty_Neutral>
2.50575e-05

> <r_epik_State_Penalty>
0.0426914

> <r_epik_Charging_Adjusted_Penalty>
0.043919

> <i_epik_Tot_Q>
0

> <i_epik_Tot_abs_Q>
0

> <r_epik_Metal_State_Penalty>
1.02948

> <b_epik_Metal_Only>
0

> <s_lp_Force_Field>
OPLS_2005

> <r_lp_Energy>
21.7502

> <b_lp_Chiralities_Consistent>
1

> <s_lp_Variant>
AV-unprocessed.smi:1503-1

> <Gold.Version>
5.8.1

> <Gold.Id.Protein>
6NUR|6NUR_protein|mol2

> <Gold.PLP.Fitness>
46.0809

> <Gold.PLP.PLP>
-43.0387

> <Gold.PLP.part.hbond>
-2.0000

> <Gold.PLP.part.metal>
0.0000

> <Gold.PLP.part.buried>
-2.8212

> <Gold.PLP.part.nonpolar>
-38.9858

> <Gold.PLP.part.repulsive>
0.3360

> <Gold.PLP.ligand.clash>
0.0000

> <Gold.PLP.ligand.torsion>
1.5363

> <Gold.PLP.Chemscore.Hbond>
1.9500

> <Gold.PLP.Chemscore.CHOScore>
0.0000

> <Gold.PLP.Chemscore.Metal>
0.0000

> <Gold.Chemscore.Hbonds>
donor molecule, donor type, donor heavy atom, donor atom, acceptor molecule, acceptor atom, score
      L1  H     4    29       P1  7948  1.00
      P1  H  7997  8008       L1    22  1.00

> <Gold.PLP.Chemscore.Internal.Correction>
0.2647

> <Gold.Rescore>
     Score         DG    S(hbond)    S(metal)    S(lipo)     H(rot)  DE(clash)    DE(int)     intcor
     13.29     -15.95       1.38        0.00      92.02       1.92       0.38       2.28       ----

> <Gold.Chemscore.Fitness>
13.2855

> <Gold.Chemscore.DG>
-15.9460

> <Gold.Chemscore.ZeroCoef>
-5.4800

> <Gold.Chemscore.Hbond>
1.3809

> <Gold.Chemscore.Metal>
0.0000

> <Gold.Chemscore.Lipo>
92.0152

> <Gold.Chemscore.Internal_Hbond>
0.0000

> <Gold.Chemscore.DEClash>
0.3823

> <Gold.Chemscore.DEInternal>
2.2783

> <Gold.Chemscore.Rot>
1.9187

> <Gold.Chemscore.Internal.Correction>
   9.000000E+99

> <Gold.Chemscore.Hbonds>
donor molecule, donor type, donor heavy atom, donor atom, acceptor molecule, acceptor atom, score
      L1  H     4    29       P1  7948  0.54
      P1  H  7997  8008       L1    22  0.30

> <Gold.Chemscore.Hbond.Weighted>
-4.6121

> <Gold.Chemscore.Metal.Weighted>
-0.0000

> <Gold.Chemscore.Lipo.Weighted>
-10.7658

> <Gold.Chemscore.Internal_Hbond.Weighted>
0.0000

> <Gold.Chemscore.DEClash.Weighted>
0.3823

> <Gold.Chemscore.DEInternal.Weighted>
2.2783

> <Gold.Chemscore.Rot.Weighted>
4.9119

> <Gold.Chemscore.Internal.Correction.Weighted>
   9.000000E+99

> <Gold.Protein.RotatedTorsions>
[ 6907 6896 6895 6894 ] final  109.66 input  -60.11 | X-H torsion
[ 7974 7965 7964 7962 ] final  166.52 input  175.53 | X-H torsion
[ 8008 7997 7996 7995 ] final  -37.45 input   59.86 | X-H torsion
[ 10167 10162 10161 10158 ] final  -30.87 input  -65.29 | X-H torsion
[ 10718 10713 10712 10709 ] final  145.64 input   66.30 | X-H torsion
[ 10763 10752 10751 10750 ] final   22.08 input  -60.55 | X-H torsion
[ 11005 11000 10999 10996 ] final   45.04 input  -57.11 | X-H torsion

> <Gold.Protein.ActiveResidues>
 VAL166  LYS551  ARG553  GLY616  TRP617  ASP618  TYR619  PRO620  LYS621  CYS622 
 ASP623  PHE694  ASN695  SER759  ASP760  ASP761  ALA762  ILE779  LEU786  VAL792 
 PHE793  MET794  SER795  GLU796  ALA797  LYS798  CYS799  TRP800  GLU811  SER814 

> <Gold.Protein.RotatedAtoms>
  152.5057  133.8913  159.7394 H   0  0  0  0  0  0  0  0  0  0  0  0  # atno 6907 bound_to 6896
  150.9351  133.6713  159.2809 H   0  0  0  0  0  0  0  0  0  0  0  0  # atno 6908 bound_to 6896
  151.4044  135.0980  159.9618 H   0  0  0  0  0  0  0  0  0  0  0  0  # atno 6909 bound_to 6896
  144.7459  139.8627  143.6382 H   0  0  0  0  0  0  0  0  0  0  0  0  # atno 7974 bound_to 7965
  154.4053  140.1604  156.2538 H   0  0  0  0  0  0  0  0  0  0  0  0  # atno 8008 bound_to 7997
  155.9096  140.3428  155.6066 H   0  0  0  0  0  0  0  0  0  0  0  0  # atno 8009 bound_to 7997
  155.7352  140.0785  157.2261 H   0  0  0  0  0  0  0  0  0  0  0  0  # atno 8010 bound_to 7997
  140.7244  143.3815  151.1592 H   0  0  0  0  0  0  0  0  0  0  0  0  # atno 10167 bound_to 10162
  157.3428  131.0938  151.1068 H   0  0  0  0  0  0  0  0  0  0  0  0  # atno 10718 bound_to 10713
  153.0944  135.6655  153.9792 H   0  0  0  0  0  0  0  0  0  0  0  0  # atno 10763 bound_to 10752
  153.9379  135.2997  155.3445 H   0  0  0  0  0  0  0  0  0  0  0  0  # atno 10764 bound_to 10752
  154.7361  135.5101  153.9118 H   0  0  0  0  0  0  0  0  0  0  0  0  # atno 10765 bound_to 10752
  140.1496  134.4478  155.8391 H   0  0  0  0  0  0  0  0  0  0  0  0  # atno 11005 bound_to 11000
  146.1336  139.4377  143.0153 LP  0  0  0  0  0  0  0  0  0  0  0  0  # atno 17320 bound_to 7965
  145.7125  141.0101  143.1446 LP  0  0  0  0  0  0  0  0  0  0  0  0  # atno 17321 bound_to 7965
  139.7404  143.8933  152.3048 LP  0  0  0  0  0  0  0  0  0  0  0  0  # atno 17342 bound_to 10162
  139.8752  144.7047  150.8941 LP  0  0  0  0  0  0  0  0  0  0  0  0  # atno 17343 bound_to 10162
  157.2273  130.6509  149.5835 LP  0  0  0  0  0  0  0  0  0  0  0  0  # atno 17370 bound_to 10713
  155.9710  130.4610  150.6093 LP  0  0  0  0  0  0  0  0  0  0  0  0  # atno 17371 bound_to 10713
  141.2197  133.6867  156.7398 LP  0  0  0  0  0  0  0  0  0  0  0  0  # atno 17394 bound_to 11000
  140.2620  134.8459  157.3768 LP  0  0  0  0  0  0  0  0  0  0  0  0  # atno 17395 bound_to 11000

$$$$
