#       Name:                AV-unprocessed.smi:1718
#       Creating user name   scv26
#       Creation time:       Fri Mar 27 08:12:58 2020


#       File generated by GOLD software.
#

@<TRIPOS>MOLECULE
AV-unprocessed.smi:1718
    48    49     1
SMALL
NO_CHARGES


@<TRIPOS>ATOM
      1 ****        -1.0208  -2.4360  -2.4194 C.3            1 S1                 0.0000
      2 ****        -0.6228  -1.6954  -1.1338 C.3            1 S1                 0.0000
      3 ****         0.8009  -1.6816  -1.0712 O.3            1 S1                 0.0000
      4 ****         1.3558  -1.2951   0.1812 C.3            1 S1                 0.0000
      5 ****         2.8808  -1.4358   0.1089 C.3            1 S1                 0.0000
      6 ****         3.3741  -2.8758  -0.0039 C.3            1 S1                 0.0000
      7 ****         4.7973  -2.7441   0.4895 C.3            1 S1                 0.0000
      8 ****         4.6655  -1.6948   1.5930 C.3            1 S1                 0.0000
      9 ****         3.4843  -0.9495   1.3027 O.3            1 S1                 0.0000
     10 ****        -1.1724  -0.2594  -1.1187 C.2            1 S1                 0.0000
     11 ****        -0.9774   0.4739  -2.0880 O.2            1 S1                 0.0000
     12 ****        -1.8486   0.0892  -0.0061 N.am           1 S1                 0.0000
     13 ****        -2.4199   1.3255   0.3388 C.2            1 S1                 0.0000
     14 ****        -2.1066   2.5138  -0.2409 C.2            1 S1                 0.0000
     15 ****        -2.7237   3.7619   0.1755 C.2            1 S1                 0.0000
     16 ****        -2.4248   5.0731  -0.5346 C.3            1 S1                 0.0000
     17 ****        -3.4694   5.9009  -0.4832 F              1 S1                 0.0000
     18 ****        -1.3884   5.6759   0.0463 F              1 S1                 0.0000
     19 ****        -2.1187   4.8646  -1.8154 F              1 S1                 0.0000
     20 ****        -3.6326   3.6813   1.1649 C.2            1 S1                 0.0000
     21 ****        -3.9434   2.4673   1.7816 N.am           1 S1                 0.0000
     22 ****        -3.3965   1.2792   1.4396 C.2            1 S1                 0.0000
     23 ****        -3.7214   0.2518   2.0339 O.2            1 S1                 0.0000
     24 ****        -4.6231   2.4926   2.5281 H              1 S1                 0.0000
     25 ****        -2.1046  -2.4733  -2.5360 H              1 S1                 0.0000
     26 ****        -0.6562  -3.4633  -2.4012 H              1 S1                 0.0000
     27 ****        -0.6036  -1.9562  -3.3056 H              1 S1                 0.0000
     28 ****        -1.0165  -2.2545  -0.2825 H              1 S1                 0.0000
     29 ****         1.1028  -0.2593   0.4094 H              1 S1                 0.0000
     30 ****         0.9556  -1.9140   0.9857 H              1 S1                 0.0000
     31 ****         3.2717  -0.8479  -0.7234 H              1 S1                 0.0000
     32 ****         2.8072  -3.5317   0.6584 H              1 S1                 0.0000
     33 ****         3.3072  -3.2701  -1.0183 H              1 S1                 0.0000
     34 ****         5.2180  -3.6854   0.8440 H              1 S1                 0.0000
     35 ****         5.4337  -2.3669  -0.3122 H              1 S1                 0.0000
     36 ****         4.5448  -2.1707   2.5665 H              1 S1                 0.0000
     37 ****         5.5391  -1.0443   1.6416 H              1 S1                 0.0000
     38 ****        -1.9945  -0.6438   0.6735 H              1 S1                 0.0000
     39 ****        -1.3649   2.5728  -1.0206 H              1 S1                 0.0000
     40 ****        -4.1865   4.5237   1.5524 H              1 S1                 0.0000
     41 ****         1.1335  -1.0435  -1.7656 LP             1 S1                 0.0000
     42 ****         1.1274  -2.6031  -1.2816 LP             1 S1                 0.0000
     43 ****         2.8393  -1.0429   2.0612 LP             1 S1                 0.0000
     44 ****         3.7221   0.0146   1.1842 LP             1 S1                 0.0000
     45 ****        -0.4652   0.1343  -2.8768 LP             1 S1                 0.0000
     46 ****        -1.3313   1.4092  -2.0866 LP             1 S1                 0.0000
     47 ****        -3.3142  -0.6246   1.7768 LP             1 S1                 0.0000
     48 ****        -4.3927   0.2933   2.7740 LP             1 S1                 0.0000
@<TRIPOS>BOND
    1    1    2 1     
    2    1   25 1     
    3    1   26 1     
    4    1   27 1     
    5    2    3 1     
    6    2   10 1     
    7    2   28 1     
    8    3    4 1     
    9    4    5 1     
   10    4   29 1     
   11    4   30 1     
   12    5    9 1     
   13    5    6 1     
   14    5   31 1     
   15    6    7 1     
   16    6   32 1     
   17    6   33 1     
   18    7    8 1     
   19    7   34 1     
   20    7   35 1     
   21    8    9 1     
   22    8   36 1     
   23    8   37 1     
   24   10   11 2     
   25   10   12 am    
   26   12   13 1     
   27   12   38 1     
   28   13   22 1     
   29   13   14 2     
   30   14   15 1     
   31   14   39 1     
   32   15   16 1     
   33   15   20 2     
   34   16   17 1     
   35   16   18 1     
   36   16   19 1     
   37   20   21 1     
   38   20   40 1     
   39   21   24 1     
   40   21   22 am    
   41   22   23 2     
   42    3   41 1     
   43    3   42 1     
   44    9   43 1     
   45    9   44 1     
   46   11   45 1     
   47   11   46 1     
   48   23   47 1     
   49   23   48 1     
@<TRIPOS>SUBSTRUCTURE
      1 S1             1
@<TRIPOS>SET
LONE_PAIRS      STATIC     ATOMS    <user>   **** ""
8 41 42 43 44 45 46 47 48
DONOR_HYDROGENS      STATIC     ATOMS    <user>   **** ""
2 38 24
ATOM$BLUE        STATIC     ATOMS    COLORGROUP SYSTEM
8 41 42 43 44 45 46 47 48
ATOM$RED        STATIC     ATOMS    COLORGROUP SYSTEM
2 38 24
