#       Name:                AV-unprocessed.smi:1913
#       Creating user name   scv26
#       Creation time:       Fri Mar 27 09:49:24 2020


#       File generated by GOLD software.
#

@<TRIPOS>MOLECULE
AV-unprocessed.smi:1913
    47    49     1
SMALL
NO_CHARGES


@<TRIPOS>ATOM
      1 ****        -5.4714  -2.8903   0.6651 C.3            1 S1                 0.0000
      2 ****        -4.0518  -2.9334   0.6526 O.3            1 S1                 0.0000
      3 ****        -3.3667  -1.7379   0.6092 C.ar           1 S1                 0.0000
      4 ****        -3.9859  -0.4666   0.5689 C.ar           1 S1                 0.0000
      5 ****        -3.2079   0.7047   0.5174 C.ar           1 S1                 0.0000
      6 ****        -1.7925   0.6369   0.5091 C.ar           1 S1                 0.0000
      7 ****        -0.9796   1.7506   0.4422 O.3            1 S1                 0.0000
      8 ****        -1.5885   3.0300   0.3535 C.3            1 S1                 0.0000
      9 ****        -1.1694  -0.6335   0.5647 C.ar           1 S1                 0.0000
     10 ****         0.3532  -0.7382   0.5534 C.3            1 S1                 0.0000
     11 ****         0.8388  -1.8487   1.2854 O.3            1 S1                 0.0000
     12 ****         0.8958  -0.7926  -0.8872 C.3            1 S1                 0.0000
     13 ****         2.3437  -0.7089  -0.9335 N.pl3          1 S1                 0.0000
     14 ****         3.2187  -1.7221  -1.0818 C.2            1 S1                 0.0000
     15 ****         4.5125  -1.4122  -1.0933 N.2            1 S1                 0.0000
     16 ****         4.4720  -0.0375  -0.9337 C.ar           1 S1                 0.0000
     17 ****         5.5181   0.9101  -0.8621 C.ar           1 S1                 0.0000
     18 ****         5.2302   2.2809  -0.6943 C.ar           1 S1                 0.0000
     19 ****         3.8955   2.7249  -0.5941 C.ar           1 S1                 0.0000
     20 ****         2.8364   1.7996  -0.6624 C.ar           1 S1                 0.0000
     21 ****         3.1284   0.4334  -0.8312 C.ar           1 S1                 0.0000
     22 ****        -1.9604  -1.8038   0.6039 C.ar           1 S1                 0.0000
     23 ****        -5.8621  -3.9073   0.6974 H              1 S1                 0.0000
     24 ****        -5.8643  -2.4153  -0.2347 H              1 S1                 0.0000
     25 ****        -5.8464  -2.3651   1.5446 H              1 S1                 0.0000
     26 ****        -5.0601  -0.3614   0.5715 H              1 S1                 0.0000
     27 ****        -3.7279   1.6497   0.4821 H              1 S1                 0.0000
     28 ****        -0.8118   3.7923   0.2943 H              1 S1                 0.0000
     29 ****        -2.1952   3.2450   1.2341 H              1 S1                 0.0000
     30 ****        -2.2048   3.1174  -0.5424 H              1 S1                 0.0000
     31 ****         0.7624   0.1405   1.0527 H              1 S1                 0.0000
     32 ****         0.5916  -1.7404   2.1911 H              1 S1                 0.0000
     33 ****         0.5746  -1.7076  -1.3871 H              1 S1                 0.0000
     34 ****         0.4966   0.0381  -1.4704 H              1 S1                 0.0000
     35 ****         2.8869  -2.7451  -1.1833 H              1 S1                 0.0000
     36 ****         6.5442   0.5816  -0.9367 H              1 S1                 0.0000
     37 ****         6.0381   2.9958  -0.6417 H              1 S1                 0.0000
     38 ****         3.6849   3.7763  -0.4645 H              1 S1                 0.0000
     39 ****         1.8123   2.1342  -0.5855 H              1 S1                 0.0000
     40 ****        -1.4872  -2.7747   0.6265 H              1 S1                 0.0000
     41 ****        -3.7778  -3.4621  -0.1507 LP             1 S1                 0.0000
     42 ****        -3.7619  -3.4120   1.4814 LP             1 S1                 0.0000
     43 ****        -0.3985   1.6438  -0.3646 LP             1 S1                 0.0000
     44 ****        -0.4110   1.7508   1.2648 LP             1 S1                 0.0000
     45 ****         1.8350  -1.8932   1.2103 LP             1 S1                 0.0000
     46 ****         0.4394  -2.6916   0.9248 LP             1 S1                 0.0000
     47 ****         5.3053  -2.0137  -1.1914 LP             1 S1                 0.0000
@<TRIPOS>BOND
    1    1    2 1     
    2    1   23 1     
    3    1   24 1     
    4    1   25 1     
    5    2    3 1     
    6    3   22 ar    
    7    3    4 ar    
    8    4    5 ar    
    9    4   26 1     
   10    5    6 ar    
   11    5   27 1     
   12    6    7 1     
   13    6    9 ar    
   14    7    8 1     
   15    8   28 1     
   16    8   29 1     
   17    8   30 1     
   18    9   10 1     
   19    9   22 ar    
   20   10   11 1     
   21   10   12 1     
   22   10   31 1     
   23   11   32 1     
   24   12   13 1     
   25   12   33 1     
   26   12   34 1     
   27   13   21 1     
   28   13   14 1     
   29   14   15 2     
   30   14   35 1     
   31   15   16 1     
   32   16   21 ar    
   33   16   17 ar    
   34   17   18 ar    
   35   17   36 1     
   36   18   19 ar    
   37   18   37 1     
   38   19   20 ar    
   39   19   38 1     
   40   20   21 ar    
   41   20   39 1     
   42   22   40 1     
   43    2   41 1     
   44    2   42 1     
   45    7   43 1     
   46    7   44 1     
   47   11   45 1     
   48   11   46 1     
   49   15   47 1     
@<TRIPOS>SUBSTRUCTURE
      1 S1             1
@<TRIPOS>SET
LONE_PAIRS      STATIC     ATOMS    <user>   **** ""
7 41 42 43 44 45 46 47
DONOR_HYDROGENS      STATIC     ATOMS    <user>   **** ""
1 32
ATOM$BLUE        STATIC     ATOMS    COLORGROUP SYSTEM
7 41 42 43 44 45 46 47
ATOM$RED        STATIC     ATOMS    COLORGROUP SYSTEM
1 32
