AV-unprocessed.smi:48|AV-procd|sdf|460|dock4
  -GOLD-   2262016333D 1   1.00000     0.00000
 Structure written by MMmdl.
 30 32  0  0  0  0  0  0  0  0  1 V2000
  149.1596  141.0841  153.4354 O   0  0  0  0  0  0  0  0  0  0  0  0
  149.2720  139.7030  153.7044 C   0  0  0  0  0  0  0  0  0  0  0  0
  149.9206  139.4836  155.0795 C   0  0  2  0  0  0  0  0  0  0  0  0
  150.8415  140.5402  155.3503 O   0  0  0  0  0  0  0  0  0  0  0  0
  151.9004  140.0827  156.1397 C   0  0  1  0  0  0  0  0  0  0  0  0
  151.9106  140.8323  157.4390 N   0  0  0  0  0  0  0  0  0  0  0  0
  151.0476  141.7958  157.8208 C   0  0  0  0  0  0  0  0  0  0  0  0
  151.2282  142.3452  159.0207 N   0  0  0  0  0  0  0  0  0  0  0  0
  152.3385  141.6536  159.4757 C   0  0  0  0  0  0  0  0  0  0  0  0
  153.0820  141.7214  160.6792 C   0  0  0  0  0  0  0  0  0  0  0  0
  152.6517  142.8312  161.9287 Cl  0  0  0  0  0  0  0  0  0  0  0  0
  154.1437  140.8945  160.8294 N   0  0  0  0  0  0  0  0  0  0  0  0
  154.4558  140.0439  159.8442 C   0  0  0  0  0  0  0  0  0  0  0  0
  153.8521  139.8690  158.6637 N   0  0  0  0  0  0  0  0  0  0  0  0
  152.7816  140.7031  158.5116 C   0  0  0  0  0  0  0  0  0  0  0  0
  151.7363  138.5592  156.3100 C   0  0  1  0  0  0  0  0  0  0  0  0
  151.1988  138.1773  157.5670 O   0  0  0  0  0  0  0  0  0  0  0  0
  150.8067  138.2386  155.1470 C   0  0  1  0  0  0  0  0  0  0  0  0
  150.0758  137.0407  155.3303 O   0  0  0  0  0  0  0  0  0  0  0  0
  149.1665  139.4357  155.8664 H   0  0  0  0  0  0  0  0  0  0  0  0
  152.8397  140.3545  155.6561 H   0  0  0  0  0  0  0  0  0  0  0  0
  152.7054  138.0729  156.1930 H   0  0  0  0  0  0  0  0  0  0  0  0
  151.3953  138.1578  154.2317 H   0  0  0  0  0  0  0  0  0  0  0  0
  148.5618  141.4646  154.0606 H   0  0  0  0  0  0  0  0  0  0  0  0
  148.2647  139.2859  153.6940 H   0  0  0  0  0  0  0  0  0  0  0  0
  149.8367  139.2061  152.9149 H   0  0  0  0  0  0  0  0  0  0  0  0
  150.2397  142.1153  157.1786 H   0  0  0  0  0  0  0  0  0  0  0  0
  155.3127  139.4127  160.0270 H   0  0  0  0  0  0  0  0  0  0  0  0
  150.8384  138.9436  157.9861 H   0  0  0  0  0  0  0  0  0  0  0  0
  149.1842  137.2637  155.5497 H   0  0  0  0  0  0  0  0  0  0  0  0
  1  2  1  0  0  0  0
  1 24  1  0  0  0  0
  2  3  1  0  0  0  0
  2 25  1  0  0  0  0
  2 26  1  0  0  0  0
  3 20  1  0  0  0  0
  3 18  1  0  0  0  0
  3  4  1  0  0  0  0
  4  5  1  0  0  0  0
  5 21  1  0  0  0  0
  5  6  1  0  0  0  0
  5 16  1  0  0  0  0
  6 15  1  0  0  0  0
  6  7  1  0  0  0  0
  7  8  2  0  0  0  0
  7 27  1  0  0  0  0
  8  9  1  0  0  0  0
  9 15  2  0  0  0  0
  9 10  1  0  0  0  0
 10 11  1  0  0  0  0
 10 12  2  0  0  0  0
 12 13  1  0  0  0  0
 13 14  2  0  0  0  0
 13 28  1  0  0  0  0
 14 15  1  0  0  0  0
 16 22  1  0  0  0  0
 16 17  1  0  0  0  0
 16 18  1  0  0  0  0
 17 29  1  0  0  0  0
 18 23  1  0  0  0  0
 18 19  1  0  0  0  0
 19 30  1  0  0  0  0
M  END
> <s_m_source_file>
AV-unprocessed.smi

> <i_m_source_file_index>
48

> <i_lp_mmshare_version>
43012

> <i_f3d_flags>
0

> <s_epik_input>
W09IXVtDSDJdW0NASF0xT1tDQEhdKFtDQEhdKFtPSF0pW0NAQEhdMVtPSF0pbihbY0hdbjIpYyhjMjMpbltjSF1uYzNDbA==

> <s_epik_cmdline>
J2VwaWtfcHl0aG9uJywgJy1waCcsICc3LjAnLCAnLXRuJywgJzgnLCAnLW1hJywgJzIwMCcsICctbWV0YWxfYmluZGluZycsICctaW1hZScsICc8aW5maWxlLm1hZT4nLCAnLW9tYWUnLCAnPG91dGZpbGUubWFlPic=

> <r_lp_tautomer_probability>
1

> <r_epik_Ionization_Penalty>
3.45505e-06

> <r_epik_Ionization_Penalty_Charging>
0

> <r_epik_Ionization_Penalty_Neutral>
3.45505e-06

> <r_epik_State_Penalty>
-0

> <r_epik_Charging_Adjusted_Penalty>
0

> <i_epik_Tot_Q>
0

> <i_epik_Tot_abs_Q>
0

> <r_epik_Metal_State_Penalty>
-0

> <b_epik_Metal_Only>
0

> <s_epik_Chemistry_Notes>
This compound contains an acetal/aminal-like group ( X-CH(R)-Y where X, Y are N, S, or O) that may be acid/base labile, releasing an aldehyde.

> <s_lp_Force_Field>
OPLS_2005

> <r_lp_Energy>
44.1755

> <b_lp_Chiralities_Consistent>
1

> <s_lp_Variant>
AV-unprocessed.smi:48-14

> <Gold.Version>
5.8.1

> <Gold.Id.Protein>
6NUR|6NUR_protein|mol2

> <Gold.PLP.Fitness>
40.4340

> <Gold.PLP.PLP>
-32.3410

> <Gold.PLP.part.hbond>
-4.9722

> <Gold.PLP.part.metal>
0.0000

> <Gold.PLP.part.buried>
-1.4375

> <Gold.PLP.part.nonpolar>
-25.6440

> <Gold.PLP.part.repulsive>
0.0582

> <Gold.PLP.ligand.clash>
0.0000

> <Gold.PLP.ligand.torsion>
0.3978

> <Gold.PLP.Chemscore.Hbond>
2.9600

> <Gold.PLP.Chemscore.CHOScore>
0.0000

> <Gold.PLP.Chemscore.Metal>
0.0000

> <Gold.Chemscore.Hbonds>
donor molecule, donor type, donor heavy atom, donor atom, acceptor molecule, acceptor atom, score
      P1  H  7989  7998       L1     4  0.95
      P1  H  7997  8008       L1    14  0.99
      P1  H  8011  8017       L1     1  1.00

> <Gold.PLP.Chemscore.Internal.Correction>
0.0086

> <Gold.Rescore>
     Score         DG    S(hbond)    S(metal)    S(lipo)     H(rot)  DE(clash)    DE(int)     intcor
      6.19      -7.99       1.70        0.00      56.10       3.80       1.33       0.47       ----

> <Gold.Chemscore.Fitness>
6.1920

> <Gold.Chemscore.DG>
-7.9929

> <Gold.Chemscore.ZeroCoef>
-5.4800

> <Gold.Chemscore.Hbond>
1.7009

> <Gold.Chemscore.Metal>
0.0000

> <Gold.Chemscore.Lipo>
56.1039

> <Gold.Chemscore.Internal_Hbond>
0.0000

> <Gold.Chemscore.DEClash>
1.3282

> <Gold.Chemscore.DEInternal>
0.4727

> <Gold.Chemscore.Rot>
3.8017

> <Gold.Chemscore.Internal.Correction>
   9.000000E+99

> <Gold.Chemscore.Hbonds>
donor molecule, donor type, donor heavy atom, donor atom, acceptor molecule, acceptor atom, score
      P1  H  7989  7998       L1     4  0.16
      P1  H  7997  8008       L1    14  0.61
      P1  H  8011  8017       L1     1  0.68

> <Gold.Chemscore.Hbond.Weighted>
-5.6812

> <Gold.Chemscore.Metal.Weighted>
-0.0000

> <Gold.Chemscore.Lipo.Weighted>
-6.5642

> <Gold.Chemscore.Internal_Hbond.Weighted>
0.0000

> <Gold.Chemscore.DEClash.Weighted>
1.3282

> <Gold.Chemscore.DEInternal.Weighted>
0.4727

> <Gold.Chemscore.Rot.Weighted>
9.7324

> <Gold.Chemscore.Internal.Correction.Weighted>
   9.000000E+99

> <Gold.Protein.RotatedTorsions>
[ 6907 6896 6895 6894 ] final  -70.76 input  -60.11 | X-H torsion
[ 7974 7965 7964 7962 ] final  -35.31 input  175.53 | X-H torsion
[ 8008 7997 7996 7995 ] final -114.05 input   59.86 | X-H torsion
[ 10167 10162 10161 10158 ] final  123.47 input  -65.29 | X-H torsion
[ 10718 10713 10712 10709 ] final   96.25 input   66.30 | X-H torsion
[ 10763 10752 10751 10750 ] final -122.96 input  -60.55 | X-H torsion
[ 11005 11000 10999 10996 ] final  113.94 input  -57.11 | X-H torsion

> <Gold.Protein.ActiveResidues>
 VAL166  LYS551  ARG553  GLY616  TRP617  ASP618  TYR619  PRO620  LYS621  CYS622 
 ASP623  PHE694  ASN695  SER759  ASP760  ASP761  ALA762  ILE779  LEU786  VAL792 
 PHE793  MET794  SER795  GLU796  ALA797  LYS798  CYS799  TRP800  GLU811  SER814 

> <Gold.Protein.RotatedAtoms>
  150.7242  134.5406  159.5744 H   0  0  0  0  0  0  0  0  0  0  0  0  # atno 6907 bound_to 6896
  152.2917  134.7710  160.0385 H   0  0  0  0  0  0  0  0  0  0  0  0  # atno 6908 bound_to 6896
  151.8322  133.3375  159.3653 H   0  0  0  0  0  0  0  0  0  0  0  0  # atno 6909 bound_to 6896
  146.0756  140.6144  142.8932 H   0  0  0  0  0  0  0  0  0  0  0  0  # atno 7974 bound_to 7965
  155.0302  140.0393  157.2471 H   0  0  0  0  0  0  0  0  0  0  0  0  # atno 8008 bound_to 7997
  154.7303  140.2729  155.6439 H   0  0  0  0  0  0  0  0  0  0  0  0  # atno 8009 bound_to 7997
  156.2839  140.2685  156.2001 H   0  0  0  0  0  0  0  0  0  0  0  0  # atno 8010 bound_to 7997
  139.5797  144.6980  151.3560 H   0  0  0  0  0  0  0  0  0  0  0  0  # atno 10167 bound_to 10162
  157.6929  131.0572  150.4462 H   0  0  0  0  0  0  0  0  0  0  0  0  # atno 10718 bound_to 10713
  154.8699  135.4114  154.2866 H   0  0  0  0  0  0  0  0  0  0  0  0  # atno 10763 bound_to 10752
  153.3750  135.7009  153.6614 H   0  0  0  0  0  0  0  0  0  0  0  0  # atno 10764 bound_to 10752
  153.5460  135.3638  155.2711 H   0  0  0  0  0  0  0  0  0  0  0  0  # atno 10765 bound_to 10752
  139.8967  134.9559  156.6816 H   0  0  0  0  0  0  0  0  0  0  0  0  # atno 11005 bound_to 11000
  144.7260  140.4525  143.6973 LP  0  0  0  0  0  0  0  0  0  0  0  0  # atno 17320 bound_to 7965
  145.6311  139.1536  143.2968 LP  0  0  0  0  0  0  0  0  0  0  0  0  # atno 17321 bound_to 7965
  140.7077  143.7472  150.7511 LP  0  0  0  0  0  0  0  0  0  0  0  0  # atno 17342 bound_to 10162
  140.1001  143.4796  152.2430 LP  0  0  0  0  0  0  0  0  0  0  0  0  # atno 17343 bound_to 10162
  156.4817  130.4075  149.6457 LP  0  0  0  0  0  0  0  0  0  0  0  0  # atno 17370 bound_to 10713
  156.3501  130.7427  151.2385 LP  0  0  0  0  0  0  0  0  0  0  0  0  # atno 17371 bound_to 10713
  140.7294  133.9072  155.8201 LP  0  0  0  0  0  0  0  0  0  0  0  0  # atno 17394 bound_to 11000
  141.0165  134.0949  157.4167 LP  0  0  0  0  0  0  0  0  0  0  0  0  # atno 17395 bound_to 11000

$$$$
