#       Name:                AV-unprocessed.smi:1579
#       Creating user name   scv26
#       Creation time:       Fri Mar 27 06:57:41 2020


#       File generated by GOLD software.
#

@<TRIPOS>MOLECULE
AV-unprocessed.smi:1579
    53    54     1
SMALL
NO_CHARGES


@<TRIPOS>ATOM
      1 ****        -3.8604   3.2864   2.8319 C.3            1 S1                 0.0000
      2 ****        -3.4358   2.7578   1.4884 C.2            1 S1                 0.0000
      3 ****        -2.9741   1.5506   1.4585 N.2            1 S1                 0.0000
      4 ****        -2.5595   0.9687   0.2773 N.am           1 S1                 0.0000
      5 ****        -2.0651  -0.4051   0.4298 C.3            1 S1                 0.0000
      6 ****        -0.5219  -0.4709   0.4236 C.3            1 S1                 0.0000
      7 ****        -0.0634  -0.2038   1.7347 O.3            1 S1                 0.0000
      8 ****        -0.0152  -1.8745   0.0337 C.3            1 S1                 0.0000
      9 ****         1.4655  -1.9358  -0.0700 N.4            1 S1                 1.0000
     10 ****         1.9920  -1.3625  -1.3372 C.3            1 S1                 0.0000
     11 ****         3.5292  -1.3209  -1.3283 C.3            1 S1                 0.0000
     12 ****         4.1253  -2.7176  -1.0843 C.3            1 S1                 0.0000
     13 ****         5.6592  -2.6801  -1.0383 C.3            1 S1                 0.0000
     14 ****         3.5317  -3.3033   0.2080 C.3            1 S1                 0.0000
     15 ****         1.9942  -3.3032   0.1679 C.3            1 S1                 0.0000
     16 ****        -2.5858   1.5803  -0.9416 C.2            1 S1                 0.0000
     17 ****        -2.1931   1.0241  -1.9686 O.2            1 S1                 0.0000
     18 ****        -3.1104   2.9469  -0.9013 C.2            1 S1                 0.0000
     19 ****        -3.1600   3.6229  -2.1576 C.1            1 S1                 0.0000
     20 ****        -3.1991   4.1880  -3.1671 N.1            1 S1                 0.0000
     21 ****        -3.5197   3.5304   0.2529 C.2            1 S1                 0.0000
     22 ****        -4.0706   4.9467   0.3475 C.3            1 S1                 0.0000
     23 ****        -4.8851   3.6568   2.7976 H              1 S1                 0.0000
     24 ****        -3.2142   4.1067   3.1452 H              1 S1                 0.0000
     25 ****        -3.8160   2.5173   3.6045 H              1 S1                 0.0000
     26 ****        -2.4663  -0.8705   1.3327 H              1 S1                 0.0000
     27 ****        -2.4648  -1.0044  -0.3903 H              1 S1                 0.0000
     28 ****        -0.1162   0.2787  -0.2547 H              1 S1                 0.0000
     29 ****        -0.3816   0.6473   1.9968 H              1 S1                 0.0000
     30 ****        -0.3671  -2.5885   0.7804 H              1 S1                 0.0000
     31 ****        -0.4505  -2.1913  -0.9154 H              1 S1                 0.0000
     32 ****         1.6388  -1.9565  -2.1816 H              1 S1                 0.0000
     33 ****         1.6141  -0.3517  -1.4857 H              1 S1                 0.0000
     34 ****         3.8899  -0.9213  -2.2769 H              1 S1                 0.0000
     35 ****         3.8691  -0.6318  -0.5536 H              1 S1                 0.0000
     36 ****         3.8336  -3.3620  -1.9151 H              1 S1                 0.0000
     37 ****         6.0171  -2.0455  -0.2268 H              1 S1                 0.0000
     38 ****         6.0705  -2.2920  -1.9704 H              1 S1                 0.0000
     39 ****         6.0717  -3.6780  -0.8869 H              1 S1                 0.0000
     40 ****         3.8943  -4.3208   0.3586 H              1 S1                 0.0000
     41 ****         3.8725  -2.7245   1.0679 H              1 S1                 0.0000
     42 ****         1.6144  -3.6856   1.1162 H              1 S1                 0.0000
     43 ****         1.6356  -3.9760  -0.6127 H              1 S1                 0.0000
     44 ****        -3.9817   5.4870  -0.5946 H              1 S1                 0.0000
     45 ****        -3.5332   5.5224   1.1018 H              1 S1                 0.0000
     46 ****        -5.1267   4.9254   0.6183 H              1 S1                 0.0000
     47 ****         1.8204  -1.3649   0.6842 H              1 S1                 0.0000
     48 ****        -2.9161   1.0274   2.3088 LP             1 S1                 0.0000
     49 ****         0.9364  -0.2094   1.7500 LP             1 S1                 0.0000
     50 ****        -0.4102  -0.9013   2.3618 LP             1 S1                 0.0000
     51 ****        -1.8386   0.0899  -1.9270 LP             1 S1                 0.0000
     52 ****        -2.2289   1.5068  -2.8436 LP             1 S1                 0.0000
     53 ****        -3.2329   4.6762  -4.0392 LP             1 S1                 0.0000
@<TRIPOS>BOND
    1    1    2 1     
    2    1   23 1     
    3    1   24 1     
    4    1   25 1     
    5    2   21 1     
    6    2    3 2     
    7    3    4 1     
    8    4    5 1     
    9    4   16 am    
   10    5    6 1     
   11    5   26 1     
   12    5   27 1     
   13    6    7 1     
   14    6    8 1     
   15    6   28 1     
   16    7   29 1     
   17    8    9 1     
   18    8   30 1     
   19    8   31 1     
   20    9   15 1     
   21    9   10 1     
   22    9   47 1     
   23   10   11 1     
   24   10   32 1     
   25   10   33 1     
   26   11   12 1     
   27   11   34 1     
   28   11   35 1     
   29   12   13 1     
   30   12   14 1     
   31   12   36 1     
   32   13   37 1     
   33   13   38 1     
   34   13   39 1     
   35   14   15 1     
   36   14   40 1     
   37   14   41 1     
   38   15   42 1     
   39   15   43 1     
   40   16   17 2     
   41   16   18 1     
   42   18   19 1     
   43   18   21 2     
   44   19   20 3     
   45   21   22 1     
   46   22   44 1     
   47   22   45 1     
   48   22   46 1     
   49    3   48 1     
   50    7   49 1     
   51    7   50 1     
   52   17   51 1     
   53   17   52 1     
   54   20   53 1     
@<TRIPOS>SUBSTRUCTURE
      1 S1             1
@<TRIPOS>SET
LONE_PAIRS      STATIC     ATOMS    <user>   **** ""
6 48 49 50 51 52 53
DONOR_HYDROGENS      STATIC     ATOMS    <user>   **** ""
2 29 47
ATOM$BLUE        STATIC     ATOMS    COLORGROUP SYSTEM
6 48 49 50 51 52 53
ATOM$RED        STATIC     ATOMS    COLORGROUP SYSTEM
2 29 47
