#       Name:                AV-unprocessed.smi:1597
#       Creating user name   scv26
#       Creation time:       Fri Mar 27 07:05:50 2020


#       File generated by GOLD software.
#

@<TRIPOS>MOLECULE
AV-unprocessed.smi:1597
    59    60     1
SMALL
NO_CHARGES


@<TRIPOS>ATOM
      1 ****        -2.9904   1.9305   0.9274 C.3            1 S1                 0.0000
      2 ****        -1.6010   1.7239   1.4175 N.4            1 S1                 1.0000
      3 ****        -1.3723   2.5365   2.6452 C.3            1 S1                 0.0000
      4 ****        -1.1269   0.2869   1.4703 C.3            1 S1                 0.0000
      5 ****         0.4363   0.2954   1.5582 C.3            1 S1                 0.0000
      6 ****         1.0764   0.8265   0.3567 N.am           1 S1                 0.0000
      7 ****         1.4965   2.0847   0.1476 C.2            1 S1                 0.0000
      8 ****         1.3970   2.9715   0.9933 O.2            1 S1                 0.0000
      9 ****         2.1010   2.4194  -1.2271 C.3            1 S1                 0.0000
     10 ****         2.0865   1.3027  -2.1858 N.am           1 S1                 0.0000
     11 ****         1.0218   1.1703  -3.0590 C.2            1 S1                 0.0000
     12 ****         0.9105   0.1625  -3.9513 C.2            1 S1                 0.0000
     13 ****         1.9353  -0.8694  -4.0429 C.2            1 S1                 0.0000
     14 ****         1.8842  -1.8065  -4.8405 O.2            1 S1                 0.0000
     15 ****         3.0100  -0.7145  -3.1380 N.am           1 S1                 0.0000
     16 ****         4.0526  -1.7177  -3.1987 C.3            1 S1                 0.0000
     17 ****         3.1265   0.3471  -2.2106 C.2            1 S1                 0.0000
     18 ****         4.0816   0.4498  -1.4381 O.2            1 S1                 0.0000
     19 ****        -1.7062  -0.4017   2.7529 C.3            1 S1                 0.0000
     20 ****        -2.1444  -1.8779   2.6943 C.3            1 S1                 0.0000
     21 ****        -1.1414  -2.8704   2.0939 C.3            1 S1                 0.0000
     22 ****        -1.2967  -3.0069   0.5748 C.3            1 S1                 0.0000
     23 ****        -0.8590  -1.7755  -0.2255 C.3            1 S1                 0.0000
     24 ****        -1.5622  -0.4490   0.1510 C.3            1 S1                 0.0000
     25 ****        -3.7158   1.3856   1.5317 H              1 S1                 0.0000
     26 ****        -3.1121   1.6312  -0.1127 H              1 S1                 0.0000
     27 ****        -3.2574   2.9871   0.9654 H              1 S1                 0.0000
     28 ****        -2.0527   2.2620   3.4509 H              1 S1                 0.0000
     29 ****        -1.5463   3.5901   2.4247 H              1 S1                 0.0000
     30 ****        -0.3573   2.4733   3.0286 H              1 S1                 0.0000
     31 ****         0.8056   0.8177   2.4391 H              1 S1                 0.0000
     32 ****         0.8168  -0.7144   1.6941 H              1 S1                 0.0000
     33 ****         1.2105   0.1697  -0.3991 H              1 S1                 0.0000
     34 ****         1.5463   3.2607  -1.6452 H              1 S1                 0.0000
     35 ****         3.1175   2.7888  -1.0833 H              1 S1                 0.0000
     36 ****         0.2337   1.9086  -3.0252 H              1 S1                 0.0000
     37 ****         0.0519   0.1182  -4.6052 H              1 S1                 0.0000
     38 ****         4.7709  -1.5936  -2.3892 H              1 S1                 0.0000
     39 ****         4.5465  -1.6060  -4.1653 H              1 S1                 0.0000
     40 ****         3.5754  -2.6951  -3.1060 H              1 S1                 0.0000
     41 ****        -0.9979  -0.2837   3.5740 H              1 S1                 0.0000
     42 ****        -2.5976   0.1262   3.0888 H              1 S1                 0.0000
     43 ****        -2.3580  -2.1905   3.7171 H              1 S1                 0.0000
     44 ****        -3.0994  -1.9589   2.1736 H              1 S1                 0.0000
     45 ****        -0.1179  -2.6277   2.3769 H              1 S1                 0.0000
     46 ****        -1.3387  -3.8506   2.5295 H              1 S1                 0.0000
     47 ****        -0.7105  -3.8625   0.2376 H              1 S1                 0.0000
     48 ****        -2.3327  -3.2482   0.3340 H              1 S1                 0.0000
     49 ****         0.2252  -1.6842  -0.2026 H              1 S1                 0.0000
     50 ****        -1.0858  -1.9806  -1.2724 H              1 S1                 0.0000
     51 ****        -2.6391  -0.6217   0.1494 H              1 S1                 0.0000
     52 ****        -1.3787   0.2249  -0.6875 H              1 S1                 0.0000
     53 ****        -1.0157   2.1536   0.7150 H              1 S1                 0.0000
     54 ****         0.9884   2.7699   1.8834 LP             1 S1                 0.0000
     55 ****         1.7246   3.8944   0.7909 LP             1 S1                 0.0000
     56 ****         1.1103  -1.8867  -5.4688 LP             1 S1                 0.0000
     57 ****         2.6165  -2.4871  -4.8599 LP             1 S1                 0.0000
     58 ****         4.1218   1.2114  -0.7913 LP             1 S1                 0.0000
     59 ****         4.8161  -0.2284  -1.4583 LP             1 S1                 0.0000
@<TRIPOS>BOND
    1    1    2 1     
    2    1   25 1     
    3    1   26 1     
    4    1   27 1     
    5    2    3 1     
    6    2    4 1     
    7    2   53 1     
    8    3   28 1     
    9    3   29 1     
   10    3   30 1     
   11    4   24 1     
   12    4    5 1     
   13    4   19 1     
   14    5    6 1     
   15    5   31 1     
   16    5   32 1     
   17    6    7 am    
   18    6   33 1     
   19    7    8 2     
   20    7    9 1     
   21    9   10 1     
   22    9   34 1     
   23    9   35 1     
   24   10   17 am    
   25   10   11 1     
   26   11   12 2     
   27   11   36 1     
   28   12   13 1     
   29   12   37 1     
   30   13   14 2     
   31   13   15 am    
   32   15   16 1     
   33   15   17 am    
   34   16   38 1     
   35   16   39 1     
   36   16   40 1     
   37   17   18 2     
   38   19   20 1     
   39   19   41 1     
   40   19   42 1     
   41   20   21 1     
   42   20   43 1     
   43   20   44 1     
   44   21   22 1     
   45   21   45 1     
   46   21   46 1     
   47   22   23 1     
   48   22   47 1     
   49   22   48 1     
   50   23   24 1     
   51   23   49 1     
   52   23   50 1     
   53   24   51 1     
   54   24   52 1     
   55    8   54 1     
   56    8   55 1     
   57   14   56 1     
   58   14   57 1     
   59   18   58 1     
   60   18   59 1     
@<TRIPOS>SUBSTRUCTURE
      1 S1             1
@<TRIPOS>SET
LONE_PAIRS      STATIC     ATOMS    <user>   **** ""
6 54 55 56 57 58 59
DONOR_HYDROGENS      STATIC     ATOMS    <user>   **** ""
2 53 33
ATOM$BLUE        STATIC     ATOMS    COLORGROUP SYSTEM
6 54 55 56 57 58 59
ATOM$RED        STATIC     ATOMS    COLORGROUP SYSTEM
2 53 33
