AV-unprocessed.smi:99|AV-procd|sdf|894|dock10
  -GOLD-   2262017393D 1   1.00000     0.00000
 Structure written by MMmdl.
 52 55  0  0  0  0  0  0  0  0  2 V2000
  152.1788  135.7304  156.8188 O   0  0  0  0  0  0  0  0  0  0  0  0
  151.6331  136.6573  157.4207 C   0  0  0  0  0  0  0  0  0  0  0  0
  150.3182  136.9330  157.3342 O   0  0  0  0  0  0  0  0  0  0  0  0
  149.4756  136.1820  156.4751 C   0  0  0  0  0  0  0  0  0  0  0  0
  149.0105  134.9252  157.2210 C   0  0  1  0  0  0  0  0  0  0  0  0
  149.2856  135.0436  158.6146 O   0  0  0  0  0  0  0  0  0  0  0  0
  148.3118  134.3691  159.3648 C   0  0  1  0  0  0  0  0  0  0  0  0
  147.6407  135.3473  160.3051 N   0  0  0  0  0  0  0  0  0  0  0  0
  147.3349  134.9901  161.6081 C   0  0  0  0  0  0  0  0  0  0  0  0
  146.7492  135.8605  162.4558 C   0  0  0  0  0  0  0  0  0  0  0  0
  146.4330  137.2090  161.9936 C   0  0  0  0  0  0  0  0  0  0  0  0
  145.8902  137.9926  162.7701 O   0  0  0  0  0  0  0  0  0  0  0  0
  146.7588  137.5414  160.7112 N   0  5  0  0  0  0  0  0  0  0  0  0
  147.3578  136.6650  159.8530 C   0  0  0  0  0  0  0  0  0  0  0  0
  147.6750  136.9618  158.7010 O   0  0  0  0  0  0  0  0  0  0  0  0
  147.2815  133.7876  158.3843 C   0  0  2  0  0  0  0  0  0  0  0  0
  147.5726  132.4270  158.1219 O   0  0  0  0  0  0  0  0  0  0  0  0
  147.5038  134.6770  157.1727 C   0  0  2  0  0  0  0  0  0  0  0  0
  147.0384  134.0678  155.9719 O   0  0  0  0  0  0  0  0  0  0  0  0
  146.9425  134.7707  154.8218 C   0  0  0  0  0  0  0  0  0  0  0  0
  147.1935  135.9738  154.7281 O   0  0  0  0  0  0  0  0  0  0  0  0
  146.5397  133.9264  153.6612 C   0  0  0  0  0  0  0  0  0  0  0  0
  146.5102  132.5196  153.8056 C   0  0  0  0  0  0  0  0  0  0  0  0
  146.1079  131.6970  152.7357 C   0  0  0  0  0  0  0  0  0  0  0  0
  145.7321  132.2715  151.5075 C   0  0  0  0  0  0  0  0  0  0  0  0
  145.7604  133.6694  151.3503 C   0  0  0  0  0  0  0  0  0  0  0  0
  146.1615  134.4939  152.4195 C   0  0  0  0  0  0  0  0  0  0  0  0
  152.3541  137.5822  158.3424 C   0  0  0  0  0  0  0  0  0  0  0  0
  151.9033  138.9155  158.4810 C   0  0  0  0  0  0  0  0  0  0  0  0
  152.5786  139.8165  159.3273 C   0  0  0  0  0  0  0  0  0  0  0  0
  153.7132  139.3957  160.0452 C   0  0  0  0  0  0  0  0  0  0  0  0
  154.1693  138.0709  159.9195 C   0  0  0  0  0  0  0  0  0  0  0  0
  153.4936  137.1680  159.0761 C   0  0  0  0  0  0  0  0  0  0  0  0
  148.6192  136.7970  156.1976 H   0  0  0  0  0  0  0  0  0  0  0  0
  149.9928  135.9017  155.5562 H   0  0  0  0  0  0  0  0  0  0  0  0
  149.5479  134.0481  156.8559 H   0  0  0  0  0  0  0  0  0  0  0  0
  148.7968  133.6275  160.0019 H   0  0  0  0  0  0  0  0  0  0  0  0
  147.5688  134.0002  161.9692 H   0  0  0  0  0  0  0  0  0  0  0  0
  146.5190  135.5651  163.4689 H   0  0  0  0  0  0  0  0  0  0  0  0
  146.2655  133.8630  158.7741 H   0  0  0  0  0  0  0  0  0  0  0  0
  147.4433  132.2663  157.2001 H   0  0  0  0  0  0  0  0  0  0  0  0
  146.9885  135.6194  157.3637 H   0  0  0  0  0  0  0  0  0  0  0  0
  146.7868  132.0560  154.7416 H   0  0  0  0  0  0  0  0  0  0  0  0
  146.0844  130.6245  152.8599 H   0  0  0  0  0  0  0  0  0  0  0  0
  145.4220  131.6408  150.6874 H   0  0  0  0  0  0  0  0  0  0  0  0
  145.4720  134.1117  150.4080 H   0  0  0  0  0  0  0  0  0  0  0  0
  146.1679  135.5634  152.2667 H   0  0  0  0  0  0  0  0  0  0  0  0
  151.0382  139.2633  157.9350 H   0  0  0  0  0  0  0  0  0  0  0  0
  152.2268  140.8332  159.4229 H   0  0  0  0  0  0  0  0  0  0  0  0
  154.2330  140.0880  160.6909 H   0  0  0  0  0  0  0  0  0  0  0  0
  155.0424  137.7464  160.4663 H   0  0  0  0  0  0  0  0  0  0  0  0
  153.8752  136.1604  158.9984 H   0  0  0  0  0  0  0  0  0  0  0  0
  1  2  2  0  0  0  0
  2  3  1  0  0  0  0
  2 28  1  0  0  0  0
  3  4  1  0  0  0  0
  4  5  1  0  0  0  0
  4 34  1  0  0  0  0
  4 35  1  0  0  0  0
  5 18  1  0  0  0  0
  5  6  1  0  0  0  0
  5 36  1  0  0  0  0
  6  7  1  0  0  0  0
  7  8  1  0  0  0  0
  7 16  1  0  0  0  0
  7 37  1  0  0  0  0
  8 14  1  0  0  0  0
  8  9  1  0  0  0  0
  9 10  2  0  0  0  0
  9 38  1  0  0  0  0
 10 11  1  0  0  0  0
 10 39  1  0  0  0  0
 11 12  2  0  0  0  0
 11 13  1  0  0  0  0
 13 14  1  0  0  0  0
 14 15  2  0  0  0  0
 16 17  1  0  0  0  0
 16 18  1  0  0  0  0
 16 40  1  0  0  0  0
 17 41  1  0  0  0  0
 18 19  1  0  0  0  0
 18 42  1  0  0  0  0
 19 20  1  0  0  0  0
 20 21  2  0  0  0  0
 20 22  1  0  0  0  0
 22 27  1  0  0  0  0
 22 23  2  0  0  0  0
 23 24  1  0  0  0  0
 23 43  1  0  0  0  0
 24 25  2  0  0  0  0
 24 44  1  0  0  0  0
 25 26  1  0  0  0  0
 25 45  1  0  0  0  0
 26 27  2  0  0  0  0
 26 46  1  0  0  0  0
 27 47  1  0  0  0  0
 28 33  1  0  0  0  0
 28 29  2  0  0  0  0
 29 30  1  0  0  0  0
 29 48  1  0  0  0  0
 30 31  2  0  0  0  0
 30 49  1  0  0  0  0
 31 32  1  0  0  0  0
 31 50  1  0  0  0  0
 32 33  2  0  0  0  0
 32 51  1  0  0  0  0
 33 52  1  0  0  0  0
M  CHG  1  13  -1
M  END
> <s_m_source_file>
AV-unprocessed.smi

> <i_m_source_file_index>
99

> <i_lp_mmshare_version>
43012

> <i_f3d_flags>
0

> <s_epik_input>
W2NIXTFbY0hdW2NIXVtjSF1bY0hdYzFDKD1PKU9bQ0gyXVtDQEBIXTJPW0NAQEhdKG4zW2NIXVtjSF1jKD1PKVtuSF1jMz1PKVtDQEBIXShbT0hdKVtDQEhdMk9DKD1PKWM0W2NIXVtjSF1bY0hdW2NIXVtjSF00

> <s_epik_cmdline>
J2VwaWtfcHl0aG9uJywgJy1waCcsICc3LjAnLCAnLXRuJywgJzgnLCAnLW1hJywgJzIwMCcsICctbWV0YWxfYmluZGluZycsICctaW1hZScsICc8aW5maWxlLm1hZT4nLCAnLW9tYWUnLCAnPG91dGZpbGUubWFlPic=

> <r_lp_tautomer_probability>
1

> <r_epik_Ionization_Penalty>
2.89159

> <r_epik_Ionization_Penalty_Charging>
2.1077e-08

> <r_epik_Ionization_Penalty_Neutral>
2.89159

> <r_epik_State_Penalty>
2.88671

> <r_epik_Charging_Adjusted_Penalty>
2.88671

> <i_epik_Tot_Q>
-1

> <i_epik_Tot_abs_Q>
1

> <r_epik_Metal_State_Penalty>
0.0727308

> <b_epik_Metal_Only>
1

> <s_epik_Chemistry_Notes>
This compound has an ester and may undergo hydrolysis at high or low pH. This compound contains an acetal/aminal-like group ( X-CH(R)-Y where X, Y are N, S, or O) that may be acid/base labile, releasing an aldehyde.

> <s_lp_Force_Field>
OPLS_2005

> <r_lp_Energy>
45.2634

> <b_lp_Chiralities_Consistent>
1

> <s_lp_Variant>
AV-unprocessed.smi:99-30

> <Gold.Version>
5.8.1

> <Gold.Id.Protein>
6NUR|6NUR_protein|mol2

> <Gold.PLP.Fitness>
43.1190

> <Gold.PLP.PLP>
-34.8113

> <Gold.PLP.part.hbond>
-4.2291

> <Gold.PLP.part.metal>
0.0000

> <Gold.PLP.part.buried>
-5.3364

> <Gold.PLP.part.nonpolar>
-25.2684

> <Gold.PLP.part.repulsive>
0.0856

> <Gold.PLP.ligand.clash>
0.0000

> <Gold.PLP.ligand.torsion>
1.8960

> <Gold.PLP.Chemscore.Hbond>
4.0000

> <Gold.PLP.Chemscore.CHOScore>
0.0000

> <Gold.PLP.Chemscore.Metal>
0.0000

> <Gold.Chemscore.Hbonds>
donor molecule, donor type, donor heavy atom, donor atom, acceptor molecule, acceptor atom, score
      P1  H  6896  6909       L1     6  1.00
      P1  H  6934  6947       L1    13  2.00
      P1  H 10752 10763       L1     1  1.00

> <Gold.PLP.Chemscore.Internal.Correction>
0.0996

> <Gold.Rescore>
     Score         DG    S(hbond)    S(metal)    S(lipo)     H(rot)  DE(clash)    DE(int)     intcor
      7.96     -15.03       2.51        0.00      78.49       3.13       0.08       6.98       ----

> <Gold.Chemscore.Fitness>
7.9637

> <Gold.Chemscore.DG>
-15.0254

> <Gold.Chemscore.ZeroCoef>
-5.4800

> <Gold.Chemscore.Hbond>
2.5108

> <Gold.Chemscore.Metal>
0.0000

> <Gold.Chemscore.Lipo>
78.4936

> <Gold.Chemscore.Internal_Hbond>
0.0000

> <Gold.Chemscore.DEClash>
0.0831

> <Gold.Chemscore.DEInternal>
6.9787

> <Gold.Chemscore.Rot>
3.1346

> <Gold.Chemscore.Internal.Correction>
   9.000000E+99

> <Gold.Chemscore.Hbonds>
donor molecule, donor type, donor heavy atom, donor atom, acceptor molecule, acceptor atom, score
      P1  H  6896  6909       L1     6  0.25
      P1  H  6934  6947       L1    13  0.24
      P1  H 10752 10763       L1     1  0.97

> <Gold.Chemscore.Hbond.Weighted>
-8.3862

> <Gold.Chemscore.Metal.Weighted>
-0.0000

> <Gold.Chemscore.Lipo.Weighted>
-9.1837

> <Gold.Chemscore.Internal_Hbond.Weighted>
0.0000

> <Gold.Chemscore.DEClash.Weighted>
0.0831

> <Gold.Chemscore.DEInternal.Weighted>
6.9787

> <Gold.Chemscore.Rot.Weighted>
8.0246

> <Gold.Chemscore.Internal.Correction.Weighted>
   9.000000E+99

> <Gold.Protein.RotatedTorsions>
[ 6907 6896 6895 6894 ] final   59.10 input  -60.11 | X-H torsion
[ 7974 7965 7964 7962 ] final   39.42 input  175.53 | X-H torsion
[ 8008 7997 7996 7995 ] final  -54.54 input   59.86 | X-H torsion
[ 10167 10162 10161 10158 ] final  111.90 input  -65.29 | X-H torsion
[ 10718 10713 10712 10709 ] final  105.66 input   66.30 | X-H torsion
[ 10763 10752 10751 10750 ] final   99.69 input  -60.55 | X-H torsion
[ 11005 11000 10999 10996 ] final  -46.46 input  -57.11 | X-H torsion

> <Gold.Protein.ActiveResidues>
 VAL166  LYS551  ARG553  GLY616  TRP617  ASP618  TYR619  PRO620  LYS621  CYS622 
 ASP623  PHE694  ASN695  SER759  ASP760  ASP761  ALA762  ILE779  LEU786  VAL792 
 PHE793  MET794  SER795  GLU796  ALA797  LYS798  CYS799  TRP800  GLU811  SER814 

> <Gold.Protein.RotatedAtoms>
  152.3884  134.6480  160.0116 H   0  0  0  0  0  0  0  0  0  0  0  0  # atno 6907 bound_to 6896
  151.6722  133.3308  159.3207 H   0  0  0  0  0  0  0  0  0  0  0  0  # atno 6908 bound_to 6896
  150.7805  134.6789  159.6478 H   0  0  0  0  0  0  0  0  0  0  0  0  # atno 6909 bound_to 6896
  146.0986  139.5654  142.9429 H   0  0  0  0  0  0  0  0  0  0  0  0  # atno 7974 bound_to 7965
  154.4166  140.1174  156.5332 H   0  0  0  0  0  0  0  0  0  0  0  0  # atno 8008 bound_to 7997
  155.6584  140.3496  155.4754 H   0  0  0  0  0  0  0  0  0  0  0  0  # atno 8009 bound_to 7997
  155.9733  140.1146  157.0782 H   0  0  0  0  0  0  0  0  0  0  0  0  # atno 8010 bound_to 7997
  139.6576  144.7129  151.1927 H   0  0  0  0  0  0  0  0  0  0  0  0  # atno 10167 bound_to 10162
  157.6697  131.0833  150.5889 H   0  0  0  0  0  0  0  0  0  0  0  0  # atno 10718 bound_to 10713
  153.3045  135.4105  155.1282 H   0  0  0  0  0  0  0  0  0  0  0  0  # atno 10763 bound_to 10752
  154.8559  135.3549  154.5806 H   0  0  0  0  0  0  0  0  0  0  0  0  # atno 10764 bound_to 10752
  153.6233  135.7063  153.5361 H   0  0  0  0  0  0  0  0  0  0  0  0  # atno 10765 bound_to 10752
  141.0580  133.6719  156.3158 H   0  0  0  0  0  0  0  0  0  0  0  0  # atno 11005 bound_to 11000
  145.5900  141.0371  143.2075 LP  0  0  0  0  0  0  0  0  0  0  0  0  # atno 17320 bound_to 7965
  144.7414  139.7437  143.7309 LP  0  0  0  0  0  0  0  0  0  0  0  0  # atno 17321 bound_to 7965
  140.7566  143.6047  150.8665 LP  0  0  0  0  0  0  0  0  0  0  0  0  # atno 17342 bound_to 10162
  139.9701  143.6066  152.2976 LP  0  0  0  0  0  0  0  0  0  0  0  0  # atno 17343 bound_to 10162
  156.6190  130.4400  149.5829 LP  0  0  0  0  0  0  0  0  0  0  0  0  # atno 17370 bound_to 10713
  156.2371  130.6829  151.1520 LP  0  0  0  0  0  0  0  0  0  0  0  0  # atno 17371 bound_to 10713
  140.5925  134.5636  157.5502 LP  0  0  0  0  0  0  0  0  0  0  0  0  # atno 17394 bound_to 11000
  139.9407  134.7792  156.0685 LP  0  0  0  0  0  0  0  0  0  0  0  0  # atno 17395 bound_to 11000

$$$$
