AV-unprocessed.smi:750|AV-procd|sdf|3588|dock4
  -GOLD-   22720 0583D 1   1.00000     0.00000
 Structure written by MMmdl.
 23 24  0  0  0  0  0  0  0  0  1 V2000
  151.6121  139.7175  158.9128 C   0  0  0  0  0  0  0  0  0  0  0  0
  151.2327  140.7682  157.8498 C   0  0  1  0  0  0  0  0  0  0  0  0
  151.6128  142.1954  158.2743 C   0  0  0  0  0  0  0  0  0  0  0  0
  151.3154  143.2975  157.4388 C   0  0  0  0  0  0  0  0  0  0  0  0
  151.6721  144.5953  157.8506 C   0  0  0  0  0  0  0  0  0  0  0  0
  152.3169  144.7501  159.0918 C   0  0  0  0  0  0  0  0  0  0  0  0
  152.6094  143.7145  159.9053 N   0  0  0  0  0  0  0  0  0  0  0  0
  152.2641  142.4729  159.5016 C   0  0  0  0  0  0  0  0  0  0  0  0
  151.7701  140.3745  156.5530 N   0  0  0  0  0  0  0  0  0  0  0  0
  150.8205  140.1765  155.6286 C   0  0  0  0  0  0  0  0  0  0  0  0
  151.0070  139.8594  154.4564 O   0  0  0  0  0  0  0  0  0  0  0  0
  149.6353  140.3761  156.2111 N   0  0  0  0  0  0  0  0  0  0  0  0
  149.7487  140.6998  157.4979 C   0  0  0  0  0  0  0  0  0  0  0  0
  148.8257  140.9066  158.2844 O   0  0  0  0  0  0  0  0  0  0  0  0
  151.1207  139.9061  159.8676 H   0  0  0  0  0  0  0  0  0  0  0  0
  152.6876  139.7147  159.0917 H   0  0  0  0  0  0  0  0  0  0  0  0
  151.3304  138.7110  158.5998 H   0  0  0  0  0  0  0  0  0  0  0  0
  150.8235  143.1553  156.4882 H   0  0  0  0  0  0  0  0  0  0  0  0
  151.4576  145.4514  157.2283 H   0  0  0  0  0  0  0  0  0  0  0  0
  152.6060  145.7306  159.4399 H   0  0  0  0  0  0  0  0  0  0  0  0
  152.5236  141.6855  160.1930 H   0  0  0  0  0  0  0  0  0  0  0  0
  152.7602  140.2825  156.3774 H   0  0  0  0  0  0  0  0  0  0  0  0
  148.7515  140.2758  155.7336 H   0  0  0  0  0  0  0  0  0  0  0  0
  1  2  1  0  0  0  0
  1 15  1  0  0  0  0
  1 16  1  0  0  0  0
  1 17  1  0  0  0  0
  2 13  1  0  0  0  0
  2  3  1  0  0  0  0
  2  9  1  0  0  0  0
  3  8  1  0  0  0  0
  3  4  2  0  0  0  0
  4  5  1  0  0  0  0
  4 18  1  0  0  0  0
  5  6  2  0  0  0  0
  5 19  1  0  0  0  0
  6  7  1  0  0  0  0
  6 20  1  0  0  0  0
  7  8  2  0  0  0  0
  8 21  1  0  0  0  0
  9 10  1  0  0  0  0
  9 22  1  0  0  0  0
 10 11  2  0  0  0  0
 10 12  1  0  0  0  0
 12 13  1  0  0  0  0
 12 23  1  0  0  0  0
 13 14  2  0  0  0  0
M  END
> <s_m_source_file>
AV-unprocessed.smi

> <i_m_source_file_index>
750

> <i_lp_mmshare_version>
43012

> <i_f3d_flags>
0

> <s_epik_input>
Tz1DMVtOSF1DKD1PKVtOSF1bQ0BAXTEoW0NIM10pYzJbY0hdW2NIXVtjSF1uW2NIXTI=

> <s_epik_cmdline>
J2VwaWtfcHl0aG9uJywgJy1waCcsICc3LjAnLCAnLXRuJywgJzgnLCAnLW1hJywgJzIwMCcsICctbWV0YWxfYmluZGluZycsICctaW1hZScsICc8aW5maWxlLm1hZT4nLCAnLW9tYWUnLCAnPG91dGZpbGUubWFlPic=

> <r_lp_tautomer_probability>
1

> <r_epik_Ionization_Penalty>
0.0296909

> <r_epik_Ionization_Penalty_Charging>
0

> <r_epik_Ionization_Penalty_Neutral>
0.0296909

> <r_epik_State_Penalty>
0.022996

> <r_epik_Charging_Adjusted_Penalty>
0.022996

> <i_epik_Tot_Q>
0

> <i_epik_Tot_abs_Q>
0

> <r_epik_Metal_State_Penalty>
0.427807

> <b_epik_Metal_Only>
0

> <s_lp_Force_Field>
OPLS_2005

> <r_lp_Energy>
18.5111

> <b_lp_Chiralities_Consistent>
1

> <s_lp_Variant>
AV-unprocessed.smi:750-1

> <Gold.Version>
5.8.1

> <Gold.Id.Protein>
6NUR|6NUR_protein|mol2

> <Gold.PLP.Fitness>
30.3529

> <Gold.PLP.PLP>
-27.3854

> <Gold.PLP.part.hbond>
-1.6795

> <Gold.PLP.part.metal>
0.0000

> <Gold.PLP.part.buried>
-4.9298

> <Gold.PLP.part.nonpolar>
-21.7480

> <Gold.PLP.part.repulsive>
0.2990

> <Gold.PLP.ligand.clash>
0.0000

> <Gold.PLP.ligand.torsion>
0.0622

> <Gold.PLP.Chemscore.Hbond>
0.9913

> <Gold.PLP.Chemscore.CHOScore>
0.0000

> <Gold.PLP.Chemscore.Metal>
0.0000

> <Gold.Chemscore.Hbonds>
donor molecule, donor type, donor heavy atom, donor atom, acceptor molecule, acceptor atom, score
      P1  H  7989  7998       L1    11  0.99

> <Gold.PLP.Chemscore.Internal.Correction>
0.1182

> <Gold.Rescore>
     Score         DG    S(hbond)    S(metal)    S(lipo)     H(rot)  DE(clash)    DE(int)     intcor
     14.21     -14.38       0.99        0.00      69.65       1.00       0.10       0.06       ----

> <Gold.Chemscore.Fitness>
14.2137

> <Gold.Chemscore.DG>
-14.3767

> <Gold.Chemscore.ZeroCoef>
-5.4800

> <Gold.Chemscore.Hbond>
0.9902

> <Gold.Chemscore.Metal>
0.0000

> <Gold.Chemscore.Lipo>
69.6524

> <Gold.Chemscore.Internal_Hbond>
0.0000

> <Gold.Chemscore.DEClash>
0.1036

> <Gold.Chemscore.DEInternal>
0.0595

> <Gold.Chemscore.Rot>
1.0000

> <Gold.Chemscore.Internal.Correction>
   9.000000E+99

> <Gold.Chemscore.Hbonds>
donor molecule, donor type, donor heavy atom, donor atom, acceptor molecule, acceptor atom, score
      P1  H  7989  7998       L1    11  0.90

> <Gold.Chemscore.Hbond.Weighted>
-3.3074

> <Gold.Chemscore.Metal.Weighted>
-0.0000

> <Gold.Chemscore.Lipo.Weighted>
-8.1493

> <Gold.Chemscore.Internal_Hbond.Weighted>
0.0000

> <Gold.Chemscore.DEClash.Weighted>
0.1036

> <Gold.Chemscore.DEInternal.Weighted>
0.0595

> <Gold.Chemscore.Rot.Weighted>
2.5600

> <Gold.Chemscore.Internal.Correction.Weighted>
   9.000000E+99

> <Gold.Protein.RotatedTorsions>
[ 6907 6896 6895 6894 ] final   15.91 input  -60.11 | X-H torsion
[ 7974 7965 7964 7962 ] final   51.24 input  175.53 | X-H torsion
[ 8008 7997 7996 7995 ] final -164.39 input   59.86 | X-H torsion
[ 10167 10162 10161 10158 ] final  153.09 input  -65.29 | X-H torsion
[ 10718 10713 10712 10709 ] final -155.51 input   66.30 | X-H torsion
[ 10763 10752 10751 10750 ] final   22.07 input  -60.55 | X-H torsion
[ 11005 11000 10999 10996 ] final  -75.41 input  -57.11 | X-H torsion

> <Gold.Protein.ActiveResidues>
 VAL166  LYS551  ARG553  GLY616  TRP617  ASP618  TYR619  PRO620  LYS621  CYS622 
 ASP623  PHE694  ASN695  SER759  ASP760  ASP761  ALA762  ILE779  LEU786  VAL792 
 PHE793  MET794  SER795  GLU796  ALA797  LYS798  CYS799  TRP800  GLU811  SER814 

> <Gold.Protein.RotatedAtoms>
  151.8255  135.0638  160.0430 H   0  0  0  0  0  0  0  0  0  0  0  0  # atno 6907 bound_to 6896
  152.2919  133.5565  159.5571 H   0  0  0  0  0  0  0  0  0  0  0  0  # atno 6908 bound_to 6896
  150.7234  134.0332  159.3782 H   0  0  0  0  0  0  0  0  0  0  0  0  # atno 6909 bound_to 6896
  145.9933  139.4361  143.0060 H   0  0  0  0  0  0  0  0  0  0  0  0  # atno 7974 bound_to 7965
  155.8349  140.0939  157.1770 H   0  0  0  0  0  0  0  0  0  0  0  0  # atno 8008 bound_to 7997
  154.3980  140.1412  156.3719 H   0  0  0  0  0  0  0  0  0  0  0  0  # atno 8009 bound_to 7997
  155.8127  140.3449  155.5469 H   0  0  0  0  0  0  0  0  0  0  0  0  # atno 8010 bound_to 7997
  139.4829  144.5302  151.7734 H   0  0  0  0  0  0  0  0  0  0  0  0  # atno 10167 bound_to 10162
  156.5139  130.8447  151.2657 H   0  0  0  0  0  0  0  0  0  0  0  0  # atno 10718 bound_to 10713
  153.0944  135.6656  153.9791 H   0  0  0  0  0  0  0  0  0  0  0  0  # atno 10763 bound_to 10752
  153.9379  135.2997  155.3445 H   0  0  0  0  0  0  0  0  0  0  0  0  # atno 10764 bound_to 10752
  154.7362  135.5100  153.9119 H   0  0  0  0  0  0  0  0  0  0  0  0  # atno 10765 bound_to 10752
  141.1645  133.6945  156.7512 H   0  0  0  0  0  0  0  0  0  0  0  0  # atno 11005 bound_to 11000
  145.7598  140.9940  143.1206 LP  0  0  0  0  0  0  0  0  0  0  0  0  # atno 17320 bound_to 7965
  144.6895  139.9316  143.7472 LP  0  0  0  0  0  0  0  0  0  0  0  0  # atno 17321 bound_to 7965
  140.4828  144.1425  150.5935 LP  0  0  0  0  0  0  0  0  0  0  0  0  # atno 17342 bound_to 10162
  140.4259  143.2590  151.9657 LP  0  0  0  0  0  0  0  0  0  0  0  0  # atno 17343 bound_to 10162
  157.7446  130.9940  150.2693 LP  0  0  0  0  0  0  0  0  0  0  0  0  # atno 17370 bound_to 10713
  156.3214  130.3786  149.7572 LP  0  0  0  0  0  0  0  0  0  0  0  0  # atno 17371 bound_to 10713
  140.2602  134.8472  157.3752 LP  0  0  0  0  0  0  0  0  0  0  0  0  # atno 17394 bound_to 11000
  140.1618  134.4719  155.7889 LP  0  0  0  0  0  0  0  0  0  0  0  0  # atno 17395 bound_to 11000

$$$$
