AV-unprocessed.smi:2955|AV-procd|sdf|11303|dock9
  -GOLD-   2272016203D 1   1.00000     0.00000
 Structure written by MMmdl.
 46 48  0  0  0  0  0  0  0  0  2 V2000
  146.8959  137.1083  163.1927 C   0  0  0  0  0  0  0  0  0  0  0  0
  147.0613  135.9799  162.1956 C   0  0  0  0  0  0  0  0  0  0  0  0
  146.4373  134.7360  162.4181 C   0  0  0  0  0  0  0  0  0  0  0  0
  146.5952  133.6945  161.4857 C   0  0  0  0  0  0  0  0  0  0  0  0
  147.3759  133.8946  160.3315 C   0  0  0  0  0  0  0  0  0  0  0  0
  148.0083  135.1321  160.0937 C   0  0  0  0  0  0  0  0  0  0  0  0
  148.7549  135.2404  158.9401 O   0  0  0  0  0  0  0  0  0  0  0  0
  149.3805  136.4839  158.6596 C   0  0  0  0  0  0  0  0  0  0  0  0
  148.5479  137.2195  157.6040 C   0  0  0  0  0  0  0  0  0  0  0  0
  149.1672  137.1418  156.2739 N   0  0  0  0  0  0  0  0  0  0  0  0
  148.6774  136.6564  155.0953 C   0  0  0  0  0  0  0  0  0  0  0  0
  147.3164  136.0703  154.8534 C   0  0  2  0  0  0  0  0  0  0  0  0
  147.0631  134.8649  155.7706 C   0  0  0  0  0  0  0  0  0  0  0  0
  147.1419  135.6753  153.4615 N   0  0  0  0  0  0  0  0  0  0  0  0
  146.0195  135.1387  152.9670 C   0  0  0  0  0  0  0  0  0  0  0  0
  145.0203  134.9264  153.6485 O   0  0  0  0  0  0  0  0  0  0  0  0
  149.6506  136.8327  154.1555 N   0  3  0  0  0  0  0  0  0  0  0  0
  150.7776  137.4095  154.7409 C   0  0  0  0  0  0  0  0  0  0  0  0
  152.0069  137.7648  154.1947 C   0  0  0  0  0  0  0  0  0  0  0  0
  152.9505  138.3322  155.0761 C   0  0  0  0  0  0  0  0  0  0  0  0
  152.6560  138.5257  156.4414 C   0  0  0  0  0  0  0  0  0  0  0  0
  151.4052  138.1627  156.9832 C   0  0  0  0  0  0  0  0  0  0  0  0
  150.4766  137.6055  156.1039 C   0  0  0  0  0  0  0  0  0  0  0  0
  147.8428  136.1770  161.0384 C   0  0  0  0  0  0  0  0  0  0  0  0
  146.3423  136.7835  164.0743 H   0  0  0  0  0  0  0  0  0  0  0  0
  146.3550  137.9376  162.7366 H   0  0  0  0  0  0  0  0  0  0  0  0
  147.8708  137.4714  163.5189 H   0  0  0  0  0  0  0  0  0  0  0  0
  145.8365  134.5759  163.3014 H   0  0  0  0  0  0  0  0  0  0  0  0
  146.1173  132.7410  161.6555 H   0  0  0  0  0  0  0  0  0  0  0  0
  147.4920  133.0888  159.6216 H   0  0  0  0  0  0  0  0  0  0  0  0
  149.4477  137.0877  159.5660 H   0  0  0  0  0  0  0  0  0  0  0  0
  150.3909  136.3201  158.2809 H   0  0  0  0  0  0  0  0  0  0  0  0
  147.5510  136.7841  157.5375 H   0  0  0  0  0  0  0  0  0  0  0  0
  148.4029  138.2655  157.8747 H   0  0  0  0  0  0  0  0  0  0  0  0
  146.5625  136.8214  155.0927 H   0  0  0  0  0  0  0  0  0  0  0  0
  147.1527  135.1475  156.8200 H   0  0  0  0  0  0  0  0  0  0  0  0
  147.7707  134.0568  155.5814 H   0  0  0  0  0  0  0  0  0  0  0  0
  146.0588  134.4659  155.6237 H   0  0  0  0  0  0  0  0  0  0  0  0
  147.9217  135.8161  152.8356 H   0  0  0  0  0  0  0  0  0  0  0  0
  146.1082  134.9170  151.8918 H   0  0  0  0  0  0  0  0  0  0  0  0
  152.2353  137.6159  153.1494 H   0  0  0  0  0  0  0  0  0  0  0  0
  153.9197  138.6236  154.6979 H   0  0  0  0  0  0  0  0  0  0  0  0
  153.4045  138.9621  157.0871 H   0  0  0  0  0  0  0  0  0  0  0  0
  151.1921  138.3142  158.0310 H   0  0  0  0  0  0  0  0  0  0  0  0
  148.3065  137.1412  160.8961 H   0  0  0  0  0  0  0  0  0  0  0  0
  149.5480  136.5714  153.1834 H   0  0  0  0  0  0  0  0  0  0  0  0
  1  2  1  0  0  0  0
  1 25  1  0  0  0  0
  1 26  1  0  0  0  0
  1 27  1  0  0  0  0
  2 24  1  0  0  0  0
  2  3  2  0  0  0  0
  3  4  1  0  0  0  0
  3 28  1  0  0  0  0
  4  5  2  0  0  0  0
  4 29  1  0  0  0  0
  5  6  1  0  0  0  0
  5 30  1  0  0  0  0
  6  7  1  0  0  0  0
  6 24  2  0  0  0  0
  7  8  1  0  0  0  0
  8  9  1  0  0  0  0
  8 31  1  0  0  0  0
  8 32  1  0  0  0  0
  9 10  1  0  0  0  0
  9 33  1  0  0  0  0
  9 34  1  0  0  0  0
 10 23  1  0  0  0  0
 10 11  1  0  0  0  0
 11 12  1  0  0  0  0
 11 17  2  0  0  0  0
 12 13  1  0  0  0  0
 12 14  1  0  0  0  0
 12 35  1  0  0  0  0
 13 36  1  0  0  0  0
 13 37  1  0  0  0  0
 13 38  1  0  0  0  0
 14 15  1  0  0  0  0
 14 39  1  0  0  0  0
 15 16  2  0  0  0  0
 15 40  1  0  0  0  0
 17 18  1  0  0  0  0
 17 46  1  0  0  0  0
 18 23  2  0  0  0  0
 18 19  1  0  0  0  0
 19 20  2  0  0  0  0
 19 41  1  0  0  0  0
 20 21  1  0  0  0  0
 20 42  1  0  0  0  0
 21 22  2  0  0  0  0
 21 43  1  0  0  0  0
 22 23  1  0  0  0  0
 22 44  1  0  0  0  0
 24 45  1  0  0  0  0
M  CHG  1  17   1
M  END
> <s_m_source_file>
AV-unprocessed.smi

> <i_m_source_file_index>
2955

> <i_lp_mmshare_version>
43012

> <i_f3d_flags>
0

> <s_epik_input>
W0NIM11jMVtjSF1bY0hdW2NIXWMoW2NIXTEpT1tDSDJdW0NIMl1uKGMobjIpW0NASF0oW0NIM10pW05IXVtDSF09TyljKGMyMylbY0hdW2NIXVtjSF1bY0hdMw==

> <s_epik_cmdline>
J2VwaWtfcHl0aG9uJywgJy1waCcsICc3LjAnLCAnLXRuJywgJzgnLCAnLW1hJywgJzIwMCcsICctbWV0YWxfYmluZGluZycsICctaW1hZScsICc8aW5maWxlLm1hZT4nLCAnLW9tYWUnLCAnPG91dGZpbGUubWFlPic=

> <r_lp_tautomer_probability>
1

> <r_epik_Ionization_Penalty>
1.15027

> <r_epik_Ionization_Penalty_Charging>
1.15027

> <r_epik_Ionization_Penalty_Neutral>
5.5802e-08

> <r_epik_State_Penalty>
1.21159

> <r_epik_Charging_Adjusted_Penalty>
2.36186

> <i_epik_Tot_Q>
1

> <i_epik_Tot_abs_Q>
1

> <r_epik_Metal_State_Penalty>
1.29223

> <b_epik_Metal_Only>
0

> <s_lp_Force_Field>
OPLS_2005

> <r_lp_Energy>
18.7975

> <b_lp_Chiralities_Consistent>
1

> <s_lp_Variant>
AV-unprocessed.smi:2955-3

> <Gold.Version>
5.8.1

> <Gold.Id.Protein>
6NUR|6NUR_protein|mol2

> <Gold.PLP.Fitness>
47.9531

> <Gold.PLP.PLP>
-37.0816

> <Gold.PLP.part.hbond>
-3.0000

> <Gold.PLP.part.metal>
0.0000

> <Gold.PLP.part.buried>
-2.7596

> <Gold.PLP.part.nonpolar>
-31.2267

> <Gold.PLP.part.repulsive>
0.0910

> <Gold.PLP.ligand.clash>
0.0000

> <Gold.PLP.ligand.torsion>
0.6260

> <Gold.PLP.Chemscore.Hbond>
4.0000

> <Gold.PLP.Chemscore.CHOScore>
0.0000

> <Gold.PLP.Chemscore.Metal>
0.0000

> <Gold.Chemscore.Hbonds>
donor molecule, donor type, donor heavy atom, donor atom, acceptor molecule, acceptor atom, score
      L1  H    14    39       P1  7948  0.84
      L1  H    17    46       P1  7948  1.62
      P1  H  6896  6909       L1     7  0.28

> <Gold.PLP.Chemscore.Internal.Correction>
0.1235

> <Gold.Rescore>
     Score         DG    S(hbond)    S(metal)    S(lipo)     H(rot)  DE(clash)    DE(int)     intcor
     17.38     -18.77       2.31        0.00      98.42       2.32       0.14       1.25       ----

> <Gold.Chemscore.Fitness>
17.3844

> <Gold.Chemscore.DG>
-18.7719

> <Gold.Chemscore.ZeroCoef>
-5.4800

> <Gold.Chemscore.Hbond>
2.3118

> <Gold.Chemscore.Metal>
0.0000

> <Gold.Chemscore.Lipo>
98.4228

> <Gold.Chemscore.Internal_Hbond>
0.0000

> <Gold.Chemscore.DEClash>
0.1397

> <Gold.Chemscore.DEInternal>
1.2478

> <Gold.Chemscore.Rot>
2.3223

> <Gold.Chemscore.Internal.Correction>
   9.000000E+99

> <Gold.Chemscore.Hbonds>
donor molecule, donor type, donor heavy atom, donor atom, acceptor molecule, acceptor atom, score
      L1  H    14    39       P1  7948  0.82
      L1  H    17    46       P1  7948  0.44

> <Gold.Chemscore.Hbond.Weighted>
-7.7215

> <Gold.Chemscore.Metal.Weighted>
-0.0000

> <Gold.Chemscore.Lipo.Weighted>
-11.5155

> <Gold.Chemscore.Internal_Hbond.Weighted>
0.0000

> <Gold.Chemscore.DEClash.Weighted>
0.1397

> <Gold.Chemscore.DEInternal.Weighted>
1.2478

> <Gold.Chemscore.Rot.Weighted>
5.9450

> <Gold.Chemscore.Internal.Correction.Weighted>
   9.000000E+99

> <Gold.Protein.RotatedTorsions>
[ 6907 6896 6895 6894 ] final   49.36 input  -60.11 | X-H torsion
[ 7974 7965 7964 7962 ] final   -6.83 input  175.53 | X-H torsion
[ 8008 7997 7996 7995 ] final  172.68 input   59.86 | X-H torsion
[ 10167 10162 10161 10158 ] final  139.83 input  -65.29 | X-H torsion
[ 10718 10713 10712 10709 ] final   36.45 input   66.30 | X-H torsion
[ 10763 10752 10751 10750 ] final  -80.78 input  -60.55 | X-H torsion
[ 11005 11000 10999 10996 ] final   44.48 input  -57.11 | X-H torsion

> <Gold.Protein.ActiveResidues>
 VAL166  LYS551  ARG553  GLY616  TRP617  ASP618  TYR619  PRO620  LYS621  CYS622 
 ASP623  PHE694  ASN695  SER759  ASP760  ASP761  ALA762  ILE779  LEU786  VAL792 
 PHE793  MET794  SER795  GLU796  ALA797  LYS798  CYS799  TRP800  GLU811  SER814 

> <Gold.Protein.RotatedAtoms>
  152.2899  134.7733  160.0379 H   0  0  0  0  0  0  0  0  0  0  0  0  # atno 6907 bound_to 6896
  151.8283  133.3399  159.3613 H   0  0  0  0  0  0  0  0  0  0  0  0  # atno 6908 bound_to 6896
  150.7226  134.5436  159.5804 H   0  0  0  0  0  0  0  0  0  0  0  0  # atno 6909 bound_to 6896
  146.2322  140.2229  142.8338 H   0  0  0  0  0  0  0  0  0  0  0  0  # atno 7974 bound_to 7965
  156.1151  140.1480  156.9284 H   0  0  0  0  0  0  0  0  0  0  0  0  # atno 8008 bound_to 7997
  154.4794  140.0884  156.7384 H   0  0  0  0  0  0  0  0  0  0  0  0  # atno 8009 bound_to 7997
  155.4528  140.3435  155.4305 H   0  0  0  0  0  0  0  0  0  0  0  0  # atno 8010 bound_to 7997
  139.5067  144.6271  151.5910 H   0  0  0  0  0  0  0  0  0  0  0  0  # atno 10167 bound_to 10162
  157.3350  130.7517  149.6873 H   0  0  0  0  0  0  0  0  0  0  0  0  # atno 10718 bound_to 10713
  154.5554  135.5649  153.6959 H   0  0  0  0  0  0  0  0  0  0  0  0  # atno 10763 bound_to 10752
  153.0002  135.6261  154.2317 H   0  0  0  0  0  0  0  0  0  0  0  0  # atno 10764 bound_to 10752
  154.2253  135.2868  155.2889 H   0  0  0  0  0  0  0  0  0  0  0  0  # atno 10765 bound_to 10752
  140.1548  134.4416  155.8357 H   0  0  0  0  0  0  0  0  0  0  0  0  # atno 11005 bound_to 11000
  144.9618  140.8282  143.5509 LP  0  0  0  0  0  0  0  0  0  0  0  0  # atno 17320 bound_to 7965
  145.2200  139.2163  143.5098 LP  0  0  0  0  0  0  0  0  0  0  0  0  # atno 17321 bound_to 7965
  140.5991  143.9642  150.6374 LP  0  0  0  0  0  0  0  0  0  0  0  0  # atno 17342 bound_to 10162
  140.2848  143.3365  152.1118 LP  0  0  0  0  0  0  0  0  0  0  0  0  # atno 17343 bound_to 10162
  155.9700  130.4184  150.4326 LP  0  0  0  0  0  0  0  0  0  0  0  0  # atno 17370 bound_to 10713
  157.2364  131.0516  151.2462 LP  0  0  0  0  0  0  0  0  0  0  0  0  # atno 17371 bound_to 10713
  141.2203  133.6887  156.7487 LP  0  0  0  0  0  0  0  0  0  0  0  0  # atno 17394 bound_to 11000
  140.2561  134.8503  157.3714 LP  0  0  0  0  0  0  0  0  0  0  0  0  # atno 17395 bound_to 11000

$$$$
