AV-unprocessed.smi:1055|AV-procd|sdf|4627|dock2
  -GOLD-   22720 3133D 1   1.00000     0.00000
 Structure written by MMmdl.
 51 52  0  0  0  0  0  0  0  0  2 V2000
  143.2467  136.3186  152.5879 C   0  0  0  0  0  0  0  0  0  0  0  0
  144.5559  136.6146  152.6431 C   0  0  0  0  0  0  0  0  0  0  0  0
  145.4998  136.3018  151.4969 C   0  0  0  0  0  0  0  0  0  0  0  0
  145.1840  137.2775  153.8587 C   0  0  0  0  0  0  0  0  0  0  0  0
  145.5796  138.6792  153.5742 N   0  3  2  0  0  0  0  0  0  0  0  0
  146.7641  138.7599  152.6827 C   0  0  0  0  0  0  0  0  0  0  0  0
  147.0607  140.2165  152.2809 C   0  0  0  0  0  0  0  0  0  0  0  0
  147.2381  141.1295  153.5064 C   0  0  2  0  0  0  0  0  0  0  0  0
  148.5032  140.8389  154.1806 N   0  0  0  0  0  0  0  0  0  0  0  0
  148.8732  141.3206  155.3760 C   0  0  0  0  0  0  0  0  0  0  0  0
  148.1651  142.0621  156.0565 O   0  0  0  0  0  0  0  0  0  0  0  0
  150.1072  140.9043  155.7073 N   0  0  0  0  0  0  0  0  0  0  0  0
  150.8367  141.1751  156.8960 C   0  0  0  0  0  0  0  0  0  0  0  0
  151.6640  140.1608  157.4145 C   0  0  0  0  0  0  0  0  0  0  0  0
  152.3830  140.3961  158.6015 C   0  0  0  0  0  0  0  0  0  0  0  0
  152.2500  141.6465  159.2549 C   0  0  0  0  0  0  0  0  0  0  0  0
  152.9515  141.9341  160.4480 N   0  0  0  0  0  0  0  0  0  0  0  0
  152.5738  143.0820  161.2632 C   0  0  0  0  0  0  0  0  0  0  0  0
  154.0764  141.0952  160.8491 C   0  0  0  0  0  0  0  0  0  0  0  0
  151.4395  142.6145  158.7608 N   0  0  0  0  0  0  0  0  0  0  0  0
  150.7540  142.3864  157.6211 C   0  0  0  0  0  0  0  0  0  0  0  0
  146.0300  140.9714  154.4516 C   0  0  0  0  0  0  0  0  0  0  0  0
  145.7592  139.4980  154.8024 C   0  0  0  0  0  0  0  0  0  0  0  0
  142.8150  135.8451  151.7179 H   0  0  0  0  0  0  0  0  0  0  0  0
  142.5846  136.5452  153.4109 H   0  0  0  0  0  0  0  0  0  0  0  0
  146.2995  135.6418  151.8343 H   0  0  0  0  0  0  0  0  0  0  0  0
  145.9499  137.2159  151.1087 H   0  0  0  0  0  0  0  0  0  0  0  0
  144.9782  135.8089  150.6759 H   0  0  0  0  0  0  0  0  0  0  0  0
  144.5028  137.2509  154.7110 H   0  0  0  0  0  0  0  0  0  0  0  0
  146.0591  136.6892  154.1382 H   0  0  0  0  0  0  0  0  0  0  0  0
  147.6282  138.3177  153.1813 H   0  0  0  0  0  0  0  0  0  0  0  0
  146.5854  138.1717  151.7816 H   0  0  0  0  0  0  0  0  0  0  0  0
  147.9464  140.2582  151.6455 H   0  0  0  0  0  0  0  0  0  0  0  0
  146.2358  140.5914  151.6735 H   0  0  0  0  0  0  0  0  0  0  0  0
  147.2765  142.1625  153.1553 H   0  0  0  0  0  0  0  0  0  0  0  0
  149.1554  140.2444  153.6902 H   0  0  0  0  0  0  0  0  0  0  0  0
  150.6049  140.3768  155.0050 H   0  0  0  0  0  0  0  0  0  0  0  0
  151.7540  139.2112  156.9072 H   0  0  0  0  0  0  0  0  0  0  0  0
  153.0205  139.6140  158.9848 H   0  0  0  0  0  0  0  0  0  0  0  0
  152.6594  144.0049  160.6890 H   0  0  0  0  0  0  0  0  0  0  0  0
  153.2159  143.1753  162.1393 H   0  0  0  0  0  0  0  0  0  0  0  0
  151.5463  142.9822  161.6141 H   0  0  0  0  0  0  0  0  0  0  0  0
  154.8696  141.1364  160.1020 H   0  0  0  0  0  0  0  0  0  0  0  0
  153.7605  140.0575  160.9620 H   0  0  0  0  0  0  0  0  0  0  0  0
  154.4968  141.4202  161.8008 H   0  0  0  0  0  0  0  0  0  0  0  0
  150.1127  143.1962  157.3101 H   0  0  0  0  0  0  0  0  0  0  0  0
  146.1733  141.5524  155.3634 H   0  0  0  0  0  0  0  0  0  0  0  0
  145.1446  141.3879  153.9692 H   0  0  0  0  0  0  0  0  0  0  0  0
  144.8662  139.4429  155.4252 H   0  0  0  0  0  0  0  0  0  0  0  0
  146.5804  139.0932  155.3962 H   0  0  0  0  0  0  0  0  0  0  0  0
  144.8126  139.0884  153.0598 H   0  0  0  0  0  0  0  0  0  0  0  0
  1  2  2  0  0  0  0
  1 24  1  0  0  0  0
  1 25  1  0  0  0  0
  2  3  1  0  0  0  0
  2  4  1  0  0  0  0
  3 26  1  0  0  0  0
  3 27  1  0  0  0  0
  3 28  1  0  0  0  0
  4  5  1  0  0  0  0
  4 29  1  0  0  0  0
  4 30  1  0  0  0  0
  5 23  1  0  0  0  0
  5  6  1  0  0  0  0
  5 51  1  0  0  0  0
  6  7  1  0  0  0  0
  6 31  1  0  0  0  0
  6 32  1  0  0  0  0
  7  8  1  0  0  0  0
  7 33  1  0  0  0  0
  7 34  1  0  0  0  0
  8  9  1  0  0  0  0
  8 22  1  0  0  0  0
  8 35  1  0  0  0  0
  9 10  1  0  0  0  0
  9 36  1  0  0  0  0
 10 11  2  0  0  0  0
 10 12  1  0  0  0  0
 12 13  1  0  0  0  0
 12 37  1  0  0  0  0
 13 21  1  0  0  0  0
 13 14  2  0  0  0  0
 14 15  1  0  0  0  0
 14 38  1  0  0  0  0
 15 16  2  0  0  0  0
 15 39  1  0  0  0  0
 16 17  1  0  0  0  0
 16 20  1  0  0  0  0
 17 18  1  0  0  0  0
 17 19  1  0  0  0  0
 18 40  1  0  0  0  0
 18 41  1  0  0  0  0
 18 42  1  0  0  0  0
 19 43  1  0  0  0  0
 19 44  1  0  0  0  0
 19 45  1  0  0  0  0
 20 21  2  0  0  0  0
 21 46  1  0  0  0  0
 22 23  1  0  0  0  0
 22 47  1  0  0  0  0
 22 48  1  0  0  0  0
 23 49  1  0  0  0  0
 23 50  1  0  0  0  0
M  CHG  1   5   1
M  END
> <s_m_source_file>
AV-unprocessed.smi

> <i_m_source_file_index>
1055

> <i_lp_mmshare_version>
43012

> <i_f3d_flags>
0

> <s_epik_input>
W0NIMl09QyhbQ0gzXSlbQ0gyXU4xW0NIMl1bQ0gyXVtDSF0oW0NIMl1bQ0gyXTEpW05IXUMoPU8pW05IXWMyW2NIXVtjSF1jKE4oW0NIM10pW0NIM10pbltjSF0y

> <s_epik_cmdline>
J2VwaWtfcHl0aG9uJywgJy1waCcsICc3LjAnLCAnLXRuJywgJzgnLCAnLW1hJywgJzIwMCcsICctbWV0YWxfYmluZGluZycsICctaW1hZScsICc8aW5maWxlLm1hZT4nLCAnLW9tYWUnLCAnPG91dGZpbGUubWFlPic=

> <r_lp_tautomer_probability>
1

> <r_epik_Ionization_Penalty>
0.534133

> <r_epik_Ionization_Penalty_Charging>
0.0193505

> <r_epik_Ionization_Penalty_Neutral>
0.514782

> <r_epik_State_Penalty>
0.557749

> <r_epik_Charging_Adjusted_Penalty>
0.5771

> <i_epik_Tot_Q>
1

> <i_epik_Tot_abs_Q>
1

> <r_epik_Metal_State_Penalty>
0.306227

> <b_epik_Metal_Only>
0

> <s_lp_Force_Field>
OPLS_2005

> <r_lp_Energy>
19.9376

> <b_lp_Chiralities_Consistent>
1

> <s_lp_Variant>
AV-unprocessed.smi:1055-4

> <Gold.Version>
5.8.1

> <Gold.Id.Protein>
6NUR|6NUR_protein|mol2

> <Gold.PLP.Fitness>
45.9585

> <Gold.PLP.PLP>
-38.2582

> <Gold.PLP.part.hbond>
-1.1148

> <Gold.PLP.part.metal>
0.0000

> <Gold.PLP.part.buried>
-3.6310

> <Gold.PLP.part.nonpolar>
-36.9464

> <Gold.PLP.part.repulsive>
2.6892

> <Gold.PLP.ligand.clash>
0.0000

> <Gold.PLP.ligand.torsion>
0.6852

> <Gold.PLP.Chemscore.Hbond>
2.0000

> <Gold.PLP.Chemscore.CHOScore>
1.0000

> <Gold.PLP.Chemscore.Metal>
0.0000

> <Gold.Chemscore.Hbonds>
donor molecule, donor type, donor heavy atom, donor atom, acceptor molecule, acceptor atom, score
      L1  H     5    51       P1 10175  2.00
      L1  C    21    46       P1  8028  0.95

> <Gold.PLP.Chemscore.Internal.Correction>
0.0708

> <Gold.Rescore>
     Score         DG    S(hbond)    S(metal)    S(lipo)     H(rot)  DE(clash)    DE(int)     intcor
     11.57     -16.30       1.00        0.00      92.89       1.33       1.72       3.00       ----

> <Gold.Chemscore.Fitness>
11.5715

> <Gold.Chemscore.DG>
-16.2996

> <Gold.Chemscore.ZeroCoef>
-5.4800

> <Gold.Chemscore.Hbond>
1.0022

> <Gold.Chemscore.Metal>
0.0000

> <Gold.Chemscore.Lipo>
92.8925

> <Gold.Chemscore.Internal_Hbond>
0.0000

> <Gold.Chemscore.DEClash>
1.7247

> <Gold.Chemscore.DEInternal>
3.0034

> <Gold.Chemscore.Rot>
1.3266

> <Gold.Chemscore.Internal.Correction>
   9.000000E+99

> <Gold.Chemscore.Hbonds>
donor molecule, donor type, donor heavy atom, donor atom, acceptor molecule, acceptor atom, score
      L1  H     5    51       P1 10175  0.99

> <Gold.Chemscore.Hbond.Weighted>
-3.3473

> <Gold.Chemscore.Metal.Weighted>
-0.0000

> <Gold.Chemscore.Lipo.Weighted>
-10.8684

> <Gold.Chemscore.Internal_Hbond.Weighted>
0.0000

> <Gold.Chemscore.DEClash.Weighted>
1.7247

> <Gold.Chemscore.DEInternal.Weighted>
3.0034

> <Gold.Chemscore.Rot.Weighted>
3.3962

> <Gold.Chemscore.Internal.Correction.Weighted>
   9.000000E+99

> <Gold.Protein.RotatedTorsions>
[ 6907 6896 6895 6894 ] final   85.95 input  -60.11 | X-H torsion
[ 7974 7965 7964 7962 ] final  -63.08 input  175.53 | X-H torsion
[ 8008 7997 7996 7995 ] final  -25.71 input   59.86 | X-H torsion
[ 10167 10162 10161 10158 ] final   77.46 input  -65.29 | X-H torsion
[ 10718 10713 10712 10709 ] final   87.18 input   66.30 | X-H torsion
[ 10763 10752 10751 10750 ] final   82.34 input  -60.55 | X-H torsion
[ 11005 11000 10999 10996 ] final  173.43 input  -57.11 | X-H torsion

> <Gold.Protein.ActiveResidues>
 VAL166  LYS551  ARG553  GLY616  TRP617  ASP618  TYR619  PRO620  LYS621  CYS622 
 ASP623  PHE694  ASN695  SER759  ASP760  ASP761  ALA762  ILE779  LEU786  VAL792 
 PHE793  MET794  SER795  GLU796  ALA797  LYS798  CYS799  TRP800  GLU811  SER814 

> <Gold.Protein.RotatedAtoms>
  152.5385  134.2507  159.8897 H   0  0  0  0  0  0  0  0  0  0  0  0  # atno 6907 bound_to 6896
  151.2470  133.4363  159.2617 H   0  0  0  0  0  0  0  0  0  0  0  0  # atno 6908 bound_to 6896
  151.0574  134.9728  159.8299 H   0  0  0  0  0  0  0  0  0  0  0  0  # atno 6909 bound_to 6896
  145.7834  140.8749  143.0318 H   0  0  0  0  0  0  0  0  0  0  0  0  # atno 7974 bound_to 7965
  154.4462  140.1919  156.0662 H   0  0  0  0  0  0  0  0  0  0  0  0  # atno 8008 bound_to 7997
  156.0546  140.3304  155.7363 H   0  0  0  0  0  0  0  0  0  0  0  0  # atno 8009 bound_to 7997
  155.5506  140.0594  157.2841 H   0  0  0  0  0  0  0  0  0  0  0  0  # atno 8010 bound_to 7997
  139.9813  144.5824  150.7898 H   0  0  0  0  0  0  0  0  0  0  0  0  # atno 10167 bound_to 10162
  157.6937  131.0245  150.3084 H   0  0  0  0  0  0  0  0  0  0  0  0  # atno 10718 bound_to 10713
  153.1194  135.4732  154.9170 H   0  0  0  0  0  0  0  0  0  0  0  0  # atno 10763 bound_to 10752
  154.7561  135.3118  154.8470 H   0  0  0  0  0  0  0  0  0  0  0  0  # atno 10764 bound_to 10752
  153.9038  135.6872  153.4807 H   0  0  0  0  0  0  0  0  0  0  0  0  # atno 10765 bound_to 10752
  140.3404  134.7281  157.4198 H   0  0  0  0  0  0  0  0  0  0  0  0  # atno 11005 bound_to 11000
  144.6793  140.0022  143.7484 LP  0  0  0  0  0  0  0  0  0  0  0  0  # atno 17320 bound_to 7965
  146.0050  139.3122  143.0904 LP  0  0  0  0  0  0  0  0  0  0  0  0  # atno 17321 bound_to 7965
  140.7488  143.2928  151.3284 LP  0  0  0  0  0  0  0  0  0  0  0  0  # atno 17342 bound_to 10162
  139.6408  144.0544  152.2552 LP  0  0  0  0  0  0  0  0  0  0  0  0  # atno 17343 bound_to 10162
  156.3589  130.3843  149.7267 LP  0  0  0  0  0  0  0  0  0  0  0  0  # atno 17370 bound_to 10713
  156.4720  130.8001  151.3018 LP  0  0  0  0  0  0  0  0  0  0  0  0  # atno 17371 bound_to 10713
  140.0786  134.5762  155.8564 LP  0  0  0  0  0  0  0  0  0  0  0  0  # atno 17394 bound_to 11000
  141.2040  133.6636  156.6095 LP  0  0  0  0  0  0  0  0  0  0  0  0  # atno 17395 bound_to 11000

$$$$
