AV-unprocessed.smi:631|AV-procd|sdf|3125|dock3
  -GOLD-   22720 0 43D 1   1.00000     0.00000
 Structure written by MMmdl.
 38 39  0  0  0  0  0  0  0  0  1 V2000
  148.2757  141.7497  155.8078 C   0  0  0  0  0  0  0  0  0  0  0  0
  149.5487  140.9756  156.0199 C   0  0  0  0  0  0  0  0  0  0  0  0
  150.3440  141.4077  156.9424 N   0  0  0  0  0  0  0  0  0  0  0  0
  151.5356  140.7666  157.2270 N   0  0  0  0  0  0  0  0  0  0  0  0
  152.3050  141.3834  158.3199 C   0  0  0  0  0  0  0  0  0  0  0  0
  151.6614  142.6639  158.9281 C   0  0  0  0  0  0  0  0  0  0  0  0
  150.3386  142.3311  159.3086 O   0  0  0  0  0  0  0  0  0  0  0  0
  152.4095  143.0453  160.2295 C   0  0  0  0  0  0  0  0  0  0  0  0
  151.8854  144.3402  160.8767 C   0  0  0  0  0  0  0  0  0  0  0  0
  151.9064  145.5076  159.8812 C   0  0  0  0  0  0  0  0  0  0  0  0
  151.1065  145.1633  158.6175 C   0  0  0  0  0  0  0  0  0  0  0  0
  151.6229  143.8725  157.9566 C   0  0  0  0  0  0  0  0  0  0  0  0
  152.0066  139.6766  156.5558 C   0  0  0  0  0  0  0  0  0  0  0  0
  153.0989  139.1641  156.8023 O   0  0  0  0  0  0  0  0  0  0  0  0
  151.0948  139.1852  155.5203 C   0  0  0  0  0  0  0  0  0  0  0  0
  151.5372  138.0272  154.8128 C   0  0  0  0  0  0  0  0  0  0  0  0
  151.8845  137.0749  154.2534 N   0  0  0  0  0  0  0  0  0  0  0  0
  149.9115  139.7906  155.2503 C   0  0  0  0  0  0  0  0  0  0  0  0
  148.9331  139.3224  154.1817 C   0  0  0  0  0  0  0  0  0  0  0  0
  148.2007  142.0980  154.7776 H   0  0  0  0  0  0  0  0  0  0  0  0
  148.2197  142.6261  156.4553 H   0  0  0  0  0  0  0  0  0  0  0  0
  147.4058  141.1280  156.0198 H   0  0  0  0  0  0  0  0  0  0  0  0
  152.5205  140.6531  159.1025 H   0  0  0  0  0  0  0  0  0  0  0  0
  153.2878  141.6435  157.9215 H   0  0  0  0  0  0  0  0  0  0  0  0
  149.8322  143.1273  159.3590 H   0  0  0  0  0  0  0  0  0  0  0  0
  152.3555  142.2280  160.9503 H   0  0  0  0  0  0  0  0  0  0  0  0
  153.4691  143.1801  160.0083 H   0  0  0  0  0  0  0  0  0  0  0  0
  150.8701  144.1891  161.2449 H   0  0  0  0  0  0  0  0  0  0  0  0
  152.4918  144.5878  161.7484 H   0  0  0  0  0  0  0  0  0  0  0  0
  151.4970  146.4032  160.3491 H   0  0  0  0  0  0  0  0  0  0  0  0
  152.9370  145.7417  159.6115 H   0  0  0  0  0  0  0  0  0  0  0  0
  150.0516  145.0519  158.8709 H   0  0  0  0  0  0  0  0  0  0  0  0
  151.1641  145.9889  157.9078 H   0  0  0  0  0  0  0  0  0  0  0  0
  152.6275  144.0555  157.5735 H   0  0  0  0  0  0  0  0  0  0  0  0
  151.0017  143.6484  157.0887 H   0  0  0  0  0  0  0  0  0  0  0  0
  149.2605  138.4037  153.6964 H   0  0  0  0  0  0  0  0  0  0  0  0
  148.8223  140.0817  153.4071 H   0  0  0  0  0  0  0  0  0  0  0  0
  147.9523  139.1284  154.6167 H   0  0  0  0  0  0  0  0  0  0  0  0
  1  2  1  0  0  0  0
  1 20  1  0  0  0  0
  1 21  1  0  0  0  0
  1 22  1  0  0  0  0
  2 18  1  0  0  0  0
  2  3  2  0  0  0  0
  3  4  1  0  0  0  0
  4  5  1  0  0  0  0
  4 13  1  0  0  0  0
  5  6  1  0  0  0  0
  5 23  1  0  0  0  0
  5 24  1  0  0  0  0
  6 12  1  0  0  0  0
  6  7  1  0  0  0  0
  6  8  1  0  0  0  0
  7 25  1  0  0  0  0
  8  9  1  0  0  0  0
  8 26  1  0  0  0  0
  8 27  1  0  0  0  0
  9 10  1  0  0  0  0
  9 28  1  0  0  0  0
  9 29  1  0  0  0  0
 10 11  1  0  0  0  0
 10 30  1  0  0  0  0
 10 31  1  0  0  0  0
 11 12  1  0  0  0  0
 11 32  1  0  0  0  0
 11 33  1  0  0  0  0
 12 34  1  0  0  0  0
 12 35  1  0  0  0  0
 13 14  2  0  0  0  0
 13 15  1  0  0  0  0
 15 16  1  0  0  0  0
 15 18  2  0  0  0  0
 16 17  3  0  0  0  0
 18 19  1  0  0  0  0
 19 36  1  0  0  0  0
 19 37  1  0  0  0  0
 19 38  1  0  0  0  0
M  END
> <s_m_source_file>
AV-unprocessed.smi

> <i_m_source_file_index>
631

> <i_lp_mmshare_version>
43012

> <i_f3d_flags>
0

> <s_epik_input>
TiNDYyhjMVtDSDNdKWMoPU8pbihuYzFbQ0gzXSlbQ0gyXUMyKFtPSF0pW0NIMl1bQ0gyXVtDSDJdW0NIMl1bQ0gyXTI=

> <s_epik_cmdline>
J2VwaWtfcHl0aG9uJywgJy1waCcsICc3LjAnLCAnLXRuJywgJzgnLCAnLW1hJywgJzIwMCcsICctbWV0YWxfYmluZGluZycsICctaW1hZScsICc8aW5maWxlLm1hZT4nLCAnLW9tYWUnLCAnPG91dGZpbGUubWFlPic=

> <r_lp_tautomer_probability>
1

> <r_epik_Ionization_Penalty>
3.87467e-07

> <r_epik_Ionization_Penalty_Charging>
4.48646e-10

> <r_epik_Ionization_Penalty_Neutral>
3.87018e-07

> <r_epik_State_Penalty>
-0

> <r_epik_Charging_Adjusted_Penalty>
4.48646e-10

> <i_epik_Tot_Q>
0

> <i_epik_Tot_abs_Q>
0

> <r_epik_Metal_State_Penalty>
-0

> <b_epik_Metal_Only>
0

> <s_lp_Force_Field>
OPLS_2005

> <r_lp_Energy>
32.3916

> <b_lp_Chiralities_Consistent>
1

> <s_lp_Variant>
AV-unprocessed.smi:631-1

> <Gold.Version>
5.8.1

> <Gold.Id.Protein>
6NUR|6NUR_protein|mol2

> <Gold.PLP.Fitness>
47.1731

> <Gold.PLP.PLP>
-41.3588

> <Gold.PLP.part.hbond>
-2.8746

> <Gold.PLP.part.metal>
0.0000

> <Gold.PLP.part.buried>
-1.5640

> <Gold.PLP.part.nonpolar>
-38.1799

> <Gold.PLP.part.repulsive>
1.0050

> <Gold.PLP.ligand.clash>
0.0000

> <Gold.PLP.ligand.torsion>
0.0609

> <Gold.PLP.Chemscore.Hbond>
1.9760

> <Gold.PLP.Chemscore.CHOScore>
0.0000

> <Gold.PLP.Chemscore.Metal>
0.0000

> <Gold.Chemscore.Hbonds>
donor molecule, donor type, donor heavy atom, donor atom, acceptor molecule, acceptor atom, score
      P1  H  7997  8010       L1    14  1.00
      P1  H 10752 10763       L1    17  1.00

> <Gold.PLP.Chemscore.Internal.Correction>
0.0082

> <Gold.Rescore>
     Score         DG    S(hbond)    S(metal)    S(lipo)     H(rot)  DE(clash)    DE(int)     intcor
     18.37     -19.74       1.93        0.00     103.53       1.68       0.06       1.31       ----

> <Gold.Chemscore.Fitness>
18.3687

> <Gold.Chemscore.DG>
-19.7424

> <Gold.Chemscore.ZeroCoef>
-5.4800

> <Gold.Chemscore.Hbond>
1.9276

> <Gold.Chemscore.Metal>
0.0000

> <Gold.Chemscore.Lipo>
103.5306

> <Gold.Chemscore.Internal_Hbond>
0.0000

> <Gold.Chemscore.DEClash>
0.0640

> <Gold.Chemscore.DEInternal>
1.3097

> <Gold.Chemscore.Rot>
1.6753

> <Gold.Chemscore.Internal.Correction>
   9.000000E+99

> <Gold.Chemscore.Hbonds>
donor molecule, donor type, donor heavy atom, donor atom, acceptor molecule, acceptor atom, score
      P1  H  7997  8010       L1    14  0.84
      P1  H 10752 10763       L1    17  0.95

> <Gold.Chemscore.Hbond.Weighted>
-6.4382

> <Gold.Chemscore.Metal.Weighted>
-0.0000

> <Gold.Chemscore.Lipo.Weighted>
-12.1131

> <Gold.Chemscore.Internal_Hbond.Weighted>
0.0000

> <Gold.Chemscore.DEClash.Weighted>
0.0640

> <Gold.Chemscore.DEInternal.Weighted>
1.3097

> <Gold.Chemscore.Rot.Weighted>
4.2888

> <Gold.Chemscore.Internal.Correction.Weighted>
   9.000000E+99

> <Gold.Protein.RotatedTorsions>
[ 6907 6896 6895 6894 ] final -149.86 input  -60.11 | X-H torsion
[ 7974 7965 7964 7962 ] final -160.20 input  175.53 | X-H torsion
[ 8008 7997 7996 7995 ] final   76.21 input   59.86 | X-H torsion
[ 10167 10162 10161 10158 ] final    7.59 input  -65.29 | X-H torsion
[ 10718 10713 10712 10709 ] final  -41.36 input   66.30 | X-H torsion
[ 10763 10752 10751 10750 ] final   28.48 input  -60.55 | X-H torsion
[ 11005 11000 10999 10996 ] final   35.07 input  -57.11 | X-H torsion

> <Gold.Protein.ActiveResidues>
 VAL166  LYS551  ARG553  GLY616  TRP617  ASP618  TYR619  PRO620  LYS621  CYS622 
 ASP623  PHE694  ASN695  SER759  ASP760  ASP761  ALA762  ILE779  LEU786  VAL792 
 PHE793  MET794  SER795  GLU796  ALA797  LYS798  CYS799  TRP800  GLU811  SER814 

> <Gold.Protein.RotatedAtoms>
  151.1903  133.4671  159.2594 H   0  0  0  0  0  0  0  0  0  0  0  0  # atno 6907 bound_to 6896
  151.1171  135.0058  159.8531 H   0  0  0  0  0  0  0  0  0  0  0  0  # atno 6908 bound_to 6896
  152.5454  134.1817  159.8691 H   0  0  0  0  0  0  0  0  0  0  0  0  # atno 6909 bound_to 6896
  144.7436  140.3576  143.6103 H   0  0  0  0  0  0  0  0  0  0  0  0  # atno 7974 bound_to 7965
  155.8241  140.3468  155.5532 H   0  0  0  0  0  0  0  0  0  0  0  0  # atno 8008 bound_to 7997
  155.8311  140.0927  157.1811 H   0  0  0  0  0  0  0  0  0  0  0  0  # atno 8009 bound_to 7997
  154.4004  140.1412  156.3603 H   0  0  0  0  0  0  0  0  0  0  0  0  # atno 8010 bound_to 7997
  140.6363  143.7878  150.7364 H   0  0  0  0  0  0  0  0  0  0  0  0  # atno 10167 bound_to 10162
  156.2712  130.4207  149.8436 H   0  0  0  0  0  0  0  0  0  0  0  0  # atno 10718 bound_to 10713
  153.0489  135.6512  154.0745 H   0  0  0  0  0  0  0  0  0  0  0  0  # atno 10763 bound_to 10752
  154.0437  135.2901  155.3352 H   0  0  0  0  0  0  0  0  0  0  0  0  # atno 10764 bound_to 10752
  154.6765  135.5336  153.8272 H   0  0  0  0  0  0  0  0  0  0  0  0  # atno 10765 bound_to 10752
  140.2464  134.3354  155.7906 H   0  0  0  0  0  0  0  0  0  0  0  0  # atno 11005 bound_to 11000
  145.7210  139.1710  143.2484 LP  0  0  0  0  0  0  0  0  0  0  0  0  # atno 17320 bound_to 7965
  146.1277  140.7227  142.9427 LP  0  0  0  0  0  0  0  0  0  0  0  0  # atno 17321 bound_to 7965
  140.1500  143.4366  152.2137 LP  0  0  0  0  0  0  0  0  0  0  0  0  # atno 17342 bound_to 10162
  139.5573  144.7382  151.4256 LP  0  0  0  0  0  0  0  0  0  0  0  0  # atno 17343 bound_to 10162
  156.5917  130.8509  151.3409 LP  0  0  0  0  0  0  0  0  0  0  0  0  # atno 17370 bound_to 10713
  157.7284  130.9657  150.1742 LP  0  0  0  0  0  0  0  0  0  0  0  0  # atno 17371 bound_to 10713
  141.2206  133.7328  156.8968 LP  0  0  0  0  0  0  0  0  0  0  0  0  # atno 17394 bound_to 11000
  140.1601  134.9171  157.2704 LP  0  0  0  0  0  0  0  0  0  0  0  0  # atno 17395 bound_to 11000

$$$$
