AV-unprocessed.smi:500|AV-procd|sdf|2735|dock5
  -GOLD-   2262023193D 1   1.00000     0.00000
 Structure written by MMmdl.
 45 47  0  0  0  0  0  0  0  0  1 V2000
  152.6390  138.3390  154.6391 C   0  0  0  0  0  0  0  0  0  0  0  0
  152.2129  139.5467  155.4769 C   0  0  0  0  0  0  0  0  0  0  0  0
  151.1498  140.2123  154.8115 O   0  0  0  0  0  0  0  0  0  0  0  0
  149.8600  139.7256  155.1524 C   0  0  0  0  0  0  0  0  0  0  0  0
  149.3412  140.3672  156.4502 C   0  0  0  0  0  0  0  0  0  0  0  0
  150.3231  140.2761  157.5190 N   0  0  0  0  0  0  0  0  0  0  0  0
  150.7030  139.1802  158.2258 C   0  0  0  0  0  0  0  0  0  0  0  0
  150.1122  137.8145  157.9732 C   0  0  1  0  0  0  0  0  0  0  0  0
  151.1914  136.7766  157.6386 C   0  0  0  0  0  0  0  0  0  0  0  0
  149.3659  137.3965  159.1589 N   0  0  0  0  0  0  0  0  0  0  0  0
  148.9370  136.1489  159.4095 C   0  0  0  0  0  0  0  0  0  0  0  0
  149.1644  135.1908  158.6711 O   0  0  0  0  0  0  0  0  0  0  0  0
  148.1648  135.9747  160.6538 C   0  0  0  0  0  0  0  0  0  0  0  0
  147.7380  134.8469  161.3049 C   0  0  0  0  0  0  0  0  0  0  0  0
  147.0518  135.2853  162.4711 C   0  0  0  0  0  0  0  0  0  0  0  0
  147.1129  136.6491  162.4524 C   0  0  0  0  0  0  0  0  0  0  0  0
  147.7906  137.0840  161.3556 O   0  0  0  0  0  0  0  0  0  0  0  0
  151.6553  139.3897  159.1398 N   0  0  0  0  0  0  0  0  0  0  0  0
  151.8899  140.7458  159.0362 C   0  0  0  0  0  0  0  0  0  0  0  0
  152.7804  141.5806  159.7483 C   0  0  0  0  0  0  0  0  0  0  0  0
  152.8450  142.9607  159.4657 C   0  0  0  0  0  0  0  0  0  0  0  0
  152.0226  143.5242  158.4686 C   0  0  0  0  0  0  0  0  0  0  0  0
  151.1302  142.7092  157.7458 C   0  0  0  0  0  0  0  0  0  0  0  0
  151.0695  141.3321  158.0321 C   0  0  0  0  0  0  0  0  0  0  0  0
  153.4517  137.7969  155.1228 H   0  0  0  0  0  0  0  0  0  0  0  0
  152.9845  138.6493  153.6526 H   0  0  0  0  0  0  0  0  0  0  0  0
  151.8089  137.6454  154.5018 H   0  0  0  0  0  0  0  0  0  0  0  0
  151.8882  139.2149  156.4643 H   0  0  0  0  0  0  0  0  0  0  0  0
  153.0638  140.2133  155.6170 H   0  0  0  0  0  0  0  0  0  0  0  0
  149.1865  139.9857  154.3353 H   0  0  0  0  0  0  0  0  0  0  0  0
  149.8600  138.6370  155.2146 H   0  0  0  0  0  0  0  0  0  0  0  0
  149.0687  141.4119  156.3071 H   0  0  0  0  0  0  0  0  0  0  0  0
  148.4297  139.8629  156.7719 H   0  0  0  0  0  0  0  0  0  0  0  0
  149.4165  137.8585  157.1352 H   0  0  0  0  0  0  0  0  0  0  0  0
  151.7453  137.0656  156.7451 H   0  0  0  0  0  0  0  0  0  0  0  0
  150.7501  135.7974  157.4508 H   0  0  0  0  0  0  0  0  0  0  0  0
  151.9081  136.6698  158.4538 H   0  0  0  0  0  0  0  0  0  0  0  0
  149.1277  138.1193  159.8225 H   0  0  0  0  0  0  0  0  0  0  0  0
  147.9006  133.8284  160.9840 H   0  0  0  0  0  0  0  0  0  0  0  0
  146.5767  134.6800  163.2288 H   0  0  0  0  0  0  0  0  0  0  0  0
  146.7489  137.4263  163.1084 H   0  0  0  0  0  0  0  0  0  0  0  0
  153.4134  141.1588  160.5149 H   0  0  0  0  0  0  0  0  0  0  0  0
  153.5278  143.5901  160.0172 H   0  0  0  0  0  0  0  0  0  0  0  0
  152.0773  144.5826  158.2595 H   0  0  0  0  0  0  0  0  0  0  0  0
  150.4983  143.1382  156.9824 H   0  0  0  0  0  0  0  0  0  0  0  0
  1  2  1  0  0  0  0
  1 25  1  0  0  0  0
  1 26  1  0  0  0  0
  1 27  1  0  0  0  0
  2  3  1  0  0  0  0
  2 28  1  0  0  0  0
  2 29  1  0  0  0  0
  3  4  1  0  0  0  0
  4  5  1  0  0  0  0
  4 30  1  0  0  0  0
  4 31  1  0  0  0  0
  5  6  1  0  0  0  0
  5 32  1  0  0  0  0
  5 33  1  0  0  0  0
  6 24  1  0  0  0  0
  6  7  1  0  0  0  0
  7  8  1  0  0  0  0
  7 18  2  0  0  0  0
  8  9  1  0  0  0  0
  8 10  1  0  0  0  0
  8 34  1  0  0  0  0
  9 35  1  0  0  0  0
  9 36  1  0  0  0  0
  9 37  1  0  0  0  0
 10 11  1  0  0  0  0
 10 38  1  0  0  0  0
 11 12  2  0  0  0  0
 11 13  1  0  0  0  0
 13 17  1  0  0  0  0
 13 14  2  0  0  0  0
 14 15  1  0  0  0  0
 14 39  1  0  0  0  0
 15 16  2  0  0  0  0
 15 40  1  0  0  0  0
 16 17  1  0  0  0  0
 16 41  1  0  0  0  0
 18 19  1  0  0  0  0
 19 24  2  0  0  0  0
 19 20  1  0  0  0  0
 20 21  2  0  0  0  0
 20 42  1  0  0  0  0
 21 22  1  0  0  0  0
 21 43  1  0  0  0  0
 22 23  2  0  0  0  0
 22 44  1  0  0  0  0
 23 24  1  0  0  0  0
 23 45  1  0  0  0  0
M  END
> <s_m_source_file>
AV-unprocessed.smi

> <i_m_source_file_index>
500

> <i_lp_mmshare_version>
43012

> <i_f3d_flags>
0

> <s_epik_input>
W0NIM11bQ0gyXU9bQ0gyXVtDSDJdbihjKGMxMilbY0hdW2NIXVtjSF1bY0hdMiljKG4xKVtDQEhdKFtDSDNdKVtOSF1DKD1PKWMzW2NIXVtjSF1bY0hdbzM=

> <s_epik_cmdline>
J2VwaWtfcHl0aG9uJywgJy1waCcsICc3LjAnLCAnLXRuJywgJzgnLCAnLW1hJywgJzIwMCcsICctbWV0YWxfYmluZGluZycsICctaW1hZScsICc8aW5maWxlLm1hZT4nLCAnLW9tYWUnLCAnPG91dGZpbGUubWFlPic=

> <r_epik_Ionization_Penalty>
0.109801

> <r_epik_Ionization_Penalty_Charging>
0

> <r_epik_Ionization_Penalty_Neutral>
0.109801

> <r_epik_State_Penalty>
0.0995533

> <r_epik_Charging_Adjusted_Penalty>
0.0995533

> <i_epik_Tot_Q>
0

> <i_epik_Tot_abs_Q>
0

> <r_epik_Metal_State_Penalty>
0.0918163

> <b_epik_Metal_Only>
0

> <s_lp_Force_Field>
OPLS_2005

> <r_lp_Energy>
7.77682

> <b_lp_Chiralities_Consistent>
1

> <s_lp_Variant>
AV-unprocessed.smi:500-2

> <Gold.Version>
5.8.1

> <Gold.Id.Protein>
6NUR|6NUR_protein|mol2

> <Gold.PLP.Fitness>
59.7191

> <Gold.PLP.PLP>
-49.8049

> <Gold.PLP.part.hbond>
-3.9307

> <Gold.PLP.part.metal>
0.0000

> <Gold.PLP.part.buried>
-6.0735

> <Gold.PLP.part.nonpolar>
-40.2095

> <Gold.PLP.part.repulsive>
0.2952

> <Gold.PLP.ligand.clash>
0.0000

> <Gold.PLP.ligand.torsion>
0.7451

> <Gold.PLP.Chemscore.Hbond>
3.7680

> <Gold.PLP.Chemscore.CHOScore>
0.0000

> <Gold.PLP.Chemscore.Metal>
0.0000

> <Gold.Chemscore.Hbonds>
donor molecule, donor type, donor heavy atom, donor atom, acceptor molecule, acceptor atom, score
      P1  H  6896  6908       L1    12  1.00
      P1  H  6931  6943       L1    17  1.00
      P1  H  6934  6947       L1    17  0.70
      P1  H  7989  7998       L1     3  1.00

> <Gold.PLP.Chemscore.Internal.Correction>
0.1005

> <Gold.Rescore>
     Score         DG    S(hbond)    S(metal)    S(lipo)     H(rot)  DE(clash)    DE(int)     intcor
     21.86     -25.44       3.20        0.00     121.15       1.92       0.15       3.43       ----

> <Gold.Chemscore.Fitness>
21.8627

> <Gold.Chemscore.DG>
-25.4362

> <Gold.Chemscore.ZeroCoef>
-5.4800

> <Gold.Chemscore.Hbond>
3.1992

> <Gold.Chemscore.Metal>
0.0000

> <Gold.Chemscore.Lipo>
121.1543

> <Gold.Chemscore.Internal_Hbond>
0.0000

> <Gold.Chemscore.DEClash>
0.1455

> <Gold.Chemscore.DEInternal>
3.4280

> <Gold.Chemscore.Rot>
1.9156

> <Gold.Chemscore.Internal.Correction>
   9.000000E+99

> <Gold.Chemscore.Hbonds>
donor molecule, donor type, donor heavy atom, donor atom, acceptor molecule, acceptor atom, score
      P1  H  6896  6908       L1    12  0.60
      P1  H  6931  6943       L1    17  0.62
      P1  H  6934  6947       L1    17  0.44
      P1  H  7989  7998       L1     3  0.74

> <Gold.Chemscore.Hbond.Weighted>
-10.6852

> <Gold.Chemscore.Metal.Weighted>
-0.0000

> <Gold.Chemscore.Lipo.Weighted>
-14.1750

> <Gold.Chemscore.Internal_Hbond.Weighted>
0.0000

> <Gold.Chemscore.DEClash.Weighted>
0.1455

> <Gold.Chemscore.DEInternal.Weighted>
3.4280

> <Gold.Chemscore.Rot.Weighted>
4.9041

> <Gold.Chemscore.Internal.Correction.Weighted>
   9.000000E+99

> <Gold.Protein.RotatedTorsions>
[ 6907 6896 6895 6894 ] final  148.93 input  -60.11 | X-H torsion
[ 7974 7965 7964 7962 ] final  170.52 input  175.53 | X-H torsion
[ 8008 7997 7996 7995 ] final  -74.25 input   59.86 | X-H torsion
[ 10167 10162 10161 10158 ] final  112.35 input  -65.29 | X-H torsion
[ 10718 10713 10712 10709 ] final   68.80 input   66.30 | X-H torsion
[ 10763 10752 10751 10750 ] final   -3.49 input  -60.55 | X-H torsion
[ 11005 11000 10999 10996 ] final   -9.70 input  -57.11 | X-H torsion

> <Gold.Protein.ActiveResidues>
 VAL166  LYS551  ARG553  GLY616  TRP617  ASP618  TYR619  PRO620  LYS621  CYS622 
 ASP623  PHE694  ASN695  SER759  ASP760  ASP761  ALA762  ILE779  LEU786  VAL792 
 PHE793  MET794  SER795  GLU796  ALA797  LYS798  CYS799  TRP800  GLU811  SER814 

> <Gold.Protein.RotatedAtoms>
  152.1349  133.4429  159.4738 H   0  0  0  0  0  0  0  0  0  0  0  0  # atno 6907 bound_to 6896
  150.6881  134.2375  159.4468 H   0  0  0  0  0  0  0  0  0  0  0  0  # atno 6908 bound_to 6896
  152.0262  134.9794  160.0622 H   0  0  0  0  0  0  0  0  0  0  0  0  # atno 6909 bound_to 6896
  144.7321  139.9215  143.6420 H   0  0  0  0  0  0  0  0  0  0  0  0  # atno 7974 bound_to 7965
  154.5315  140.0765  156.8352 H   0  0  0  0  0  0  0  0  0  0  0  0  # atno 8008 bound_to 7997
  155.3366  140.3405  155.4221 H   0  0  0  0  0  0  0  0  0  0  0  0  # atno 8009 bound_to 7997
  156.1785  140.1644  156.8304 H   0  0  0  0  0  0  0  0  0  0  0  0  # atno 8010 bound_to 7997
  139.6542  144.7129  151.1988 H   0  0  0  0  0  0  0  0  0  0  0  0  # atno 10167 bound_to 10162
  157.6310  130.9392  150.0426 H   0  0  0  0  0  0  0  0  0  0  0  0  # atno 10718 bound_to 10713
  153.3720  135.6995  153.6630 H   0  0  0  0  0  0  0  0  0  0  0  0  # atno 10763 bound_to 10752
  153.5276  135.3599  155.2662 H   0  0  0  0  0  0  0  0  0  0  0  0  # atno 10764 bound_to 10752
  154.8682  135.4173  154.3000 H   0  0  0  0  0  0  0  0  0  0  0  0  # atno 10765 bound_to 10752
  140.7370  133.8702  155.8937 H   0  0  0  0  0  0  0  0  0  0  0  0  # atno 11005 bound_to 11000
  146.0926  139.3917  143.0396 LP  0  0  0  0  0  0  0  0  0  0  0  0  # atno 17320 bound_to 7965
  145.7690  140.9904  143.1160 LP  0  0  0  0  0  0  0  0  0  0  0  0  # atno 17321 bound_to 7965
  140.7552  143.6099  150.8616 LP  0  0  0  0  0  0  0  0  0  0  0  0  # atno 17342 bound_to 10162
  139.9750  143.6014  152.2961 LP  0  0  0  0  0  0  0  0  0  0  0  0  # atno 17343 bound_to 10162
  156.1513  130.3642  149.9434 LP  0  0  0  0  0  0  0  0  0  0  0  0  # atno 17370 bound_to 10713
  156.7453  130.9095  151.3634 LP  0  0  0  0  0  0  0  0  0  0  0  0  # atno 17371 bound_to 10713
  140.9871  134.1328  157.4442 LP  0  0  0  0  0  0  0  0  0  0  0  0  # atno 17394 bound_to 11000
  139.8814  135.0029  156.6153 LP  0  0  0  0  0  0  0  0  0  0  0  0  # atno 17395 bound_to 11000

$$$$
