AV-unprocessed.smi:1403|AV-procd|sdf|5703|dock6
  -GOLD-   22720 5333D 1   1.00000     0.00000
 Structure written by MMmdl.
 35 36  0  0  0  0  0  0  0  0  2 V2000
  149.2655  141.5935  154.5415 C   0  0  0  0  0  0  0  0  0  0  0  0
  149.7989  140.9778  155.8428 C   0  0  2  0  0  0  0  0  0  0  0  0
  150.7597  141.9027  156.4387 N   0  0  0  0  0  0  0  0  0  0  0  0
  150.9636  142.1067  157.7518 C   0  0  0  0  0  0  0  0  0  0  0  0
  150.3417  141.5058  158.6273 O   0  0  0  0  0  0  0  0  0  0  0  0
  152.0371  143.1274  158.1680 C   0  0  0  0  0  0  0  0  0  0  0  0
  152.6117  142.9114  159.5087 N   0  0  0  0  0  0  0  0  0  0  0  0
  152.4786  143.9504  160.4465 C   0  0  0  0  0  0  0  0  0  0  0  0
  152.9634  143.8445  161.6983 C   0  0  0  0  0  0  0  0  0  0  0  0
  153.6424  142.6104  162.0732 C   0  0  0  0  0  0  0  0  0  0  0  0
  154.0937  142.4968  163.2111 O   0  0  0  0  0  0  0  0  0  0  0  0
  153.7426  141.6295  161.1292 N   0  5  0  0  0  0  0  0  0  0  0  0
  153.2428  141.7502  159.8603 C   0  0  0  0  0  0  0  0  0  0  0  0
  153.3345  140.8484  159.0272 O   0  0  0  0  0  0  0  0  0  0  0  0
  150.4584  139.6055  155.5988 C   0  0  1  0  0  0  0  0  0  0  0  0
  149.6049  138.6048  154.8198 C   0  0  0  0  0  0  0  0  0  0  0  0
  150.6337  137.6402  154.2570 C   0  0  0  0  0  0  0  0  0  0  0  0
  151.9404  138.4396  154.2791 C   0  0  0  0  0  0  0  0  0  0  0  0
  151.5933  139.7338  154.7561 O   0  0  0  0  0  0  0  0  0  0  0  0
  148.5175  140.9495  154.0783 H   0  0  0  0  0  0  0  0  0  0  0  0
  150.0662  141.7481  153.8172 H   0  0  0  0  0  0  0  0  0  0  0  0
  148.7955  142.5595  154.7287 H   0  0  0  0  0  0  0  0  0  0  0  0
  148.9502  140.8406  156.5151 H   0  0  0  0  0  0  0  0  0  0  0  0
  151.3167  142.4480  155.7959 H   0  0  0  0  0  0  0  0  0  0  0  0
  152.8249  143.1281  157.4128 H   0  0  0  0  0  0  0  0  0  0  0  0
  151.5944  144.1227  158.1116 H   0  0  0  0  0  0  0  0  0  0  0  0
  151.9576  144.8271  160.0902 H   0  0  0  0  0  0  0  0  0  0  0  0
  152.8504  144.6512  162.4075 H   0  0  0  0  0  0  0  0  0  0  0  0
  150.7714  139.1610  156.5456 H   0  0  0  0  0  0  0  0  0  0  0  0
  148.8552  138.1119  155.4395 H   0  0  0  0  0  0  0  0  0  0  0  0
  149.0888  139.1090  154.0014 H   0  0  0  0  0  0  0  0  0  0  0  0
  150.7227  136.7564  154.8895 H   0  0  0  0  0  0  0  0  0  0  0  0
  150.3667  137.3103  153.2526 H   0  0  0  0  0  0  0  0  0  0  0  0
  152.6586  137.9824  154.9608 H   0  0  0  0  0  0  0  0  0  0  0  0
  152.4027  138.5073  153.2942 H   0  0  0  0  0  0  0  0  0  0  0  0
  1  2  1  0  0  0  0
  1 20  1  0  0  0  0
  1 21  1  0  0  0  0
  1 22  1  0  0  0  0
  2  3  1  0  0  0  0
  2 15  1  0  0  0  0
  2 23  1  0  0  0  0
  3  4  1  0  0  0  0
  3 24  1  0  0  0  0
  4  5  2  0  0  0  0
  4  6  1  0  0  0  0
  6  7  1  0  0  0  0
  6 25  1  0  0  0  0
  6 26  1  0  0  0  0
  7 13  1  0  0  0  0
  7  8  1  0  0  0  0
  8  9  2  0  0  0  0
  8 27  1  0  0  0  0
  9 10  1  0  0  0  0
  9 28  1  0  0  0  0
 10 11  2  0  0  0  0
 10 12  1  0  0  0  0
 12 13  1  0  0  0  0
 13 14  2  0  0  0  0
 15 19  1  0  0  0  0
 15 16  1  0  0  0  0
 15 29  1  0  0  0  0
 16 17  1  0  0  0  0
 16 30  1  0  0  0  0
 16 31  1  0  0  0  0
 17 18  1  0  0  0  0
 17 32  1  0  0  0  0
 17 33  1  0  0  0  0
 18 19  1  0  0  0  0
 18 34  1  0  0  0  0
 18 35  1  0  0  0  0
M  CHG  1  12  -1
M  END
> <s_m_source_file>
AV-unprocessed.smi

> <i_m_source_file_index>
1403

> <i_lp_mmshare_version>
43012

> <i_f3d_flags>
0

> <s_epik_input>
TzFbQ0gyXVtDSDJdW0NIMl1bQ0BIXTFbQ0BIXShbQ0gzXSlbTkhdQyg9TylbQ0gyXW4yW2NIXVtjSF1jKD1PKVtuSF1jMj1P

> <s_epik_cmdline>
J2VwaWtfcHl0aG9uJywgJy1waCcsICc3LjAnLCAnLXRuJywgJzgnLCAnLW1hJywgJzIwMCcsICctbWV0YWxfYmluZGluZycsICctaW1hZScsICc8aW5maWxlLm1hZT4nLCAnLW9tYWUnLCAnPG91dGZpbGUubWFlPic=

> <r_lp_tautomer_probability>
0.999537

> <r_epik_Ionization_Penalty>
3.07438

> <r_epik_Ionization_Penalty_Charging>
2.82466e-08

> <r_epik_Ionization_Penalty_Neutral>
3.07438

> <r_epik_State_Penalty>
3.07341

> <r_epik_Charging_Adjusted_Penalty>
3.07341

> <i_epik_Tot_Q>
-1

> <i_epik_Tot_abs_Q>
1

> <r_epik_Metal_State_Penalty>
0.45947

> <b_epik_Metal_Only>
1

> <s_lp_Force_Field>
OPLS_2005

> <r_lp_Energy>
26.9379

> <b_lp_Chiralities_Consistent>
1

> <s_lp_Variant>
AV-unprocessed.smi:1403-7

> <Gold.Version>
5.8.1

> <Gold.Id.Protein>
6NUR|6NUR_protein|mol2

> <Gold.PLP.Fitness>
44.7462

> <Gold.PLP.PLP>
-43.4709

> <Gold.PLP.part.hbond>
-1.2944

> <Gold.PLP.part.metal>
0.0000

> <Gold.PLP.part.buried>
-6.4279

> <Gold.PLP.part.nonpolar>
-35.6599

> <Gold.PLP.part.repulsive>
0.2529

> <Gold.PLP.ligand.clash>
0.0000

> <Gold.PLP.ligand.torsion>
0.7432

> <Gold.PLP.Chemscore.Hbond>
0.9120

> <Gold.PLP.Chemscore.CHOScore>
0.0000

> <Gold.PLP.Chemscore.Metal>
0.0000

> <Gold.Chemscore.Hbonds>
donor molecule, donor type, donor heavy atom, donor atom, acceptor molecule, acceptor atom, score
      P1  H  7989  7998       L1    19  1.00

> <Gold.PLP.Chemscore.Internal.Correction>
0.0257

> <Gold.Rescore>
     Score         DG    S(hbond)    S(metal)    S(lipo)     H(rot)  DE(clash)    DE(int)     intcor
      9.13     -11.60       0.62        0.00      78.21       1.99       0.59       1.89       ----

> <Gold.Chemscore.Fitness>
9.1306

> <Gold.Chemscore.DG>
-11.6044

> <Gold.Chemscore.ZeroCoef>
-5.4800

> <Gold.Chemscore.Hbond>
0.6222

> <Gold.Chemscore.Metal>
0.0000

> <Gold.Chemscore.Lipo>
78.2117

> <Gold.Chemscore.Internal_Hbond>
0.0000

> <Gold.Chemscore.DEClash>
0.5866

> <Gold.Chemscore.DEInternal>
1.8872

> <Gold.Chemscore.Rot>
1.9940

> <Gold.Chemscore.Internal.Correction>
   9.000000E+99

> <Gold.Chemscore.Hbonds>
donor molecule, donor type, donor heavy atom, donor atom, acceptor molecule, acceptor atom, score
      P1  H  7989  7998       L1    19  0.73

> <Gold.Chemscore.Hbond.Weighted>
-2.0783

> <Gold.Chemscore.Metal.Weighted>
-0.0000

> <Gold.Chemscore.Lipo.Weighted>
-9.1508

> <Gold.Chemscore.Internal_Hbond.Weighted>
0.0000

> <Gold.Chemscore.DEClash.Weighted>
0.5866

> <Gold.Chemscore.DEInternal.Weighted>
1.8872

> <Gold.Chemscore.Rot.Weighted>
5.1047

> <Gold.Chemscore.Internal.Correction.Weighted>
   9.000000E+99

> <Gold.Protein.RotatedTorsions>
[ 6907 6896 6895 6894 ] final -159.91 input  -60.11 | X-H torsion
[ 7974 7965 7964 7962 ] final  -61.48 input  175.53 | X-H torsion
[ 8008 7997 7996 7995 ] final  107.24 input   59.86 | X-H torsion
[ 10167 10162 10161 10158 ] final  -89.69 input  -65.29 | X-H torsion
[ 10718 10713 10712 10709 ] final  -91.41 input   66.30 | X-H torsion
[ 10763 10752 10751 10750 ] final -129.52 input  -60.55 | X-H torsion
[ 11005 11000 10999 10996 ] final -159.44 input  -57.11 | X-H torsion

> <Gold.Protein.ActiveResidues>
 VAL166  LYS551  ARG553  GLY616  TRP617  ASP618  TYR619  PRO620  LYS621  CYS622 
 ASP623  PHE694  ASN695  SER759  ASP760  ASP761  ALA762  ILE779  LEU786  VAL792 
 PHE793  MET794  SER795  GLU796  ALA797  LYS798  CYS799  TRP800  GLU811  SER814 

> <Gold.Protein.RotatedAtoms>
  151.3409  133.3963  159.2670 H   0  0  0  0  0  0  0  0  0  0  0  0  # atno 6907 bound_to 6896
  150.9878  134.9221  159.7892 H   0  0  0  0  0  0  0  0  0  0  0  0  # atno 6908 bound_to 6896
  152.5238  134.3374  159.9257 H   0  0  0  0  0  0  0  0  0  0  0  0  # atno 6909 bound_to 6896
  145.8029  140.8644  143.0222 H   0  0  0  0  0  0  0  0  0  0  0  0  # atno 7974 bound_to 7965
  156.1809  140.3098  155.9146 H   0  0  0  0  0  0  0  0  0  0  0  0  # atno 8008 bound_to 7997
  155.3387  140.0464  157.3061 H   0  0  0  0  0  0  0  0  0  0  0  0  # atno 8009 bound_to 7997
  154.5341  140.2240  155.8763 H   0  0  0  0  0  0  0  0  0  0  0  0  # atno 8010 bound_to 7997
  140.3624  143.2835  151.9599 H   0  0  0  0  0  0  0  0  0  0  0  0  # atno 10167 bound_to 10162
  155.9993  130.4947  150.5470 H   0  0  0  0  0  0  0  0  0  0  0  0  # atno 10718 bound_to 10713
  154.8757  135.3892  154.3934 H   0  0  0  0  0  0  0  0  0  0  0  0  # atno 10763 bound_to 10752
  153.4667  135.7029  153.6023 H   0  0  0  0  0  0  0  0  0  0  0  0  # atno 10764 bound_to 10752
  153.4498  135.3836  155.2245 H   0  0  0  0  0  0  0  0  0  0  0  0  # atno 10765 bound_to 10752
  140.6426  134.4535  157.5233 H   0  0  0  0  0  0  0  0  0  0  0  0  # atno 11005 bound_to 11000
  144.6766  140.0285  143.7483 LP  0  0  0  0  0  0  0  0  0  0  0  0  # atno 17320 bound_to 7965
  145.9858  139.2977  143.1014 LP  0  0  0  0  0  0  0  0  0  0  0  0  # atno 17321 bound_to 7965
  139.4812  144.5981  151.7654 LP  0  0  0  0  0  0  0  0  0  0  0  0  # atno 17342 bound_to 10162
  140.5114  144.1019  150.5996 LP  0  0  0  0  0  0  0  0  0  0  0  0  # atno 17343 bound_to 10162
  157.3398  131.0715  151.1796 LP  0  0  0  0  0  0  0  0  0  0  0  0  # atno 17370 bound_to 10713
  157.2649  130.6676  149.5992 LP  0  0  0  0  0  0  0  0  0  0  0  0  # atno 17371 bound_to 10713
  139.9075  134.8417  156.1652 LP  0  0  0  0  0  0  0  0  0  0  0  0  # atno 17394 bound_to 11000
  141.0596  133.6848  156.1926 LP  0  0  0  0  0  0  0  0  0  0  0  0  # atno 17395 bound_to 11000

$$$$
