AV-unprocessed.smi:1428|AV-procd|sdf|5813|dock3
  -GOLD-   22720 5463D 1   1.00000     0.00000
 Structure written by MMmdl.
 43 44  0  0  0  0  0  0  0  0  1 V2000
  153.1549  143.7221  163.3032 C   0  0  0  0  0  0  0  0  0  0  0  0
  153.2249  142.6444  162.3761 O   0  0  0  0  0  0  0  0  0  0  0  0
  152.8166  142.8663  161.0746 C   0  0  0  0  0  0  0  0  0  0  0  0
  152.4474  144.1227  160.7196 N   0  0  0  0  0  0  0  0  0  0  0  0
  152.0534  144.3420  159.4484 C   0  0  0  0  0  0  0  0  0  0  0  0
  152.0119  143.3322  158.4698 C   0  0  0  0  0  0  0  0  0  0  0  0
  152.3946  142.0282  158.8352 C   0  0  0  0  0  0  0  0  0  0  0  0
  152.7970  141.7791  160.1699 C   0  0  0  0  0  0  0  0  0  0  0  0
  153.2239  140.5064  160.6399 N   0  0  0  0  0  0  0  0  0  0  0  0
  153.8237  139.5181  159.9552 C   0  0  0  0  0  0  0  0  0  0  0  0
  154.0737  139.5359  158.7500 O   0  0  0  0  0  0  0  0  0  0  0  0
  154.1080  138.4802  160.7544 N   0  0  0  0  0  0  0  0  0  0  0  0
  154.7569  137.2438  160.3287 C   0  0  0  0  0  0  0  0  0  0  0  0
  154.1506  136.7667  159.0016 C   0  0  0  0  0  0  0  0  0  0  0  0
  154.7241  135.4001  158.5888 C   0  0  0  0  0  0  0  0  0  0  0  0
  154.4722  134.3982  159.6302 N   0  0  0  0  0  0  0  0  0  0  0  0
  154.9186  133.0703  159.1482 C   0  0  0  0  0  0  0  0  0  0  0  0
  154.0403  132.4571  158.0509 C   0  0  0  0  0  0  0  0  0  0  0  0
  154.6509  132.0710  156.9275 N   0  0  0  0  0  0  0  0  0  0  0  0
  152.8300  132.3276  158.2197 O   0  0  0  0  0  0  0  0  0  0  0  0
  155.1342  134.7928  160.8826 C   0  0  0  0  0  0  0  0  0  0  0  0
  154.5821  136.1386  161.3838 C   0  0  0  0  0  0  0  0  0  0  0  0
  153.5166  143.3859  164.2746 H   0  0  0  0  0  0  0  0  0  0  0  0
  152.1288  144.0688  163.4340 H   0  0  0  0  0  0  0  0  0  0  0  0
  153.7800  144.5598  162.9904 H   0  0  0  0  0  0  0  0  0  0  0  0
  151.7689  145.3544  159.2026 H   0  0  0  0  0  0  0  0  0  0  0  0
  151.6991  143.5542  157.4603 H   0  0  0  0  0  0  0  0  0  0  0  0
  152.3864  141.2539  158.0840 H   0  0  0  0  0  0  0  0  0  0  0  0
  152.9972  140.3061  161.6031 H   0  0  0  0  0  0  0  0  0  0  0  0
  153.8625  138.5516  161.7312 H   0  0  0  0  0  0  0  0  0  0  0  0
  155.8217  137.4294  160.1751 H   0  0  0  0  0  0  0  0  0  0  0  0
  153.0655  136.6913  159.0909 H   0  0  0  0  0  0  0  0  0  0  0  0
  154.3458  137.4996  158.2180 H   0  0  0  0  0  0  0  0  0  0  0  0
  154.2523  135.0894  157.6556 H   0  0  0  0  0  0  0  0  0  0  0  0
  155.7944  135.4835  158.3906 H   0  0  0  0  0  0  0  0  0  0  0  0
  155.9289  133.1503  158.7441 H   0  0  0  0  0  0  0  0  0  0  0  0
  154.9759  132.3745  159.9876 H   0  0  0  0  0  0  0  0  0  0  0  0
  154.1122  131.6555  156.1813 H   0  0  0  0  0  0  0  0  0  0  0  0
  155.6490  132.1897  156.8319 H   0  0  0  0  0  0  0  0  0  0  0  0
  154.9685  134.0502  161.6628 H   0  0  0  0  0  0  0  0  0  0  0  0
  156.2137  134.8576  160.7345 H   0  0  0  0  0  0  0  0  0  0  0  0
  155.0879  136.4175  162.3090 H   0  0  0  0  0  0  0  0  0  0  0  0
  153.5258  136.0244  161.6325 H   0  0  0  0  0  0  0  0  0  0  0  0
  1  2  1  0  0  0  0
  1 23  1  0  0  0  0
  1 24  1  0  0  0  0
  1 25  1  0  0  0  0
  2  3  1  0  0  0  0
  3  8  1  0  0  0  0
  3  4  2  0  0  0  0
  4  5  1  0  0  0  0
  5  6  2  0  0  0  0
  5 26  1  0  0  0  0
  6  7  1  0  0  0  0
  6 27  1  0  0  0  0
  7  8  2  0  0  0  0
  7 28  1  0  0  0  0
  8  9  1  0  0  0  0
  9 10  1  0  0  0  0
  9 29  1  0  0  0  0
 10 11  2  0  0  0  0
 10 12  1  0  0  0  0
 12 13  1  0  0  0  0
 12 30  1  0  0  0  0
 13 22  1  0  0  0  0
 13 14  1  0  0  0  0
 13 31  1  0  0  0  0
 14 15  1  0  0  0  0
 14 32  1  0  0  0  0
 14 33  1  0  0  0  0
 15 16  1  0  0  0  0
 15 34  1  0  0  0  0
 15 35  1  0  0  0  0
 16 17  1  0  0  0  0
 16 21  1  0  0  0  0
 17 18  1  0  0  0  0
 17 36  1  0  0  0  0
 17 37  1  0  0  0  0
 18 19  1  0  0  0  0
 18 20  2  0  0  0  0
 19 38  1  0  0  0  0
 19 39  1  0  0  0  0
 21 22  1  0  0  0  0
 21 40  1  0  0  0  0
 21 41  1  0  0  0  0
 22 42  1  0  0  0  0
 22 43  1  0  0  0  0
M  END
> <s_m_source_file>
AV-unprocessed.smi

> <i_m_source_file_index>
1428

> <i_lp_mmshare_version>
43012

> <i_f3d_flags>
0

> <s_epik_input>
W0NIM11PYzFuW2NIXVtjSF1bY0hdYzFbTkhdQyg9TylbTkhdW0NIXTJbQ0gyXVtDSDJdTihbQ0gyXVtDSDJdMilbQ0gyXUMoPU8pW05IMl0=

> <s_epik_cmdline>
J2VwaWtfcHl0aG9uJywgJy1waCcsICc3LjAnLCAnLXRuJywgJzgnLCAnLW1hJywgJzIwMCcsICctbWV0YWxfYmluZGluZycsICctaW1hZScsICc8aW5maWxlLm1hZT4nLCAnLW9tYWUnLCAnPG91dGZpbGUubWFlPic=

> <r_lp_tautomer_probability>
1

> <r_epik_Ionization_Penalty>
0.16483

> <r_epik_Ionization_Penalty_Charging>
0

> <r_epik_Ionization_Penalty_Neutral>
0.16483

> <r_epik_State_Penalty>
0.154069

> <r_epik_Charging_Adjusted_Penalty>
0.154069

> <i_epik_Tot_Q>
0

> <i_epik_Tot_abs_Q>
0

> <r_epik_Metal_State_Penalty>
0.171364

> <b_epik_Metal_Only>
0

> <s_lp_Force_Field>
OPLS_2005

> <r_lp_Energy>
13.8311

> <b_lp_Chiralities_Consistent>
1

> <s_lp_Variant>
AV-unprocessed.smi:1428-1

> <Gold.Version>
5.8.1

> <Gold.Id.Protein>
6NUR|6NUR_protein|mol2

> <Gold.PLP.Fitness>
40.5477

> <Gold.PLP.PLP>
-33.3173

> <Gold.PLP.part.hbond>
-3.0000

> <Gold.PLP.part.metal>
0.0000

> <Gold.PLP.part.buried>
-3.1489

> <Gold.PLP.part.nonpolar>
-26.9144

> <Gold.PLP.part.repulsive>
0.3271

> <Gold.PLP.ligand.clash>
0.0000

> <Gold.PLP.ligand.torsion>
0.5294

> <Gold.PLP.Chemscore.Hbond>
2.7600

> <Gold.PLP.Chemscore.CHOScore>
0.0000

> <Gold.PLP.Chemscore.Metal>
0.0000

> <Gold.Chemscore.Hbonds>
donor molecule, donor type, donor heavy atom, donor atom, acceptor molecule, acceptor atom, score
      P1  H  6896  6907       L1    20  0.77
      P1  H  6896  6909       L1    16  0.99
      P1  H  7997  8009       L1    11  1.00

> <Gold.PLP.Chemscore.Internal.Correction>
0.0091

> <Gold.Rescore>
     Score         DG    S(hbond)    S(metal)    S(lipo)     H(rot)  DE(clash)    DE(int)     intcor
     12.84     -16.12       2.06        0.00      82.31       2.29       0.20       3.08       ----

> <Gold.Chemscore.Fitness>
12.8397

> <Gold.Chemscore.DG>
-16.1174

> <Gold.Chemscore.ZeroCoef>
-5.4800

> <Gold.Chemscore.Hbond>
2.0605

> <Gold.Chemscore.Metal>
0.0000

> <Gold.Chemscore.Lipo>
82.3097

> <Gold.Chemscore.Internal_Hbond>
0.0000

> <Gold.Chemscore.DEClash>
0.1974

> <Gold.Chemscore.DEInternal>
3.0803

> <Gold.Chemscore.Rot>
2.2949

> <Gold.Chemscore.Internal.Correction>
   9.000000E+99

> <Gold.Chemscore.Hbonds>
donor molecule, donor type, donor heavy atom, donor atom, acceptor molecule, acceptor atom, score
      P1  H  6896  6907       L1    20  0.76
      P1  H  6896  6909       L1    16  0.20
      P1  H  7997  8009       L1    11  1.00

> <Gold.Chemscore.Hbond.Weighted>
-6.8822

> <Gold.Chemscore.Metal.Weighted>
-0.0000

> <Gold.Chemscore.Lipo.Weighted>
-9.6302

> <Gold.Chemscore.Internal_Hbond.Weighted>
0.0000

> <Gold.Chemscore.DEClash.Weighted>
0.1974

> <Gold.Chemscore.DEInternal.Weighted>
3.0803

> <Gold.Chemscore.Rot.Weighted>
5.8750

> <Gold.Chemscore.Internal.Correction.Weighted>
   9.000000E+99

> <Gold.Protein.RotatedTorsions>
[ 6907 6896 6895 6894 ] final -172.35 input  -60.11 | X-H torsion
[ 7974 7965 7964 7962 ] final  -32.38 input  175.53 | X-H torsion
[ 8008 7997 7996 7995 ] final  130.17 input   59.86 | X-H torsion
[ 10167 10162 10161 10158 ] final -174.11 input  -65.29 | X-H torsion
[ 10718 10713 10712 10709 ] final  114.17 input   66.30 | X-H torsion
[ 10763 10752 10751 10750 ] final   81.66 input  -60.55 | X-H torsion
[ 11005 11000 10999 10996 ] final  -71.69 input  -57.11 | X-H torsion

> <Gold.Protein.ActiveResidues>
 VAL166  LYS551  ARG553  GLY616  TRP617  ASP618  TYR619  PRO620  LYS621  CYS622 
 ASP623  PHE694  ASN695  SER759  ASP760  ASP761  ALA762  ILE779  LEU786  VAL792 
 PHE793  MET794  SER795  GLU796  ALA797  LYS798  CYS799  TRP800  GLU811  SER814 

> <Gold.Protein.RotatedAtoms>
  151.5385  133.3437  159.2930 H   0  0  0  0  0  0  0  0  0  0  0  0  # atno 6907 bound_to 6896
  150.8550  134.7889  159.7049 H   0  0  0  0  0  0  0  0  0  0  0  0  # atno 6908 bound_to 6896
  152.4586  134.5244  159.9844 H   0  0  0  0  0  0  0  0  0  0  0  0  # atno 6909 bound_to 6896
  146.0994  140.5786  142.8828 H   0  0  0  0  0  0  0  0  0  0  0  0  # atno 7974 bound_to 7965
  156.2949  140.2602  156.2717 H   0  0  0  0  0  0  0  0  0  0  0  0  # atno 8008 bound_to 7997
  154.9688  140.0391  157.2243 H   0  0  0  0  0  0  0  0  0  0  0  0  # atno 8009 bound_to 7997
  154.7878  140.2806  155.6019 H   0  0  0  0  0  0  0  0  0  0  0  0  # atno 8010 bound_to 7997
  139.5651  144.1774  152.1300 H   0  0  0  0  0  0  0  0  0  0  0  0  # atno 10167 bound_to 10162
  157.6297  131.0994  150.7147 H   0  0  0  0  0  0  0  0  0  0  0  0  # atno 10718 bound_to 10713
  153.1136  135.4757  154.9077 H   0  0  0  0  0  0  0  0  0  0  0  0  # atno 10763 bound_to 10752
  154.7505  135.3105  154.8568 H   0  0  0  0  0  0  0  0  0  0  0  0  # atno 10764 bound_to 10752
  153.9150  135.6861  153.4803 H   0  0  0  0  0  0  0  0  0  0  0  0  # atno 10765 bound_to 10752
  141.1596  133.6825  156.6945 H   0  0  0  0  0  0  0  0  0  0  0  0  # atno 11005 bound_to 11000
  144.7421  140.4969  143.6862 LP  0  0  0  0  0  0  0  0  0  0  0  0  # atno 17320 bound_to 7965
  145.5884  139.1494  143.3196 LP  0  0  0  0  0  0  0  0  0  0  0  0  # atno 17321 bound_to 7965
  140.1296  144.5300  150.6811 LP  0  0  0  0  0  0  0  0  0  0  0  0  # atno 17342 bound_to 10162
  140.6934  143.2389  151.5068 LP  0  0  0  0  0  0  0  0  0  0  0  0  # atno 17343 bound_to 10162
  156.7489  130.4762  149.5461 LP  0  0  0  0  0  0  0  0  0  0  0  0  # atno 17370 bound_to 10713
  156.1491  130.6298  151.0572 LP  0  0  0  0  0  0  0  0  0  0  0  0  # atno 17371 bound_to 10713
  140.3006  134.8167  157.4094 LP  0  0  0  0  0  0  0  0  0  0  0  0  # atno 17394 bound_to 11000
  140.1266  134.5150  155.8140 LP  0  0  0  0  0  0  0  0  0  0  0  0  # atno 17395 bound_to 11000

$$$$
