AV-unprocessed.smi:290|AV-procd|sdf|2243|dock6
  -GOLD-   2262022123D 1   1.00000     0.00000
 Structure written by MMmdl.
 59 62  0  0  0  0  0  0  0  0  2 V2000
  152.8547  144.4731  157.8248 C   0  0  0  0  0  0  0  0  0  0  0  0
  152.2379  143.5688  158.9034 C   0  0  2  0  0  0  0  0  0  0  0  0
  153.2919  142.8073  159.4865 O   0  0  0  0  0  0  0  0  0  0  0  0
  152.7664  141.5703  159.9333 C   0  0  0  0  0  0  0  0  0  0  0  0
  151.8194  141.1943  158.8043 C   0  0  0  0  0  0  0  0  0  0  0  0
  151.1813  142.5301  158.4299 C   0  0  1  0  0  0  0  0  0  0  0  0
  150.0244  142.6931  159.2337 O   0  0  0  0  0  0  0  0  0  0  0  0
  150.7518  142.6138  156.9414 C   0  0  0  0  0  0  0  0  0  0  0  0
  149.7790  141.6001  156.5635 N   0  0  0  0  0  0  0  0  0  0  0  0
  148.4596  141.5366  156.9499 C   0  0  0  0  0  0  0  0  0  0  0  0
  147.7871  140.5275  156.4681 N   0  0  0  0  0  0  0  0  0  0  0  0
  148.7128  139.8393  155.6915 C   0  0  0  0  0  0  0  0  0  0  0  0
  148.6566  138.6632  154.8884 C   0  0  0  0  0  0  0  0  0  0  0  0
  147.5162  137.9416  154.7166 N   0  0  0  0  0  0  0  0  0  0  0  0
  147.1511  137.0158  155.7884 C   0  0  0  0  0  0  0  0  0  0  0  0
  145.6448  137.1908  156.0205 C   0  0  0  0  0  0  0  0  0  0  0  0
  145.3426  138.5498  155.3742 C   0  0  2  0  0  0  0  0  0  0  0  0
  143.9108  138.8001  155.0413 N   0  3  2  0  0  0  0  0  0  0  0  0
  143.1749  139.4981  156.1252 C   0  0  0  0  0  0  0  0  0  0  0  0
  143.1686  137.6206  154.5086 C   0  0  0  0  0  0  0  0  0  0  0  0
  141.7675  137.9231  153.9313 C   0  0  0  0  0  0  0  0  0  0  0  0
  141.8410  138.7356  152.7797 O   0  0  0  0  0  0  0  0  0  0  0  0
  146.2980  138.5348  154.1657 C   0  0  2  0  0  0  0  0  0  0  0  0
  145.8072  137.6915  152.9696 C   0  0  0  0  0  0  0  0  0  0  0  0
  149.8079  138.2750  154.2780 N   0  0  0  0  0  0  0  0  0  0  0  0
  150.9298  138.9853  154.4268 C   0  0  0  0  0  0  0  0  0  0  0  0
  151.1224  140.1009  155.1314 N   0  0  0  0  0  0  0  0  0  0  0  0
  149.9751  140.4954  155.7536 C   0  0  0  0  0  0  0  0  0  0  0  0
  145.6783  139.3347  156.0546 H   0  0  0  0  0  0  0  0  0  0  0  0
  146.4456  139.5534  153.8093 H   0  0  0  0  0  0  0  0  0  0  0  0
  152.0991  145.0968  157.3471 H   0  0  0  0  0  0  0  0  0  0  0  0
  153.3573  143.8906  157.0524 H   0  0  0  0  0  0  0  0  0  0  0  0
  153.5970  145.1408  158.2627 H   0  0  0  0  0  0  0  0  0  0  0  0
  151.8209  144.2045  159.6869 H   0  0  0  0  0  0  0  0  0  0  0  0
  153.5519  140.8312  160.0914 H   0  0  0  0  0  0  0  0  0  0  0  0
  152.2272  141.7125  160.8714 H   0  0  0  0  0  0  0  0  0  0  0  0
  152.4073  140.8117  157.9688 H   0  0  0  0  0  0  0  0  0  0  0  0
  151.1005  140.4230  159.0849 H   0  0  0  0  0  0  0  0  0  0  0  0
  149.2818  142.3394  158.7679 H   0  0  0  0  0  0  0  0  0  0  0  0
  150.3252  143.5933  156.7214 H   0  0  0  0  0  0  0  0  0  0  0  0
  151.6165  142.4992  156.2872 H   0  0  0  0  0  0  0  0  0  0  0  0
  148.0062  142.2696  157.6011 H   0  0  0  0  0  0  0  0  0  0  0  0
  147.3969  135.9892  155.5156 H   0  0  0  0  0  0  0  0  0  0  0  0
  147.6897  137.2576  156.7061 H   0  0  0  0  0  0  0  0  0  0  0  0
  145.0968  136.3939  155.5165 H   0  0  0  0  0  0  0  0  0  0  0  0
  145.3900  137.1488  157.0792 H   0  0  0  0  0  0  0  0  0  0  0  0
  143.2242  138.9440  157.0629 H   0  0  0  0  0  0  0  0  0  0  0  0
  142.1256  139.6322  155.8605 H   0  0  0  0  0  0  0  0  0  0  0  0
  143.5869  140.4898  156.3087 H   0  0  0  0  0  0  0  0  0  0  0  0
  143.7794  137.1998  153.7090 H   0  0  0  0  0  0  0  0  0  0  0  0
  143.1092  136.8312  155.2581 H   0  0  0  0  0  0  0  0  0  0  0  0
  141.1994  137.0195  153.7139 H   0  0  0  0  0  0  0  0  0  0  0  0
  141.1898  138.4751  154.6729 H   0  0  0  0  0  0  0  0  0  0  0  0
  142.5207  139.3806  152.9063 H   0  0  0  0  0  0  0  0  0  0  0  0
  144.8866  138.0874  152.5421 H   0  0  0  0  0  0  0  0  0  0  0  0
  145.6241  136.6522  153.2425 H   0  0  0  0  0  0  0  0  0  0  0  0
  146.5532  137.6894  152.1743 H   0  0  0  0  0  0  0  0  0  0  0  0
  151.7961  138.6072  153.9042 H   0  0  0  0  0  0  0  0  0  0  0  0
  143.9337  139.4533  154.2711 H   0  0  0  0  0  0  0  0  0  0  0  0
  1  2  1  0  0  0  0
  1 31  1  0  0  0  0
  1 32  1  0  0  0  0
  1 33  1  0  0  0  0
  2  6  1  0  0  0  0
  2  3  1  0  0  0  0
  2 34  1  0  0  0  0
  3  4  1  0  0  0  0
  4  5  1  0  0  0  0
  4 35  1  0  0  0  0
  4 36  1  0  0  0  0
  5  6  1  0  0  0  0
  5 37  1  0  0  0  0
  5 38  1  0  0  0  0
  6  7  1  0  0  0  0
  6  8  1  0  0  0  0
  7 39  1  0  0  0  0
  8  9  1  0  0  0  0
  8 40  1  0  0  0  0
  8 41  1  0  0  0  0
  9 28  1  0  0  0  0
  9 10  1  0  0  0  0
 10 11  2  0  0  0  0
 10 42  1  0  0  0  0
 11 12  1  0  0  0  0
 12 28  2  0  0  0  0
 12 13  1  0  0  0  0
 13 14  1  0  0  0  0
 13 25  2  0  0  0  0
 14 23  1  0  0  0  0
 14 15  1  0  0  0  0
 15 16  1  0  0  0  0
 15 43  1  0  0  0  0
 15 44  1  0  0  0  0
 16 17  1  0  0  0  0
 16 45  1  0  0  0  0
 16 46  1  0  0  0  0
 17 29  1  0  0  0  0
 17 18  1  0  0  0  0
 17 23  1  0  0  0  0
 18 19  1  0  0  0  0
 18 20  1  0  0  0  0
 18 59  1  0  0  0  0
 19 47  1  0  0  0  0
 19 48  1  0  0  0  0
 19 49  1  0  0  0  0
 20 21  1  0  0  0  0
 20 50  1  0  0  0  0
 20 51  1  0  0  0  0
 21 22  1  0  0  0  0
 21 52  1  0  0  0  0
 21 53  1  0  0  0  0
 22 54  1  0  0  0  0
 23 30  1  0  0  0  0
 23 24  1  0  0  0  0
 24 55  1  0  0  0  0
 24 56  1  0  0  0  0
 24 57  1  0  0  0  0
 25 26  1  0  0  0  0
 26 27  2  0  0  0  0
 26 58  1  0  0  0  0
 27 28  1  0  0  0  0
M  CHG  1  18   1
M  END
> <s_m_source_file>
AV-unprocessed.smi

> <i_m_source_file_index>
290

> <i_lp_mmshare_version>
43012

> <i_f3d_flags>
0

> <s_epik_input>
W0NIMl0xW0NIMl1PW0NAQEhdKFtDSDNdKVtDQEBdMShbT0hdKVtDSDJdbihbY0hdbjIpYyhjMjMpbltjSF1uYzNONFtDSDJdW0NIMl1bQ0BIXShbQ0BIXTRbQ0gzXSlOKFtDSDNdKVtDSDJdW0NIMl1bT0hd

> <s_epik_cmdline>
J2VwaWtfcHl0aG9uJywgJy1waCcsICc3LjAnLCAnLXRuJywgJzgnLCAnLW1hJywgJzIwMCcsICctbWV0YWxfYmluZGluZycsICctaW1hZScsICc8aW5maWxlLm1hZT4nLCAnLW9tYWUnLCAnPG91dGZpbGUubWFlPic=

> <r_lp_tautomer_probability>
1

> <r_epik_Ionization_Penalty>
0.0036983

> <r_epik_Ionization_Penalty_Charging>
0.0032725

> <r_epik_Ionization_Penalty_Neutral>
0.000425798

> <r_epik_State_Penalty>
-0

> <r_epik_Charging_Adjusted_Penalty>
0.0032725

> <i_epik_Tot_Q>
1

> <i_epik_Tot_abs_Q>
1

> <r_epik_Metal_State_Penalty>
-0

> <b_epik_Metal_Only>
0

> <s_lp_Force_Field>
OPLS_2005

> <r_lp_Energy>
63.2975

> <b_lp_Chiralities_Consistent>
1

> <s_lp_Variant>
AV-unprocessed.smi:290-29

> <Gold.Version>
5.8.1

> <Gold.Id.Protein>
6NUR|6NUR_protein|mol2

> <Gold.PLP.Fitness>
45.3092

> <Gold.PLP.PLP>
-36.8054

> <Gold.PLP.part.hbond>
-4.6621

> <Gold.PLP.part.metal>
0.0000

> <Gold.PLP.part.buried>
-5.7755

> <Gold.PLP.part.nonpolar>
-27.5687

> <Gold.PLP.part.repulsive>
0.4031

> <Gold.PLP.ligand.clash>
0.0000

> <Gold.PLP.ligand.torsion>
1.0222

> <Gold.PLP.Chemscore.Hbond>
3.3250

> <Gold.PLP.Chemscore.CHOScore>
0.0000

> <Gold.PLP.Chemscore.Metal>
0.0000

> <Gold.Chemscore.Hbonds>
donor molecule, donor type, donor heavy atom, donor atom, acceptor molecule, acceptor atom, score
      L1  H    18    59       P1 10175  1.85
      L1  H    22    54       P1 10175  1.00
      P1  H  7989  7998       L1    27  0.30

> <Gold.PLP.Chemscore.Internal.Correction>
0.5731

> <Gold.Rescore>
     Score         DG    S(hbond)    S(metal)    S(lipo)     H(rot)  DE(clash)    DE(int)     intcor
      9.43     -12.27       1.99        0.00      81.40       3.67       0.61       2.22       ----

> <Gold.Chemscore.Fitness>
9.4350

> <Gold.Chemscore.DG>
-12.2678

> <Gold.Chemscore.ZeroCoef>
-5.4800

> <Gold.Chemscore.Hbond>
1.9906

> <Gold.Chemscore.Metal>
0.0000

> <Gold.Chemscore.Lipo>
81.3991

> <Gold.Chemscore.Internal_Hbond>
0.0000

> <Gold.Chemscore.DEClash>
0.6103

> <Gold.Chemscore.DEInternal>
2.2225

> <Gold.Chemscore.Rot>
3.6658

> <Gold.Chemscore.Internal.Correction>
   9.000000E+99

> <Gold.Chemscore.Hbonds>
donor molecule, donor type, donor heavy atom, donor atom, acceptor molecule, acceptor atom, score
      L1  H    18    59       P1 10175  0.89
      L1  H    22    54       P1 10175  0.94

> <Gold.Chemscore.Hbond.Weighted>
-6.6485

> <Gold.Chemscore.Metal.Weighted>
-0.0000

> <Gold.Chemscore.Lipo.Weighted>
-9.5237

> <Gold.Chemscore.Internal_Hbond.Weighted>
0.0000

> <Gold.Chemscore.DEClash.Weighted>
0.6103

> <Gold.Chemscore.DEInternal.Weighted>
2.2225

> <Gold.Chemscore.Rot.Weighted>
9.3844

> <Gold.Chemscore.Internal.Correction.Weighted>
   9.000000E+99

> <Gold.Protein.RotatedTorsions>
[ 6907 6896 6895 6894 ] final  -82.68 input  -60.11 | X-H torsion
[ 7974 7965 7964 7962 ] final -122.24 input  175.53 | X-H torsion
[ 8008 7997 7996 7995 ] final  -75.34 input   59.86 | X-H torsion
[ 10167 10162 10161 10158 ] final   -6.17 input  -65.29 | X-H torsion
[ 10718 10713 10712 10709 ] final  175.79 input   66.30 | X-H torsion
[ 10763 10752 10751 10750 ] final  -21.05 input  -60.55 | X-H torsion
[ 11005 11000 10999 10996 ] final  -85.15 input  -57.11 | X-H torsion

> <Gold.Protein.ActiveResidues>
 VAL166  LYS551  ARG553  GLY616  TRP617  ASP618  TYR619  PRO620  LYS621  CYS622 
 ASP623  PHE694  ASN695  SER759  ASP760  ASP761  ALA762  ILE779  LEU786  VAL792 
 PHE793  MET794  SER795  GLU796  ALA797  LYS798  CYS799  TRP800  GLU811  SER814 

> <Gold.Protein.RotatedAtoms>
  150.6894  134.3628  159.4957 H   0  0  0  0  0  0  0  0  0  0  0  0  # atno 6907 bound_to 6896
  152.1454  134.9027  160.0560 H   0  0  0  0  0  0  0  0  0  0  0  0  # atno 6908 bound_to 6896
  152.0144  133.3839  159.4270 H   0  0  0  0  0  0  0  0  0  0  0  0  # atno 6909 bound_to 6896
  145.0316  140.8072  143.4320 H   0  0  0  0  0  0  0  0  0  0  0  0  # atno 7974 bound_to 7965
  154.5408  140.0746  156.8507 H   0  0  0  0  0  0  0  0  0  0  0  0  # atno 8008 bound_to 7997
  155.3184  140.3394  155.4223 H   0  0  0  0  0  0  0  0  0  0  0  0  # atno 8009 bound_to 7997
  156.1872  140.1673  156.8148 H   0  0  0  0  0  0  0  0  0  0  0  0  # atno 8010 bound_to 7997
  140.6988  143.6224  150.8600 H   0  0  0  0  0  0  0  0  0  0  0  0  # atno 10167 bound_to 10162
  156.9296  130.9967  151.2989 H   0  0  0  0  0  0  0  0  0  0  0  0  # atno 10718 bound_to 10713
  153.6301  135.6989  153.5278 H   0  0  0  0  0  0  0  0  0  0  0  0  # atno 10763 bound_to 10752
  153.2866  135.4169  155.1128 H   0  0  0  0  0  0  0  0  0  0  0  0  # atno 10764 bound_to 10752
  154.8524  135.3615  154.5843 H   0  0  0  0  0  0  0  0  0  0  0  0  # atno 10765 bound_to 10752
  141.1644  133.7384  156.8973 H   0  0  0  0  0  0  0  0  0  0  0  0  # atno 11005 bound_to 11000
  145.1764  139.2376  143.5315 LP  0  0  0  0  0  0  0  0  0  0  0  0  # atno 17320 bound_to 7965
  146.3499  140.1527  142.8592 LP  0  0  0  0  0  0  0  0  0  0  0  0  # atno 17321 bound_to 7965
  139.9945  143.5811  152.2898 LP  0  0  0  0  0  0  0  0  0  0  0  0  # atno 17342 bound_to 10162
  139.6478  144.7659  151.2208 LP  0  0  0  0  0  0  0  0  0  0  0  0  # atno 17343 bound_to 10162
  157.5855  130.8407  149.8583 LP  0  0  0  0  0  0  0  0  0  0  0  0  # atno 17370 bound_to 10713
  156.0453  130.3729  150.1333 LP  0  0  0  0  0  0  0  0  0  0  0  0  # atno 17371 bound_to 10713
  140.1607  134.9167  157.2711 LP  0  0  0  0  0  0  0  0  0  0  0  0  # atno 17394 bound_to 11000
  140.2615  134.3566  155.7405 LP  0  0  0  0  0  0  0  0  0  0  0  0  # atno 17395 bound_to 11000

$$$$
