AV-unprocessed.smi:3199|AV-procd|sdf|12233|dock7
  -GOLD-   2272018 63D 1   1.00000     0.00000
 Structure written by MMmdl.
 36 37  0  0  0  0  0  0  0  0  2 V2000
  146.5201  138.6672  152.0040 C   0  0  0  0  0  0  0  0  0  0  0  0
  147.4489  139.4210  152.9320 C   0  0  0  0  0  0  0  0  0  0  0  0
  147.1981  140.7510  153.3332 C   0  0  0  0  0  0  0  0  0  0  0  0
  148.1064  141.3918  154.2016 C   0  0  0  0  0  0  0  0  0  0  0  0
  149.2469  140.6902  154.6507 C   0  0  0  0  0  0  0  0  0  0  0  0
  150.2456  141.3461  155.5839 C   0  0  0  0  0  0  0  0  0  0  0  0
  149.6720  141.5530  156.9958 C   0  0  0  0  0  0  0  0  0  0  0  0
  150.4788  142.4869  157.7720 N   0  0  0  0  0  0  0  0  0  0  0  0
  151.7094  142.2325  158.2458 C   0  0  0  0  0  0  0  0  0  0  0  0
  152.2918  141.1651  158.0516 O   0  0  0  0  0  0  0  0  0  0  0  0
  152.4017  143.3526  159.0367 C   0  0  2  0  0  0  0  0  0  0  0  0
  152.8008  142.9658  160.4742 C   0  0  0  0  0  0  0  0  0  0  0  0
  152.1569  144.0356  161.3409 C   0  0  0  0  0  0  0  0  0  0  0  0
  151.9027  145.1673  160.3547 C   0  0  0  0  0  0  0  0  0  0  0  0
  151.5256  144.4690  159.1811 O   0  0  0  0  0  0  0  0  0  0  0  0
  149.4446  139.3615  154.2178 C   0  0  0  0  0  0  0  0  0  0  0  0
  148.5508  138.7828  153.3864 N   0  3  0  0  0  0  0  0  0  0  0  0
  145.8327  139.3482  151.5011 H   0  0  0  0  0  0  0  0  0  0  0  0
  145.9327  137.9408  152.5660 H   0  0  0  0  0  0  0  0  0  0  0  0
  147.0879  138.1345  151.2406 H   0  0  0  0  0  0  0  0  0  0  0  0
  146.3215  141.2756  152.9815 H   0  0  0  0  0  0  0  0  0  0  0  0
  147.9273  142.4093  154.5173 H   0  0  0  0  0  0  0  0  0  0  0  0
  151.1396  140.7223  155.6245 H   0  0  0  0  0  0  0  0  0  0  0  0
  150.5591  142.3029  155.1639 H   0  0  0  0  0  0  0  0  0  0  0  0
  148.6580  141.9488  156.9320 H   0  0  0  0  0  0  0  0  0  0  0  0
  149.6011  140.6011  157.5249 H   0  0  0  0  0  0  0  0  0  0  0  0
  150.0731  143.3893  157.9758 H   0  0  0  0  0  0  0  0  0  0  0  0
  153.2851  143.6780  158.4850 H   0  0  0  0  0  0  0  0  0  0  0  0
  152.4660  141.9720  160.7748 H   0  0  0  0  0  0  0  0  0  0  0  0
  153.8861  142.9906  160.5776 H   0  0  0  0  0  0  0  0  0  0  0  0
  151.2076  143.6708  161.7353 H   0  0  0  0  0  0  0  0  0  0  0  0
  152.7814  144.3369  162.1823 H   0  0  0  0  0  0  0  0  0  0  0  0
  151.1214  145.8509  160.6871 H   0  0  0  0  0  0  0  0  0  0  0  0
  152.8125  145.7403  160.1689 H   0  0  0  0  0  0  0  0  0  0  0  0
  150.2843  138.7478  154.5105 H   0  0  0  0  0  0  0  0  0  0  0  0
  148.7148  137.8210  153.0879 H   0  0  0  0  0  0  0  0  0  0  0  0
  1  2  1  0  0  0  0
  1 18  1  0  0  0  0
  1 19  1  0  0  0  0
  1 20  1  0  0  0  0
  2 17  1  0  0  0  0
  2  3  2  0  0  0  0
  3  4  1  0  0  0  0
  3 21  1  0  0  0  0
  4  5  2  0  0  0  0
  4 22  1  0  0  0  0
  5  6  1  0  0  0  0
  5 16  1  0  0  0  0
  6  7  1  0  0  0  0
  6 23  1  0  0  0  0
  6 24  1  0  0  0  0
  7  8  1  0  0  0  0
  7 25  1  0  0  0  0
  7 26  1  0  0  0  0
  8  9  1  0  0  0  0
  8 27  1  0  0  0  0
  9 10  2  0  0  0  0
  9 11  1  0  0  0  0
 11 15  1  0  0  0  0
 11 12  1  0  0  0  0
 11 28  1  0  0  0  0
 12 13  1  0  0  0  0
 12 29  1  0  0  0  0
 12 30  1  0  0  0  0
 13 14  1  0  0  0  0
 13 31  1  0  0  0  0
 13 32  1  0  0  0  0
 14 15  1  0  0  0  0
 14 33  1  0  0  0  0
 14 34  1  0  0  0  0
 16 17  2  0  0  0  0
 16 35  1  0  0  0  0
 17 36  1  0  0  0  0
M  CHG  1  17   1
M  END
> <s_m_source_file>
AV-unprocessed.smi

> <i_m_source_file_index>
3199

> <i_lp_mmshare_version>
43012

> <i_f3d_flags>
0

> <s_epik_input>
W0NIM11jMVtjSF1bY0hdYyhbY0hdbjEpW0NIMl1bQ0gyXVtOSF1DKD1PKVtDQEBIXTJbQ0gyXVtDSDJdW0NIMl1PMg==

> <s_epik_cmdline>
J2VwaWtfcHl0aG9uJywgJy1waCcsICc3LjAnLCAnLXRuJywgJzgnLCAnLW1hJywgJzIwMCcsICctbWV0YWxfYmluZGluZycsICctaW1hZScsICc8aW5maWxlLm1hZT4nLCAnLW9tYWUnLCAnPG91dGZpbGUubWFlPic=

> <r_epik_Ionization_Penalty>
1.4683

> <r_epik_Ionization_Penalty_Charging>
1.4683

> <r_epik_Ionization_Penalty_Neutral>
5.71603e-08

> <r_epik_State_Penalty>
1.5559

> <r_epik_Charging_Adjusted_Penalty>
3.0242

> <i_epik_Tot_Q>
1

> <i_epik_Tot_abs_Q>
1

> <r_epik_Metal_State_Penalty>
1.60421

> <b_epik_Metal_Only>
0

> <s_lp_Force_Field>
OPLS_2005

> <r_lp_Energy>
23.6243

> <b_lp_Chiralities_Consistent>
1

> <s_lp_Variant>
AV-unprocessed.smi:3199-3

> <Gold.Version>
5.8.1

> <Gold.Id.Protein>
6NUR|6NUR_protein|mol2

> <Gold.PLP.Fitness>
47.7202

> <Gold.PLP.PLP>
-42.1468

> <Gold.PLP.part.hbond>
-2.0000

> <Gold.PLP.part.metal>
0.0000

> <Gold.PLP.part.buried>
-3.1273

> <Gold.PLP.part.nonpolar>
-37.3146

> <Gold.PLP.part.repulsive>
0.1596

> <Gold.PLP.ligand.clash>
0.0000

> <Gold.PLP.ligand.torsion>
0.2157

> <Gold.PLP.Chemscore.Hbond>
2.0000

> <Gold.PLP.Chemscore.CHOScore>
0.0000

> <Gold.PLP.Chemscore.Metal>
0.0000

> <Gold.Chemscore.Hbonds>
donor molecule, donor type, donor heavy atom, donor atom, acceptor molecule, acceptor atom, score
      L1  H    17    36       P1  7948  2.00

> <Gold.PLP.Chemscore.Internal.Correction>
0.0049

> <Gold.Rescore>
     Score         DG    S(hbond)    S(metal)    S(lipo)     H(rot)  DE(clash)    DE(int)     intcor
     16.09     -17.71       0.99        0.00     110.51       1.56       1.52       0.10       ----

> <Gold.Chemscore.Fitness>
16.0889

> <Gold.Chemscore.DG>
-17.7099

> <Gold.Chemscore.ZeroCoef>
-5.4800

> <Gold.Chemscore.Hbond>
0.9871

> <Gold.Chemscore.Metal>
0.0000

> <Gold.Chemscore.Lipo>
110.5124

> <Gold.Chemscore.Internal_Hbond>
0.0000

> <Gold.Chemscore.DEClash>
1.5184

> <Gold.Chemscore.DEInternal>
0.1026

> <Gold.Chemscore.Rot>
1.5613

> <Gold.Chemscore.Internal.Correction>
   9.000000E+99

> <Gold.Chemscore.Hbonds>
donor molecule, donor type, donor heavy atom, donor atom, acceptor molecule, acceptor atom, score
      L1  H    17    36       P1  7948  0.95

> <Gold.Chemscore.Hbond.Weighted>
-3.2969

> <Gold.Chemscore.Metal.Weighted>
-0.0000

> <Gold.Chemscore.Lipo.Weighted>
-12.9299

> <Gold.Chemscore.Internal_Hbond.Weighted>
0.0000

> <Gold.Chemscore.DEClash.Weighted>
1.5184

> <Gold.Chemscore.DEInternal.Weighted>
0.1026

> <Gold.Chemscore.Rot.Weighted>
3.9969

> <Gold.Chemscore.Internal.Correction.Weighted>
   9.000000E+99

> <Gold.Protein.RotatedTorsions>
[ 6907 6896 6895 6894 ] final  178.07 input  -60.11 | X-H torsion
[ 7974 7965 7964 7962 ] final   64.94 input  175.53 | X-H torsion
[ 8008 7997 7996 7995 ] final  161.08 input   59.86 | X-H torsion
[ 10167 10162 10161 10158 ] final  -26.74 input  -65.29 | X-H torsion
[ 10718 10713 10712 10709 ] final   43.89 input   66.30 | X-H torsion
[ 10763 10752 10751 10750 ] final  -13.93 input  -60.55 | X-H torsion
[ 11005 11000 10999 10996 ] final   74.43 input  -57.11 | X-H torsion

> <Gold.Protein.ActiveResidues>
 VAL166  LYS551  ARG553  GLY616  TRP617  ASP618  TYR619  PRO620  LYS621  CYS622 
 ASP623  PHE694  ASN695  SER759  ASP760  ASP761  ALA762  ILE779  LEU786  VAL792 
 PHE793  MET794  SER795  GLU796  ALA797  LYS798  CYS799  TRP800  GLU811  SER814 

> <Gold.Protein.RotatedAtoms>
  151.6938  133.3311  159.3249 H   0  0  0  0  0  0  0  0  0  0  0  0  # atno 6907 bound_to 6896
  150.7767  134.6675  159.6383 H   0  0  0  0  0  0  0  0  0  0  0  0  # atno 6908 bound_to 6896
  152.3811  134.6592  160.0194 H   0  0  0  0  0  0  0  0  0  0  0  0  # atno 6909 bound_to 6896
  145.8443  139.3214  143.0913 H   0  0  0  0  0  0  0  0  0  0  0  0  # atno 7974 bound_to 7965
  156.2128  140.1787  156.7656 H   0  0  0  0  0  0  0  0  0  0  0  0  # atno 8008 bound_to 7997
  154.5747  140.0676  156.9046 H   0  0  0  0  0  0  0  0  0  0  0  0  # atno 8009 bound_to 7997
  155.2609  140.3335  155.4276 H   0  0  0  0  0  0  0  0  0  0  0  0  # atno 8010 bound_to 7997
  140.7281  143.4152  151.1040 H   0  0  0  0  0  0  0  0  0  0  0  0  # atno 10167 bound_to 10162
  157.4209  130.7968  149.7514 H   0  0  0  0  0  0  0  0  0  0  0  0  # atno 10718 bound_to 10713
  153.5206  135.7015  153.5733 H   0  0  0  0  0  0  0  0  0  0  0  0  # atno 10763 bound_to 10752
  153.3783  135.3926  155.1839 H   0  0  0  0  0  0  0  0  0  0  0  0  # atno 10764 bound_to 10752
  154.8695  135.3829  154.4695 H   0  0  0  0  0  0  0  0  0  0  0  0  # atno 10765 bound_to 10752
  139.9391  134.7432  156.1147 H   0  0  0  0  0  0  0  0  0  0  0  0  # atno 11005 bound_to 11000
  145.9430  140.8965  143.0298 LP  0  0  0  0  0  0  0  0  0  0  0  0  # atno 17320 bound_to 7965
  144.6732  140.1575  143.7425 LP  0  0  0  0  0  0  0  0  0  0  0  0  # atno 17321 bound_to 7965
  139.7791  143.8381  152.3134 LP  0  0  0  0  0  0  0  0  0  0  0  0  # atno 17342 bound_to 10162
  139.8326  144.7246  150.9431 LP  0  0  0  0  0  0  0  0  0  0  0  0  # atno 17343 bound_to 10162
  155.9880  130.3962  150.3138 LP  0  0  0  0  0  0  0  0  0  0  0  0  # atno 17370 bound_to 10713
  157.1286  131.0265  151.2979 LP  0  0  0  0  0  0  0  0  0  0  0  0  # atno 17371 bound_to 10713
  141.1018  133.6674  156.2773 LP  0  0  0  0  0  0  0  0  0  0  0  0  # atno 17394 bound_to 11000
  140.5997  134.5567  157.5515 LP  0  0  0  0  0  0  0  0  0  0  0  0  # atno 17395 bound_to 11000

$$$$
