#       Name:                AV-unprocessed.smi:3156
#       Creating user name   scv26
#       Creation time:       Fri Mar 27 17:45:32 2020


#       File generated by GOLD software.
#

@<TRIPOS>MOLECULE
AV-unprocessed.smi:3156
    44    45     1
SMALL
NO_CHARGES


@<TRIPOS>ATOM
      1 ****        -1.9618  -1.1589  -1.6634 C.3            1 S1                 0.0000
      2 ****        -1.4333  -0.4798  -0.3869 C.3            1 S1                 0.0000
      3 ****         0.0458  -0.4499  -0.4400 N.4            1 S1                 1.0000
      4 ****         0.6422   0.9015  -0.4086 C.3            1 S1                 0.0000
      5 ****         2.1828   0.8403  -0.4093 C.3            1 S1                 0.0000
      6 ****         2.7985   1.5295  -1.6437 C.3            1 S1                 0.0000
      7 ****         4.3291   1.5212  -1.5603 C.3            1 S1                 0.0000
      8 ****         4.7751   2.1211  -0.2230 C.3            1 S1                 0.0000
      9 ****         4.0648   1.4143   0.9420 C.3            1 S1                 0.0000
     10 ****         2.6526   1.4927   0.7691 O.3            1 S1                 0.0000
     11 ****        -1.9100  -1.1714   0.9184 C.3            1 S1                 0.0000
     12 ****        -1.4888  -0.4030   2.1860 C.3            1 S1                 0.0000
     13 ****        -3.3499  -1.3980   0.9278 N.pl3          1 S1                 0.0000
     14 ****        -4.0248  -2.5996   0.9940 C.2            1 S1                 0.0000
     15 ****        -5.3609  -2.3193   0.9786 C.2            1 S1                 0.0000
     16 ****        -5.4081  -0.8996   0.9033 C.2            1 S1                 0.0000
     17 ****        -4.2043  -0.3510   0.8736 N.2            1 S1                 0.0000
     18 ****        -3.0498  -1.1217  -1.7235 H              1 S1                 0.0000
     19 ****        -1.6614  -2.2063  -1.7091 H              1 S1                 0.0000
     20 ****        -1.5772  -0.6639  -2.5558 H              1 S1                 0.0000
     21 ****        -1.8121   0.5441  -0.3899 H              1 S1                 0.0000
     22 ****         0.4015  -0.9746   0.3464 H              1 S1                 0.0000
     23 ****         0.2748   1.4690  -1.2647 H              1 S1                 0.0000
     24 ****         0.2862   1.4216   0.4820 H              1 S1                 0.0000
     25 ****         2.5110  -0.2008  -0.3778 H              1 S1                 0.0000
     26 ****         2.4736   1.0301  -2.5571 H              1 S1                 0.0000
     27 ****         2.4448   2.5596  -1.7068 H              1 S1                 0.0000
     28 ****         4.6975   0.4981  -1.6458 H              1 S1                 0.0000
     29 ****         4.7596   2.0806  -2.3914 H              1 S1                 0.0000
     30 ****         5.8567   2.0383  -0.1134 H              1 S1                 0.0000
     31 ****         4.5383   3.1856  -0.2013 H              1 S1                 0.0000
     32 ****         4.3766   0.3711   1.0131 H              1 S1                 0.0000
     33 ****         4.3309   1.8898   1.8862 H              1 S1                 0.0000
     34 ****        -1.4425  -2.1564   0.9636 H              1 S1                 0.0000
     35 ****        -0.4042  -0.3417   2.2756 H              1 S1                 0.0000
     36 ****        -1.8581  -0.8988   3.0844 H              1 S1                 0.0000
     37 ****        -1.8789   0.6153   2.1858 H              1 S1                 0.0000
     38 ****        -3.5043  -3.5447   1.0453 H              1 S1                 0.0000
     39 ****        -6.1803  -3.0216   1.0172 H              1 S1                 0.0000
     40 ****        -6.2749  -0.2560   0.8704 H              1 S1                 0.0000
     41 ****         0.3419  -0.9077  -1.2902 H              1 S1                 0.0000
     42 ****         2.2134   1.0689   1.5612 LP             1 S1                 0.0000
     43 ****         2.3934   2.4573   0.7207 LP             1 S1                 0.0000
     44 ****        -3.9769   0.6215   0.8224 LP             1 S1                 0.0000
@<TRIPOS>BOND
    1    1    2 1     
    2    1   18 1     
    3    1   19 1     
    4    1   20 1     
    5    2    3 1     
    6    2   11 1     
    7    2   21 1     
    8    3    4 1     
    9    3   22 1     
   10    3   41 1     
   11    4    5 1     
   12    4   23 1     
   13    4   24 1     
   14    5   10 1     
   15    5    6 1     
   16    5   25 1     
   17    6    7 1     
   18    6   26 1     
   19    6   27 1     
   20    7    8 1     
   21    7   28 1     
   22    7   29 1     
   23    8    9 1     
   24    8   30 1     
   25    8   31 1     
   26    9   10 1     
   27    9   32 1     
   28    9   33 1     
   29   11   12 1     
   30   11   13 1     
   31   11   34 1     
   32   12   35 1     
   33   12   36 1     
   34   12   37 1     
   35   13   17 1     
   36   13   14 1     
   37   14   15 2     
   38   14   38 1     
   39   15   16 1     
   40   15   39 1     
   41   16   17 2     
   42   16   40 1     
   43   10   42 1     
   44   10   43 1     
   45   17   44 1     
@<TRIPOS>SUBSTRUCTURE
      1 S1             1
@<TRIPOS>SET
LONE_PAIRS      STATIC     ATOMS    <user>   **** ""
3 42 43 44
DONOR_HYDROGENS      STATIC     ATOMS    <user>   **** ""
2 22 41
ATOM$BLUE        STATIC     ATOMS    COLORGROUP SYSTEM
3 42 43 44
ATOM$RED        STATIC     ATOMS    COLORGROUP SYSTEM
2 22 41
