#       Name:                AV-unprocessed.smi:3182
#       Creating user name   scv26
#       Creation time:       Fri Mar 27 17:59:04 2020


#       File generated by GOLD software.
#

@<TRIPOS>MOLECULE
AV-unprocessed.smi:3182
    42    43     1
SMALL
NO_CHARGES


@<TRIPOS>ATOM
      1 ****        -2.8579   2.4586  -0.7053 C.3            1 S1                 0.0000
      2 ****        -1.5460   2.1126  -1.1324 O.3            1 S1                 0.0000
      3 ****        -1.1719   0.7287  -1.1807 C.3            1 S1                 0.0000
      4 ****         0.3663   0.7880  -1.3751 C.3            1 S1                 0.0000
      5 ****         1.0535   1.5050  -0.3029 N.pl3          1 S1                 0.0000
      6 ****         1.6542   0.8291   0.7694 C.ar           1 S1                 0.0000
      7 ****         1.9021   1.5437   1.9603 C.ar           1 S1                 0.0000
      8 ****         2.4942   0.8702   3.0463 C.ar           1 S1                 0.0000
      9 ****         2.8208  -0.4918   2.9051 C.ar           1 S1                 0.0000
     10 ****         2.5417  -1.1210   1.6745 C.ar           1 S1                 0.0000
     11 ****         2.8631  -2.5845   1.4560 C.3            1 S1                 0.0000
     12 ****         1.9755  -0.4785   0.6302 N.ar           1 S1                 0.0000
     13 ****        -1.5885  -0.0782   0.0781 C.3            1 S1                 0.0000
     14 ****        -1.3225  -1.5840  -0.0987 C.3            1 S1                 0.0000
     15 ****        -2.0111  -2.0634  -1.2481 O.3            1 S1                 0.0000
     16 ****        -1.5699  -1.4531  -2.4559 C.3            1 S1                 0.0000
     17 ****        -1.8336   0.0637  -2.4106 C.3            1 S1                 0.0000
     18 ****        -3.0014   3.5299  -0.8445 H              1 S1                 0.0000
     19 ****        -3.0007   2.2540   0.3556 H              1 S1                 0.0000
     20 ****        -3.6358   1.9502  -1.2730 H              1 S1                 0.0000
     21 ****         0.7863  -0.2062  -1.5161 H              1 S1                 0.0000
     22 ****         0.5862   1.3228  -2.2996 H              1 S1                 0.0000
     23 ****         0.7822   2.4665  -0.1562 H              1 S1                 0.0000
     24 ****         1.6388   2.5879   2.0462 H              1 S1                 0.0000
     25 ****         2.6920   1.3891   3.9725 H              1 S1                 0.0000
     26 ****         3.2736  -1.0358   3.7210 H              1 S1                 0.0000
     27 ****         3.4325  -2.9939   2.2909 H              1 S1                 0.0000
     28 ****         3.4524  -2.7139   0.5478 H              1 S1                 0.0000
     29 ****         1.9431  -3.1607   1.3536 H              1 S1                 0.0000
     30 ****        -1.0911   0.2958   0.9726 H              1 S1                 0.0000
     31 ****        -2.6571   0.0283   0.2619 H              1 S1                 0.0000
     32 ****        -0.2585  -1.8018  -0.1848 H              1 S1                 0.0000
     33 ****        -1.6813  -2.1276   0.7753 H              1 S1                 0.0000
     34 ****        -0.5152  -1.6725  -2.6241 H              1 S1                 0.0000
     35 ****        -2.1152  -1.8978  -3.2885 H              1 S1                 0.0000
     36 ****        -2.9129   0.2068  -2.3874 H              1 S1                 0.0000
     37 ****        -1.4861   0.5326  -3.3319 H              1 S1                 0.0000
     38 ****        -0.9067   2.5674  -0.5124 LP             1 S1                 0.0000
     39 ****        -1.4325   2.4791  -2.0559 LP             1 S1                 0.0000
     40 ****         1.7972  -0.9590  -0.2285 LP             1 S1                 0.0000
     41 ****        -2.9872  -1.8776  -1.1353 LP             1 S1                 0.0000
     42 ****        -1.8656  -3.0502  -1.3182 LP             1 S1                 0.0000
@<TRIPOS>BOND
    1    1    2 1     
    2    1   18 1     
    3    1   19 1     
    4    1   20 1     
    5    2    3 1     
    6    3   17 1     
    7    3    4 1     
    8    3   13 1     
    9    4    5 1     
   10    4   21 1     
   11    4   22 1     
   12    5    6 1     
   13    5   23 1     
   14    6   12 ar    
   15    6    7 ar    
   16    7    8 ar    
   17    7   24 1     
   18    8    9 ar    
   19    8   25 1     
   20    9   10 ar    
   21    9   26 1     
   22   10   11 1     
   23   10   12 ar    
   24   11   27 1     
   25   11   28 1     
   26   11   29 1     
   27   13   14 1     
   28   13   30 1     
   29   13   31 1     
   30   14   15 1     
   31   14   32 1     
   32   14   33 1     
   33   15   16 1     
   34   16   17 1     
   35   16   34 1     
   36   16   35 1     
   37   17   36 1     
   38   17   37 1     
   39    2   38 1     
   40    2   39 1     
   41   12   40 1     
   42   15   41 1     
   43   15   42 1     
@<TRIPOS>SUBSTRUCTURE
      1 S1             1
@<TRIPOS>SET
LONE_PAIRS      STATIC     ATOMS    <user>   **** ""
5 38 39 40 41 42
DONOR_HYDROGENS      STATIC     ATOMS    <user>   **** ""
1 23
ATOM$BLUE        STATIC     ATOMS    COLORGROUP SYSTEM
5 38 39 40 41 42
ATOM$RED        STATIC     ATOMS    COLORGROUP SYSTEM
1 23
