AV-unprocessed.smi:1851|AV-procd|sdf|7524|dock5
  -GOLD-   22720 9233D 1   1.00000     0.00000
 Structure written by MMmdl.
 40 42  0  0  0  0  0  0  0  0  2 V2000
  154.3372  138.0563  155.8941 O   0  0  0  0  0  0  0  0  0  0  0  0
  153.3627  137.5538  156.4512 C   0  0  0  0  0  0  0  0  0  0  0  0
  152.1560  137.4171  155.8834 N   0  0  0  0  0  0  0  0  0  0  0  0
  151.8314  137.7917  154.5101 C   0  0  0  0  0  0  0  0  0  0  0  0
  150.6567  138.7156  154.3806 C   0  0  0  0  0  0  0  0  0  0  0  0
  149.5265  138.5117  153.6427 N   0  3  0  0  0  0  0  0  0  0  0  0
  148.6677  139.6033  153.7762 C   0  0  0  0  0  0  0  0  0  0  0  0
  147.4165  139.8534  153.2210 C   0  0  0  0  0  0  0  0  0  0  0  0
  146.8066  141.0787  153.5623 C   0  0  0  0  0  0  0  0  0  0  0  0
  147.4393  141.9992  154.4232 C   0  0  0  0  0  0  0  0  0  0  0  0
  148.7070  141.7331  154.9815 C   0  0  0  0  0  0  0  0  0  0  0  0
  149.3015  140.5189  154.6396 C   0  0  0  0  0  0  0  0  0  0  0  0
  150.5194  139.9276  154.9912 N   0  0  0  0  0  0  0  0  0  0  0  0
  151.4241  140.6389  155.9030 C   0  0  0  0  0  0  0  0  0  0  0  0
  151.4553  139.9992  157.2962 C   0  0  0  0  0  0  0  0  0  0  0  0
  152.7511  140.1873  157.8456 O   0  0  0  0  0  0  0  0  0  0  0  0
  152.8653  140.9023  159.0183 C   0  0  0  0  0  0  0  0  0  0  0  0
  153.9353  140.5625  159.8720 C   0  0  0  0  0  0  0  0  0  0  0  0
  154.1284  141.2401  161.0911 C   0  0  0  0  0  0  0  0  0  0  0  0
  153.2478  142.2701  161.4704 C   0  0  0  0  0  0  0  0  0  0  0  0
  153.4819  143.1022  162.9636 Cl  0  0  0  0  0  0  0  0  0  0  0  0
  152.1759  142.6199  160.6281 C   0  0  0  0  0  0  0  0  0  0  0  0
  151.9833  141.9420  159.4084 C   0  0  0  0  0  0  0  0  0  0  0  0
  153.3613  137.1605  157.4794 H   0  0  0  0  0  0  0  0  0  0  0  0
  151.4190  136.9943  156.4293 H   0  0  0  0  0  0  0  0  0  0  0  0
  152.6974  138.2475  154.0277 H   0  0  0  0  0  0  0  0  0  0  0  0
  151.6164  136.8769  153.9573 H   0  0  0  0  0  0  0  0  0  0  0  0
  146.9306  139.1499  152.5609 H   0  0  0  0  0  0  0  0  0  0  0  0
  145.8347  141.3176  153.1552 H   0  0  0  0  0  0  0  0  0  0  0  0
  146.9424  142.9286  154.6611 H   0  0  0  0  0  0  0  0  0  0  0  0
  149.1840  142.4446  155.6392 H   0  0  0  0  0  0  0  0  0  0  0  0
  152.4202  140.6680  155.4601 H   0  0  0  0  0  0  0  0  0  0  0  0
  151.0860  141.6732  155.9716 H   0  0  0  0  0  0  0  0  0  0  0  0
  150.7031  140.4665  157.9339 H   0  0  0  0  0  0  0  0  0  0  0  0
  151.2282  138.9346  157.2226 H   0  0  0  0  0  0  0  0  0  0  0  0
  154.6159  139.7729  159.5889 H   0  0  0  0  0  0  0  0  0  0  0  0
  154.9531  140.9678  161.7335 H   0  0  0  0  0  0  0  0  0  0  0  0
  151.4985  143.4104  160.9162 H   0  0  0  0  0  0  0  0  0  0  0  0
  151.1504  142.2394  158.7898 H   0  0  0  0  0  0  0  0  0  0  0  0
  149.3578  137.6798  153.0919 H   0  0  0  0  0  0  0  0  0  0  0  0
  1  2  2  0  0  0  0
  2  3  1  0  0  0  0
  2 24  1  0  0  0  0
  3  4  1  0  0  0  0
  3 25  1  0  0  0  0
  4  5  1  0  0  0  0
  4 26  1  0  0  0  0
  4 27  1  0  0  0  0
  5 13  1  0  0  0  0
  5  6  2  0  0  0  0
  6  7  1  0  0  0  0
  6 40  1  0  0  0  0
  7 12  2  0  0  0  0
  7  8  1  0  0  0  0
  8  9  2  0  0  0  0
  8 28  1  0  0  0  0
  9 10  1  0  0  0  0
  9 29  1  0  0  0  0
 10 11  2  0  0  0  0
 10 30  1  0  0  0  0
 11 12  1  0  0  0  0
 11 31  1  0  0  0  0
 12 13  1  0  0  0  0
 13 14  1  0  0  0  0
 14 15  1  0  0  0  0
 14 32  1  0  0  0  0
 14 33  1  0  0  0  0
 15 16  1  0  0  0  0
 15 34  1  0  0  0  0
 15 35  1  0  0  0  0
 16 17  1  0  0  0  0
 17 23  1  0  0  0  0
 17 18  2  0  0  0  0
 18 19  1  0  0  0  0
 18 36  1  0  0  0  0
 19 20  2  0  0  0  0
 19 37  1  0  0  0  0
 20 21  1  0  0  0  0
 20 22  1  0  0  0  0
 22 23  2  0  0  0  0
 22 38  1  0  0  0  0
 23 39  1  0  0  0  0
M  CHG  1   6   1
M  END
> <s_m_source_file>
AV-unprocessed.smi

> <i_m_source_file_index>
1851

> <i_lp_mmshare_version>
43012

> <i_f3d_flags>
0

> <s_epik_input>
Tz1bQ0hdW05IXVtDSDJdYyhuMSluKGMoYzEyKVtjSF1bY0hdW2NIXVtjSF0yKVtDSDJdW0NIMl1PYzNbY0hdW2NIXWMoQ2wpW2NIXVtjSF0z

> <s_epik_cmdline>
J2VwaWtfcHl0aG9uJywgJy1waCcsICc3LjAnLCAnLXRuJywgJzgnLCAnLW1hJywgJzIwMCcsICctbWV0YWxfYmluZGluZycsICctaW1hZScsICc8aW5maWxlLm1hZT4nLCAnLW9tYWUnLCAnPG91dGZpbGUubWFlPic=

> <r_lp_tautomer_probability>
1

> <r_epik_Ionization_Penalty>
1.32442

> <r_epik_Ionization_Penalty_Charging>
1.32442

> <r_epik_Ionization_Penalty_Neutral>
7.38905e-08

> <r_epik_State_Penalty>
1.4003

> <r_epik_Charging_Adjusted_Penalty>
2.72472

> <i_epik_Tot_Q>
1

> <i_epik_Tot_abs_Q>
1

> <r_epik_Metal_State_Penalty>
1.46133

> <b_epik_Metal_Only>
0

> <s_lp_Force_Field>
OPLS_2005

> <r_lp_Energy>
15.621

> <b_lp_Chiralities_Consistent>
1

> <s_lp_Variant>
AV-unprocessed.smi:1851-2

> <Gold.Version>
5.8.1

> <Gold.Id.Protein>
6NUR|6NUR_protein|mol2

> <Gold.PLP.Fitness>
56.8272

> <Gold.PLP.PLP>
-50.0215

> <Gold.PLP.part.hbond>
-4.2472

> <Gold.PLP.part.metal>
0.0000

> <Gold.PLP.part.buried>
2.1364

> <Gold.PLP.part.nonpolar>
-48.0887

> <Gold.PLP.part.repulsive>
0.1923

> <Gold.PLP.ligand.clash>
0.0000

> <Gold.PLP.ligand.torsion>
1.1362

> <Gold.PLP.Chemscore.Hbond>
3.0000

> <Gold.PLP.Chemscore.CHOScore>
0.0000

> <Gold.PLP.Chemscore.Metal>
0.0000

> <Gold.Chemscore.Hbonds>
donor molecule, donor type, donor heavy atom, donor atom, acceptor molecule, acceptor atom, score
      L1  H     6    40       P1  7948  2.00
      P1  H  7997  8009       L1    16  1.00

> <Gold.PLP.Chemscore.Internal.Correction>
0.0781

> <Gold.Rescore>
     Score         DG    S(hbond)    S(metal)    S(lipo)     H(rot)  DE(clash)    DE(int)     intcor
     18.61     -20.09       1.75        0.00     129.34       2.49       0.39       1.09       ----

> <Gold.Chemscore.Fitness>
18.6087

> <Gold.Chemscore.DG>
-20.0938

> <Gold.Chemscore.ZeroCoef>
-5.4800

> <Gold.Chemscore.Hbond>
1.7495

> <Gold.Chemscore.Metal>
0.0000

> <Gold.Chemscore.Lipo>
129.3440

> <Gold.Chemscore.Internal_Hbond>
0.0000

> <Gold.Chemscore.DEClash>
0.3911

> <Gold.Chemscore.DEInternal>
1.0940

> <Gold.Chemscore.Rot>
2.4854

> <Gold.Chemscore.Internal.Correction>
   9.000000E+99

> <Gold.Chemscore.Hbonds>
donor molecule, donor type, donor heavy atom, donor atom, acceptor molecule, acceptor atom, score
      L1  H     6    40       P1  7948  0.96
      P1  H  7997  8009       L1    16  0.76

> <Gold.Chemscore.Hbond.Weighted>
-5.8432

> <Gold.Chemscore.Metal.Weighted>
-0.0000

> <Gold.Chemscore.Lipo.Weighted>
-15.1333

> <Gold.Chemscore.Internal_Hbond.Weighted>
0.0000

> <Gold.Chemscore.DEClash.Weighted>
0.3911

> <Gold.Chemscore.DEInternal.Weighted>
1.0940

> <Gold.Chemscore.Rot.Weighted>
6.3627

> <Gold.Chemscore.Internal.Correction.Weighted>
   9.000000E+99

> <Gold.Protein.RotatedTorsions>
[ 6907 6896 6895 6894 ] final  108.67 input  -60.11 | X-H torsion
[ 7974 7965 7964 7962 ] final -121.22 input  175.53 | X-H torsion
[ 8008 7997 7996 7995 ] final  165.23 input   59.86 | X-H torsion
[ 10167 10162 10161 10158 ] final  -15.33 input  -65.29 | X-H torsion
[ 10718 10713 10712 10709 ] final   17.48 input   66.30 | X-H torsion
[ 10763 10752 10751 10750 ] final -147.07 input  -60.55 | X-H torsion
[ 11005 11000 10999 10996 ] final  -92.41 input  -57.11 | X-H torsion

> <Gold.Protein.ActiveResidues>
 VAL166  LYS551  ARG553  GLY616  TRP617  ASP618  TYR619  PRO620  LYS621  CYS622 
 ASP623  PHE694  ASN695  SER759  ASP760  ASP761  ALA762  ILE779  LEU786  VAL792 
 PHE793  MET794  SER795  GLU796  ALA797  LYS798  CYS799  TRP800  GLU811  SER814 

> <Gold.Protein.RotatedAtoms>
  152.5102  133.9055  159.7461 H   0  0  0  0  0  0  0  0  0  0  0  0  # atno 6907 bound_to 6896
  150.9461  133.6593  159.2788 H   0  0  0  0  0  0  0  0  0  0  0  0  # atno 6908 bound_to 6896
  151.3888  135.0957  159.9572 H   0  0  0  0  0  0  0  0  0  0  0  0  # atno 6909 bound_to 6896
  145.0427  140.8157  143.4257 H   0  0  0  0  0  0  0  0  0  0  0  0  # atno 7974 bound_to 7965
  156.1817  140.1675  156.8261 H   0  0  0  0  0  0  0  0  0  0  0  0  # atno 8008 bound_to 7997
  154.5368  140.0745  156.8474 H   0  0  0  0  0  0  0  0  0  0  0  0  # atno 8009 bound_to 7997
  155.3295  140.3378  155.4242 H   0  0  0  0  0  0  0  0  0  0  0  0  # atno 8010 bound_to 7997
  140.7216  143.5229  150.9612 H   0  0  0  0  0  0  0  0  0  0  0  0  # atno 10167 bound_to 10162
  157.0827  130.6395  149.5830 H   0  0  0  0  0  0  0  0  0  0  0  0  # atno 10718 bound_to 10713
  154.8304  135.3370  154.6761 H   0  0  0  0  0  0  0  0  0  0  0  0  # atno 10763 bound_to 10752
  153.7382  135.6947  153.4977 H   0  0  0  0  0  0  0  0  0  0  0  0  # atno 10764 bound_to 10752
  153.2263  135.4431  155.0497 H   0  0  0  0  0  0  0  0  0  0  0  0  # atno 10765 bound_to 10752
  141.1522  133.7819  157.0015 H   0  0  0  0  0  0  0  0  0  0  0  0  # atno 11005 bound_to 11000
  145.1627  139.2449  143.5383 LP  0  0  0  0  0  0  0  0  0  0  0  0  # atno 17320 bound_to 7965
  146.3511  140.1358  142.8596 LP  0  0  0  0  0  0  0  0  0  0  0  0  # atno 17321 bound_to 7965
  139.8947  143.6910  152.3140 LP  0  0  0  0  0  0  0  0  0  0  0  0  # atno 17342 bound_to 10162
  139.7238  144.7597  151.0912 LP  0  0  0  0  0  0  0  0  0  0  0  0  # atno 17343 bound_to 10162
  155.9919  130.4975  150.7318 LP  0  0  0  0  0  0  0  0  0  0  0  0  # atno 17370 bound_to 10713
  157.4786  131.0900  151.0561 LP  0  0  0  0  0  0  0  0  0  0  0  0  # atno 17371 bound_to 10713
  140.0937  134.9577  157.1815 LP  0  0  0  0  0  0  0  0  0  0  0  0  # atno 17394 bound_to 11000
  140.3412  134.2702  155.7212 LP  0  0  0  0  0  0  0  0  0  0  0  0  # atno 17395 bound_to 11000

$$$$
