AV-unprocessed.smi:158|AV-procd|sdf|1328|dock2
  -GOLD-   2262019 23D 1   1.00000     0.00000
 Structure written by MMmdl.
 31 33  0  0  0  0  0  0  0  0  1 V2000
  153.5212  141.3755  161.8104 N   0  0  0  0  0  0  0  0  0  0  0  0
  153.0324  141.8632  160.6617 C   0  0  0  0  0  0  0  0  0  0  0  0
  152.7302  143.1812  160.5978 N   0  0  0  0  0  0  0  0  0  0  0  0
  152.2414  143.7095  159.4686 C   0  0  0  0  0  0  0  0  0  0  0  0
  151.8933  145.3981  159.5014 Cl  0  0  0  0  0  0  0  0  0  0  0  0
  151.9916  143.0753  158.3175 N   0  0  0  0  0  0  0  0  0  0  0  0
  152.2946  141.7468  158.3809 C   0  0  0  0  0  0  0  0  0  0  0  0
  152.8179  141.0657  159.5113 C   0  0  0  0  0  0  0  0  0  0  0  0
  153.0044  139.7236  159.2091 N   0  0  0  0  0  0  0  0  0  0  0  0
  152.6124  139.6233  157.9664 C   0  0  0  0  0  0  0  0  0  0  0  0
  152.1605  140.7952  157.3943 N   0  0  0  0  0  0  0  0  0  0  0  0
  151.6492  141.0455  156.0102 C   0  0  1  0  0  0  0  0  0  0  0  0
  151.8695  139.8997  155.2421 O   0  0  0  0  0  0  0  0  0  0  0  0
  150.6688  139.1360  155.1686 C   0  0  2  0  0  0  0  0  0  0  0  0
  150.7130  138.1349  154.0015 C   0  0  0  0  0  0  0  0  0  0  0  0
  151.4767  137.0050  154.3655 O   0  0  0  0  0  0  0  0  0  0  0  0
  149.6004  140.2314  155.0660 C   0  0  2  0  0  0  0  0  0  0  0  0
  149.5283  140.7408  153.7451 O   0  0  0  0  0  0  0  0  0  0  0  0
  150.1289  141.2700  156.0456 C   0  0  2  0  0  0  0  0  0  0  0  0
  149.8154  142.5225  155.7088 F   0  0  0  0  0  0  0  0  0  0  0  0
  152.2296  141.8920  155.6409 H   0  0  0  0  0  0  0  0  0  0  0  0
  150.5232  138.6046  156.1112 H   0  0  0  0  0  0  0  0  0  0  0  0
  148.6131  139.8683  155.3530 H   0  0  0  0  0  0  0  0  0  0  0  0
  149.7412  141.0859  157.0490 H   0  0  0  0  0  0  0  0  0  0  0  0
  153.7542  140.3953  161.8807 H   0  0  0  0  0  0  0  0  0  0  0  0
  153.6576  141.9878  162.6017 H   0  0  0  0  0  0  0  0  0  0  0  0
  152.6444  138.6826  157.4357 H   0  0  0  0  0  0  0  0  0  0  0  0
  149.7068  137.7868  153.7664 H   0  0  0  0  0  0  0  0  0  0  0  0
  151.1210  138.5913  153.0990 H   0  0  0  0  0  0  0  0  0  0  0  0
  151.1745  136.6955  155.2058 H   0  0  0  0  0  0  0  0  0  0  0  0
  149.1402  140.0834  153.1883 H   0  0  0  0  0  0  0  0  0  0  0  0
  1  2  1  0  0  0  0
  1 25  1  0  0  0  0
  1 26  1  0  0  0  0
  2  8  1  0  0  0  0
  2  3  2  0  0  0  0
  3  4  1  0  0  0  0
  4  5  1  0  0  0  0
  4  6  2  0  0  0  0
  6  7  1  0  0  0  0
  7 11  1  0  0  0  0
  7  8  2  0  0  0  0
  8  9  1  0  0  0  0
  9 10  2  0  0  0  0
 10 11  1  0  0  0  0
 10 27  1  0  0  0  0
 11 12  1  0  0  0  0
 12 21  1  0  0  0  0
 12 19  1  0  0  0  0
 12 13  1  0  0  0  0
 13 14  1  0  0  0  0
 14 22  1  0  0  0  0
 14 15  1  0  0  0  0
 14 17  1  0  0  0  0
 15 16  1  0  0  0  0
 15 28  1  0  0  0  0
 15 29  1  0  0  0  0
 16 30  1  0  0  0  0
 17 23  1  0  0  0  0
 17 18  1  0  0  0  0
 17 19  1  0  0  0  0
 18 31  1  0  0  0  0
 19 24  1  0  0  0  0
 19 20  1  0  0  0  0
M  END
> <s_m_source_file>
AV-unprocessed.smi

> <i_m_source_file_index>
158

> <i_lp_mmshare_version>
43012

> <i_f3d_flags>
0

> <s_epik_input>
Q2xjKG4xKW5jKFtOSDJdKWMoYzEyKW5bY0hdbjJbQ0BASF0zT1tDQEhdKFtDSDJdW09IXSlbQ0BASF0oW09IXSlbQ0BASF0zRg==

> <s_epik_cmdline>
J2VwaWtfcHl0aG9uJywgJy1waCcsICc3LjAnLCAnLXRuJywgJzgnLCAnLW1hJywgJzIwMCcsICctbWV0YWxfYmluZGluZycsICctaW1hZScsICc8aW5maWxlLm1hZT4nLCAnLW9tYWUnLCAnPG91dGZpbGUubWFlPic=

> <r_lp_tautomer_probability>
1

> <r_epik_Ionization_Penalty>
6.51543e-05

> <r_epik_Ionization_Penalty_Charging>
0

> <r_epik_Ionization_Penalty_Neutral>
6.51543e-05

> <r_epik_State_Penalty>
-0

> <r_epik_Charging_Adjusted_Penalty>
0

> <i_epik_Tot_Q>
0

> <i_epik_Tot_abs_Q>
0

> <r_epik_Metal_State_Penalty>
-0

> <b_epik_Metal_Only>
0

> <s_epik_Chemistry_Notes>
This compound contains an acetal/aminal-like group ( X-CH(R)-Y where X, Y are N, S, or O) that may be acid/base labile, releasing an aldehyde.

> <s_lp_Force_Field>
OPLS_2005

> <r_lp_Energy>
37.0626

> <b_lp_Chiralities_Consistent>
1

> <s_lp_Variant>
AV-unprocessed.smi:158-6

> <Gold.Version>
5.8.1

> <Gold.Id.Protein>
6NUR|6NUR_protein|mol2

> <Gold.PLP.Fitness>
41.6988

> <Gold.PLP.PLP>
-34.9263

> <Gold.PLP.part.hbond>
-5.5018

> <Gold.PLP.part.metal>
0.0000

> <Gold.PLP.part.buried>
-1.7506

> <Gold.PLP.part.nonpolar>
-27.5680

> <Gold.PLP.part.repulsive>
0.1284

> <Gold.PLP.ligand.clash>
0.0000

> <Gold.PLP.ligand.torsion>
0.3667

> <Gold.PLP.Chemscore.Hbond>
2.4956

> <Gold.PLP.Chemscore.CHOScore>
0.0000

> <Gold.PLP.Chemscore.Metal>
0.0000

> <Gold.Chemscore.Hbonds>
donor molecule, donor type, donor heavy atom, donor atom, acceptor molecule, acceptor atom, score
      L1  H    18    31       P1  7957  0.35
      P1  H  7989  7998       L1    13  0.57
      P1  H  8011  8017       L1    18  0.57
      P1  H 10752 10764       L1    16  0.94

> <Gold.PLP.Chemscore.Internal.Correction>
0.0190

> <Gold.Rescore>
     Score         DG    S(hbond)    S(metal)    S(lipo)     H(rot)  DE(clash)    DE(int)     intcor
      6.33      -8.23       1.52        0.00      48.34       3.12       1.65       0.24       ----

> <Gold.Chemscore.Fitness>
6.3337

> <Gold.Chemscore.DG>
-8.2282

> <Gold.Chemscore.ZeroCoef>
-5.4800

> <Gold.Chemscore.Hbond>
1.5230

> <Gold.Chemscore.Metal>
0.0000

> <Gold.Chemscore.Lipo>
48.3446

> <Gold.Chemscore.Internal_Hbond>
0.0000

> <Gold.Chemscore.DEClash>
1.6521

> <Gold.Chemscore.DEInternal>
0.2423

> <Gold.Chemscore.Rot>
3.1230

> <Gold.Chemscore.Internal.Correction>
   9.000000E+99

> <Gold.Chemscore.Hbonds>
donor molecule, donor type, donor heavy atom, donor atom, acceptor molecule, acceptor atom, score
      L1  H    18    31       P1  7957  0.34
      P1  H  7989  7998       L1    18  0.04
      P1  H  8011  8017       L1    18  0.19
      P1  H 10752 10764       L1    16  0.20

> <Gold.Chemscore.Hbond.Weighted>
-5.0868

> <Gold.Chemscore.Metal.Weighted>
-0.0000

> <Gold.Chemscore.Lipo.Weighted>
-5.6563

> <Gold.Chemscore.Internal_Hbond.Weighted>
0.0000

> <Gold.Chemscore.DEClash.Weighted>
1.6521

> <Gold.Chemscore.DEInternal.Weighted>
0.2423

> <Gold.Chemscore.Rot.Weighted>
7.9950

> <Gold.Chemscore.Internal.Correction.Weighted>
   9.000000E+99

> <Gold.Protein.RotatedTorsions>
[ 6907 6896 6895 6894 ] final  -80.71 input  -60.11 | X-H torsion
[ 7974 7965 7964 7962 ] final   25.31 input  175.53 | X-H torsion
[ 8008 7997 7996 7995 ] final  162.54 input   59.86 | X-H torsion
[ 10167 10162 10161 10158 ] final   76.79 input  -65.29 | X-H torsion
[ 10718 10713 10712 10709 ] final  129.91 input   66.30 | X-H torsion
[ 10763 10752 10751 10750 ] final  -91.88 input  -60.55 | X-H torsion
[ 11005 11000 10999 10996 ] final   -3.99 input  -57.11 | X-H torsion

> <Gold.Protein.ActiveResidues>
 VAL166  LYS551  ARG553  GLY616  TRP617  ASP618  TYR619  PRO620  LYS621  CYS622 
 ASP623  PHE694  ASN695  SER759  ASP760  ASP761  ALA762  ILE779  LEU786  VAL792 
 PHE793  MET794  SER795  GLU796  ALA797  LYS798  CYS799  TRP800  GLU811  SER814 

> <Gold.Protein.RotatedAtoms>
  150.6924  134.3928  159.5083 H   0  0  0  0  0  0  0  0  0  0  0  0  # atno 6907 bound_to 6896
  152.1714  134.8828  160.0543 H   0  0  0  0  0  0  0  0  0  0  0  0  # atno 6908 bound_to 6896
  151.9853  133.3737  159.4160 H   0  0  0  0  0  0  0  0  0  0  0  0  # atno 6909 bound_to 6896
  146.1895  139.7483  142.8842 H   0  0  0  0  0  0  0  0  0  0  0  0  # atno 7974 bound_to 7965
  156.2024  140.1748  156.7871 H   0  0  0  0  0  0  0  0  0  0  0  0  # atno 8008 bound_to 7997
  154.5609  140.0700  156.8848 H   0  0  0  0  0  0  0  0  0  0  0  0  # atno 8009 bound_to 7997
  155.2850  140.3351  155.4258 H   0  0  0  0  0  0  0  0  0  0  0  0  # atno 8010 bound_to 7997
  139.9885  144.5775  150.7839 H   0  0  0  0  0  0  0  0  0  0  0  0  # atno 10167 bound_to 10162
  157.5111  131.1097  150.9291 H   0  0  0  0  0  0  0  0  0  0  0  0  # atno 10718 bound_to 10713
  154.6805  135.5251  153.8257 H   0  0  0  0  0  0  0  0  0  0  0  0  # atno 10763 bound_to 10752
  153.0562  135.6551  154.0582 H   0  0  0  0  0  0  0  0  0  0  0  0  # atno 10764 bound_to 10752
  154.0470  135.2972  155.3326 H   0  0  0  0  0  0  0  0  0  0  0  0  # atno 10765 bound_to 10752
  140.6754  133.9200  155.8521 H   0  0  0  0  0  0  0  0  0  0  0  0  # atno 11005 bound_to 11000
  145.3837  141.0362  143.3163 LP  0  0  0  0  0  0  0  0  0  0  0  0  # atno 17320 bound_to 7965
  144.8459  139.5398  143.6879 LP  0  0  0  0  0  0  0  0  0  0  0  0  # atno 17321 bound_to 7965
  140.7463  143.2889  151.3385 LP  0  0  0  0  0  0  0  0  0  0  0  0  # atno 17342 bound_to 10162
  139.6358  144.0634  152.2514 LP  0  0  0  0  0  0  0  0  0  0  0  0  # atno 17343 bound_to 10162
  156.9932  130.5571  149.5305 LP  0  0  0  0  0  0  0  0  0  0  0  0  # atno 17370 bound_to 10713
  156.0289  130.5382  150.8483 LP  0  0  0  0  0  0  0  0  0  0  0  0  # atno 17371 bound_to 10713
  141.0359  134.0690  157.3959 LP  0  0  0  0  0  0  0  0  0  0  0  0  # atno 17394 bound_to 11000
  139.8968  135.0147  156.7071 LP  0  0  0  0  0  0  0  0  0  0  0  0  # atno 17395 bound_to 11000

$$$$
