AV-unprocessed.smi:2696|AV-procd|sdf|10414|dock10
  -GOLD-   2272014453D 1   1.00000     0.00000
 Structure written by MMmdl.
 43 44  0  0  0  0  0  0  0  0  1 V2000
  153.5713  136.4962  162.8932 C   0  0  0  0  0  0  0  0  0  0  0  0
  154.3161  137.3603  161.8630 C   0  0  0  0  0  0  0  0  0  0  0  0
  154.4967  138.8038  162.3569 C   0  0  0  0  0  0  0  0  0  0  0  0
  153.6384  137.3169  160.4998 C   0  0  0  0  0  0  0  0  0  0  0  0
  154.2772  136.8876  159.3850 C   0  0  0  0  0  0  0  0  0  0  0  0
  153.6004  136.8821  158.0884 C   0  0  0  0  0  0  0  0  0  0  0  0
  154.1435  136.4731  157.0625 O   0  0  0  0  0  0  0  0  0  0  0  0
  152.3274  137.3747  158.1008 N   0  0  0  0  0  0  0  0  0  0  0  0
  151.5477  137.4997  156.8507 C   0  0  0  0  0  0  0  0  0  0  0  0
  151.8626  138.7752  156.0089 C   0  0  2  0  0  0  0  0  0  0  0  0
  151.1704  138.6837  154.6321 C   0  0  0  0  0  0  0  0  0  0  0  0
  153.2358  138.7144  155.6655 O   0  0  0  0  0  0  0  0  0  0  0  0
  151.4927  140.0803  156.7318 C   0  0  0  0  0  0  0  0  0  0  0  0
  150.4095  140.8779  156.2923 C   0  0  0  0  0  0  0  0  0  0  0  0
  150.1065  142.0914  156.9373 C   0  0  0  0  0  0  0  0  0  0  0  0
  150.8840  142.5250  158.0260 C   0  0  0  0  0  0  0  0  0  0  0  0
  151.9722  141.7494  158.4749 C   0  0  0  0  0  0  0  0  0  0  0  0
  152.8095  142.2381  159.6475 C   0  0  0  0  0  0  0  0  0  0  0  0
  153.7903  141.3857  159.9476 F   0  0  0  0  0  0  0  0  0  0  0  0
  153.3562  143.4178  159.3532 F   0  0  0  0  0  0  0  0  0  0  0  0
  152.0280  142.3819  160.7171 F   0  0  0  0  0  0  0  0  0  0  0  0
  152.2659  140.5290  157.8282 C   0  0  0  0  0  0  0  0  0  0  0  0
  151.6949  137.7721  159.2974 C   0  0  0  0  0  0  0  0  0  0  0  0
  152.3110  137.7525  160.4358 N   0  0  0  0  0  0  0  0  0  0  0  0
  153.4651  135.4701  162.5393 H   0  0  0  0  0  0  0  0  0  0  0  0
  152.5729  136.8834  163.0983 H   0  0  0  0  0  0  0  0  0  0  0  0
  154.1122  136.4633  163.8392 H   0  0  0  0  0  0  0  0  0  0  0  0
  155.3131  136.9319  161.7472 H   0  0  0  0  0  0  0  0  0  0  0  0
  155.0560  139.3974  161.6331 H   0  0  0  0  0  0  0  0  0  0  0  0
  155.0471  138.8290  163.2978 H   0  0  0  0  0  0  0  0  0  0  0  0
  153.5375  139.2954  162.5218 H   0  0  0  0  0  0  0  0  0  0  0  0
  155.3025  136.5528  159.4426 H   0  0  0  0  0  0  0  0  0  0  0  0
  151.6483  136.5979  156.2434 H   0  0  0  0  0  0  0  0  0  0  0  0
  150.4857  137.5170  157.1040 H   0  0  0  0  0  0  0  0  0  0  0  0
  150.0848  138.6429  154.7168 H   0  0  0  0  0  0  0  0  0  0  0  0
  151.4752  137.7858  154.0926 H   0  0  0  0  0  0  0  0  0  0  0  0
  151.4174  139.5425  154.0061 H   0  0  0  0  0  0  0  0  0  0  0  0
  153.4923  137.8069  155.6054 H   0  0  0  0  0  0  0  0  0  0  0  0
  149.8060  140.5785  155.4485 H   0  0  0  0  0  0  0  0  0  0  0  0
  149.2790  142.6932  156.5918 H   0  0  0  0  0  0  0  0  0  0  0  0
  150.6473  143.4590  158.5142 H   0  0  0  0  0  0  0  0  0  0  0  0
  153.1074  139.9420  158.1621 H   0  0  0  0  0  0  0  0  0  0  0  0
  150.6616  138.1076  159.1960 H   0  0  0  0  0  0  0  0  0  0  0  0
  1  2  1  0  0  0  0
  1 25  1  0  0  0  0
  1 26  1  0  0  0  0
  1 27  1  0  0  0  0
  2  3  1  0  0  0  0
  2  4  1  0  0  0  0
  2 28  1  0  0  0  0
  3 29  1  0  0  0  0
  3 30  1  0  0  0  0
  3 31  1  0  0  0  0
  4 24  1  0  0  0  0
  4  5  2  0  0  0  0
  5  6  1  0  0  0  0
  5 32  1  0  0  0  0
  6  7  2  0  0  0  0
  6  8  1  0  0  0  0
  8  9  1  0  0  0  0
  8 23  1  0  0  0  0
  9 10  1  0  0  0  0
  9 33  1  0  0  0  0
  9 34  1  0  0  0  0
 10 11  1  0  0  0  0
 10 12  1  0  0  0  0
 10 13  1  0  0  0  0
 11 35  1  0  0  0  0
 11 36  1  0  0  0  0
 11 37  1  0  0  0  0
 12 38  1  0  0  0  0
 13 22  1  0  0  0  0
 13 14  2  0  0  0  0
 14 15  1  0  0  0  0
 14 39  1  0  0  0  0
 15 16  2  0  0  0  0
 15 40  1  0  0  0  0
 16 17  1  0  0  0  0
 16 41  1  0  0  0  0
 17 18  1  0  0  0  0
 17 22  2  0  0  0  0
 18 19  1  0  0  0  0
 18 20  1  0  0  0  0
 18 21  1  0  0  0  0
 22 42  1  0  0  0  0
 23 24  2  0  0  0  0
 23 43  1  0  0  0  0
M  END
> <s_m_source_file>
AV-unprocessed.smi

> <i_m_source_file_index>
2696

> <i_lp_mmshare_version>
43012

> <i_f3d_flags>
0

> <s_epik_input>
W0NIM11bQ0hdKFtDSDNdKWMxW2NIXWMoPU8pbihbY0hdbjEpW0NIMl1bQ0BAXShbQ0gzXSkoW09IXSljMltjSF1bY0hdW2NIXWMoQyhGKShGKUYpW2NIXTI=

> <s_epik_cmdline>
J2VwaWtfcHl0aG9uJywgJy1waCcsICc3LjAnLCAnLXRuJywgJzgnLCAnLW1hJywgJzIwMCcsICctbWV0YWxfYmluZGluZycsICctaW1hZScsICc8aW5maWxlLm1hZT4nLCAnLW9tYWUnLCAnPG91dGZpbGUubWFlPic=

> <r_lp_tautomer_probability>
1

> <r_epik_Ionization_Penalty>
2.71388e-05

> <r_epik_Ionization_Penalty_Charging>
4.19927e-06

> <r_epik_Ionization_Penalty_Neutral>
2.29395e-05

> <r_epik_State_Penalty>
-0

> <r_epik_Charging_Adjusted_Penalty>
4.19927e-06

> <i_epik_Tot_Q>
0

> <i_epik_Tot_abs_Q>
0

> <r_epik_Metal_State_Penalty>
-0

> <b_epik_Metal_Only>
0

> <s_lp_Force_Field>
OPLS_2005

> <r_lp_Energy>
19.4026

> <b_lp_Chiralities_Consistent>
1

> <s_lp_Variant>
AV-unprocessed.smi:2696-2

> <Gold.Version>
5.8.1

> <Gold.Id.Protein>
6NUR|6NUR_protein|mol2

> <Gold.PLP.Fitness>
46.2648

> <Gold.PLP.PLP>
-41.7497

> <Gold.PLP.part.hbond>
-2.0000

> <Gold.PLP.part.metal>
0.0000

> <Gold.PLP.part.buried>
-4.7659

> <Gold.PLP.part.nonpolar>
-35.0023

> <Gold.PLP.part.repulsive>
0.0000

> <Gold.PLP.ligand.clash>
0.0848

> <Gold.PLP.ligand.torsion>
0.7601

> <Gold.PLP.Chemscore.Hbond>
1.9120

> <Gold.PLP.Chemscore.CHOScore>
0.0000

> <Gold.PLP.Chemscore.Metal>
0.0000

> <Gold.Chemscore.Hbonds>
donor molecule, donor type, donor heavy atom, donor atom, acceptor molecule, acceptor atom, score
      P1  H  7997  8008       L1    12  1.00
      P1  H 10752 10764       L1     7  0.90

> <Gold.PLP.Chemscore.Internal.Correction>
0.3839

> <Gold.Rescore>
     Score         DG    S(hbond)    S(metal)    S(lipo)     H(rot)  DE(clash)    DE(int)     intcor
     17.00     -17.87       1.85        0.00     101.92       2.23       0.08       0.80       ----

> <Gold.Chemscore.Fitness>
17.0004

> <Gold.Chemscore.DG>
-17.8730

> <Gold.Chemscore.ZeroCoef>
-5.4800

> <Gold.Chemscore.Hbond>
1.8504

> <Gold.Chemscore.Metal>
0.0000

> <Gold.Chemscore.Lipo>
101.9175

> <Gold.Chemscore.Internal_Hbond>
0.0000

> <Gold.Chemscore.DEClash>
0.0752

> <Gold.Chemscore.DEInternal>
0.7974

> <Gold.Chemscore.Rot>
2.2312

> <Gold.Chemscore.Internal.Correction>
   9.000000E+99

> <Gold.Chemscore.Hbonds>
donor molecule, donor type, donor heavy atom, donor atom, acceptor molecule, acceptor atom, score
      P1  H  7997  8008       L1    12  0.92
      P1  H 10752 10764       L1     7  0.83

> <Gold.Chemscore.Hbond.Weighted>
-6.1804

> <Gold.Chemscore.Metal.Weighted>
-0.0000

> <Gold.Chemscore.Lipo.Weighted>
-11.9243

> <Gold.Chemscore.Internal_Hbond.Weighted>
0.0000

> <Gold.Chemscore.DEClash.Weighted>
0.0752

> <Gold.Chemscore.DEInternal.Weighted>
0.7974

> <Gold.Chemscore.Rot.Weighted>
5.7118

> <Gold.Chemscore.Internal.Correction.Weighted>
   9.000000E+99

> <Gold.Protein.RotatedTorsions>
[ 6907 6896 6895 6894 ] final  160.35 input  -60.11 | X-H torsion
[ 7974 7965 7964 7962 ] final -136.35 input  175.53 | X-H torsion
[ 8008 7997 7996 7995 ] final  -33.84 input   59.86 | X-H torsion
[ 10167 10162 10161 10158 ] final  -16.36 input  -65.29 | X-H torsion
[ 10718 10713 10712 10709 ] final  -47.78 input   66.30 | X-H torsion
[ 10763 10752 10751 10750 ] final   36.77 input  -60.55 | X-H torsion
[ 11005 11000 10999 10996 ] final   88.76 input  -57.11 | X-H torsion

> <Gold.Protein.ActiveResidues>
 VAL166  LYS551  ARG553  GLY616  TRP617  ASP618  TYR619  PRO620  LYS621  CYS622 
 ASP623  PHE694  ASN695  SER759  ASP760  ASP761  ALA762  ILE779  LEU786  VAL792 
 PHE793  MET794  SER795  GLU796  ALA797  LYS798  CYS799  TRP800  GLU811  SER814 

> <Gold.Protein.RotatedAtoms>
  151.9720  133.3729  159.4074 H   0  0  0  0  0  0  0  0  0  0  0  0  # atno 6907 bound_to 6896
  150.6947  134.4130  159.5180 H   0  0  0  0  0  0  0  0  0  0  0  0  # atno 6908 bound_to 6896
  152.1836  134.8733  160.0575 H   0  0  0  0  0  0  0  0  0  0  0  0  # atno 6909 bound_to 6896
  144.8935  140.6674  143.5130 H   0  0  0  0  0  0  0  0  0  0  0  0  # atno 7974 bound_to 7965
  154.4137  140.1700  156.1953 H   0  0  0  0  0  0  0  0  0  0  0  0  # atno 8008 bound_to 7997
  155.9569  140.3396  155.6433 H   0  0  0  0  0  0  0  0  0  0  0  0  # atno 8009 bound_to 7997
  155.6798  140.0721  157.2479 H   0  0  0  0  0  0  0  0  0  0  0  0  # atno 8010 bound_to 7997
  140.7232  143.5124  150.9733 H   0  0  0  0  0  0  0  0  0  0  0  0  # atno 10167 bound_to 10162
  156.2051  130.4158  149.9188 H   0  0  0  0  0  0  0  0  0  0  0  0  # atno 10718 bound_to 10713
  153.0064  135.6296  154.2037 H   0  0  0  0  0  0  0  0  0  0  0  0  # atno 10763 bound_to 10752
  154.1781  135.2815  155.3062 H   0  0  0  0  0  0  0  0  0  0  0  0  # atno 10764 bound_to 10752
  154.5856  135.5634  153.7288 H   0  0  0  0  0  0  0  0  0  0  0  0  # atno 10765 bound_to 10752
  139.8889  134.8508  156.3046 H   0  0  0  0  0  0  0  0  0  0  0  0  # atno 11005 bound_to 11000
  145.3742  139.1651  143.4316 LP  0  0  0  0  0  0  0  0  0  0  0  0  # atno 17320 bound_to 7965
  146.3067  140.3816  142.8684 LP  0  0  0  0  0  0  0  0  0  0  0  0  # atno 17321 bound_to 7965
  139.8838  143.7038  152.3154 LP  0  0  0  0  0  0  0  0  0  0  0  0  # atno 17342 bound_to 10162
  139.7330  144.7578  151.0772 LP  0  0  0  0  0  0  0  0  0  0  0  0  # atno 17343 bound_to 10162
  156.6885  130.8886  151.3585 LP  0  0  0  0  0  0  0  0  0  0  0  0  # atno 17370 bound_to 10713
  157.7008  130.9331  150.0779 LP  0  0  0  0  0  0  0  0  0  0  0  0  # atno 17371 bound_to 10713
  140.9890  133.7220  156.0786 LP  0  0  0  0  0  0  0  0  0  0  0  0  # atno 17394 bound_to 11000
  140.7649  134.3897  157.5519 LP  0  0  0  0  0  0  0  0  0  0  0  0  # atno 17395 bound_to 11000

$$$$
