AV-unprocessed.smi:604|AV-procd|sdf|3037|dock10
  -GOLD-   2262023553D 1   1.00000     0.00000
 Structure written by MMmdl.
 49 51  0  0  0  0  0  0  0  0  2 V2000
  146.6075  137.7062  155.7106 O   0  0  0  0  0  0  0  0  0  0  0  0
  146.1700  138.6563  155.0624 C   0  0  0  0  0  0  0  0  0  0  0  0
  145.0436  138.6460  154.3292 N   0  0  0  0  0  0  0  0  0  0  0  0
  144.1239  137.5792  154.1400 C   0  0  0  0  0  0  0  0  0  0  0  0
  144.1083  136.5423  155.0954 C   0  0  0  0  0  0  0  0  0  0  0  0
  143.2184  135.4650  154.9254 C   0  0  0  0  0  0  0  0  0  0  0  0
  142.3801  135.4619  153.7940 C   0  0  0  0  0  0  0  0  0  0  0  0
  142.3929  136.4367  152.8607 N   0  0  0  0  0  0  0  0  0  0  0  0
  143.2481  137.4683  153.0312 C   0  0  0  0  0  0  0  0  0  0  0  0
  146.7874  139.8443  154.9875 N   0  0  0  0  0  0  0  0  0  0  0  0
  148.0553  140.1732  155.6327 C   0  0  2  0  0  0  0  0  0  0  0  0
  147.8300  141.0163  156.9013 C   0  0  0  0  0  0  0  0  0  0  0  0
  149.1674  141.4469  157.5278 C   0  0  0  0  0  0  0  0  0  0  0  0
  150.0086  142.1832  156.5487 N   0  3  1  0  0  0  0  0  0  0  0  0
  151.2482  142.7378  157.1519 C   0  0  0  0  0  0  0  0  0  0  0  0
  150.9770  143.4023  158.5151 C   0  0  0  0  0  0  0  0  0  0  0  0
  151.0237  144.9334  158.5161 C   0  0  0  0  0  0  0  0  0  0  0  0
  151.2319  145.3251  159.9824 C   0  0  0  0  0  0  0  0  0  0  0  0
  151.8820  144.1111  160.6620 C   0  0  0  0  0  0  0  0  0  0  0  0
  152.0126  143.0329  159.5809 C   0  0  0  0  0  0  0  0  0  0  0  0
  150.2687  141.3694  155.3322 C   0  0  0  0  0  0  0  0  0  0  0  0
  148.9540  140.9477  154.6558 C   0  0  0  0  0  0  0  0  0  0  0  0
  144.8573  139.4772  153.7879 H   0  0  0  0  0  0  0  0  0  0  0  0
  144.7655  136.5720  155.9526 H   0  0  0  0  0  0  0  0  0  0  0  0
  143.1800  134.6600  155.6441 H   0  0  0  0  0  0  0  0  0  0  0  0
  141.6848  134.6515  153.6312 H   0  0  0  0  0  0  0  0  0  0  0  0
  143.2310  138.2019  152.2405 H   0  0  0  0  0  0  0  0  0  0  0  0
  146.3577  140.5678  154.4297 H   0  0  0  0  0  0  0  0  0  0  0  0
  148.5658  139.2472  155.9059 H   0  0  0  0  0  0  0  0  0  0  0  0
  147.2417  141.9027  156.6586 H   0  0  0  0  0  0  0  0  0  0  0  0
  147.2500  140.4520  157.6326 H   0  0  0  0  0  0  0  0  0  0  0  0
  148.9667  142.0828  158.3911 H   0  0  0  0  0  0  0  0  0  0  0  0
  149.7114  140.5745  157.8938 H   0  0  0  0  0  0  0  0  0  0  0  0
  151.9661  141.9325  157.3149 H   0  0  0  0  0  0  0  0  0  0  0  0
  151.7381  143.4310  156.4659 H   0  0  0  0  0  0  0  0  0  0  0  0
  149.9975  143.0851  158.8775 H   0  0  0  0  0  0  0  0  0  0  0  0
  151.8739  145.2806  157.9270 H   0  0  0  0  0  0  0  0  0  0  0  0
  150.1226  145.3818  158.0966 H   0  0  0  0  0  0  0  0  0  0  0  0
  151.8450  146.2223  160.0726 H   0  0  0  0  0  0  0  0  0  0  0  0
  150.2715  145.5381  160.4534 H   0  0  0  0  0  0  0  0  0  0  0  0
  152.8519  144.3576  161.0952 H   0  0  0  0  0  0  0  0  0  0  0  0
  151.2442  143.7568  161.4727 H   0  0  0  0  0  0  0  0  0  0  0  0
  151.8634  142.0284  159.9782 H   0  0  0  0  0  0  0  0  0  0  0  0
  153.0157  143.0708  159.1530 H   0  0  0  0  0  0  0  0  0  0  0  0
  150.8715  141.9351  154.6225 H   0  0  0  0  0  0  0  0  0  0  0  0
  150.8496  140.4856  155.6015 H   0  0  0  0  0  0  0  0  0  0  0  0
  149.1714  140.3341  153.7807 H   0  0  0  0  0  0  0  0  0  0  0  0
  148.4331  141.8346  154.2912 H   0  0  0  0  0  0  0  0  0  0  0  0
  149.4600  142.9797  156.2572 H   0  0  0  0  0  0  0  0  0  0  0  0
  1  2  2  0  0  0  0
  2  3  1  0  0  0  0
  2 10  1  0  0  0  0
  3  4  1  0  0  0  0
  3 23  1  0  0  0  0
  4  9  1  0  0  0  0
  4  5  2  0  0  0  0
  5  6  1  0  0  0  0
  5 24  1  0  0  0  0
  6  7  2  0  0  0  0
  6 25  1  0  0  0  0
  7  8  1  0  0  0  0
  7 26  1  0  0  0  0
  8  9  2  0  0  0  0
  9 27  1  0  0  0  0
 10 11  1  0  0  0  0
 10 28  1  0  0  0  0
 11 22  1  0  0  0  0
 11 12  1  0  0  0  0
 11 29  1  0  0  0  0
 12 13  1  0  0  0  0
 12 30  1  0  0  0  0
 12 31  1  0  0  0  0
 13 14  1  0  0  0  0
 13 32  1  0  0  0  0
 13 33  1  0  0  0  0
 14 15  1  0  0  0  0
 14 21  1  0  0  0  0
 14 49  1  0  0  0  0
 15 16  1  0  0  0  0
 15 34  1  0  0  0  0
 15 35  1  0  0  0  0
 16 20  1  0  0  0  0
 16 17  1  0  0  0  0
 16 36  1  0  0  0  0
 17 18  1  0  0  0  0
 17 37  1  0  0  0  0
 17 38  1  0  0  0  0
 18 19  1  0  0  0  0
 18 39  1  0  0  0  0
 18 40  1  0  0  0  0
 19 20  1  0  0  0  0
 19 41  1  0  0  0  0
 19 42  1  0  0  0  0
 20 43  1  0  0  0  0
 20 44  1  0  0  0  0
 21 22  1  0  0  0  0
 21 45  1  0  0  0  0
 21 46  1  0  0  0  0
 22 47  1  0  0  0  0
 22 48  1  0  0  0  0
M  CHG  1  14   1
M  END
> <s_m_source_file>
AV-unprocessed.smi

> <i_m_source_file_index>
604

> <i_lp_mmshare_version>
43012

> <i_f3d_flags>
0

> <s_epik_input>
W2NIXTFuW2NIXVtjSF1bY0hdYzFbTkhdQyg9TylbTkhdW0NIXTJbQ0gyXVtDSDJdTihbQ0gyXVtDSDJdMilbQ0gyXVtDSF0zW0NIMl1bQ0gyXVtDSDJdW0NIMl0z

> <s_epik_cmdline>
J2VwaWtfcHl0aG9uJywgJy1waCcsICc3LjAnLCAnLXRuJywgJzgnLCAnLW1hJywgJzIwMCcsICctbWV0YWxfYmluZGluZycsICctaW1hZScsICc8aW5maWxlLm1hZT4nLCAnLW9tYWUnLCAnPG91dGZpbGUubWFlPic=

> <r_lp_tautomer_probability>
1

> <r_epik_Ionization_Penalty>
0.00608112

> <r_epik_Ionization_Penalty_Charging>
0.00207989

> <r_epik_Ionization_Penalty_Neutral>
0.00400122

> <r_epik_State_Penalty>
-0

> <r_epik_Charging_Adjusted_Penalty>
0.00207989

> <i_epik_Tot_Q>
1

> <i_epik_Tot_abs_Q>
1

> <r_epik_Metal_State_Penalty>
-0

> <b_epik_Metal_Only>
0

> <s_lp_Force_Field>
OPLS_2005

> <r_lp_Energy>
41.6956

> <b_lp_Chiralities_Consistent>
1

> <s_lp_Variant>
AV-unprocessed.smi:604-1

> <Gold.Version>
5.8.1

> <Gold.Id.Protein>
6NUR|6NUR_protein|mol2

> <Gold.PLP.Fitness>
45.5372

> <Gold.PLP.PLP>
-32.9343

> <Gold.PLP.part.hbond>
-2.0000

> <Gold.PLP.part.metal>
0.0000

> <Gold.PLP.part.buried>
-3.0659

> <Gold.PLP.part.nonpolar>
-27.0539

> <Gold.PLP.part.repulsive>
0.2569

> <Gold.PLP.ligand.clash>
0.0000

> <Gold.PLP.ligand.torsion>
1.0557

> <Gold.PLP.Chemscore.Hbond>
2.9920

> <Gold.PLP.Chemscore.CHOScore>
1.9053

> <Gold.PLP.Chemscore.Metal>
0.0000

> <Gold.Chemscore.Hbonds>
donor molecule, donor type, donor heavy atom, donor atom, acceptor molecule, acceptor atom, score
      L1  H     3    23       P1 10175  0.98
      L1  H    14    49       P1  8028  2.00
      L1  C     9    27       P1 10171  1.00
      L1  C     9    27       P1 10175  0.94

> <Gold.PLP.Chemscore.Internal.Correction>
0.0224

> <Gold.Rescore>
     Score         DG    S(hbond)    S(metal)    S(lipo)     H(rot)  DE(clash)    DE(int)     intcor
     17.66     -20.00       1.87        0.00     100.26       1.35       0.11       2.23       ----

> <Gold.Chemscore.Fitness>
17.6587

> <Gold.Chemscore.DG>
-20.0031

> <Gold.Chemscore.ZeroCoef>
-5.4800

> <Gold.Chemscore.Hbond>
1.8673

> <Gold.Chemscore.Metal>
0.0000

> <Gold.Chemscore.Lipo>
100.2640

> <Gold.Chemscore.Internal_Hbond>
0.0000

> <Gold.Chemscore.DEClash>
0.1101

> <Gold.Chemscore.DEInternal>
2.2343

> <Gold.Chemscore.Rot>
1.3455

> <Gold.Chemscore.Internal.Correction>
   9.000000E+99

> <Gold.Chemscore.Hbonds>
donor molecule, donor type, donor heavy atom, donor atom, acceptor molecule, acceptor atom, score
      L1  H     3    23       P1 10175  0.87
      L1  H    14    49       P1  8028  0.99

> <Gold.Chemscore.Hbond.Weighted>
-6.2367

> <Gold.Chemscore.Metal.Weighted>
-0.0000

> <Gold.Chemscore.Lipo.Weighted>
-11.7309

> <Gold.Chemscore.Internal_Hbond.Weighted>
0.0000

> <Gold.Chemscore.DEClash.Weighted>
0.1101

> <Gold.Chemscore.DEInternal.Weighted>
2.2343

> <Gold.Chemscore.Rot.Weighted>
3.4445

> <Gold.Chemscore.Internal.Correction.Weighted>
   9.000000E+99

> <Gold.Protein.RotatedTorsions>
[ 6907 6896 6895 6894 ] final -121.75 input  -60.11 | X-H torsion
[ 7974 7965 7964 7962 ] final   71.86 input  175.53 | X-H torsion
[ 8008 7997 7996 7995 ] final -151.34 input   59.86 | X-H torsion
[ 10167 10162 10161 10158 ] final -170.69 input  -65.29 | X-H torsion
[ 10718 10713 10712 10709 ] final  161.82 input   66.30 | X-H torsion
[ 10763 10752 10751 10750 ] final   72.72 input  -60.55 | X-H torsion
[ 11005 11000 10999 10996 ] final   12.94 input  -57.11 | X-H torsion

> <Gold.Protein.ActiveResidues>
 VAL166  LYS551  ARG553  GLY616  TRP617  ASP618  TYR619  PRO620  LYS621  CYS622 
 ASP623  PHE694  ASN695  SER759  ASP760  ASP761  ALA762  ILE779  LEU786  VAL792 
 PHE793  MET794  SER795  GLU796  ALA797  LYS798  CYS799  TRP800  GLU811  SER814 

> <Gold.Protein.RotatedAtoms>
  150.8512  133.7784  159.3024 H   0  0  0  0  0  0  0  0  0  0  0  0  # atno 6907 bound_to 6896
  151.5456  135.1066  159.9946 H   0  0  0  0  0  0  0  0  0  0  0  0  # atno 6908 bound_to 6896
  152.4554  133.7669  159.6833 H   0  0  0  0  0  0  0  0  0  0  0  0  # atno 6909 bound_to 6896
  145.7605  139.2798  143.1379 H   0  0  0  0  0  0  0  0  0  0  0  0  # atno 7974 bound_to 7965
  155.6378  140.0698  157.2628 H   0  0  0  0  0  0  0  0  0  0  0  0  # atno 8008 bound_to 7997
  154.4190  140.1756  156.1590 H   0  0  0  0  0  0  0  0  0  0  0  0  # atno 8009 bound_to 7997
  155.9880  140.3348  155.6729 H   0  0  0  0  0  0  0  0  0  0  0  0  # atno 8010 bound_to 7997
  139.5847  144.1346  152.1560 H   0  0  0  0  0  0  0  0  0  0  0  0  # atno 10167 bound_to 10162
  157.1312  131.0517  151.2371 H   0  0  0  0  0  0  0  0  0  0  0  0  # atno 10718 bound_to 10713
  153.0477  135.5089  154.7787 H   0  0  0  0  0  0  0  0  0  0  0  0  # atno 10763 bound_to 10752
  154.6674  135.2948  154.9789 H   0  0  0  0  0  0  0  0  0  0  0  0  # atno 10764 bound_to 10752
  154.0619  135.6689  153.4865 H   0  0  0  0  0  0  0  0  0  0  0  0  # atno 10765 bound_to 10752
  140.4864  134.0884  155.7761 H   0  0  0  0  0  0  0  0  0  0  0  0  # atno 11005 bound_to 11000
  146.0269  140.8295  142.9895 LP  0  0  0  0  0  0  0  0  0  0  0  0  # atno 17320 bound_to 7965
  144.6831  140.2710  143.7306 LP  0  0  0  0  0  0  0  0  0  0  0  0  # atno 17321 bound_to 7965
  140.0906  144.5623  150.7057 LP  0  0  0  0  0  0  0  0  0  0  0  0  # atno 17342 bound_to 10162
  140.7120  143.2513  151.4551 LP  0  0  0  0  0  0  0  0  0  0  0  0  # atno 17343 bound_to 10162
  157.4391  130.7534  149.7054 LP  0  0  0  0  0  0  0  0  0  0  0  0  # atno 17370 bound_to 10713
  155.9807  130.4026  150.3510 LP  0  0  0  0  0  0  0  0  0  0  0  0  # atno 17371 bound_to 10713
  141.1506  133.8976  157.2107 LP  0  0  0  0  0  0  0  0  0  0  0  0  # atno 17394 bound_to 11000
  139.9795  135.0103  156.9715 LP  0  0  0  0  0  0  0  0  0  0  0  0  # atno 17395 bound_to 11000

$$$$
