#       Name:                AV-unprocessed.smi:7
#       Creating user name   scv26
#       Creation time:       Thu Mar 26 15:15:58 2020


#       File generated by GOLD software.
#

@<TRIPOS>MOLECULE
AV-unprocessed.smi:7
    53    56     1
SMALL
NO_CHARGES


@<TRIPOS>ATOM
      1 ****        -0.4502  -0.4864   2.6131 O.2            1 S1                 0.0000
      2 ****        -0.7222   0.1014   1.5657 C.2            1 S1                 0.0000
      3 ****        -1.2339   1.4918   1.5458 C.2            1 S1                 0.0000
      4 ****        -1.5171   2.3692   2.5921 N.2            1 S1                 0.0000
      5 ****        -1.9435   3.4600   1.9562 C.2            1 S1                 0.0000
      6 ****        -1.9514   3.3395   0.6155 N.pl3          1 S1                 0.0000
      7 ****        -2.3610   4.4166  -0.2033 C.ar           1 S1                 0.0000
      8 ****        -3.5460   5.1310   0.0832 C.ar           1 S1                 0.0000
      9 ****        -3.9457   6.1985  -0.7446 C.ar           1 S1                 0.0000
     10 ****        -3.1648   6.5565  -1.8606 C.ar           1 S1                 0.0000
     11 ****        -1.9842   5.8457  -2.1504 C.ar           1 S1                 0.0000
     12 ****        -1.5836   4.7772  -1.3248 C.ar           1 S1                 0.0000
     13 ****        -1.4903   2.0626   0.3293 C.2            1 S1                 0.0000
     14 ****        -1.3433   1.5148  -0.9244 N.2            1 S1                 0.0000
     15 ****        -0.8976   0.2864  -0.8734 C.2            1 S1                 0.0000
     16 ****        -0.5907  -0.4393   0.3171 N.am           1 S1                 0.0000
     17 ****        -0.1042  -1.8163   0.1378 C.3            1 S1                 0.0000
     18 ****         1.4433  -1.8959   0.1724 C.3            1 S1                 0.0000
     19 ****         1.9139  -1.5719  -1.1236 O.3            1 S1                 0.0000
     20 ****         1.9872  -3.2960   0.5715 C.3            1 S1                 0.0000
     21 ****         1.5853  -3.5523   1.9063 O.3            1 S1                 0.0000
     22 ****         1.4773  -4.4616  -0.2969 C.3            1 S1                 0.0000
     23 ****         2.5439  -5.5458  -0.1545 C.3            1 S1                 0.0000
     24 ****         3.8601  -4.7701  -0.1036 C.3            1 S1                 0.0000
     25 ****         3.5315  -3.4166   0.5457 C.3            1 S1                 0.0000
     26 ****        -2.2433   4.3561   2.4803 H              1 S1                 0.0000
     27 ****        -4.1561   4.8605   0.9327 H              1 S1                 0.0000
     28 ****        -4.8529   6.7416  -0.5240 H              1 S1                 0.0000
     29 ****        -3.4721   7.3752  -2.4947 H              1 S1                 0.0000
     30 ****        -1.3848   6.1197  -3.0062 H              1 S1                 0.0000
     31 ****        -0.6754   4.2386  -1.5527 H              1 S1                 0.0000
     32 ****        -0.7223  -0.2819  -1.7884 H              1 S1                 0.0000
     33 ****        -0.5303  -2.4285   0.9340 H              1 S1                 0.0000
     34 ****        -0.4938  -2.2693  -0.7763 H              1 S1                 0.0000
     35 ****         1.8438  -1.1582   0.8697 H              1 S1                 0.0000
     36 ****         1.6134  -2.2354  -1.7257 H              1 S1                 0.0000
     37 ****         1.9212  -4.3971   2.1637 H              1 S1                 0.0000
     38 ****         0.4841  -4.8095  -0.0092 H              1 S1                 0.0000
     39 ****         1.4222  -4.1625  -1.3441 H              1 S1                 0.0000
     40 ****         2.3978  -6.0879   0.7808 H              1 S1                 0.0000
     41 ****         2.5163  -6.2718  -0.9676 H              1 S1                 0.0000
     42 ****         4.6376  -5.3124   0.4355 H              1 S1                 0.0000
     43 ****         4.2220  -4.6049  -1.1193 H              1 S1                 0.0000
     44 ****         3.9996  -2.6177  -0.0299 H              1 S1                 0.0000
     45 ****         3.9587  -3.3533   1.5480 H              1 S1                 0.0000
     46 ****        -0.1070  -1.4253   2.5850 LP             1 S1                 0.0000
     47 ****        -0.5725  -0.0249   3.4918 LP             1 S1                 0.0000
     48 ****        -1.4234   2.2174   3.5761 LP             1 S1                 0.0000
     49 ****        -1.5525   1.9988  -1.7740 LP             1 S1                 0.0000
     50 ****         2.9136  -1.5449  -1.1226 LP             1 S1                 0.0000
     51 ****         1.5566  -0.6795  -1.3990 LP             1 S1                 0.0000
     52 ****         0.5870  -3.5546   1.9634 LP             1 S1                 0.0000
     53 ****         1.9521  -2.8451   2.5107 LP             1 S1                 0.0000
@<TRIPOS>BOND
    1    1    2 2     
    2    2   16 am    
    3    2    3 1     
    4    3   13 2     
    5    3    4 1     
    6    4    5 2     
    7    5    6 1     
    8    5   26 1     
    9    6    7 1     
   10    6   13 1     
   11    7   12 ar    
   12    7    8 ar    
   13    8    9 ar    
   14    8   27 1     
   15    9   10 ar    
   16    9   28 1     
   17   10   11 ar    
   18   10   29 1     
   19   11   12 ar    
   20   11   30 1     
   21   12   31 1     
   22   13   14 1     
   23   14   15 2     
   24   15   16 1     
   25   15   32 1     
   26   16   17 1     
   27   17   18 1     
   28   17   33 1     
   29   17   34 1     
   30   18   19 1     
   31   18   20 1     
   32   18   35 1     
   33   19   36 1     
   34   20   25 1     
   35   20   21 1     
   36   20   22 1     
   37   21   37 1     
   38   22   23 1     
   39   22   38 1     
   40   22   39 1     
   41   23   24 1     
   42   23   40 1     
   43   23   41 1     
   44   24   25 1     
   45   24   42 1     
   46   24   43 1     
   47   25   44 1     
   48   25   45 1     
   49    1   46 1     
   50    1   47 1     
   51    4   48 1     
   52   14   49 1     
   53   19   50 1     
   54   19   51 1     
   55   21   52 1     
   56   21   53 1     
@<TRIPOS>SUBSTRUCTURE
      1 S1             1
@<TRIPOS>SET
LONE_PAIRS      STATIC     ATOMS    <user>   **** ""
8 46 47 48 49 50 51 52 53
DONOR_HYDROGENS      STATIC     ATOMS    <user>   **** ""
2 36 37
ATOM$BLUE        STATIC     ATOMS    COLORGROUP SYSTEM
8 46 47 48 49 50 51 52 53
ATOM$RED        STATIC     ATOMS    COLORGROUP SYSTEM
2 36 37
