#       Name:                AV-unprocessed.smi:2124
#       Creating user name   scv26
#       Creation time:       Fri Mar 27 11:42:23 2020


#       File generated by GOLD software.
#

@<TRIPOS>MOLECULE
AV-unprocessed.smi:2124
    52    54     1
SMALL
NO_CHARGES


@<TRIPOS>ATOM
      1 ****        -2.8674   3.7717   1.1336 C.3            1 S1                 0.0000
      2 ****        -2.7179   2.5149   0.3033 C.2            1 S1                 0.0000
      3 ****        -2.1077   2.5809  -0.8178 N.2            1 S1                 0.0000
      4 ****        -1.9507   1.4175  -1.5896 C.2            1 S1                 0.0000
      5 ****        -1.1913   1.5861  -2.8940 C.3            1 S1                 0.0000
      6 ****        -2.4423   0.2176  -1.1661 C.2            1 S1                 0.0000
      7 ****        -2.2560  -1.0853  -1.9465 C.3            1 S1                 0.0000
      8 ****        -0.8820  -1.7343  -1.7751 C.2            1 S1                 0.0000
      9 ****        -0.2159  -2.0500  -2.7609 O.2            1 S1                 0.0000
     10 ****        -0.4592  -1.8835  -0.5111 N.am           1 S1                 0.0000
     11 ****         0.9012  -2.2053  -0.0966 C.3            1 S1                 0.0000
     12 ****         1.0230  -3.7155   0.1595 C.3            1 S1                 0.0000
     13 ****         1.2602  -1.3651   1.1522 C.3            1 S1                 0.0000
     14 ****         2.7597  -1.3640   1.5235 C.3            1 S1                 0.0000
     15 ****         3.0743   0.1356   1.6868 C.3            1 S1                 0.0000
     16 ****         3.1184   0.7971   0.2968 C.3            1 S1                 0.0000
     17 ****         1.6338   0.8310  -0.1093 C.3            1 S1                 0.0000
     18 ****         0.9385   0.1512   1.0876 C.3            1 S1                 0.0000
     19 ****         1.7677   0.6804   2.2524 C.3            1 S1                 0.0000
     20 ****        -3.1414   0.1850   0.1312 C.2            1 S1                 0.0000
     21 ****        -3.5915  -0.8737   0.5672 O.2            1 S1                 0.0000
     22 ****        -3.2514   1.3559   0.8206 N.pl3          1 S1                -1.0000
     23 ****        -2.8916   4.6562   0.4960 H              1 S1                 0.0000
     24 ****        -2.0286   3.8661   1.8232 H              1 S1                 0.0000
     25 ****        -3.7909   3.7477   1.7135 H              1 S1                 0.0000
     26 ****        -0.3012   0.9572  -2.9050 H              1 S1                 0.0000
     27 ****        -0.8703   2.6192  -3.0333 H              1 S1                 0.0000
     28 ****        -1.8206   1.3142  -3.7413 H              1 S1                 0.0000
     29 ****        -3.0222  -1.8152  -1.6836 H              1 S1                 0.0000
     30 ****        -2.4152  -0.8836  -3.0060 H              1 S1                 0.0000
     31 ****        -1.0980  -1.6134   0.2237 H              1 S1                 0.0000
     32 ****         1.5928  -1.9446  -0.8994 H              1 S1                 0.0000
     33 ****         2.0373  -3.9856   0.4539 H              1 S1                 0.0000
     34 ****         0.7801  -4.2860  -0.7375 H              1 S1                 0.0000
     35 ****         0.3486  -4.0399   0.9527 H              1 S1                 0.0000
     36 ****         0.7011  -1.7727   1.9969 H              1 S1                 0.0000
     37 ****         2.9207  -1.9021   2.4583 H              1 S1                 0.0000
     38 ****         3.3894  -1.8278   0.7633 H              1 S1                 0.0000
     39 ****         3.9590   0.3336   2.2927 H              1 S1                 0.0000
     40 ****         3.5212   1.8087   0.3580 H              1 S1                 0.0000
     41 ****         3.7299   0.2351  -0.4100 H              1 S1                 0.0000
     42 ****         1.2905   1.8613  -0.2116 H              1 S1                 0.0000
     43 ****         1.4440   0.3335  -1.0595 H              1 S1                 0.0000
     44 ****        -0.1263   0.3773   1.1568 H              1 S1                 0.0000
     45 ****         1.4951   0.2431   3.2145 H              1 S1                 0.0000
     46 ****         1.7509   1.7686   2.3369 H              1 S1                 0.0000
     47 ****        -1.7447   3.4541  -1.1432 LP             1 S1                 0.0000
     48 ****        -0.5726  -1.8824  -3.6800 LP             1 S1                 0.0000
     49 ****         0.6820  -2.4741  -2.6427 LP             1 S1                 0.0000
     50 ****        -3.4838  -1.7172   0.0410 LP             1 S1                 0.0000
     51 ****        -4.0650  -0.8907   1.4478 LP             1 S1                 0.0000
     52 ****        -3.7204   1.3730   1.7036 LP             1 S1                 0.0000
@<TRIPOS>BOND
    1    1    2 1     
    2    1   23 1     
    3    1   24 1     
    4    1   25 1     
    5    2   22 1     
    6    2    3 2     
    7    3    4 1     
    8    4    5 1     
    9    4    6 2     
   10    5   26 1     
   11    5   27 1     
   12    5   28 1     
   13    6    7 1     
   14    6   20 1     
   15    7    8 1     
   16    7   29 1     
   17    7   30 1     
   18    8    9 2     
   19    8   10 am    
   20   10   11 1     
   21   10   31 1     
   22   11   12 1     
   23   11   13 1     
   24   11   32 1     
   25   12   33 1     
   26   12   34 1     
   27   12   35 1     
   28   13   18 1     
   29   13   14 1     
   30   13   36 1     
   31   14   15 1     
   32   14   37 1     
   33   14   38 1     
   34   15   19 1     
   35   15   16 1     
   36   15   39 1     
   37   16   17 1     
   38   16   40 1     
   39   16   41 1     
   40   17   18 1     
   41   17   42 1     
   42   17   43 1     
   43   18   19 1     
   44   18   44 1     
   45   19   45 1     
   46   19   46 1     
   47   20   21 2     
   48   20   22 1     
   49    3   47 1     
   50    9   48 1     
   51    9   49 1     
   52   21   50 1     
   53   21   51 1     
   54   22   52 1     
@<TRIPOS>SUBSTRUCTURE
      1 S1             1
@<TRIPOS>SET
LONE_PAIRS      STATIC     ATOMS    <user>   **** ""
6 47 48 49 50 51 52
DONOR_HYDROGENS      STATIC     ATOMS    <user>   **** ""
1 31
ATOM$BLUE        STATIC     ATOMS    COLORGROUP SYSTEM
6 47 48 49 50 51 52
ATOM$RED        STATIC     ATOMS    COLORGROUP SYSTEM
1 31
