AV-unprocessed.smi:338|AV-procd|sdf|2374|dock3
  -GOLD-   2262022293D 1   1.00000     0.00000
 Structure written by MMmdl.
 41 43  0  0  0  0  0  0  0  0  1 V2000
  151.9519  145.1170  158.0858 C   0  0  0  0  0  0  0  0  0  0  0  0
  152.0094  145.0231  159.6098 C   0  0  0  0  0  0  0  0  0  0  0  0
  151.6131  145.9799  160.2747 O   0  0  0  0  0  0  0  0  0  0  0  0
  152.5456  143.7678  160.2108 C   0  0  0  0  0  0  0  0  0  0  0  0
  152.4851  143.5282  161.6034 C   0  0  0  0  0  0  0  0  0  0  0  0
  153.0002  142.3349  162.1415 C   0  0  0  0  0  0  0  0  0  0  0  0
  153.5787  141.3709  161.2968 C   0  0  0  0  0  0  0  0  0  0  0  0
  153.6496  141.5837  159.9062 C   0  0  0  0  0  0  0  0  0  0  0  0
  154.2313  140.5870  159.1518 O   0  0  0  0  0  0  0  0  0  0  0  0
  154.8243  139.4863  159.8289 C   0  0  0  0  0  0  0  0  0  0  0  0
  156.3335  139.7348  159.9659 C   0  0  2  0  0  0  0  0  0  0  0  0
  156.8938  139.8014  158.6692 O   0  0  0  0  0  0  0  0  0  0  0  0
  157.0407  138.6370  160.7842 C   0  0  0  0  0  0  0  0  0  0  0  0
  156.4744  138.4826  162.1123 N   0  0  0  0  0  0  0  0  0  0  0  0
  156.8827  139.0922  163.2418 C   0  0  0  0  0  0  0  0  0  0  0  0
  156.2206  138.8101  164.3603 N   0  0  0  0  0  0  0  0  0  0  0  0
  155.2698  137.9135  163.9037 C   0  0  0  0  0  0  0  0  0  0  0  0
  154.2444  137.2312  164.5969 C   0  0  0  0  0  0  0  0  0  0  0  0
  153.3824  136.3498  163.9114 C   0  0  0  0  0  0  0  0  0  0  0  0
  153.5327  136.1360  162.5258 C   0  0  0  0  0  0  0  0  0  0  0  0
  154.5466  136.8048  161.8134 C   0  0  0  0  0  0  0  0  0  0  0  0
  155.4028  137.6854  162.5005 C   0  0  0  0  0  0  0  0  0  0  0  0
  153.1291  142.7896  159.3713 C   0  0  0  0  0  0  0  0  0  0  0  0
  151.3176  144.3298  157.6778 H   0  0  0  0  0  0  0  0  0  0  0  0
  152.9502  145.0215  157.6586 H   0  0  0  0  0  0  0  0  0  0  0  0
  151.5405  146.0786  157.7778 H   0  0  0  0  0  0  0  0  0  0  0  0
  152.0474  144.2467  162.2800 H   0  0  0  0  0  0  0  0  0  0  0  0
  152.9509  142.1586  163.2060 H   0  0  0  0  0  0  0  0  0  0  0  0
  153.9710  140.4579  161.7205 H   0  0  0  0  0  0  0  0  0  0  0  0
  154.3767  139.3526  160.8153 H   0  0  0  0  0  0  0  0  0  0  0  0
  154.6557  138.5743  159.2532 H   0  0  0  0  0  0  0  0  0  0  0  0
  156.4917  140.7034  160.4417 H   0  0  0  0  0  0  0  0  0  0  0  0
  157.8350  139.7658  158.7477 H   0  0  0  0  0  0  0  0  0  0  0  0
  156.9684  137.6769  160.2711 H   0  0  0  0  0  0  0  0  0  0  0  0
  158.1047  138.8565  160.8806 H   0  0  0  0  0  0  0  0  0  0  0  0
  157.7149  139.7810  163.2423 H   0  0  0  0  0  0  0  0  0  0  0  0
  154.1203  137.3866  165.6585 H   0  0  0  0  0  0  0  0  0  0  0  0
  152.6022  135.8344  164.4520 H   0  0  0  0  0  0  0  0  0  0  0  0
  152.8689  135.4578  162.0099 H   0  0  0  0  0  0  0  0  0  0  0  0
  154.6659  136.6420  160.7524 H   0  0  0  0  0  0  0  0  0  0  0  0
  153.1737  142.9790  158.3094 H   0  0  0  0  0  0  0  0  0  0  0  0
  1  2  1  0  0  0  0
  1 24  1  0  0  0  0
  1 25  1  0  0  0  0
  1 26  1  0  0  0  0
  2  3  2  0  0  0  0
  2  4  1  0  0  0  0
  4 23  1  0  0  0  0
  4  5  2  0  0  0  0
  5  6  1  0  0  0  0
  5 27  1  0  0  0  0
  6  7  2  0  0  0  0
  6 28  1  0  0  0  0
  7  8  1  0  0  0  0
  7 29  1  0  0  0  0
  8  9  1  0  0  0  0
  8 23  2  0  0  0  0
  9 10  1  0  0  0  0
 10 11  1  0  0  0  0
 10 30  1  0  0  0  0
 10 31  1  0  0  0  0
 11 12  1  0  0  0  0
 11 13  1  0  0  0  0
 11 32  1  0  0  0  0
 12 33  1  0  0  0  0
 13 14  1  0  0  0  0
 13 34  1  0  0  0  0
 13 35  1  0  0  0  0
 14 22  1  0  0  0  0
 14 15  1  0  0  0  0
 15 16  2  0  0  0  0
 15 36  1  0  0  0  0
 16 17  1  0  0  0  0
 17 22  2  0  0  0  0
 17 18  1  0  0  0  0
 18 19  2  0  0  0  0
 18 37  1  0  0  0  0
 19 20  1  0  0  0  0
 19 38  1  0  0  0  0
 20 21  2  0  0  0  0
 20 39  1  0  0  0  0
 21 22  1  0  0  0  0
 21 40  1  0  0  0  0
 23 41  1  0  0  0  0
M  END
> <s_m_source_file>
AV-unprocessed.smi

> <i_m_source_file_index>
338

> <i_lp_mmshare_version>
43012

> <i_f3d_flags>
0

> <s_epik_input>
W0NIM11DKD1PKWMxW2NIXVtjSF1bY0hdYyhbY0hdMSlPW0NIMl1bQ0BIXShbT0hdKVtDSDJdbihbY0hdbjIpYyhjMjMpW2NIXVtjSF1bY0hdW2NIXTM=

> <s_epik_cmdline>
J2VwaWtfcHl0aG9uJywgJy1waCcsICc3LjAnLCAnLXRuJywgJzgnLCAnLW1hJywgJzIwMCcsICctbWV0YWxfYmluZGluZycsICctaW1hZScsICc8aW5maWxlLm1hZT4nLCAnLW9tYWUnLCAnPG91dGZpbGUubWFlPic=

> <r_lp_tautomer_probability>
0.99995

> <r_epik_Ionization_Penalty>
0.0640132

> <r_epik_Ionization_Penalty_Charging>
0

> <r_epik_Ionization_Penalty_Neutral>
0.0640132

> <r_epik_State_Penalty>
0.0557325

> <r_epik_Charging_Adjusted_Penalty>
0.0557325

> <i_epik_Tot_Q>
0

> <i_epik_Tot_abs_Q>
0

> <r_epik_Metal_State_Penalty>
5.8435e-05

> <b_epik_Metal_Only>
0

> <s_lp_Force_Field>
OPLS_2005

> <r_lp_Energy>
20.8584

> <b_lp_Chiralities_Consistent>
1

> <s_lp_Variant>
AV-unprocessed.smi:338-1

> <Gold.Version>
5.8.1

> <Gold.Id.Protein>
6NUR|6NUR_protein|mol2

> <Gold.PLP.Fitness>
52.9538

> <Gold.PLP.PLP>
-53.2708

> <Gold.PLP.part.hbond>
-3.1804

> <Gold.PLP.part.metal>
0.0000

> <Gold.PLP.part.buried>
-5.9873

> <Gold.PLP.part.nonpolar>
-44.2848

> <Gold.PLP.part.repulsive>
0.2254

> <Gold.PLP.ligand.clash>
2.0136

> <Gold.PLP.ligand.torsion>
0.6895

> <Gold.PLP.Chemscore.Hbond>
1.0000

> <Gold.PLP.Chemscore.CHOScore>
0.0000

> <Gold.PLP.Chemscore.Metal>
0.0000

> <Gold.Chemscore.Hbonds>
donor molecule, donor type, donor heavy atom, donor atom, acceptor molecule, acceptor atom, score
      P1  H  7997  8008       L1    12  1.00

> <Gold.PLP.Chemscore.Internal.Correction>
0.0756

> <Gold.Rescore>
     Score         DG    S(hbond)    S(metal)    S(lipo)     H(rot)  DE(clash)    DE(int)     intcor
     18.08     -18.79       0.98        0.00     138.26       2.40       0.00       0.70       ----

> <Gold.Chemscore.Fitness>
18.0772

> <Gold.Chemscore.DG>
-18.7858

> <Gold.Chemscore.ZeroCoef>
-5.4800

> <Gold.Chemscore.Hbond>
0.9805

> <Gold.Chemscore.Metal>
0.0000

> <Gold.Chemscore.Lipo>
138.2585

> <Gold.Chemscore.Internal_Hbond>
0.0000

> <Gold.Chemscore.DEClash>
0.0048

> <Gold.Chemscore.DEInternal>
0.7038

> <Gold.Chemscore.Rot>
2.4005

> <Gold.Chemscore.Internal.Correction>
   9.000000E+99

> <Gold.Chemscore.Hbonds>
donor molecule, donor type, donor heavy atom, donor atom, acceptor molecule, acceptor atom, score
      P1  H  7997  8008       L1    12  0.99

> <Gold.Chemscore.Hbond.Weighted>
-3.2748

> <Gold.Chemscore.Metal.Weighted>
-0.0000

> <Gold.Chemscore.Lipo.Weighted>
-16.1762

> <Gold.Chemscore.Internal_Hbond.Weighted>
0.0000

> <Gold.Chemscore.DEClash.Weighted>
0.0048

> <Gold.Chemscore.DEInternal.Weighted>
0.7038

> <Gold.Chemscore.Rot.Weighted>
6.1453

> <Gold.Chemscore.Internal.Correction.Weighted>
   9.000000E+99

> <Gold.Protein.RotatedTorsions>
[ 6907 6896 6895 6894 ] final   35.07 input  -60.11 | X-H torsion
[ 7974 7965 7964 7962 ] final -168.54 input  175.53 | X-H torsion
[ 8008 7997 7996 7995 ] final -171.66 input   59.86 | X-H torsion
[ 10167 10162 10161 10158 ] final  173.51 input  -65.29 | X-H torsion
[ 10718 10713 10712 10709 ] final -110.04 input   66.30 | X-H torsion
[ 10763 10752 10751 10750 ] final  121.05 input  -60.55 | X-H torsion
[ 11005 11000 10999 10996 ] final   69.57 input  -57.11 | X-H torsion

> <Gold.Protein.ActiveResidues>
 VAL166  LYS551  ARG553  GLY616  TRP617  ASP618  TYR619  PRO620  LYS621  CYS622 
 ASP623  PHE694  ASN695  SER759  ASP760  ASP761  ALA762  ILE779  LEU786  VAL792 
 PHE793  MET794  SER795  GLU796  ALA797  LYS798  CYS799  TRP800  GLU811  SER814 

> <Gold.Protein.RotatedAtoms>
  152.1111  134.9273  160.0566 H   0  0  0  0  0  0  0  0  0  0  0  0  # atno 6907 bound_to 6896
  152.0450  133.3989  159.4361 H   0  0  0  0  0  0  0  0  0  0  0  0  # atno 6908 bound_to 6896
  150.6843  134.3292  159.4863 H   0  0  0  0  0  0  0  0  0  0  0  0  # atno 6909 bound_to 6896
  144.7201  140.2355  143.6298 H   0  0  0  0  0  0  0  0  0  0  0  0  # atno 7974 bound_to 7965
  155.9345  140.1097  157.1106 H   0  0  0  0  0  0  0  0  0  0  0  0  # atno 8008 bound_to 7997
  154.4077  140.1231  156.4911 H   0  0  0  0  0  0  0  0  0  0  0  0  # atno 8009 bound_to 7997
  155.7039  140.3471  155.4947 H   0  0  0  0  0  0  0  0  0  0  0  0  # atno 8010 bound_to 7997
  139.5110  144.3253  152.0164 H   0  0  0  0  0  0  0  0  0  0  0  0  # atno 10167 bound_to 10162
  156.0569  130.5795  150.8183 H   0  0  0  0  0  0  0  0  0  0  0  0  # atno 10718 bound_to 10713
  153.6080  135.3435  155.2969 H   0  0  0  0  0  0  0  0  0  0  0  0  # atno 10763 bound_to 10752
  154.8624  135.4243  154.2340 H   0  0  0  0  0  0  0  0  0  0  0  0  # atno 10764 bound_to 10752
  153.3184  135.7036  153.7124 H   0  0  0  0  0  0  0  0  0  0  0  0  # atno 10765 bound_to 10752
  139.9646  134.7002  156.0572 H   0  0  0  0  0  0  0  0  0  0  0  0  # atno 11005 bound_to 11000
  145.8369  139.2112  143.1850 LP  0  0  0  0  0  0  0  0  0  0  0  0  # atno 17320 bound_to 7965
  146.0381  140.8192  142.9842 LP  0  0  0  0  0  0  0  0  0  0  0  0  # atno 17321 bound_to 7965
  140.2694  144.3981  150.6157 LP  0  0  0  0  0  0  0  0  0  0  0  0  # atno 17342 bound_to 10162
  140.6100  143.2169  151.6905 LP  0  0  0  0  0  0  0  0  0  0  0  0  # atno 17343 bound_to 10162
  157.5547  131.0944  150.9646 LP  0  0  0  0  0  0  0  0  0  0  0  0  # atno 17370 bound_to 10713
  156.9898  130.5559  149.5302 LP  0  0  0  0  0  0  0  0  0  0  0  0  # atno 17371 bound_to 10713
  141.1325  133.6583  156.3504 LP  0  0  0  0  0  0  0  0  0  0  0  0  # atno 17394 bound_to 11000
  140.5424  134.6107  157.5384 LP  0  0  0  0  0  0  0  0  0  0  0  0  # atno 17395 bound_to 11000

$$$$
