AV-unprocessed.smi:2556|AV-procd|sdf|10026|dock8
  -GOLD-   2272014 73D 1   1.00000     0.00000
 Structure written by MMmdl.
 34 36  0  0  0  0  0  0  0  0  2 V2000
  151.6182  137.8874  154.0856 C   0  0  0  0  0  0  0  0  0  0  0  0
  151.6195  138.4343  155.4459 N   0  0  0  0  0  0  0  0  0  0  0  0
  152.1444  137.7639  156.5227 C   0  0  0  0  0  0  0  0  0  0  0  0
  152.6443  136.6534  156.3417 O   0  0  0  0  0  0  0  0  0  0  0  0
  152.1043  138.3407  157.7757 N   0  5  0  0  0  0  0  0  0  0  0  0
  151.5785  139.5691  158.0819 C   0  0  0  0  0  0  0  0  0  0  0  0
  151.5290  140.1004  159.1901 O   0  0  0  0  0  0  0  0  0  0  0  0
  151.0414  140.2521  156.8886 C   0  0  0  0  0  0  0  0  0  0  0  0
  151.0546  139.7235  155.6346 C   0  0  0  0  0  0  0  0  0  0  0  0
  150.4835  140.5901  154.7089 N   0  0  0  0  0  0  0  0  0  0  0  0
  150.1459  141.6277  155.4755 C   0  0  0  0  0  0  0  0  0  0  0  0
  150.4446  141.5077  156.7852 N   0  0  0  0  0  0  0  0  0  0  0  0
  150.1841  142.4932  157.8227 C   0  0  0  0  0  0  0  0  0  0  0  0
  151.3356  143.5054  157.9826 C   0  0  1  0  0  0  0  0  0  0  0  0
  150.9616  144.7533  157.4294 O   0  0  0  0  0  0  0  0  0  0  0  0
  151.7681  143.6214  159.4360 C   0  0  0  0  0  0  0  0  0  0  0  0
  152.4156  142.5475  160.0869 C   0  0  0  0  0  0  0  0  0  0  0  0
  152.8193  142.6713  161.4308 C   0  0  0  0  0  0  0  0  0  0  0  0
  152.5816  143.8700  162.1304 C   0  0  0  0  0  0  0  0  0  0  0  0
  151.9425  144.9457  161.4845 C   0  0  0  0  0  0  0  0  0  0  0  0
  151.5383  144.8222  160.1409 C   0  0  0  0  0  0  0  0  0  0  0  0
  152.0076  136.8721  154.0072 H   0  0  0  0  0  0  0  0  0  0  0  0
  152.2197  138.5202  153.4326 H   0  0  0  0  0  0  0  0  0  0  0  0
  150.6010  137.8723  153.6936 H   0  0  0  0  0  0  0  0  0  0  0  0
  149.6682  142.5078  155.0704 H   0  0  0  0  0  0  0  0  0  0  0  0
  149.2558  143.0131  157.5820 H   0  0  0  0  0  0  0  0  0  0  0  0
  150.0022  141.9674  158.7604 H   0  0  0  0  0  0  0  0  0  0  0  0
  152.1935  143.1614  157.4042 H   0  0  0  0  0  0  0  0  0  0  0  0
  150.2510  144.6086  156.8234 H   0  0  0  0  0  0  0  0  0  0  0  0
  152.6081  141.6258  159.5575 H   0  0  0  0  0  0  0  0  0  0  0  0
  153.3131  141.8473  161.9240 H   0  0  0  0  0  0  0  0  0  0  0  0
  152.8921  143.9653  163.1606 H   0  0  0  0  0  0  0  0  0  0  0  0
  151.7636  145.8671  162.0187 H   0  0  0  0  0  0  0  0  0  0  0  0
  151.0535  145.6547  159.6514 H   0  0  0  0  0  0  0  0  0  0  0  0
  1  2  1  0  0  0  0
  1 22  1  0  0  0  0
  1 23  1  0  0  0  0
  1 24  1  0  0  0  0
  2  9  1  0  0  0  0
  2  3  1  0  0  0  0
  3  4  2  0  0  0  0
  3  5  1  0  0  0  0
  5  6  1  0  0  0  0
  6  7  2  0  0  0  0
  6  8  1  0  0  0  0
  8 12  1  0  0  0  0
  8  9  2  0  0  0  0
  9 10  1  0  0  0  0
 10 11  2  0  0  0  0
 11 12  1  0  0  0  0
 11 25  1  0  0  0  0
 12 13  1  0  0  0  0
 13 14  1  0  0  0  0
 13 26  1  0  0  0  0
 13 27  1  0  0  0  0
 14 15  1  0  0  0  0
 14 16  1  0  0  0  0
 14 28  1  0  0  0  0
 15 29  1  0  0  0  0
 16 21  1  0  0  0  0
 16 17  2  0  0  0  0
 17 18  1  0  0  0  0
 17 30  1  0  0  0  0
 18 19  2  0  0  0  0
 18 31  1  0  0  0  0
 19 20  1  0  0  0  0
 19 32  1  0  0  0  0
 20 21  2  0  0  0  0
 20 33  1  0  0  0  0
 21 34  1  0  0  0  0
M  CHG  1   5  -1
M  END
> <s_m_source_file>
AV-unprocessed.smi

> <i_m_source_file_index>
2556

> <i_lp_mmshare_version>
43012

> <i_f3d_flags>
0

> <s_epik_input>
Tz1jMVtuSF1jKD1PKW4oW0NIM10pYyhjMTIpbltjSF1uMltDSDJdW0NASF0oW09IXSljM1tjSF1bY0hdW2NIXVtjSF1bY0hdMw==

> <s_epik_cmdline>
J2VwaWtfcHl0aG9uJywgJy1waCcsICc3LjAnLCAnLXRuJywgJzgnLCAnLW1hJywgJzIwMCcsICctbWV0YWxfYmluZGluZycsICctaW1hZScsICc8aW5maWxlLm1hZT4nLCAnLW9tYWUnLCAnPG91dGZpbGUubWFlPic=

> <r_lp_tautomer_probability>
1

> <r_epik_Ionization_Penalty>
4.84872

> <r_epik_Ionization_Penalty_Charging>
0.03865

> <r_epik_Ionization_Penalty_Neutral>
4.81007

> <r_epik_State_Penalty>
4.80988

> <r_epik_Charging_Adjusted_Penalty>
4.84853

> <i_epik_Tot_Q>
-1

> <i_epik_Tot_abs_Q>
1

> <r_epik_Metal_State_Penalty>
0.994041

> <b_epik_Metal_Only>
1

> <s_lp_Force_Field>
OPLS_2005

> <r_lp_Energy>
31.8708

> <b_lp_Chiralities_Consistent>
1

> <s_lp_Variant>
AV-unprocessed.smi:2556-4

> <Gold.Version>
5.8.1

> <Gold.Id.Protein>
6NUR|6NUR_protein|mol2

> <Gold.PLP.Fitness>
54.0308

> <Gold.PLP.PLP>
-44.4750

> <Gold.PLP.part.hbond>
-2.9371

> <Gold.PLP.part.metal>
0.0000

> <Gold.PLP.part.buried>
-3.6598

> <Gold.PLP.part.nonpolar>
-37.0820

> <Gold.PLP.part.repulsive>
0.0896

> <Gold.PLP.ligand.clash>
0.0000

> <Gold.PLP.ligand.torsion>
1.2350

> <Gold.PLP.Chemscore.Hbond>
3.0000

> <Gold.PLP.Chemscore.CHOScore>
1.0000

> <Gold.PLP.Chemscore.Metal>
0.0000

> <Gold.Chemscore.Hbonds>
donor molecule, donor type, donor heavy atom, donor atom, acceptor molecule, acceptor atom, score
      L1  H    15    29       P1  8028  1.00
      P1  H  7989  7998       L1    10  0.96
      P1  H 10752 10763       L1     4  1.00
      L1  C    11    25       P1  8028  1.00

> <Gold.PLP.Chemscore.Internal.Correction>
0.0258

> <Gold.Rescore>
     Score         DG    S(hbond)    S(metal)    S(lipo)     H(rot)  DE(clash)    DE(int)     intcor
     17.55     -20.16       2.61        0.00     100.98       2.28       1.61       1.00       ----

> <Gold.Chemscore.Fitness>
17.5495

> <Gold.Chemscore.DG>
-20.1598

> <Gold.Chemscore.ZeroCoef>
-5.4800

> <Gold.Chemscore.Hbond>
2.6071

> <Gold.Chemscore.Metal>
0.0000

> <Gold.Chemscore.Lipo>
100.9839

> <Gold.Chemscore.Internal_Hbond>
0.0000

> <Gold.Chemscore.DEClash>
1.6130

> <Gold.Chemscore.DEInternal>
0.9973

> <Gold.Chemscore.Rot>
2.2824

> <Gold.Chemscore.Internal.Correction>
   9.000000E+99

> <Gold.Chemscore.Hbonds>
donor molecule, donor type, donor heavy atom, donor atom, acceptor molecule, acceptor atom, score
      L1  H    15    29       P1  8028  0.78
      P1  H  7989  7998       L1    10  0.56
      P1  H 10752 10763       L1     4  0.95

> <Gold.Chemscore.Hbond.Weighted>
-8.7078

> <Gold.Chemscore.Metal.Weighted>
-0.0000

> <Gold.Chemscore.Lipo.Weighted>
-11.8151

> <Gold.Chemscore.Internal_Hbond.Weighted>
0.0000

> <Gold.Chemscore.DEClash.Weighted>
1.6130

> <Gold.Chemscore.DEInternal.Weighted>
0.9973

> <Gold.Chemscore.Rot.Weighted>
5.8431

> <Gold.Chemscore.Internal.Correction.Weighted>
   9.000000E+99

> <Gold.Protein.RotatedTorsions>
[ 6907 6896 6895 6894 ] final  124.12 input  -60.11 | X-H torsion
[ 7974 7965 7964 7962 ] final   -4.35 input  175.53 | X-H torsion
[ 8008 7997 7996 7995 ] final -130.52 input   59.86 | X-H torsion
[ 10167 10162 10161 10158 ] final  -53.91 input  -65.29 | X-H torsion
[ 10718 10713 10712 10709 ] final  -68.41 input   66.30 | X-H torsion
[ 10763 10752 10751 10750 ] final  102.85 input  -60.55 | X-H torsion
[ 11005 11000 10999 10996 ] final   51.29 input  -57.11 | X-H torsion

> <Gold.Protein.ActiveResidues>
 VAL166  LYS551  ARG553  GLY616  TRP617  ASP618  TYR619  PRO620  LYS621  CYS622 
 ASP623  PHE694  ASN695  SER759  ASP760  ASP761  ALA762  ILE779  LEU786  VAL792 
 PHE793  MET794  SER795  GLU796  ALA797  LYS798  CYS799  TRP800  GLU811  SER814 

> <Gold.Protein.RotatedAtoms>
  152.4105  133.6956  159.6393 H   0  0  0  0  0  0  0  0  0  0  0  0  # atno 6907 bound_to 6896
  150.7986  133.8632  159.3246 H   0  0  0  0  0  0  0  0  0  0  0  0  # atno 6908 bound_to 6896
  151.6376  135.1018  160.0186 H   0  0  0  0  0  0  0  0  0  0  0  0  # atno 6909 bound_to 6896
  146.2374  140.1859  142.8332 H   0  0  0  0  0  0  0  0  0  0  0  0  # atno 7974 bound_to 7965
  155.2971  140.0451  157.3027 H   0  0  0  0  0  0  0  0  0  0  0  0  # atno 8008 bound_to 7997
  154.5507  140.2316  155.8456 H   0  0  0  0  0  0  0  0  0  0  0  0  # atno 8009 bound_to 7997
  156.1964  140.3037  155.9444 H   0  0  0  0  0  0  0  0  0  0  0  0  # atno 8010 bound_to 7997
  140.6459  143.2535  151.4859 H   0  0  0  0  0  0  0  0  0  0  0  0  # atno 10167 bound_to 10162
  156.0506  130.4294  150.1997 H   0  0  0  0  0  0  0  0  0  0  0  0  # atno 10718 bound_to 10713
  153.3449  135.3996  155.1601 H   0  0  0  0  0  0  0  0  0  0  0  0  # atno 10763 bound_to 10752
  154.8651  135.3642  154.5297 H   0  0  0  0  0  0  0  0  0  0  0  0  # atno 10764 bound_to 10752
  153.5745  135.7078  153.5550 H   0  0  0  0  0  0  0  0  0  0  0  0  # atno 10765 bound_to 10752
  140.0945  134.5164  155.8820 H   0  0  0  0  0  0  0  0  0  0  0  0  # atno 11005 bound_to 11000
  144.9897  140.8536  143.5347 LP  0  0  0  0  0  0  0  0  0  0  0  0  # atno 17320 bound_to 7965
  145.1863  139.2325  143.5266 LP  0  0  0  0  0  0  0  0  0  0  0  0  # atno 17321 bound_to 7965
  139.5670  144.2018  152.1780 LP  0  0  0  0  0  0  0  0  0  0  0  0  # atno 17342 bound_to 10162
  140.1303  144.5294  150.6807 LP  0  0  0  0  0  0  0  0  0  0  0  0  # atno 17343 bound_to 10162
  157.0081  130.9942  151.3373 LP  0  0  0  0  0  0  0  0  0  0  0  0  # atno 17370 bound_to 10713
  157.5429  130.8131  149.8050 LP  0  0  0  0  0  0  0  0  0  0  0  0  # atno 17371 bound_to 10713
  141.2088  133.6677  156.6395 LP  0  0  0  0  0  0  0  0  0  0  0  0  # atno 17394 bound_to 11000
  140.3305  134.7932  157.4322 LP  0  0  0  0  0  0  0  0  0  0  0  0  # atno 17395 bound_to 11000

$$$$
