AV-unprocessed.smi:1695|AV-procd|sdf|6793|dock7
  -GOLD-   22720 7553D 1   1.00000     0.00000
 Structure written by MMmdl.
 52 54  0  0  0  0  0  0  0  0  3 V2000
  152.5073  143.5611  161.5206 C   0  0  0  0  0  0  0  0  0  0  0  0
  152.2644  142.8014  160.2273 C   0  0  0  0  0  0  0  0  0  0  0  0
  151.3388  143.3286  159.2992 C   0  0  0  0  0  0  0  0  0  0  0  0
  151.1376  142.6112  158.1260 C   0  0  0  0  0  0  0  0  0  0  0  0
  150.3066  142.8636  157.0329 N   0  3  0  0  0  0  0  0  0  0  0  0
  150.4513  141.8707  156.1129 C   0  0  0  0  0  0  0  0  0  0  0  0
  151.3664  140.9887  156.5999 N   0  0  0  0  0  0  0  0  0  0  0  0
  151.8739  139.7459  156.0012 C   0  0  0  0  0  0  0  0  0  0  0  0
  150.7684  138.9089  155.3274 C   0  0  2  0  0  0  0  0  0  0  0  0
  150.4103  139.5604  154.1258 O   0  0  0  0  0  0  0  0  0  0  0  0
  149.5031  138.7337  156.1952 C   0  0  0  0  0  0  0  0  0  0  0  0
  149.6058  137.5881  157.1355 N   0  3  1  0  0  0  0  0  0  0  0  0
  149.9676  137.9962  158.5191 C   0  0  0  0  0  0  0  0  0  0  0  0
  150.1762  136.7710  159.4301 C   0  0  0  0  0  0  0  0  0  0  0  0
  148.9717  135.8063  159.4431 C   0  0  1  0  0  0  0  0  0  0  0  0
  147.7972  136.3275  160.2925 C   0  0  0  0  0  0  0  0  0  0  0  0
  147.4823  135.6274  161.3853 N   0  0  0  0  0  0  0  0  0  0  0  0
  147.1806  137.3424  159.9754 O   0  0  0  0  0  0  0  0  0  0  0  0
  148.5618  135.4829  157.9911 C   0  0  0  0  0  0  0  0  0  0  0  0
  148.3884  136.7373  157.1132 C   0  0  0  0  0  0  0  0  0  0  0  0
  151.8189  141.4074  157.8580 C   0  0  0  0  0  0  0  0  0  0  0  0
  152.7341  140.8741  158.7635 C   0  0  0  0  0  0  0  0  0  0  0  0
  152.9525  141.5890  159.9628 C   0  0  0  0  0  0  0  0  0  0  0  0
  153.9452  141.0304  160.9683 C   0  0  0  0  0  0  0  0  0  0  0  0
  151.9476  144.4964  161.5453 H   0  0  0  0  0  0  0  0  0  0  0  0
  153.5642  143.8045  161.6322 H   0  0  0  0  0  0  0  0  0  0  0  0
  152.1966  142.9636  162.3782 H   0  0  0  0  0  0  0  0  0  0  0  0
  150.8103  144.2506  159.4942 H   0  0  0  0  0  0  0  0  0  0  0  0
  149.9321  141.7962  155.1678 H   0  0  0  0  0  0  0  0  0  0  0  0
  152.6778  139.9792  155.3029 H   0  0  0  0  0  0  0  0  0  0  0  0
  152.3317  139.1725  156.8085 H   0  0  0  0  0  0  0  0  0  0  0  0
  151.1880  137.9379  155.0664 H   0  0  0  0  0  0  0  0  0  0  0  0
  150.2226  138.9076  153.4682 H   0  0  0  0  0  0  0  0  0  0  0  0
  149.2932  139.6358  156.7706 H   0  0  0  0  0  0  0  0  0  0  0  0
  148.6489  138.5935  155.5308 H   0  0  0  0  0  0  0  0  0  0  0  0
  150.8878  138.5783  158.5106 H   0  0  0  0  0  0  0  0  0  0  0  0
  149.1971  138.6533  158.9228 H   0  0  0  0  0  0  0  0  0  0  0  0
  151.0584  136.2264  159.0909 H   0  0  0  0  0  0  0  0  0  0  0  0
  150.4056  137.1026  160.4437 H   0  0  0  0  0  0  0  0  0  0  0  0
  149.3045  134.8743  159.9035 H   0  0  0  0  0  0  0  0  0  0  0  0
  146.7206  135.9258  161.9773 H   0  0  0  0  0  0  0  0  0  0  0  0
  148.0096  134.7978  161.6176 H   0  0  0  0  0  0  0  0  0  0  0  0
  149.3247  134.8436  157.5445 H   0  0  0  0  0  0  0  0  0  0  0  0
  147.6415  134.8975  157.9798 H   0  0  0  0  0  0  0  0  0  0  0  0
  147.5247  137.3217  157.4308 H   0  0  0  0  0  0  0  0  0  0  0  0
  148.1860  136.4202  156.0896 H   0  0  0  0  0  0  0  0  0  0  0  0
  153.2625  139.9536  158.5665 H   0  0  0  0  0  0  0  0  0  0  0  0
  154.3515  140.0734  160.6397 H   0  0  0  0  0  0  0  0  0  0  0  0
  153.4658  140.8726  161.9347 H   0  0  0  0  0  0  0  0  0  0  0  0
  154.7802  141.7183  161.1034 H   0  0  0  0  0  0  0  0  0  0  0  0
  150.3587  137.0082  156.7922 H   0  0  0  0  0  0  0  0  0  0  0  0
  149.6823  143.6527  156.9223 H   0  0  0  0  0  0  0  0  0  0  0  0
  1  2  1  0  0  0  0
  1 25  1  0  0  0  0
  1 26  1  0  0  0  0
  1 27  1  0  0  0  0
  2 23  1  0  0  0  0
  2  3  2  0  0  0  0
  3  4  1  0  0  0  0
  3 28  1  0  0  0  0
  4 21  2  0  0  0  0
  4  5  1  0  0  0  0
  5  6  2  0  0  0  0
  5 52  1  0  0  0  0
  6  7  1  0  0  0  0
  6 29  1  0  0  0  0
  7  8  1  0  0  0  0
  7 21  1  0  0  0  0
  8  9  1  0  0  0  0
  8 30  1  0  0  0  0
  8 31  1  0  0  0  0
  9 10  1  0  0  0  0
  9 11  1  0  0  0  0
  9 32  1  0  0  0  0
 10 33  1  0  0  0  0
 11 12  1  0  0  0  0
 11 34  1  0  0  0  0
 11 35  1  0  0  0  0
 12 20  1  0  0  0  0
 12 13  1  0  0  0  0
 12 51  1  0  0  0  0
 13 14  1  0  0  0  0
 13 36  1  0  0  0  0
 13 37  1  0  0  0  0
 14 15  1  0  0  0  0
 14 38  1  0  0  0  0
 14 39  1  0  0  0  0
 15 16  1  0  0  0  0
 15 19  1  0  0  0  0
 15 40  1  0  0  0  0
 16 17  1  0  0  0  0
 16 18  2  0  0  0  0
 17 41  1  0  0  0  0
 17 42  1  0  0  0  0
 19 20  1  0  0  0  0
 19 43  1  0  0  0  0
 19 44  1  0  0  0  0
 20 45  1  0  0  0  0
 20 46  1  0  0  0  0
 21 22  1  0  0  0  0
 22 23  2  0  0  0  0
 22 47  1  0  0  0  0
 23 24  1  0  0  0  0
 24 48  1  0  0  0  0
 24 49  1  0  0  0  0
 24 50  1  0  0  0  0
M  CHG  1   5   1
M  CHG  1  12   1
M  END
> <s_m_source_file>
AV-unprocessed.smi

> <i_m_source_file_index>
1695

> <i_lp_mmshare_version>
43012

> <i_f3d_flags>
0

> <s_epik_input>
W0NIM11jKFtjSF0xKWMoW0NIM10pW2NIXWMoYzEyKW4oW2NIXW4yKVtDSDJdW0NASF0oW09IXSlbQ0gyXU4zW0NIMl1bQ0gyXVtDSF0oQyg9TylbTkgyXSlbQ0gyXVtDSDJdMw==

> <s_epik_cmdline>
J2VwaWtfcHl0aG9uJywgJy1waCcsICc3LjAnLCAnLXRuJywgJzgnLCAnLW1hJywgJzIwMCcsICctbWV0YWxfYmluZGluZycsICctaW1hZScsICc8aW5maWxlLm1hZT4nLCAnLW9tYWUnLCAnPG91dGZpbGUubWFlPic=

> <r_epik_Ionization_Penalty>
1.20173

> <r_epik_Ionization_Penalty_Charging>
1.20172

> <r_epik_Ionization_Penalty_Neutral>
1.7852e-06

> <r_epik_State_Penalty>
1.28089

> <r_epik_Charging_Adjusted_Penalty>
2.48261

> <i_epik_Tot_Q>
2

> <i_epik_Tot_abs_Q>
2

> <r_epik_Metal_State_Penalty>
1.35652

> <b_epik_Metal_Only>
0

> <s_lp_Force_Field>
OPLS_2005

> <r_lp_Energy>
28.6872

> <b_lp_Chiralities_Consistent>
1

> <s_lp_Variant>
AV-unprocessed.smi:1695-5

> <Gold.Version>
5.8.1

> <Gold.Id.Protein>
6NUR|6NUR_protein|mol2

> <Gold.PLP.Fitness>
52.4712

> <Gold.PLP.PLP>
-42.9380

> <Gold.PLP.part.hbond>
-3.8349

> <Gold.PLP.part.metal>
0.0000

> <Gold.PLP.part.buried>
-5.9661

> <Gold.PLP.part.nonpolar>
-34.0333

> <Gold.PLP.part.repulsive>
0.1375

> <Gold.PLP.ligand.clash>
0.0000

> <Gold.PLP.ligand.torsion>
1.2690

> <Gold.PLP.Chemscore.Hbond>
4.0000

> <Gold.PLP.Chemscore.CHOScore>
0.0000

> <Gold.PLP.Chemscore.Metal>
0.0000

> <Gold.Chemscore.Hbonds>
donor molecule, donor type, donor heavy atom, donor atom, acceptor molecule, acceptor atom, score
      L1  H     5    52       P1  8028  1.76
      P1  H  6934  6947       L1    18  1.00
      P1  H  7989  7998       L1    10  1.00

> <Gold.PLP.Chemscore.Internal.Correction>
0.0711

> <Gold.Rescore>
     Score         DG    S(hbond)    S(metal)    S(lipo)     H(rot)  DE(clash)    DE(int)     intcor
     18.99     -20.32       2.87        0.00     108.53       2.91       0.00       1.33       ----

> <Gold.Chemscore.Fitness>
18.9896

> <Gold.Chemscore.DG>
-20.3183

> <Gold.Chemscore.ZeroCoef>
-5.4800

> <Gold.Chemscore.Hbond>
2.8732

> <Gold.Chemscore.Metal>
0.0000

> <Gold.Chemscore.Lipo>
108.5337

> <Gold.Chemscore.Internal_Hbond>
0.0000

> <Gold.Chemscore.DEClash>
0.0000

> <Gold.Chemscore.DEInternal>
1.3287

> <Gold.Chemscore.Rot>
2.9127

> <Gold.Chemscore.Internal.Correction>
   9.000000E+99

> <Gold.Chemscore.Hbonds>
donor molecule, donor type, donor heavy atom, donor atom, acceptor molecule, acceptor atom, score
      L1  H     5    52       P1  8028  0.84
      P1  H  6934  6947       L1    18  0.96
      P1  H  7989  7998       L1    10  0.73

> <Gold.Chemscore.Hbond.Weighted>
-9.5964

> <Gold.Chemscore.Metal.Weighted>
-0.0000

> <Gold.Chemscore.Lipo.Weighted>
-12.6984

> <Gold.Chemscore.Internal_Hbond.Weighted>
0.0000

> <Gold.Chemscore.DEClash.Weighted>
0.0000

> <Gold.Chemscore.DEInternal.Weighted>
1.3287

> <Gold.Chemscore.Rot.Weighted>
7.4565

> <Gold.Chemscore.Internal.Correction.Weighted>
   9.000000E+99

> <Gold.Protein.RotatedTorsions>
[ 6907 6896 6895 6894 ] final  173.65 input  -60.11 | X-H torsion
[ 7974 7965 7964 7962 ] final  -43.90 input  175.53 | X-H torsion
[ 8008 7997 7996 7995 ] final  -14.28 input   59.86 | X-H torsion
[ 10167 10162 10161 10158 ] final  -77.11 input  -65.29 | X-H torsion
[ 10718 10713 10712 10709 ] final   22.83 input   66.30 | X-H torsion
[ 10763 10752 10751 10750 ] final   10.10 input  -60.55 | X-H torsion
[ 11005 11000 10999 10996 ] final   -1.51 input  -57.11 | X-H torsion

> <Gold.Protein.ActiveResidues>
 VAL166  LYS551  ARG553  GLY616  TRP617  ASP618  TYR619  PRO620  LYS621  CYS622 
 ASP623  PHE694  ASN695  SER759  ASP760  ASP761  ALA762  ILE779  LEU786  VAL792 
 PHE793  MET794  SER795  GLU796  ALA797  LYS798  CYS799  TRP800  GLU811  SER814 

> <Gold.Protein.RotatedAtoms>
  151.7649  133.3336  159.3427 H   0  0  0  0  0  0  0  0  0  0  0  0  # atno 6907 bound_to 6896
  150.7483  134.6071  159.6076 H   0  0  0  0  0  0  0  0  0  0  0  0  # atno 6908 bound_to 6896
  152.3380  134.7174  160.0323 H   0  0  0  0  0  0  0  0  0  0  0  0  # atno 6909 bound_to 6896
  145.9974  140.7113  142.9287 H   0  0  0  0  0  0  0  0  0  0  0  0  # atno 7974 bound_to 7965
  154.5223  140.2227  155.8953 H   0  0  0  0  0  0  0  0  0  0  0  0  # atno 8008 bound_to 7997
  156.1676  140.3129  155.8880 H   0  0  0  0  0  0  0  0  0  0  0  0  # atno 8009 bound_to 7997
  155.3625  140.0462  157.3037 H   0  0  0  0  0  0  0  0  0  0  0  0  # atno 8010 bound_to 7997
  140.4799  143.2405  151.8074 H   0  0  0  0  0  0  0  0  0  0  0  0  # atno 10167 bound_to 10162
  157.1577  130.6703  149.6033 H   0  0  0  0  0  0  0  0  0  0  0  0  # atno 10718 bound_to 10713
  153.2069  135.6863  153.8162 H   0  0  0  0  0  0  0  0  0  0  0  0  # atno 10763 bound_to 10752
  153.7408  135.3238  155.3305 H   0  0  0  0  0  0  0  0  0  0  0  0  # atno 10764 bound_to 10752
  154.8201  135.4658  154.0859 H   0  0  0  0  0  0  0  0  0  0  0  0  # atno 10765 bound_to 10752
  140.6481  133.9429  155.8364 H   0  0  0  0  0  0  0  0  0  0  0  0  # atno 11005 bound_to 11000
  144.6908  140.3173  143.7238 LP  0  0  0  0  0  0  0  0  0  0  0  0  # atno 17320 bound_to 7965
  145.7540  139.1803  143.2305 LP  0  0  0  0  0  0  0  0  0  0  0  0  # atno 17321 bound_to 7965
  139.4831  144.4786  151.9335 LP  0  0  0  0  0  0  0  0  0  0  0  0  # atno 17342 bound_to 10162
  140.3871  144.2662  150.5903 LP  0  0  0  0  0  0  0  0  0  0  0  0  # atno 17343 bound_to 10162
  155.9759  130.4722  150.6492 LP  0  0  0  0  0  0  0  0  0  0  0  0  # atno 17370 bound_to 10713
  157.4161  131.0830  151.1175 LP  0  0  0  0  0  0  0  0  0  0  0  0  # atno 17371 bound_to 10713
  141.0557  134.0420  157.3726 LP  0  0  0  0  0  0  0  0  0  0  0  0  # atno 17394 bound_to 11000
  139.9055  135.0178  156.7468 LP  0  0  0  0  0  0  0  0  0  0  0  0  # atno 17395 bound_to 11000

$$$$
