AV-unprocessed.smi:2220|AV-procd|sdf|8979|dock5
  -GOLD-   2272012193D 1   1.00000     0.00000
 Structure written by MMmdl.
 38 39  0  0  0  0  0  0  0  0  1 V2000
  151.5485  141.1345  158.0883 C   0  0  0  0  0  0  0  0  0  0  0  0
  151.5223  142.5092  158.5472 N   0  0  0  0  0  0  0  0  0  0  0  0
  150.8560  143.5283  157.9873 C   0  0  0  0  0  0  0  0  0  0  0  0
  151.0029  144.6905  158.6091 N   0  0  0  0  0  0  0  0  0  0  0  0
  151.8468  144.3909  159.6748 C   0  0  0  0  0  0  0  0  0  0  0  0
  152.1754  143.0532  159.6509 C   0  0  0  0  0  0  0  0  0  0  0  0
  153.0403  142.2672  160.5838 C   0  0  0  0  0  0  0  0  0  0  0  0
  154.2801  141.6717  159.8971 C   0  0  0  0  0  0  0  0  0  0  0  0
  154.8674  140.5981  160.6897 N   0  0  0  0  0  0  0  0  0  0  0  0
  155.2036  139.3869  160.2194 C   0  0  0  0  0  0  0  0  0  0  0  0
  155.0501  139.0538  159.0438 O   0  0  0  0  0  0  0  0  0  0  0  0
  155.8017  138.4007  161.2318 C   0  0  0  0  0  0  0  0  0  0  0  0
  154.7604  137.3428  161.6531 C   0  0  0  0  0  0  0  0  0  0  0  0
  155.3562  136.3499  162.6642 C   0  0  0  0  0  0  0  0  0  0  0  0
  155.9327  137.0759  163.8916 C   0  0  0  0  0  0  0  0  0  0  0  0
  154.9384  137.6392  164.5798 F   0  0  0  0  0  0  0  0  0  0  0  0
  156.5337  136.1870  164.6825 F   0  0  0  0  0  0  0  0  0  0  0  0
  156.9491  138.1573  163.4864 C   0  0  0  0  0  0  0  0  0  0  0  0
  156.3466  139.1416  162.4708 C   0  0  0  0  0  0  0  0  0  0  0  0
  151.0155  141.0424  157.1413 H   0  0  0  0  0  0  0  0  0  0  0  0
  151.0706  140.4901  158.8260 H   0  0  0  0  0  0  0  0  0  0  0  0
  152.5796  140.8118  157.9430 H   0  0  0  0  0  0  0  0  0  0  0  0
  150.2473  143.4166  157.1019 H   0  0  0  0  0  0  0  0  0  0  0  0
  152.1505  145.1553  160.3749 H   0  0  0  0  0  0  0  0  0  0  0  0
  153.3490  142.8984  161.4175 H   0  0  0  0  0  0  0  0  0  0  0  0
  152.4461  141.4655  161.0237 H   0  0  0  0  0  0  0  0  0  0  0  0
  154.0266  141.3080  158.8997 H   0  0  0  0  0  0  0  0  0  0  0  0
  155.0395  142.4415  159.7611 H   0  0  0  0  0  0  0  0  0  0  0  0
  155.0287  140.7890  161.6680 H   0  0  0  0  0  0  0  0  0  0  0  0
  156.6354  137.8837  160.7530 H   0  0  0  0  0  0  0  0  0  0  0  0
  153.8886  137.8267  162.0960 H   0  0  0  0  0  0  0  0  0  0  0  0
  154.3998  136.7994  160.7787 H   0  0  0  0  0  0  0  0  0  0  0  0
  154.5959  135.6326  162.9750 H   0  0  0  0  0  0  0  0  0  0  0  0
  156.1444  135.7727  162.1789 H   0  0  0  0  0  0  0  0  0  0  0  0
  157.2951  138.6967  164.3686 H   0  0  0  0  0  0  0  0  0  0  0  0
  157.8296  137.6845  163.0493 H   0  0  0  0  0  0  0  0  0  0  0  0
  157.1049  139.8673  162.1733 H   0  0  0  0  0  0  0  0  0  0  0  0
  155.5490  139.7097  162.9521 H   0  0  0  0  0  0  0  0  0  0  0  0
  1  2  1  0  0  0  0
  1 20  1  0  0  0  0
  1 21  1  0  0  0  0
  1 22  1  0  0  0  0
  2  6  1  0  0  0  0
  2  3  1  0  0  0  0
  3  4  2  0  0  0  0
  3 23  1  0  0  0  0
  4  5  1  0  0  0  0
  5  6  2  0  0  0  0
  5 24  1  0  0  0  0
  6  7  1  0  0  0  0
  7  8  1  0  0  0  0
  7 25  1  0  0  0  0
  7 26  1  0  0  0  0
  8  9  1  0  0  0  0
  8 27  1  0  0  0  0
  8 28  1  0  0  0  0
  9 10  1  0  0  0  0
  9 29  1  0  0  0  0
 10 11  2  0  0  0  0
 10 12  1  0  0  0  0
 12 19  1  0  0  0  0
 12 13  1  0  0  0  0
 12 30  1  0  0  0  0
 13 14  1  0  0  0  0
 13 31  1  0  0  0  0
 13 32  1  0  0  0  0
 14 15  1  0  0  0  0
 14 33  1  0  0  0  0
 14 34  1  0  0  0  0
 15 16  1  0  0  0  0
 15 17  1  0  0  0  0
 15 18  1  0  0  0  0
 18 19  1  0  0  0  0
 18 35  1  0  0  0  0
 18 36  1  0  0  0  0
 19 37  1  0  0  0  0
 19 38  1  0  0  0  0
M  END
> <s_m_source_file>
AV-unprocessed.smi

> <i_m_source_file_index>
2220

> <i_lp_mmshare_version>
43012

> <i_f3d_flags>
0

> <s_epik_input>
W0NIM11uMVtjSF1uW2NIXWMxW0NIMl1bQ0gyXVtOSF1DKD1PKVtDSF0oW0NIMl1bQ0gyXTIpW0NIMl1bQ0gyXUMyKEYpRg==

> <s_epik_cmdline>
J2VwaWtfcHl0aG9uJywgJy1waCcsICc3LjAnLCAnLXRuJywgJzgnLCAnLW1hJywgJzIwMCcsICctbWV0YWxfYmluZGluZycsICctaW1hZScsICc8aW5maWxlLm1hZT4nLCAnLW9tYWUnLCAnPG91dGZpbGUubWFlPic=

> <r_lp_tautomer_probability>
1

> <r_epik_Ionization_Penalty>
0.872556

> <r_epik_Ionization_Penalty_Charging>
0.872556

> <r_epik_Ionization_Penalty_Neutral>
1.72153e-08

> <r_epik_State_Penalty>
0.910028

> <r_epik_Charging_Adjusted_Penalty>
1.78258

> <i_epik_Tot_Q>
0

> <i_epik_Tot_abs_Q>
0

> <r_epik_Metal_State_Penalty>
0.360885

> <b_epik_Metal_Only>
0

> <s_lp_Force_Field>
OPLS_2005

> <r_lp_Energy>
9.62652

> <b_lp_Chiralities_Consistent>
1

> <s_lp_Variant>
AV-unprocessed.smi:2220-2

> <Gold.Version>
5.8.1

> <Gold.Id.Protein>
6NUR|6NUR_protein|mol2

> <Gold.PLP.Fitness>
45.9673

> <Gold.PLP.PLP>
-41.7380

> <Gold.PLP.part.hbond>
-1.0620

> <Gold.PLP.part.metal>
0.0000

> <Gold.PLP.part.buried>
-5.2825

> <Gold.PLP.part.nonpolar>
-34.5754

> <Gold.PLP.part.repulsive>
0.1389

> <Gold.PLP.ligand.clash>
0.5342

> <Gold.PLP.ligand.torsion>
0.6302

> <Gold.PLP.Chemscore.Hbond>
1.0000

> <Gold.PLP.Chemscore.CHOScore>
1.0000

> <Gold.PLP.Chemscore.Metal>
0.0000

> <Gold.Chemscore.Hbonds>
donor molecule, donor type, donor heavy atom, donor atom, acceptor molecule, acceptor atom, score
      P1  H  7997  8010       L1    11  1.00
      L1  C     3    23       P1  8028  1.00

> <Gold.PLP.Chemscore.Internal.Correction>
0.0238

> <Gold.Rescore>
     Score         DG    S(hbond)    S(metal)    S(lipo)     H(rot)  DE(clash)    DE(int)     intcor
     14.41     -14.93       1.00        0.00      91.69       1.80       0.02       0.50       ----

> <Gold.Chemscore.Fitness>
14.4055

> <Gold.Chemscore.DG>
-14.9324

> <Gold.Chemscore.ZeroCoef>
-5.4800

> <Gold.Chemscore.Hbond>
1.0000

> <Gold.Chemscore.Metal>
0.0000

> <Gold.Chemscore.Lipo>
91.6918

> <Gold.Chemscore.Internal_Hbond>
0.0000

> <Gold.Chemscore.DEClash>
0.0225

> <Gold.Chemscore.DEInternal>
0.5044

> <Gold.Chemscore.Rot>
1.8029

> <Gold.Chemscore.Internal.Correction>
   9.000000E+99

> <Gold.Chemscore.Hbonds>
donor molecule, donor type, donor heavy atom, donor atom, acceptor molecule, acceptor atom, score
      P1  H  7997  8010       L1    11  0.99

> <Gold.Chemscore.Hbond.Weighted>
-3.3400

> <Gold.Chemscore.Metal.Weighted>
-0.0000

> <Gold.Chemscore.Lipo.Weighted>
-10.7279

> <Gold.Chemscore.Internal_Hbond.Weighted>
0.0000

> <Gold.Chemscore.DEClash.Weighted>
0.0225

> <Gold.Chemscore.DEInternal.Weighted>
0.5044

> <Gold.Chemscore.Rot.Weighted>
4.6155

> <Gold.Chemscore.Internal.Correction.Weighted>
   9.000000E+99

> <Gold.Protein.RotatedTorsions>
[ 6907 6896 6895 6894 ] final   27.10 input  -60.11 | X-H torsion
[ 7974 7965 7964 7962 ] final -117.85 input  175.53 | X-H torsion
[ 8008 7997 7996 7995 ] final   -1.50 input   59.86 | X-H torsion
[ 10167 10162 10161 10158 ] final    2.44 input  -65.29 | X-H torsion
[ 10718 10713 10712 10709 ] final   25.87 input   66.30 | X-H torsion
[ 10763 10752 10751 10750 ] final   38.83 input  -60.55 | X-H torsion
[ 11005 11000 10999 10996 ] final  -38.66 input  -57.11 | X-H torsion

> <Gold.Protein.ActiveResidues>
 VAL166  LYS551  ARG553  GLY616  TRP617  ASP618  TYR619  PRO620  LYS621  CYS622 
 ASP623  PHE694  ASN695  SER759  ASP760  ASP761  ALA762  ILE779  LEU786  VAL792 
 PHE793  MET794  SER795  GLU796  ALA797  LYS798  CYS799  TRP800  GLU811  SER814 

> <Gold.Protein.RotatedAtoms>
  151.9972  134.9947  160.0563 H   0  0  0  0  0  0  0  0  0  0  0  0  # atno 6907 bound_to 6896
  152.1553  133.4542  159.4842 H   0  0  0  0  0  0  0  0  0  0  0  0  # atno 6908 bound_to 6896
  150.6880  134.2057  159.4382 H   0  0  0  0  0  0  0  0  0  0  0  0  # atno 6909 bound_to 6896
  145.0805  140.8422  143.4041 H   0  0  0  0  0  0  0  0  0  0  0  0  # atno 7974 bound_to 7965
  154.6461  140.2558  155.7267 H   0  0  0  0  0  0  0  0  0  0  0  0  # atno 8008 bound_to 7997
  156.2552  140.2877  156.0796 H   0  0  0  0  0  0  0  0  0  0  0  0  # atno 8009 bound_to 7997
  155.1522  140.0382  157.2814 H   0  0  0  0  0  0  0  0  0  0  0  0  # atno 8010 bound_to 7997
  140.6635  143.7241  150.7783 H   0  0  0  0  0  0  0  0  0  0  0  0  # atno 10167 bound_to 10162
  157.1992  130.6882  149.6181 H   0  0  0  0  0  0  0  0  0  0  0  0  # atno 10718 bound_to 10713
  152.9987  135.6238  154.2368 H   0  0  0  0  0  0  0  0  0  0  0  0  # atno 10763 bound_to 10752
  154.2109  135.2800  155.2960 H   0  0  0  0  0  0  0  0  0  0  0  0  # atno 10764 bound_to 10752
  154.5607  135.5706  153.7063 H   0  0  0  0  0  0  0  0  0  0  0  0  # atno 10765 bound_to 10752
  141.0044  133.6939  156.2083 H   0  0  0  0  0  0  0  0  0  0  0  0  # atno 11005 bound_to 11000
  145.1184  139.2710  143.5601 LP  0  0  0  0  0  0  0  0  0  0  0  0  # atno 17320 bound_to 7965
  146.3531  140.0800  142.8618 LP  0  0  0  0  0  0  0  0  0  0  0  0  # atno 17321 bound_to 7965
  140.0914  143.4874  152.2476 LP  0  0  0  0  0  0  0  0  0  0  0  0  # atno 17342 bound_to 10162
  139.5876  144.7537  151.3481 LP  0  0  0  0  0  0  0  0  0  0  0  0  # atno 17343 bound_to 10162
  155.9702  130.4588  150.6014 LP  0  0  0  0  0  0  0  0  0  0  0  0  # atno 17370 bound_to 10713
  157.3784  131.0777  151.1498 LP  0  0  0  0  0  0  0  0  0  0  0  0  # atno 17371 bound_to 10713
  140.6836  134.4741  157.5589 LP  0  0  0  0  0  0  0  0  0  0  0  0  # atno 17394 bound_to 11000
  139.9056  134.8457  156.1721 LP  0  0  0  0  0  0  0  0  0  0  0  0  # atno 17395 bound_to 11000

$$$$
