#       Name:                AV-unprocessed.smi:1209
#       Creating user name   scv26
#       Creation time:       Fri Mar 27 04:11:49 2020


#       File generated by GOLD software.
#

@<TRIPOS>MOLECULE
AV-unprocessed.smi:1209
    55    57     1
SMALL
NO_CHARGES


@<TRIPOS>ATOM
      1 ****        -2.3610   6.1069   0.7011 C.3            1 S1                 0.0000
      2 ****        -2.3036   4.6184   0.6549 C.2            1 S1                 0.0000
      3 ****        -1.3837   3.7080   1.0904 C.2            1 S1                 0.0000
      4 ****        -1.9552   2.4554   0.7333 C.2            1 S1                 0.0000
      5 ****        -1.4019   1.0736   0.9602 C.3            1 S1                 0.0000
      6 ****        -1.0620   0.8047   2.3626 N.3            1 S1                 0.0000
      7 ****        -2.2644   0.7974   3.1918 C.3            1 S1                 0.0000
      8 ****        -0.3456  -0.4626   2.5162 C.3            1 S1                 0.0000
      9 ****         1.1236  -0.4538   2.0354 C.3            1 S1                 0.0000
     10 ****         1.9112   0.1629   3.0310 O.3            1 S1                 0.0000
     11 ****         1.6950  -1.8658   1.7961 C.3            1 S1                 0.0000
     12 ****         0.9874  -2.5962   0.7367 N.pl3          1 S1                 0.0000
     13 ****         0.0687  -3.5966   0.8232 C.2            1 S1                 0.0000
     14 ****        -0.2959  -3.9293  -0.4461 N.pl3          1 S1                 1.0000
     15 ****         0.4066  -3.1359  -1.3560 C.ar           1 S1                 0.0000
     16 ****         0.3799  -3.1003  -2.7452 C.ar           1 S1                 0.0000
     17 ****         1.2292  -2.1676  -3.3827 C.ar           1 S1                 0.0000
     18 ****         1.2250  -2.1023  -4.9004 C.3            1 S1                 0.0000
     19 ****         2.0698  -1.3094  -2.6272 C.ar           1 S1                 0.0000
     20 ****         2.9788  -0.3104  -3.3231 C.3            1 S1                 0.0000
     21 ****         2.0823  -1.3613  -1.2150 C.ar           1 S1                 0.0000
     22 ****         1.2370  -2.2833  -0.6033 C.ar           1 S1                 0.0000
     23 ****        -3.1220   2.6036   0.1281 N.2            1 S1                 0.0000
     24 ****        -3.3541   3.9826   0.0750 O.3            1 S1                 0.0000
     25 ****        -1.3682   6.5295   0.8574 H              1 S1                 0.0000
     26 ****        -3.0041   6.4425   1.5148 H              1 S1                 0.0000
     27 ****        -2.7559   6.5100  -0.2316 H              1 S1                 0.0000
     28 ****        -0.4482   3.9053   1.5918 H              1 S1                 0.0000
     29 ****        -2.1086   0.3214   0.6054 H              1 S1                 0.0000
     30 ****        -0.5225   0.9629   0.3291 H              1 S1                 0.0000
     31 ****        -2.0129   0.6185   4.2377 H              1 S1                 0.0000
     32 ****        -2.9587   0.0188   2.8728 H              1 S1                 0.0000
     33 ****        -2.7841   1.7547   3.1472 H              1 S1                 0.0000
     34 ****        -0.3522  -0.7686   3.5638 H              1 S1                 0.0000
     35 ****        -0.9065  -1.2355   1.9905 H              1 S1                 0.0000
     36 ****         1.2401   0.1276   1.1232 H              1 S1                 0.0000
     37 ****         1.5723   1.0323   3.1831 H              1 S1                 0.0000
     38 ****         2.7523  -1.8219   1.5301 H              1 S1                 0.0000
     39 ****         1.6272  -2.4624   2.7071 H              1 S1                 0.0000
     40 ****        -0.3097  -4.0390   1.7336 H              1 S1                 0.0000
     41 ****        -0.2617  -3.7569  -3.3143 H              1 S1                 0.0000
     42 ****         0.9083  -1.1159  -5.2400 H              1 S1                 0.0000
     43 ****         0.5435  -2.8373  -5.3300 H              1 S1                 0.0000
     44 ****         2.2213  -2.3024  -5.2952 H              1 S1                 0.0000
     45 ****         3.5460   0.2820  -2.6044 H              1 S1                 0.0000
     46 ****         2.3948   0.3783  -3.9338 H              1 S1                 0.0000
     47 ****         3.6924  -0.8255  -3.9666 H              1 S1                 0.0000
     48 ****         2.7228  -0.7096  -0.6388 H              1 S1                 0.0000
     49 ****        -0.9739  -4.6460  -0.6719 H              1 S1                 0.0000
     50 ****        -0.4566   1.5408   2.6654 LP             1 S1                 0.0000
     51 ****         2.8610   0.2196   2.7234 LP             1 S1                 0.0000
     52 ****         1.8658  -0.3700   3.8760 LP             1 S1                 0.0000
     53 ****        -3.7164   1.8787  -0.2201 LP             1 S1                 0.0000
     54 ****        -3.4406   4.2737  -0.8777 LP             1 S1                 0.0000
     55 ****        -4.1957   4.2023   0.5684 LP             1 S1                 0.0000
@<TRIPOS>BOND
    1    1    2 1     
    2    1   25 1     
    3    1   26 1     
    4    1   27 1     
    5    2   24 1     
    6    2    3 2     
    7    3    4 1     
    8    3   28 1     
    9    4    5 1     
   10    4   23 2     
   11    5    6 1     
   12    5   29 1     
   13    5   30 1     
   14    6    7 1     
   15    6    8 1     
   16    7   31 1     
   17    7   32 1     
   18    7   33 1     
   19    8    9 1     
   20    8   34 1     
   21    8   35 1     
   22    9   10 1     
   23    9   11 1     
   24    9   36 1     
   25   10   37 1     
   26   11   12 1     
   27   11   38 1     
   28   11   39 1     
   29   12   22 1     
   30   12   13 1     
   31   13   14 2     
   32   13   40 1     
   33   14   15 1     
   34   14   49 1     
   35   15   22 ar    
   36   15   16 ar    
   37   16   17 ar    
   38   16   41 1     
   39   17   18 1     
   40   17   19 ar    
   41   18   42 1     
   42   18   43 1     
   43   18   44 1     
   44   19   20 1     
   45   19   21 ar    
   46   20   45 1     
   47   20   46 1     
   48   20   47 1     
   49   21   22 ar    
   50   21   48 1     
   51   23   24 1     
   52    6   50 1     
   53   10   51 1     
   54   10   52 1     
   55   23   53 1     
   56   24   54 1     
   57   24   55 1     
@<TRIPOS>SUBSTRUCTURE
      1 S1             1
@<TRIPOS>SET
LONE_PAIRS      STATIC     ATOMS    <user>   **** ""
6 50 51 52 53 54 55
DONOR_HYDROGENS      STATIC     ATOMS    <user>   **** ""
2 37 49
ATOM$BLUE        STATIC     ATOMS    COLORGROUP SYSTEM
6 50 51 52 53 54 55
ATOM$RED        STATIC     ATOMS    COLORGROUP SYSTEM
2 37 49
