AV-unprocessed.smi:2655|AV-procd|sdf|10302|dock3
  -GOLD-   2272014313D 1   1.00000     0.00000
 Structure written by MMmdl.
 33 34  0  0  0  0  0  0  0  0  2 V2000
  146.5024  137.8347  154.7638 C   0  0  0  0  0  0  0  0  0  0  0  0
  147.0451  139.1790  154.3278 C   0  0  0  0  0  0  0  0  0  0  0  0
  146.2940  140.0246  153.5528 N   0  0  0  0  0  0  0  0  0  0  0  0
  147.0178  141.1817  153.3022 N   0  5  0  0  0  0  0  0  0  0  0  0
  148.2101  141.0218  153.9301 C   0  0  0  0  0  0  0  0  0  0  0  0
  149.1461  141.8189  153.9587 O   0  0  0  0  0  0  0  0  0  0  0  0
  148.2292  139.7317  154.5844 C   0  0  0  0  0  0  0  0  0  0  0  0
  149.3796  139.1870  155.4100 C   0  0  0  0  0  0  0  0  0  0  0  0
  150.3673  138.3737  154.5581 C   0  0  0  0  0  0  0  0  0  0  0  0
  149.8430  137.0486  154.2499 N   0  0  0  0  0  0  0  0  0  0  0  0
  150.3562  135.8950  154.7005 C   0  0  0  0  0  0  0  0  0  0  0  0
  151.3435  135.8322  155.4334 O   0  0  0  0  0  0  0  0  0  0  0  0
  149.6562  134.8418  154.2462 N   0  0  0  0  0  0  0  0  0  0  0  0
  149.8670  133.4635  154.5094 C   0  0  0  0  0  0  0  0  0  0  0  0
  149.3543  132.3709  153.7509 C   0  0  0  0  0  0  0  0  0  0  0  0
  149.8467  131.2814  154.4117 C   0  0  0  0  0  0  0  0  0  0  0  0
  149.7192  129.8142  154.1835 C   0  0  0  0  0  0  0  0  0  0  0  0
  150.5926  131.6720  155.4798 O   0  0  0  0  0  0  0  0  0  0  0  0
  150.6010  133.0706  155.5343 N   0  0  0  0  0  0  0  0  0  0  0  0
  147.1566  137.0343  154.4169 H   0  0  0  0  0  0  0  0  0  0  0  0
  145.5050  137.6639  154.3577 H   0  0  0  0  0  0  0  0  0  0  0  0
  146.4441  137.7859  155.8512 H   0  0  0  0  0  0  0  0  0  0  0  0
  148.9728  138.5642  156.2073 H   0  0  0  0  0  0  0  0  0  0  0  0
  149.8909  140.0184  155.8970 H   0  0  0  0  0  0  0  0  0  0  0  0
  150.6061  138.9074  153.6365 H   0  0  0  0  0  0  0  0  0  0  0  0
  151.3079  138.2474  155.0948 H   0  0  0  0  0  0  0  0  0  0  0  0
  149.0310  137.0101  153.6512 H   0  0  0  0  0  0  0  0  0  0  0  0
  148.8742  135.0510  153.6433 H   0  0  0  0  0  0  0  0  0  0  0  0
  148.7318  132.3674  152.8691 H   0  0  0  0  0  0  0  0  0  0  0  0
  149.2820  129.6091  153.2062 H   0  0  0  0  0  0  0  0  0  0  0  0
  149.0817  129.3594  154.9417 H   0  0  0  0  0  0  0  0  0  0  0  0
  150.6947  129.3294  154.2253 H   0  0  0  0  0  0  0  0  0  0  0  0
  145.3575  139.8356  153.2250 H   0  0  0  0  0  0  0  0  0  0  0  0
  1 20  1  0  0  0  0
  1 21  1  0  0  0  0
  1 22  1  0  0  0  0
  1  2  1  0  0  0  0
  2  7  2  0  0  0  0
  2  3  1  0  0  0  0
  3  4  1  0  0  0  0
  3 33  1  0  0  0  0
  4  5  1  0  0  0  0
  5  7  1  0  0  0  0
  5  6  2  0  0  0  0
  7  8  1  0  0  0  0
  8  9  1  0  0  0  0
  8 23  1  0  0  0  0
  8 24  1  0  0  0  0
  9 10  1  0  0  0  0
  9 25  1  0  0  0  0
  9 26  1  0  0  0  0
 10 11  1  0  0  0  0
 10 27  1  0  0  0  0
 11 12  2  0  0  0  0
 11 13  1  0  0  0  0
 13 14  1  0  0  0  0
 13 28  1  0  0  0  0
 14 19  2  0  0  0  0
 14 15  1  0  0  0  0
 15 16  2  0  0  0  0
 15 29  1  0  0  0  0
 16 17  1  0  0  0  0
 16 18  1  0  0  0  0
 17 30  1  0  0  0  0
 17 31  1  0  0  0  0
 17 32  1  0  0  0  0
 18 19  1  0  0  0  0
M  CHG  1   4  -1
M  END
> <s_m_source_file>
AV-unprocessed.smi

> <i_m_source_file_index>
2655

> <i_lp_mmshare_version>
43012

> <i_f3d_flags>
0

> <s_epik_input>
W0NIM11DMT1OW05IXUMoPU8pW0NASF0xW0NIMl1bQ0gyXVtOSF1DKD1PKVtOSF1jMltjSF1jKFtDSDNdKW9uMg==

> <s_epik_cmdline>
J2VwaWtfcHl0aG9uJywgJy1waCcsICc3LjAnLCAnLXRuJywgJzgnLCAnLW1hJywgJzIwMCcsICctbWV0YWxfYmluZGluZycsICctaW1hZScsICc8aW5maWxlLm1hZT4nLCAnLW9tYWUnLCAnPG91dGZpbGUubWFlPic=

> <r_lp_tautomer_probability>
0.00220696

> <r_epik_Ionization_Penalty>
4.81787

> <r_epik_Ionization_Penalty_Charging>
2.1236

> <r_epik_Ionization_Penalty_Neutral>
2.69427

> <r_epik_State_Penalty>
2.7337

> <r_epik_Charging_Adjusted_Penalty>
4.8573

> <i_epik_Tot_Q>
-1

> <i_epik_Tot_abs_Q>
1

> <r_epik_Metal_State_Penalty>
2.0342

> <b_epik_Metal_Only>
1

> <s_lp_Force_Field>
OPLS_2005

> <r_lp_Energy>
14.0901

> <b_lp_Chiralities_Consistent>
1

> <s_lp_Variant>
AV-unprocessed.smi:2655-5

> <Gold.Version>
5.8.1

> <Gold.Id.Protein>
6NUR|6NUR_protein|mol2

> <Gold.PLP.Fitness>
36.5570

> <Gold.PLP.PLP>
-26.3259

> <Gold.PLP.part.hbond>
-6.1944

> <Gold.PLP.part.metal>
0.0000

> <Gold.PLP.part.buried>
-2.0698

> <Gold.PLP.part.nonpolar>
-17.6073

> <Gold.PLP.part.repulsive>
0.5527

> <Gold.PLP.ligand.clash>
0.0000

> <Gold.PLP.ligand.torsion>
0.4813

> <Gold.PLP.Chemscore.Hbond>
3.7304

> <Gold.PLP.Chemscore.CHOScore>
0.0000

> <Gold.PLP.Chemscore.Metal>
0.0000

> <Gold.Chemscore.Hbonds>
donor molecule, donor type, donor heavy atom, donor atom, acceptor molecule, acceptor atom, score
      L1  H     3    33       P1 10175  0.99
      L1  H    10    27       P1  7948  0.50
      L1  H    13    28       P1  7948  0.40
      P1  H  8011  8017       L1     6  0.53
      P1  H 10752 10764       L1    12  1.00

> <Gold.PLP.Chemscore.Internal.Correction>
0.0025

> <Gold.Rescore>
     Score         DG    S(hbond)    S(metal)    S(lipo)     H(rot)  DE(clash)    DE(int)     intcor
     13.62     -15.54       3.17        0.00      35.96       1.85       0.08       1.84       ----

> <Gold.Chemscore.Fitness>
13.6205

> <Gold.Chemscore.DG>
-15.5392

> <Gold.Chemscore.ZeroCoef>
-5.4800

> <Gold.Chemscore.Hbond>
3.1702

> <Gold.Chemscore.Metal>
0.0000

> <Gold.Chemscore.Lipo>
35.9631

> <Gold.Chemscore.Internal_Hbond>
0.0000

> <Gold.Chemscore.DEClash>
0.0786

> <Gold.Chemscore.DEInternal>
1.8402

> <Gold.Chemscore.Rot>
1.8504

> <Gold.Chemscore.Internal.Correction>
   9.000000E+99

> <Gold.Chemscore.Hbonds>
donor molecule, donor type, donor heavy atom, donor atom, acceptor molecule, acceptor atom, score
      L1  H     3    33       P1 10175  0.94
      L1  H    10    27       P1  7948  0.50
      L1  H    13    28       P1  7948  0.24
      P1  H  8011  8017       L1     6  0.52
      P1  H 10752 10764       L1    12  0.94

> <Gold.Chemscore.Hbond.Weighted>
-10.5884

> <Gold.Chemscore.Metal.Weighted>
-0.0000

> <Gold.Chemscore.Lipo.Weighted>
-4.2077

> <Gold.Chemscore.Internal_Hbond.Weighted>
0.0000

> <Gold.Chemscore.DEClash.Weighted>
0.0786

> <Gold.Chemscore.DEInternal.Weighted>
1.8402

> <Gold.Chemscore.Rot.Weighted>
4.7369

> <Gold.Chemscore.Internal.Correction.Weighted>
   9.000000E+99

> <Gold.Protein.RotatedTorsions>
[ 6907 6896 6895 6894 ] final  103.46 input  -60.11 | X-H torsion
[ 7974 7965 7964 7962 ] final  -34.02 input  175.53 | X-H torsion
[ 8008 7997 7996 7995 ] final -144.61 input   59.86 | X-H torsion
[ 10167 10162 10161 10158 ] final   10.95 input  -65.29 | X-H torsion
[ 10718 10713 10712 10709 ] final    6.78 input   66.30 | X-H torsion
[ 10763 10752 10751 10750 ] final  -58.05 input  -60.55 | X-H torsion
[ 11005 11000 10999 10996 ] final -102.15 input  -57.11 | X-H torsion

> <Gold.Protein.ActiveResidues>
 VAL166  LYS551  ARG553  GLY616  TRP617  ASP618  TYR619  PRO620  LYS621  CYS622 
 ASP623  PHE694  ASN695  SER759  ASP760  ASP761  ALA762  ILE779  LEU786  VAL792 
 PHE793  MET794  SER795  GLU796  ALA797  LYS798  CYS799  TRP800  GLU811  SER814 

> <Gold.Protein.RotatedAtoms>
  152.5294  133.9822  159.7811 H   0  0  0  0  0  0  0  0  0  0  0  0  # atno 6907 bound_to 6896
  151.0073  133.5990  159.2694 H   0  0  0  0  0  0  0  0  0  0  0  0  # atno 6908 bound_to 6896
  151.3077  135.0792  159.9314 H   0  0  0  0  0  0  0  0  0  0  0  0  # atno 6909 bound_to 6896
  146.0864  140.5987  142.8885 H   0  0  0  0  0  0  0  0  0  0  0  0  # atno 7974 bound_to 7965
  155.5297  140.0598  157.2891 H   0  0  0  0  0  0  0  0  0  0  0  0  # atno 8008 bound_to 7997
  154.4489  140.1938  156.0526 H   0  0  0  0  0  0  0  0  0  0  0  0  # atno 8009 bound_to 7997
  156.0661  140.3266  155.7523 H   0  0  0  0  0  0  0  0  0  0  0  0  # atno 8010 bound_to 7997
  140.6162  143.8303  150.7121 H   0  0  0  0  0  0  0  0  0  0  0  0  # atno 10167 bound_to 10162
  156.9272  130.5812  149.5649 H   0  0  0  0  0  0  0  0  0  0  0  0  # atno 10718 bound_to 10713
  154.2320  135.6359  153.5178 H   0  0  0  0  0  0  0  0  0  0  0  0  # atno 10763 bound_to 10752
  152.9947  135.5521  154.6003 H   0  0  0  0  0  0  0  0  0  0  0  0  # atno 10764 bound_to 10752
  154.5488  135.2900  155.1002 H   0  0  0  0  0  0  0  0  0  0  0  0  # atno 10765 bound_to 10752
  141.1201  133.8535  157.1323 H   0  0  0  0  0  0  0  0  0  0  0  0  # atno 11005 bound_to 11000
  144.7328  140.4723  143.6925 LP  0  0  0  0  0  0  0  0  0  0  0  0  # atno 17320 bound_to 7965
  145.6123  139.1514  143.3069 LP  0  0  0  0  0  0  0  0  0  0  0  0  # atno 17321 bound_to 7965
  140.1882  143.4058  152.1882 LP  0  0  0  0  0  0  0  0  0  0  0  0  # atno 17342 bound_to 10162
  139.5401  144.7248  151.4764 LP  0  0  0  0  0  0  0  0  0  0  0  0  # atno 17343 bound_to 10162
  156.0464  130.5539  150.8890 LP  0  0  0  0  0  0  0  0  0  0  0  0  # atno 17370 bound_to 10713
  157.5870  131.0945  150.9180 LP  0  0  0  0  0  0  0  0  0  0  0  0  # atno 17371 bound_to 10713
  140.0152  134.9970  157.0479 LP  0  0  0  0  0  0  0  0  0  0  0  0  # atno 17394 bound_to 11000
  140.4532  134.1561  155.7183 LP  0  0  0  0  0  0  0  0  0  0  0  0  # atno 17395 bound_to 11000

$$$$
