AV-unprocessed.smi:1703|AV-procd|sdf|6878|dock10
  -GOLD-   22720 8 83D 1   1.00000     0.00000
 Structure written by MMmdl.
 50 52  0  0  0  0  0  0  0  0  3 V2000
  140.7007  140.1703  155.0330 C   0  0  0  0  0  0  0  0  0  0  0  0
  140.0528  139.6935  153.7206 C   0  0  1  0  0  0  0  0  0  0  0  0
  140.6890  138.4097  153.1522 C   0  0  0  0  0  0  0  0  0  0  0  0
  140.2990  137.2244  153.9513 N   0  3  2  0  0  0  0  0  0  0  0  0
  140.9626  135.9784  153.4898 C   0  0  0  0  0  0  0  0  0  0  0  0
  142.4891  136.0129  153.7002 C   0  0  2  0  0  0  0  0  0  0  0  0
  142.7626  136.5570  154.9775 O   0  0  0  0  0  0  0  0  0  0  0  0
  143.2003  136.8532  152.6214 C   0  0  0  0  0  0  0  0  0  0  0  0
  144.4490  136.2306  152.1497 N   0  0  0  0  0  0  0  0  0  0  0  0
  145.6918  136.7730  151.9950 C   0  0  0  0  0  0  0  0  0  0  0  0
  146.0905  138.1864  152.2805 C   0  0  0  0  0  0  0  0  0  0  0  0
  147.3556  138.5253  151.7534 O   0  0  0  0  0  0  0  0  0  0  0  0
  146.5035  135.7886  151.5133 N   0  3  0  0  0  0  0  0  0  0  0  0
  145.7783  134.6067  151.3633 C   0  0  0  0  0  0  0  0  0  0  0  0
  146.1708  133.3508  150.9108 C   0  0  0  0  0  0  0  0  0  0  0  0
  145.1768  132.3515  150.8767 C   0  0  0  0  0  0  0  0  0  0  0  0
  143.8530  132.6197  151.2809 C   0  0  0  0  0  0  0  0  0  0  0  0
  143.4668  133.8976  151.7368 C   0  0  0  0  0  0  0  0  0  0  0  0
  144.4563  134.8812  151.7704 C   0  0  0  0  0  0  0  0  0  0  0  0
  138.8221  137.1220  154.0309 C   0  0  0  0  0  0  0  0  0  0  0  0
  138.2306  138.4119  154.6281 C   0  0  2  0  0  0  0  0  0  0  0  0
  136.6984  138.3870  154.6491 C   0  0  0  0  0  0  0  0  0  0  0  0
  138.6396  139.5292  153.8432 O   0  0  0  0  0  0  0  0  0  0  0  0
  141.7502  140.4216  154.8765 H   0  0  0  0  0  0  0  0  0  0  0  0
  140.6637  139.4112  155.8139 H   0  0  0  0  0  0  0  0  0  0  0  0
  140.2029  141.0635  155.4108 H   0  0  0  0  0  0  0  0  0  0  0  0
  140.2010  140.4891  152.9894 H   0  0  0  0  0  0  0  0  0  0  0  0
  140.3673  138.2640  152.1197 H   0  0  0  0  0  0  0  0  0  0  0  0
  141.7749  138.5120  153.1338 H   0  0  0  0  0  0  0  0  0  0  0  0
  140.5220  135.1235  154.0056 H   0  0  0  0  0  0  0  0  0  0  0  0
  140.7637  135.8266  152.4276 H   0  0  0  0  0  0  0  0  0  0  0  0
  142.8947  135.0021  153.6721 H   0  0  0  0  0  0  0  0  0  0  0  0
  143.3281  135.9622  155.4462 H   0  0  0  0  0  0  0  0  0  0  0  0
  142.5501  136.9707  151.7542 H   0  0  0  0  0  0  0  0  0  0  0  0
  143.4067  137.8628  152.9768 H   0  0  0  0  0  0  0  0  0  0  0  0
  145.3411  138.8568  151.8594 H   0  0  0  0  0  0  0  0  0  0  0  0
  146.1071  138.3526  153.3575 H   0  0  0  0  0  0  0  0  0  0  0  0
  147.9067  137.7572  151.7737 H   0  0  0  0  0  0  0  0  0  0  0  0
  147.1841  133.1440  150.5986 H   0  0  0  0  0  0  0  0  0  0  0  0
  145.4350  131.3602  150.5326 H   0  0  0  0  0  0  0  0  0  0  0  0
  143.1179  131.8288  151.2397 H   0  0  0  0  0  0  0  0  0  0  0  0
  142.4481  134.0868  152.0394 H   0  0  0  0  0  0  0  0  0  0  0  0
  138.4142  136.9447  153.0342 H   0  0  0  0  0  0  0  0  0  0  0  0
  138.5311  136.2728  154.6484 H   0  0  0  0  0  0  0  0  0  0  0  0
  138.5788  138.5339  155.6542 H   0  0  0  0  0  0  0  0  0  0  0  0
  136.3267  137.5536  155.2457 H   0  0  0  0  0  0  0  0  0  0  0  0
  136.2904  138.2870  153.6428 H   0  0  0  0  0  0  0  0  0  0  0  0
  136.3002  139.3062  155.0797 H   0  0  0  0  0  0  0  0  0  0  0  0
  140.6363  137.3937  154.8886 H   0  0  0  0  0  0  0  0  0  0  0  0
  147.4839  135.9228  151.3000 H   0  0  0  0  0  0  0  0  0  0  0  0
  1  2  1  0  0  0  0
  1 24  1  0  0  0  0
  1 25  1  0  0  0  0
  1 26  1  0  0  0  0
  2 23  1  0  0  0  0
  2  3  1  0  0  0  0
  2 27  1  0  0  0  0
  3  4  1  0  0  0  0
  3 28  1  0  0  0  0
  3 29  1  0  0  0  0
  4  5  1  0  0  0  0
  4 20  1  0  0  0  0
  4 49  1  0  0  0  0
  5  6  1  0  0  0  0
  5 30  1  0  0  0  0
  5 31  1  0  0  0  0
  6  7  1  0  0  0  0
  6  8  1  0  0  0  0
  6 32  1  0  0  0  0
  7 33  1  0  0  0  0
  8  9  1  0  0  0  0
  8 34  1  0  0  0  0
  8 35  1  0  0  0  0
  9 19  1  0  0  0  0
  9 10  1  0  0  0  0
 10 11  1  0  0  0  0
 10 13  2  0  0  0  0
 11 12  1  0  0  0  0
 11 36  1  0  0  0  0
 11 37  1  0  0  0  0
 12 38  1  0  0  0  0
 13 14  1  0  0  0  0
 13 50  1  0  0  0  0
 14 19  2  0  0  0  0
 14 15  1  0  0  0  0
 15 16  2  0  0  0  0
 15 39  1  0  0  0  0
 16 17  1  0  0  0  0
 16 40  1  0  0  0  0
 17 18  2  0  0  0  0
 17 41  1  0  0  0  0
 18 19  1  0  0  0  0
 18 42  1  0  0  0  0
 20 21  1  0  0  0  0
 20 43  1  0  0  0  0
 20 44  1  0  0  0  0
 21 22  1  0  0  0  0
 21 23  1  0  0  0  0
 21 45  1  0  0  0  0
 22 46  1  0  0  0  0
 22 47  1  0  0  0  0
 22 48  1  0  0  0  0
M  CHG  1   4   1
M  CHG  1  13   1
M  END
> <s_m_source_file>
AV-unprocessed.smi

> <i_m_source_file_index>
1703

> <i_lp_mmshare_version>
43012

> <i_f3d_flags>
0

> <s_epik_input>
W0NIM11bQ0BASF0xW0NIMl1OKFtDSDJdW0NASF0oTzEpW0NIM10pW0NIMl1bQ0BIXShbT0hdKVtDSDJdbihjKG4yKVtDSDJdW09IXSljKGMyMylbY0hdW2NIXVtjSF1bY0hdMw==

> <s_epik_cmdline>
J2VwaWtfcHl0aG9uJywgJy1waCcsICc3LjAnLCAnLXRuJywgJzgnLCAnLW1hJywgJzIwMCcsICctbWV0YWxfYmluZGluZycsICctaW1hZScsICc8aW5maWxlLm1hZT4nLCAnLW9tYWUnLCAnPG91dGZpbGUubWFlPic=

> <r_epik_Ionization_Penalty>
2.22579

> <r_epik_Ionization_Penalty_Charging>
2.22492

> <r_epik_Ionization_Penalty_Neutral>
0.000870007

> <r_epik_State_Penalty>
2.3141

> <r_epik_Charging_Adjusted_Penalty>
4.53902

> <i_epik_Tot_Q>
2

> <i_epik_Tot_abs_Q>
2

> <r_epik_Metal_State_Penalty>
6.36517

> <b_epik_Metal_Only>
0

> <s_lp_Force_Field>
OPLS_2005

> <r_lp_Energy>
31.039

> <b_lp_Chiralities_Consistent>
1

> <s_lp_Variant>
AV-unprocessed.smi:1703-26

> <Gold.Version>
5.8.1

> <Gold.Id.Protein>
6NUR|6NUR_protein|mol2

> <Gold.PLP.Fitness>
50.5680

> <Gold.PLP.PLP>
-43.7038

> <Gold.PLP.part.hbond>
-3.7163

> <Gold.PLP.part.metal>
0.0000

> <Gold.PLP.part.buried>
-5.8899

> <Gold.PLP.part.nonpolar>
-33.8944

> <Gold.PLP.part.repulsive>
0.1784

> <Gold.PLP.ligand.clash>
0.0000

> <Gold.PLP.ligand.torsion>
1.0253

> <Gold.PLP.Chemscore.Hbond>
2.9520

> <Gold.PLP.Chemscore.CHOScore>
0.0000

> <Gold.PLP.Chemscore.Metal>
0.0000

> <Gold.Chemscore.Hbonds>
donor molecule, donor type, donor heavy atom, donor atom, acceptor molecule, acceptor atom, score
      L1  H    12    38       P1  7948  1.00
      L1  H    13    50       P1  7948  1.98

> <Gold.PLP.Chemscore.Internal.Correction>
0.0587

> <Gold.Rescore>
     Score         DG    S(hbond)    S(metal)    S(lipo)     H(rot)  DE(clash)    DE(int)     intcor
     14.76     -15.88       1.99        0.00      98.60       3.04       0.07       1.05       ----

> <Gold.Chemscore.Fitness>
14.7573

> <Gold.Chemscore.DG>
-15.8757

> <Gold.Chemscore.ZeroCoef>
-5.4800

> <Gold.Chemscore.Hbond>
1.9870

> <Gold.Chemscore.Metal>
0.0000

> <Gold.Chemscore.Lipo>
98.5954

> <Gold.Chemscore.Internal_Hbond>
0.0000

> <Gold.Chemscore.DEClash>
0.0699

> <Gold.Chemscore.DEInternal>
1.0485

> <Gold.Chemscore.Rot>
3.0378

> <Gold.Chemscore.Internal.Correction>
   9.000000E+99

> <Gold.Chemscore.Hbonds>
donor molecule, donor type, donor heavy atom, donor atom, acceptor molecule, acceptor atom, score
      L1  H    12    38       P1  7948  1.00
      L1  H    13    50       P1  7948  0.87

> <Gold.Chemscore.Hbond.Weighted>
-6.6367

> <Gold.Chemscore.Metal.Weighted>
-0.0000

> <Gold.Chemscore.Lipo.Weighted>
-11.5357

> <Gold.Chemscore.Internal_Hbond.Weighted>
0.0000

> <Gold.Chemscore.DEClash.Weighted>
0.0699

> <Gold.Chemscore.DEInternal.Weighted>
1.0485

> <Gold.Chemscore.Rot.Weighted>
7.7767

> <Gold.Chemscore.Internal.Correction.Weighted>
   9.000000E+99

> <Gold.Protein.RotatedTorsions>
[ 6907 6896 6895 6894 ] final  128.05 input  -60.11 | X-H torsion
[ 7974 7965 7964 7962 ] final   11.03 input  175.53 | X-H torsion
[ 8008 7997 7996 7995 ] final -126.00 input   59.86 | X-H torsion
[ 10167 10162 10161 10158 ] final  -97.24 input  -65.29 | X-H torsion
[ 10718 10713 10712 10709 ] final    1.23 input   66.30 | X-H torsion
[ 10763 10752 10751 10750 ] final  -86.38 input  -60.55 | X-H torsion
[ 11005 11000 10999 10996 ] final  -49.36 input  -57.11 | X-H torsion

> <Gold.Protein.ActiveResidues>
 VAL166  LYS551  ARG553  GLY616  TRP617  ASP618  TYR619  PRO620  LYS621  CYS622 
 ASP623  PHE694  ASN695  SER759  ASP760  ASP761  ALA762  ILE779  LEU786  VAL792 
 PHE793  MET794  SER795  GLU796  ALA797  LYS798  CYS799  TRP800  GLU811  SER814 

> <Gold.Protein.RotatedAtoms>
  152.3755  133.6476  159.6120 H   0  0  0  0  0  0  0  0  0  0  0  0  # atno 6907 bound_to 6896
  150.7701  133.9199  159.3404 H   0  0  0  0  0  0  0  0  0  0  0  0  # atno 6908 bound_to 6896
  151.7014  135.0930  160.0303 H   0  0  0  0  0  0  0  0  0  0  0  0  # atno 6909 bound_to 6896
  146.2378  139.9545  142.8466 H   0  0  0  0  0  0  0  0  0  0  0  0  # atno 7974 bound_to 7965
  155.2224  140.0422  157.2950 H   0  0  0  0  0  0  0  0  0  0  0  0  # atno 8008 bound_to 7997
  154.5941  140.2434  155.7852 H   0  0  0  0  0  0  0  0  0  0  0  0  # atno 8009 bound_to 7997
  156.2278  140.2948  156.0120 H   0  0  0  0  0  0  0  0  0  0  0  0  # atno 8010 bound_to 7997
  140.2855  143.3255  152.0399 H   0  0  0  0  0  0  0  0  0  0  0  0  # atno 10167 bound_to 10162
  156.8452  130.5534  149.5674 H   0  0  0  0  0  0  0  0  0  0  0  0  # atno 10718 bound_to 10713
  154.6218  135.5451  153.7584 H   0  0  0  0  0  0  0  0  0  0  0  0  # atno 10763 bound_to 10752
  153.0242  135.6414  154.1429 H   0  0  0  0  0  0  0  0  0  0  0  0  # atno 10764 bound_to 10752
  154.1363  135.2911  155.3152 H   0  0  0  0  0  0  0  0  0  0  0  0  # atno 10765 bound_to 10752
  141.0754  133.6667  156.3574 H   0  0  0  0  0  0  0  0  0  0  0  0  # atno 11005 bound_to 11000
  145.1829  140.9776  143.4255 LP  0  0  0  0  0  0  0  0  0  0  0  0  # atno 17320 bound_to 7965
  144.9926  139.3675  143.6207 LP  0  0  0  0  0  0  0  0  0  0  0  0  # atno 17321 bound_to 7965
  139.4951  144.6562  151.6567 LP  0  0  0  0  0  0  0  0  0  0  0  0  # atno 17342 bound_to 10162
  140.5776  144.0001  150.6250 LP  0  0  0  0  0  0  0  0  0  0  0  0  # atno 17343 bound_to 10162
  156.0859  130.5857  150.9646 LP  0  0  0  0  0  0  0  0  0  0  0  0  # atno 17370 bound_to 10713
  157.6334  131.0918  150.8397 LP  0  0  0  0  0  0  0  0  0  0  0  0  # atno 17371 bound_to 10713
  140.5584  134.5959  157.5427 LP  0  0  0  0  0  0  0  0  0  0  0  0  # atno 17394 bound_to 11000
  139.9567  134.7523  156.0327 LP  0  0  0  0  0  0  0  0  0  0  0  0  # atno 17395 bound_to 11000

$$$$
