#       Name:                AV-unprocessed.smi:1101
#       Creating user name   scv26
#       Creation time:       Fri Mar 27 03:30:36 2020


#       File generated by GOLD software.
#

@<TRIPOS>MOLECULE
AV-unprocessed.smi:1101
    46    47     1
SMALL
NO_CHARGES


@<TRIPOS>ATOM
      1 ****        -4.9015  -2.4765  -0.6807 C.3            1 S1                 0.0000
      2 ****        -3.9648  -1.6742  -1.5922 C.3            1 S1                 0.0000
      3 ****        -3.2809  -0.5035  -0.8688 C.3            1 S1                 0.0000
      4 ****        -2.2529   0.2128  -1.7691 C.3            1 S1                 0.0000
      5 ****        -1.6790   1.3359  -1.0136 N.am           1 S1                 0.0000
      6 ****        -0.4191   1.4226  -0.5187 C.2            1 S1                 0.0000
      7 ****        -0.0581   2.3108   0.2548 O.2            1 S1                 0.0000
      8 ****         0.4256   0.4761  -0.9621 N.am           1 S1                 0.0000
      9 ****         1.8302   0.3573  -0.5887 C.3            1 S1                 0.0000
     10 ****         1.9970  -0.3175   0.7825 C.3            1 S1                 0.0000
     11 ****         3.4465  -0.4651   1.1503 C.2            1 S1                 0.0000
     12 ****         4.2758  -1.6127   0.9963 C.2            1 S1                 0.0000
     13 ****         5.5138  -1.4134   1.4188 N.2            1 S1                 0.0000
     14 ****         5.5182  -0.1371   1.8558 N.pl3          1 S1                 0.0000
     15 ****         6.7357   0.4274   2.3975 C.3            1 S1                 0.0000
     16 ****         4.2845   0.4594   1.7076 C.2            1 S1                 0.0000
     17 ****        -2.7315   2.2904  -0.6568 C.3            1 S1                 0.0000
     18 ****        -3.7629   1.5640   0.2239 C.3            1 S1                 0.0000
     19 ****        -4.2818   0.4375  -0.4794 O.3            1 S1                 0.0000
     20 ****        -5.3519  -3.3080  -1.2231 H              1 S1                 0.0000
     21 ****        -5.7107  -1.8540  -0.2978 H              1 S1                 0.0000
     22 ****        -4.3625  -2.8888   0.1726 H              1 S1                 0.0000
     23 ****        -3.2042  -2.3477  -1.9887 H              1 S1                 0.0000
     24 ****        -4.5228  -1.3014  -2.4519 H              1 S1                 0.0000
     25 ****        -2.7786  -0.8835   0.0230 H              1 S1                 0.0000
     26 ****        -1.5123  -0.5027  -2.1260 H              1 S1                 0.0000
     27 ****        -2.7420   0.5986  -2.6650 H              1 S1                 0.0000
     28 ****         0.0655  -0.2137  -1.6053 H              1 S1                 0.0000
     29 ****         2.3333  -0.2319  -1.3559 H              1 S1                 0.0000
     30 ****         2.3027   1.3412  -0.5931 H              1 S1                 0.0000
     31 ****         1.4731   0.2636   1.5423 H              1 S1                 0.0000
     32 ****         1.5068  -1.2916   0.7659 H              1 S1                 0.0000
     33 ****         4.0151  -2.5794   0.5911 H              1 S1                 0.0000
     34 ****         6.5953   1.4880   2.6076 H              1 S1                 0.0000
     35 ****         7.5484   0.3138   1.6795 H              1 S1                 0.0000
     36 ****         6.9996  -0.0858   3.3227 H              1 S1                 0.0000
     37 ****         4.1057   1.4821   2.0059 H              1 S1                 0.0000
     38 ****        -2.3498   3.1694  -0.1356 H              1 S1                 0.0000
     39 ****        -3.2073   2.6630  -1.5650 H              1 S1                 0.0000
     40 ****        -3.3142   1.2423   1.1651 H              1 S1                 0.0000
     41 ****        -4.5856   2.2339   0.4737 H              1 S1                 0.0000
     42 ****        -0.7068   3.0135   0.5469 LP             1 S1                 0.0000
     43 ****         0.8837   2.3290   0.5907 LP             1 S1                 0.0000
     44 ****         6.2746  -2.0625   1.4150 LP             1 S1                 0.0000
     45 ****        -4.9407  -0.0281   0.1114 LP             1 S1                 0.0000
     46 ****        -4.7454   0.7648  -1.3027 LP             1 S1                 0.0000
@<TRIPOS>BOND
    1    1    2 1     
    2    1   20 1     
    3    1   21 1     
    4    1   22 1     
    5    2    3 1     
    6    2   23 1     
    7    2   24 1     
    8    3   19 1     
    9    3    4 1     
   10    3   25 1     
   11    4    5 1     
   12    4   26 1     
   13    4   27 1     
   14    5    6 am    
   15    5   17 1     
   16    6    7 2     
   17    6    8 am    
   18    8    9 1     
   19    8   28 1     
   20    9   10 1     
   21    9   29 1     
   22    9   30 1     
   23   10   11 1     
   24   10   31 1     
   25   10   32 1     
   26   11   16 2     
   27   11   12 1     
   28   12   13 2     
   29   12   33 1     
   30   13   14 1     
   31   14   15 1     
   32   14   16 1     
   33   15   34 1     
   34   15   35 1     
   35   15   36 1     
   36   16   37 1     
   37   17   18 1     
   38   17   38 1     
   39   17   39 1     
   40   18   19 1     
   41   18   40 1     
   42   18   41 1     
   43    7   42 1     
   44    7   43 1     
   45   13   44 1     
   46   19   45 1     
   47   19   46 1     
@<TRIPOS>SUBSTRUCTURE
      1 S1             1
@<TRIPOS>SET
LONE_PAIRS      STATIC     ATOMS    <user>   **** ""
5 42 43 44 45 46
DONOR_HYDROGENS      STATIC     ATOMS    <user>   **** ""
1 28
ATOM$BLUE        STATIC     ATOMS    COLORGROUP SYSTEM
5 42 43 44 45 46
ATOM$RED        STATIC     ATOMS    COLORGROUP SYSTEM
1 28
