AV-unprocessed.smi:444|AV-procd|sdf|2587|dock9
  -GOLD-   2262022583D 1   1.00000     0.00000
 Structure written by MMmdl.
 45 46  0  0  0  0  0  0  0  0  1 V2000
  151.2376  144.2057  158.6498 C   0  0  0  0  0  0  0  0  0  0  0  0
  151.7517  142.7979  158.8700 C   0  0  0  0  0  0  0  0  0  0  0  0
  152.8673  142.5706  159.6985 C   0  0  0  0  0  0  0  0  0  0  0  0
  153.3372  141.2604  159.8997 C   0  0  0  0  0  0  0  0  0  0  0  0
  152.6958  140.1705  159.2752 C   0  0  0  0  0  0  0  0  0  0  0  0
  153.2162  138.7638  159.5034 C   0  0  0  0  0  0  0  0  0  0  0  0
  151.5738  140.3841  158.4411 C   0  0  0  0  0  0  0  0  0  0  0  0
  150.9930  139.2747  157.8612 O   0  0  0  0  0  0  0  0  0  0  0  0
  149.6025  139.3103  157.5673 C   0  0  0  0  0  0  0  0  0  0  0  0
  148.9786  137.9584  157.9555 C   0  0  2  0  0  0  0  0  0  0  0  0
  147.7571  138.2433  158.6093 O   0  0  0  0  0  0  0  0  0  0  0  0
  149.8762  137.1691  158.9348 C   0  0  0  0  0  0  0  0  0  0  0  0
  149.1454  136.0763  159.5890 N   0  0  0  0  0  0  0  0  0  0  0  0
  148.6365  136.4044  160.8310 N   0  0  0  0  0  0  0  0  0  0  0  0
  147.9715  135.5477  161.5343 C   0  0  0  0  0  0  0  0  0  0  0  0
  147.4673  136.0171  162.8724 C   0  0  0  0  0  0  0  0  0  0  0  0
  147.7463  134.2037  161.0122 C   0  0  0  0  0  0  0  0  0  0  0  0
  146.9524  133.2382  161.8815 C   0  0  0  0  0  0  0  0  0  0  0  0
  148.2583  133.8912  159.7955 C   0  0  0  0  0  0  0  0  0  0  0  0
  148.0946  132.6009  159.2073 C   0  0  0  0  0  0  0  0  0  0  0  0
  147.9728  131.5463  158.7456 N   0  0  0  0  0  0  0  0  0  0  0  0
  149.0185  134.8550  158.9965 C   0  0  0  0  0  0  0  0  0  0  0  0
  149.5058  134.5981  157.8948 O   0  0  0  0  0  0  0  0  0  0  0  0
  151.1082  141.7099  158.2463 C   0  0  0  0  0  0  0  0  0  0  0  0
  151.9776  144.9486  158.9494 H   0  0  0  0  0  0  0  0  0  0  0  0
  150.3310  144.3705  159.2323 H   0  0  0  0  0  0  0  0  0  0  0  0
  151.0044  144.3673  157.5970 H   0  0  0  0  0  0  0  0  0  0  0  0
  153.3660  143.3980  160.1819 H   0  0  0  0  0  0  0  0  0  0  0  0
  154.1939  141.0959  160.5369 H   0  0  0  0  0  0  0  0  0  0  0  0
  153.4903  138.3023  158.5541 H   0  0  0  0  0  0  0  0  0  0  0  0
  152.4493  138.1494  159.9762 H   0  0  0  0  0  0  0  0  0  0  0  0
  154.0966  138.7619  160.1472 H   0  0  0  0  0  0  0  0  0  0  0  0
  149.1533  140.1049  158.1650 H   0  0  0  0  0  0  0  0  0  0  0  0
  149.4157  139.5369  156.5158 H   0  0  0  0  0  0  0  0  0  0  0  0
  148.7948  137.3704  157.0550 H   0  0  0  0  0  0  0  0  0  0  0  0
  147.7230  137.7480  159.4136 H   0  0  0  0  0  0  0  0  0  0  0  0
  150.7059  136.7212  158.3848 H   0  0  0  0  0  0  0  0  0  0  0  0
  150.3550  137.8346  159.6561 H   0  0  0  0  0  0  0  0  0  0  0  0
  147.8188  135.3633  163.6709 H   0  0  0  0  0  0  0  0  0  0  0  0
  146.3773  136.0230  162.8938 H   0  0  0  0  0  0  0  0  0  0  0  0
  147.8070  137.0282  163.1033 H   0  0  0  0  0  0  0  0  0  0  0  0
  146.7693  132.2875  161.3814 H   0  0  0  0  0  0  0  0  0  0  0  0
  145.9809  133.6614  162.1396 H   0  0  0  0  0  0  0  0  0  0  0  0
  147.4921  133.0261  162.8050 H   0  0  0  0  0  0  0  0  0  0  0  0
  150.2543  141.9184  157.6201 H   0  0  0  0  0  0  0  0  0  0  0  0
  1  2  1  0  0  0  0
  1 25  1  0  0  0  0
  1 26  1  0  0  0  0
  1 27  1  0  0  0  0
  2 24  1  0  0  0  0
  2  3  2  0  0  0  0
  3  4  1  0  0  0  0
  3 28  1  0  0  0  0
  4  5  2  0  0  0  0
  4 29  1  0  0  0  0
  5  6  1  0  0  0  0
  5  7  1  0  0  0  0
  6 30  1  0  0  0  0
  6 31  1  0  0  0  0
  6 32  1  0  0  0  0
  7  8  1  0  0  0  0
  7 24  2  0  0  0  0
  8  9  1  0  0  0  0
  9 10  1  0  0  0  0
  9 33  1  0  0  0  0
  9 34  1  0  0  0  0
 10 11  1  0  0  0  0
 10 12  1  0  0  0  0
 10 35  1  0  0  0  0
 11 36  1  0  0  0  0
 12 13  1  0  0  0  0
 12 37  1  0  0  0  0
 12 38  1  0  0  0  0
 13 22  1  0  0  0  0
 13 14  1  0  0  0  0
 14 15  2  0  0  0  0
 15 16  1  0  0  0  0
 15 17  1  0  0  0  0
 16 39  1  0  0  0  0
 16 40  1  0  0  0  0
 16 41  1  0  0  0  0
 17 18  1  0  0  0  0
 17 19  2  0  0  0  0
 18 42  1  0  0  0  0
 18 43  1  0  0  0  0
 18 44  1  0  0  0  0
 19 20  1  0  0  0  0
 19 22  1  0  0  0  0
 20 21  3  0  0  0  0
 22 23  2  0  0  0  0
 24 45  1  0  0  0  0
M  END
> <s_m_source_file>
AV-unprocessed.smi

> <i_m_source_file_index>
444

> <i_lp_mmshare_version>
43012

> <i_f3d_flags>
0

> <s_epik_input>
W0NIM11jMVtjSF1bY0hdYyhbQ0gzXSljKFtjSF0xKU9bQ0gyXVtDQEhdKFtPSF0pW0NIMl1uMm5jKFtDSDNdKWMoW0NIM10pYyhDI04pYzI9Tw==

> <s_epik_cmdline>
J2VwaWtfcHl0aG9uJywgJy1waCcsICc3LjAnLCAnLXRuJywgJzgnLCAnLW1hJywgJzIwMCcsICctbWV0YWxfYmluZGluZycsICctaW1hZScsICc8aW5maWxlLm1hZT4nLCAnLW9tYWUnLCAnPG91dGZpbGUubWFlPic=

> <r_lp_tautomer_probability>
1

> <r_epik_Ionization_Penalty>
1.17331e-07

> <r_epik_Ionization_Penalty_Charging>
1.57223e-10

> <r_epik_Ionization_Penalty_Neutral>
1.17174e-07

> <r_epik_State_Penalty>
-0

> <r_epik_Charging_Adjusted_Penalty>
1.57223e-10

> <i_epik_Tot_Q>
0

> <i_epik_Tot_abs_Q>
0

> <r_epik_Metal_State_Penalty>
-0

> <b_epik_Metal_Only>
0

> <s_lp_Force_Field>
OPLS_2005

> <r_lp_Energy>
32.4723

> <b_lp_Chiralities_Consistent>
1

> <s_lp_Variant>
AV-unprocessed.smi:444-1

> <Gold.Version>
5.8.1

> <Gold.Id.Protein>
6NUR|6NUR_protein|mol2

> <Gold.PLP.Fitness>
49.4450

> <Gold.PLP.PLP>
-45.1099

> <Gold.PLP.part.hbond>
-3.9983

> <Gold.PLP.part.metal>
0.0000

> <Gold.PLP.part.buried>
-3.8407

> <Gold.PLP.part.nonpolar>
-38.0568

> <Gold.PLP.part.repulsive>
0.0000

> <Gold.PLP.ligand.clash>
0.0000

> <Gold.PLP.ligand.torsion>
1.7223

> <Gold.PLP.Chemscore.Hbond>
2.5890

> <Gold.PLP.Chemscore.CHOScore>
0.0000

> <Gold.PLP.Chemscore.Metal>
0.0000

> <Gold.Chemscore.Hbonds>
donor molecule, donor type, donor heavy atom, donor atom, acceptor molecule, acceptor atom, score
      P1  H  6931  6943       L1    14  0.67

> <Gold.PLP.Chemscore.Internal.Correction>
0.0129

> <Gold.Rescore>
     Score         DG    S(hbond)    S(metal)    S(lipo)     H(rot)  DE(clash)    DE(int)     intcor
     16.35     -19.09       1.87        0.00     112.98       2.29       0.13       2.61       ----

> <Gold.Chemscore.Fitness>
16.3467

> <Gold.Chemscore.DG>
-19.0931

> <Gold.Chemscore.ZeroCoef>
-5.4800

> <Gold.Chemscore.Hbond>
1.8736

> <Gold.Chemscore.Metal>
0.0000

> <Gold.Chemscore.Lipo>
112.9805

> <Gold.Chemscore.Internal_Hbond>
0.0000

> <Gold.Chemscore.DEClash>
0.1347

> <Gold.Chemscore.DEInternal>
2.6117

> <Gold.Chemscore.Rot>
2.2905

> <Gold.Chemscore.Internal.Correction>
   9.000000E+99

> <Gold.Chemscore.Hbonds>
donor molecule, donor type, donor heavy atom, donor atom, acceptor molecule, acceptor atom, score
      P1  H  6931  6943       L1    14  0.56

> <Gold.Chemscore.Hbond.Weighted>
-6.2580

> <Gold.Chemscore.Metal.Weighted>
-0.0000

> <Gold.Chemscore.Lipo.Weighted>
-13.2187

> <Gold.Chemscore.Internal_Hbond.Weighted>
0.0000

> <Gold.Chemscore.DEClash.Weighted>
0.1347

> <Gold.Chemscore.DEInternal.Weighted>
2.6117

> <Gold.Chemscore.Rot.Weighted>
5.8636

> <Gold.Chemscore.Internal.Correction.Weighted>
   9.000000E+99

> <Gold.Protein.RotatedTorsions>
[ 6907 6896 6895 6894 ] final   15.77 input  -60.11 | X-H torsion
[ 7974 7965 7964 7962 ] final  135.07 input  175.53 | X-H torsion
[ 8008 7997 7996 7995 ] final -132.09 input   59.86 | X-H torsion
[ 10167 10162 10161 10158 ] final   12.63 input  -65.29 | X-H torsion
[ 10718 10713 10712 10709 ] final  -46.16 input   66.30 | X-H torsion
[ 10763 10752 10751 10750 ] final  171.64 input  -60.55 | X-H torsion
[ 11005 11000 10999 10996 ] final   -1.92 input  -57.11 | X-H torsion

> <Gold.Protein.ActiveResidues>
 VAL166  LYS551  ARG553  GLY616  TRP617  ASP618  TYR619  PRO620  LYS621  CYS622 
 ASP623  PHE694  ASN695  SER759  ASP760  ASP761  ALA762  ILE779  LEU786  VAL792 
 PHE793  MET794  SER795  GLU796  ALA797  LYS798  CYS799  TRP800  GLU811  SER814 

> <Gold.Protein.RotatedAtoms>
  151.8233  135.0645  160.0427 H   0  0  0  0  0  0  0  0  0  0  0  0  # atno 6907 bound_to 6896
  152.2935  133.5580  159.5581 H   0  0  0  0  0  0  0  0  0  0  0  0  # atno 6908 bound_to 6896
  150.7240  134.0311  159.3776 H   0  0  0  0  0  0  0  0  0  0  0  0  # atno 6909 bound_to 6896
  144.9700  139.4616  143.5437 H   0  0  0  0  0  0  0  0  0  0  0  0  # atno 7974 bound_to 7965
  155.3231  140.0463  157.3040 H   0  0  0  0  0  0  0  0  0  0  0  0  # atno 8008 bound_to 7997
  154.5369  140.2275  155.8673 H   0  0  0  0  0  0  0  0  0  0  0  0  # atno 8009 bound_to 7997
  156.1843  140.3066  155.9215 H   0  0  0  0  0  0  0  0  0  0  0  0  # atno 8010 bound_to 7997
  140.6055  143.8516  150.7009 H   0  0  0  0  0  0  0  0  0  0  0  0  # atno 10167 bound_to 10162
  156.2210  130.4166  149.8993 H   0  0  0  0  0  0  0  0  0  0  0  0  # atno 10718 bound_to 10713
  154.4148  135.2757  155.2013 H   0  0  0  0  0  0  0  0  0  0  0  0  # atno 10763 bound_to 10752
  154.3984  135.6050  153.5886 H   0  0  0  0  0  0  0  0  0  0  0  0  # atno 10764 bound_to 10752
  152.9832  135.5920  154.4435 H   0  0  0  0  0  0  0  0  0  0  0  0  # atno 10765 bound_to 10752
  140.6526  133.9391  155.8389 H   0  0  0  0  0  0  0  0  0  0  0  0  # atno 11005 bound_to 11000
  146.3379  139.8906  142.8810 LP  0  0  0  0  0  0  0  0  0  0  0  0  # atno 17320 bound_to 7965
  145.2573  141.0065  143.3846 LP  0  0  0  0  0  0  0  0  0  0  0  0  # atno 17321 bound_to 7965
  140.2073  143.3912  152.1746 LP  0  0  0  0  0  0  0  0  0  0  0  0  # atno 17342 bound_to 10162
  139.5322  144.7171  151.5017 LP  0  0  0  0  0  0  0  0  0  0  0  0  # atno 17343 bound_to 10162
  156.6639  130.8793  151.3551 LP  0  0  0  0  0  0  0  0  0  0  0  0  # atno 17370 bound_to 10713
  157.7087  130.9415  150.1017 LP  0  0  0  0  0  0  0  0  0  0  0  0  # atno 17371 bound_to 10713
  141.0525  134.0464  157.3765 LP  0  0  0  0  0  0  0  0  0  0  0  0  # atno 17394 bound_to 11000
  139.9040  135.0174  156.7403 LP  0  0  0  0  0  0  0  0  0  0  0  0  # atno 17395 bound_to 11000

$$$$
