AV-unprocessed.smi:2439|AV-procd|sdf|9612|dock9
  -GOLD-   2272013243D 1   1.00000     0.00000
 Structure written by MMmdl.
 40 42  0  0  0  0  0  0  0  0  1 V2000
  153.4786  139.8900  161.7169 N   0  0  0  0  0  0  0  0  0  0  0  0
  152.8856  140.7169  161.1662 C   0  0  0  0  0  0  0  0  0  0  0  0
  152.1384  141.7591  160.4726 C   0  0  0  0  0  0  0  0  0  0  0  0
  151.8928  142.9794  161.1363 C   0  0  0  0  0  0  0  0  0  0  0  0
  151.1712  143.9884  160.4727 C   0  0  0  0  0  0  0  0  0  0  0  0
  150.7216  143.7345  159.1641 C   0  0  0  0  0  0  0  0  0  0  0  0
  150.9494  142.5725  158.5174 N   0  0  0  0  0  0  0  0  0  0  0  0
  151.6459  141.5960  159.1496 C   0  0  0  0  0  0  0  0  0  0  0  0
  151.8678  140.3974  158.4487 N   0  0  0  0  0  0  0  0  0  0  0  0
  151.1522  140.1034  157.2151 C   0  0  0  0  0  0  0  0  0  0  0  0
  152.1183  139.6953  156.0868 C   0  0  1  0  0  0  0  0  0  0  0  0
  152.6593  138.2618  156.2493 C   0  0  0  0  0  0  0  0  0  0  0  0
  151.6500  137.2437  155.9821 N   0  0  0  0  0  0  0  0  0  0  0  0
  152.2086  135.8999  156.1241 C   0  0  0  0  0  0  0  0  0  0  0  0
  151.1620  134.8002  155.8860 C   0  0  0  0  0  0  0  0  0  0  0  0
  150.5237  134.9647  154.4997 C   0  0  0  0  0  0  0  0  0  0  0  0
  149.9867  136.3946  154.3331 C   0  0  0  0  0  0  0  0  0  0  0  0
  151.0794  137.4385  154.6462 C   0  0  1  0  0  0  0  0  0  0  0  0
  150.5198  138.8659  154.4865 C   0  0  0  0  0  0  0  0  0  0  0  0
  151.5222  139.8316  154.7951 O   0  0  0  0  0  0  0  0  0  0  0  0
  152.2507  143.1454  162.1424 H   0  0  0  0  0  0  0  0  0  0  0  0
  150.9672  144.9327  160.9550 H   0  0  0  0  0  0  0  0  0  0  0  0
  150.1638  144.4837  158.6220 H   0  0  0  0  0  0  0  0  0  0  0  0
  152.6409  139.8021  158.7099 H   0  0  0  0  0  0  0  0  0  0  0  0
  150.4580  139.2851  157.4095 H   0  0  0  0  0  0  0  0  0  0  0  0
  150.5485  140.9617  156.9206 H   0  0  0  0  0  0  0  0  0  0  0  0
  152.9702  140.3758  156.1172 H   0  0  0  0  0  0  0  0  0  0  0  0
  153.4993  138.1257  155.5665 H   0  0  0  0  0  0  0  0  0  0  0  0
  153.0594  138.1338  157.2559 H   0  0  0  0  0  0  0  0  0  0  0  0
  153.0364  135.7674  155.4257 H   0  0  0  0  0  0  0  0  0  0  0  0
  152.6272  135.7812  157.1240 H   0  0  0  0  0  0  0  0  0  0  0  0
  151.6234  133.8163  155.9734 H   0  0  0  0  0  0  0  0  0  0  0  0
  150.3919  134.8542  156.6566 H   0  0  0  0  0  0  0  0  0  0  0  0
  151.2669  134.7607  153.7280 H   0  0  0  0  0  0  0  0  0  0  0  0
  149.7214  134.2394  154.3628 H   0  0  0  0  0  0  0  0  0  0  0  0
  149.6138  136.5313  153.3176 H   0  0  0  0  0  0  0  0  0  0  0  0
  149.1348  136.5416  154.9988 H   0  0  0  0  0  0  0  0  0  0  0  0
  151.8763  137.3156  153.9105 H   0  0  0  0  0  0  0  0  0  0  0  0
  150.1910  139.0292  153.4600 H   0  0  0  0  0  0  0  0  0  0  0  0
  149.6446  139.0168  155.1191 H   0  0  0  0  0  0  0  0  0  0  0  0
  1  2  3  0  0  0  0
  2  3  1  0  0  0  0
  3  8  1  0  0  0  0
  3  4  2  0  0  0  0
  4  5  1  0  0  0  0
  4 21  1  0  0  0  0
  5  6  2  0  0  0  0
  5 22  1  0  0  0  0
  6  7  1  0  0  0  0
  6 23  1  0  0  0  0
  7  8  2  0  0  0  0
  8  9  1  0  0  0  0
  9 10  1  0  0  0  0
  9 24  1  0  0  0  0
 10 11  1  0  0  0  0
 10 25  1  0  0  0  0
 10 26  1  0  0  0  0
 11 20  1  0  0  0  0
 11 12  1  0  0  0  0
 11 27  1  0  0  0  0
 12 13  1  0  0  0  0
 12 28  1  0  0  0  0
 12 29  1  0  0  0  0
 13 18  1  0  0  0  0
 13 14  1  0  0  0  0
 14 15  1  0  0  0  0
 14 30  1  0  0  0  0
 14 31  1  0  0  0  0
 15 16  1  0  0  0  0
 15 32  1  0  0  0  0
 15 33  1  0  0  0  0
 16 17  1  0  0  0  0
 16 34  1  0  0  0  0
 16 35  1  0  0  0  0
 17 18  1  0  0  0  0
 17 36  1  0  0  0  0
 17 37  1  0  0  0  0
 18 19  1  0  0  0  0
 18 38  1  0  0  0  0
 19 20  1  0  0  0  0
 19 39  1  0  0  0  0
 19 40  1  0  0  0  0
M  END
> <s_m_source_file>
AV-unprocessed.smi

> <i_m_source_file_index>
2439

> <i_lp_mmshare_version>
43012

> <i_f3d_flags>
0

> <s_epik_input>
TiNDYzFbY0hdW2NIXVtjSF1uYzFbTkhdW0NIMl1bQ0BIXShbQ0gyXTIpT1tDSDJdW0NAQEhdKE4yMylbQ0gyXVtDSDJdW0NIMl1bQ0gyXTM=

> <s_epik_cmdline>
J2VwaWtfcHl0aG9uJywgJy1waCcsICc3LjAnLCAnLXRuJywgJzgnLCAnLW1hJywgJzIwMCcsICctbWV0YWxfYmluZGluZycsICctaW1hZScsICc8aW5maWxlLm1hZT4nLCAnLW9tYWUnLCAnPG91dGZpbGUubWFlPic=

> <r_epik_Ionization_Penalty>
1.22355

> <r_epik_Ionization_Penalty_Charging>
0

> <r_epik_Ionization_Penalty_Neutral>
1.22355

> <r_epik_State_Penalty>
1.29103

> <r_epik_Charging_Adjusted_Penalty>
1.29103

> <i_epik_Tot_Q>
0

> <i_epik_Tot_abs_Q>
0

> <r_epik_Metal_State_Penalty>
1.29103

> <b_epik_Metal_Only>
0

> <s_lp_Force_Field>
OPLS_2005

> <r_lp_Energy>
40.6054

> <b_lp_Chiralities_Consistent>
1

> <s_lp_Variant>
AV-unprocessed.smi:2439-10

> <Gold.Version>
5.8.1

> <Gold.Id.Protein>
6NUR|6NUR_protein|mol2

> <Gold.PLP.Fitness>
44.8406

> <Gold.PLP.PLP>
-39.2845

> <Gold.PLP.part.hbond>
-1.0000

> <Gold.PLP.part.metal>
0.0000

> <Gold.PLP.part.buried>
-4.7537

> <Gold.PLP.part.nonpolar>
-34.4250

> <Gold.PLP.part.repulsive>
0.2699

> <Gold.PLP.ligand.clash>
0.0000

> <Gold.PLP.ligand.torsion>
0.2201

> <Gold.PLP.Chemscore.Hbond>
1.0000

> <Gold.PLP.Chemscore.CHOScore>
0.9966

> <Gold.PLP.Chemscore.Metal>
0.0000

> <Gold.Chemscore.Hbonds>
donor molecule, donor type, donor heavy atom, donor atom, acceptor molecule, acceptor atom, score
      P1  H  7989  7998       L1    20  1.00

> <Gold.PLP.Chemscore.Internal.Correction>
0.0065

> <Gold.Rescore>
     Score         DG    S(hbond)    S(metal)    S(lipo)     H(rot)  DE(clash)    DE(int)     intcor
     16.22     -16.43       0.95        0.00      93.69       1.25       0.01       0.20       ----

> <Gold.Chemscore.Fitness>
16.2238

> <Gold.Chemscore.DG>
-16.4340

> <Gold.Chemscore.ZeroCoef>
-5.4800

> <Gold.Chemscore.Hbond>
0.9545

> <Gold.Chemscore.Metal>
0.0000

> <Gold.Chemscore.Lipo>
93.6933

> <Gold.Chemscore.Internal_Hbond>
0.0000

> <Gold.Chemscore.DEClash>
0.0149

> <Gold.Chemscore.DEInternal>
0.1953

> <Gold.Chemscore.Rot>
1.2485

> <Gold.Chemscore.Internal.Correction>
   9.000000E+99

> <Gold.Chemscore.Hbonds>
donor molecule, donor type, donor heavy atom, donor atom, acceptor molecule, acceptor atom, score
      P1  H  7989  7998       L1    20  0.65

> <Gold.Chemscore.Hbond.Weighted>
-3.1880

> <Gold.Chemscore.Metal.Weighted>
-0.0000

> <Gold.Chemscore.Lipo.Weighted>
-10.9621

> <Gold.Chemscore.Internal_Hbond.Weighted>
0.0000

> <Gold.Chemscore.DEClash.Weighted>
0.0149

> <Gold.Chemscore.DEInternal.Weighted>
0.1953

> <Gold.Chemscore.Rot.Weighted>
3.1961

> <Gold.Chemscore.Internal.Correction.Weighted>
   9.000000E+99

> <Gold.Protein.RotatedTorsions>
[ 6907 6896 6895 6894 ] final   35.70 input  -60.11 | X-H torsion
[ 7974 7965 7964 7962 ] final  106.10 input  175.53 | X-H torsion
[ 8008 7997 7996 7995 ] final  147.23 input   59.86 | X-H torsion
[ 10167 10162 10161 10158 ] final  -20.10 input  -65.29 | X-H torsion
[ 10718 10713 10712 10709 ] final   90.59 input   66.30 | X-H torsion
[ 10763 10752 10751 10750 ] final   75.07 input  -60.55 | X-H torsion
[ 11005 11000 10999 10996 ] final   62.93 input  -57.11 | X-H torsion

> <Gold.Protein.ActiveResidues>
 VAL166  LYS551  ARG553  GLY616  TRP617  ASP618  TYR619  PRO620  LYS621  CYS622 
 ASP623  PHE694  ASN695  SER759  ASP760  ASP761  ALA762  ILE779  LEU786  VAL792 
 PHE793  MET794  SER795  GLU796  ALA797  LYS798  CYS799  TRP800  GLU811  SER814 

> <Gold.Protein.RotatedAtoms>
  152.1197  134.9215  160.0563 H   0  0  0  0  0  0  0  0  0  0  0  0  # atno 6907 bound_to 6896
  152.0360  133.3952  159.4325 H   0  0  0  0  0  0  0  0  0  0  0  0  # atno 6908 bound_to 6896
  150.6848  134.3388  159.4903 H   0  0  0  0  0  0  0  0  0  0  0  0  # atno 6909 bound_to 6896
  145.3111  139.2540  143.3762 H   0  0  0  0  0  0  0  0  0  0  0  0  # atno 7974 bound_to 7965
  156.2831  140.2161  156.5505 H   0  0  0  0  0  0  0  0  0  0  0  0  # atno 8008 bound_to 7997
  154.7295  140.0496  157.0736 H   0  0  0  0  0  0  0  0  0  0  0  0  # atno 8009 bound_to 7997
  155.0372  140.3141  155.4740 H   0  0  0  0  0  0  0  0  0  0  0  0  # atno 8010 bound_to 7997
  140.7273  143.4754  151.0189 H   0  0  0  0  0  0  0  0  0  0  0  0  # atno 10167 bound_to 10162
  157.6959  131.0376  150.3601 H   0  0  0  0  0  0  0  0  0  0  0  0  # atno 10718 bound_to 10713
  153.0629  135.5002  154.8135 H   0  0  0  0  0  0  0  0  0  0  0  0  # atno 10763 bound_to 10752
  154.6910  135.2984  154.9481 H   0  0  0  0  0  0  0  0  0  0  0  0  # atno 10764 bound_to 10752
  154.0236  135.6739  153.4827 H   0  0  0  0  0  0  0  0  0  0  0  0  # atno 10765 bound_to 10752
  140.0059  134.6370  155.9856 H   0  0  0  0  0  0  0  0  0  0  0  0  # atno 11005 bound_to 11000
  146.3117  140.3647  142.8668 LP  0  0  0  0  0  0  0  0  0  0  0  0  # atno 17320 bound_to 7965
  144.9015  140.7648  143.5864 LP  0  0  0  0  0  0  0  0  0  0  0  0  # atno 17321 bound_to 7965
  139.8449  143.7514  152.3179 LP  0  0  0  0  0  0  0  0  0  0  0  0  # atno 17342 bound_to 10162
  139.7676  144.7487  151.0272 LP  0  0  0  0  0  0  0  0  0  0  0  0  # atno 17343 bound_to 10162
  156.4038  130.3921  149.6940 LP  0  0  0  0  0  0  0  0  0  0  0  0  # atno 17370 bound_to 10713
  156.4248  130.7786  151.2805 LP  0  0  0  0  0  0  0  0  0  0  0  0  # atno 17371 bound_to 10713
  141.1676  133.6537  156.4536 LP  0  0  0  0  0  0  0  0  0  0  0  0  # atno 17394 bound_to 11000
  140.4642  134.6813  157.5099 LP  0  0  0  0  0  0  0  0  0  0  0  0  # atno 17395 bound_to 11000

$$$$
