#       Name:                AV-unprocessed.smi:3217
#       Creating user name   scv26
#       Creation time:       Fri Mar 27 18:13:18 2020


#       File generated by GOLD software.
#

@<TRIPOS>MOLECULE
AV-unprocessed.smi:3217
    39    40     1
SMALL
NO_CHARGES


@<TRIPOS>ATOM
      1 ****        -2.0668  -1.5568   2.0559 C.3            1 S1                 0.0000
      2 ****        -1.6338  -0.7789   0.8048 C.3            1 S1                 0.0000
      3 ****        -0.1756  -0.6684   0.7993 N.am           1 S1                 0.0000
      4 ****         0.5278   0.4709   0.7256 C.2            1 S1                 0.0000
      5 ****         0.0131   1.5853   0.6401 O.2            1 S1                 0.0000
      6 ****         1.8482   0.2235   0.7705 N.am           1 S1                 0.0000
      7 ****         2.9316   1.1441   0.7523 C.ar           1 S1                 0.0000
      8 ****         2.8367   2.4905   0.3225 C.ar           1 S1                 0.0000
      9 ****         3.9926   3.2947   0.3458 C.ar           1 S1                 0.0000
     10 ****         5.2012   2.7239   0.7888 C.ar           1 S1                 0.0000
     11 ****         5.3095   1.4396   1.1885 N.ar           1 S1                 0.0000
     12 ****         4.1970   0.6750   1.1646 C.ar           1 S1                 0.0000
     13 ****        -2.1259  -1.4516  -0.4928 C.3            1 S1                 0.0000
     14 ****        -1.7029  -0.7455  -1.7839 C.3            1 S1                 0.0000
     15 ****        -2.7838  -1.1828  -2.7449 C.3            1 S1                 0.0000
     16 ****        -4.0168  -1.1587  -1.8485 C.3            1 S1                 0.0000
     17 ****        -3.5521  -1.4684  -0.5373 O.3            1 S1                 0.0000
     18 ****        -3.1528  -1.6304   2.1180 H              1 S1                 0.0000
     19 ****        -1.7202  -1.0619   2.9639 H              1 S1                 0.0000
     20 ****        -1.6641  -2.5702   2.0544 H              1 S1                 0.0000
     21 ****        -2.0841   0.2136   0.8633 H              1 S1                 0.0000
     22 ****         0.3388  -1.5341   0.8683 H              1 S1                 0.0000
     23 ****         2.1096  -0.7433   0.8960 H              1 S1                 0.0000
     24 ****         1.9142   2.9210  -0.0331 H              1 S1                 0.0000
     25 ****         3.9534   4.3260   0.0278 H              1 S1                 0.0000
     26 ****         6.1058   3.3131   0.8177 H              1 S1                 0.0000
     27 ****         4.3223  -0.3473   1.4911 H              1 S1                 0.0000
     28 ****        -1.7853  -2.4878  -0.5311 H              1 S1                 0.0000
     29 ****        -1.7331   0.3381  -1.6589 H              1 S1                 0.0000
     30 ****        -0.7014  -1.0236  -2.1133 H              1 S1                 0.0000
     31 ****        -2.8755  -0.5321  -3.6149 H              1 S1                 0.0000
     32 ****        -2.5891  -2.1982  -3.0931 H              1 S1                 0.0000
     33 ****        -4.4556  -0.1603  -1.8325 H              1 S1                 0.0000
     34 ****        -4.7841  -1.8602  -2.1765 H              1 S1                 0.0000
     35 ****        -0.9826   1.6762   0.6225 LP             1 S1                 0.0000
     36 ****         0.5906   2.4001   0.5883 LP             1 S1                 0.0000
     37 ****         6.1859   1.0661   1.4928 LP             1 S1                 0.0000
     38 ****        -3.9089  -0.7913   0.1063 LP             1 S1                 0.0000
     39 ****        -3.8782  -2.3778  -0.2793 LP             1 S1                 0.0000
@<TRIPOS>BOND
    1    1    2 1     
    2    1   18 1     
    3    1   19 1     
    4    1   20 1     
    5    2    3 1     
    6    2   13 1     
    7    2   21 1     
    8    3    4 am    
    9    3   22 1     
   10    4    5 2     
   11    4    6 am    
   12    6    7 1     
   13    6   23 1     
   14    7   12 ar    
   15    7    8 ar    
   16    8    9 ar    
   17    8   24 1     
   18    9   10 ar    
   19    9   25 1     
   20   10   11 ar    
   21   10   26 1     
   22   11   12 ar    
   23   12   27 1     
   24   13   17 1     
   25   13   14 1     
   26   13   28 1     
   27   14   15 1     
   28   14   29 1     
   29   14   30 1     
   30   15   16 1     
   31   15   31 1     
   32   15   32 1     
   33   16   17 1     
   34   16   33 1     
   35   16   34 1     
   36    5   35 1     
   37    5   36 1     
   38   11   37 1     
   39   17   38 1     
   40   17   39 1     
@<TRIPOS>SUBSTRUCTURE
      1 S1             1
@<TRIPOS>SET
LONE_PAIRS      STATIC     ATOMS    <user>   **** ""
5 35 36 37 38 39
DONOR_HYDROGENS      STATIC     ATOMS    <user>   **** ""
2 22 23
ATOM$BLUE        STATIC     ATOMS    COLORGROUP SYSTEM
5 35 36 37 38 39
ATOM$RED        STATIC     ATOMS    COLORGROUP SYSTEM
2 22 23
