AV-unprocessed.smi:3330|AV-procd|sdf|12809|dock2
  -GOLD-   2272019173D 1   1.00000     0.00000
 Structure written by MMmdl.
 38 39  0  0  0  0  0  0  0  0  3 V2000
  146.9257  131.8576  152.9145 C   0  0  0  0  0  0  0  0  0  0  0  0
  147.5273  133.0879  152.2150 C   0  0  2  0  0  0  0  0  0  0  0  0
  148.3203  133.8447  153.2100 N   0  3  0  0  0  0  0  0  0  0  0  0
  149.4539  133.1075  153.8068 C   0  0  0  0  0  0  0  0  0  0  0  0
  149.5345  133.3161  155.3302 C   0  0  0  0  0  0  0  0  0  0  0  0
  150.4607  134.3942  155.7006 N   0  0  0  0  0  0  0  0  0  0  0  0
  150.2332  135.6953  155.4925 C   0  0  0  0  0  0  0  0  0  0  0  0
  149.2445  136.2148  154.9750 O   0  0  0  0  0  0  0  0  0  0  0  0
  151.4120  136.4587  156.0483 C   0  0  0  0  0  0  0  0  0  0  0  0
  152.2452  135.3997  156.5705 N   0  5  0  0  0  0  0  0  0  0  0  0
  151.6358  134.2154  156.3333 C   0  0  0  0  0  0  0  0  0  0  0  0
  152.0487  133.0988  156.6437 O   0  0  0  0  0  0  0  0  0  0  0  0
  146.4489  134.0014  151.5712 C   0  0  2  0  0  0  0  0  0  0  0  0
  145.5517  134.7074  152.6063 C   0  0  0  0  0  0  0  0  0  0  0  0
  145.6217  133.2664  150.6207 N   0  0  0  0  0  0  0  0  0  0  0  0
  146.0314  132.4618  149.5770 C   0  0  0  0  0  0  0  0  0  0  0  0
  144.9090  131.9798  148.9671 C   0  0  0  0  0  0  0  0  0  0  0  0
  143.8442  132.5535  149.7159 C   0  0  0  0  0  0  0  0  0  0  0  0
  144.2730  133.3211  150.7044 N   0  0  0  0  0  0  0  0  0  0  0  0
  146.4289  131.1926  152.2085 H   0  0  0  0  0  0  0  0  0  0  0  0
  146.1980  132.1467  153.6737 H   0  0  0  0  0  0  0  0  0  0  0  0
  147.7027  131.2720  153.4073 H   0  0  0  0  0  0  0  0  0  0  0  0
  148.1931  132.7219  151.4312 H   0  0  0  0  0  0  0  0  0  0  0  0
  148.6723  134.6852  152.7748 H   0  0  0  0  0  0  0  0  0  0  0  0
  149.3387  132.0457  153.5852 H   0  0  0  0  0  0  0  0  0  0  0  0
  150.3866  133.4288  153.3437 H   0  0  0  0  0  0  0  0  0  0  0  0
  148.5416  133.5370  155.7250 H   0  0  0  0  0  0  0  0  0  0  0  0
  149.8350  132.3820  155.8077 H   0  0  0  0  0  0  0  0  0  0  0  0
  151.8907  137.0333  155.2544 H   0  0  0  0  0  0  0  0  0  0  0  0
  151.0737  137.1575  156.8141 H   0  0  0  0  0  0  0  0  0  0  0  0
  146.9617  134.7806  151.0047 H   0  0  0  0  0  0  0  0  0  0  0  0
  146.1164  135.4139  153.2139 H   0  0  0  0  0  0  0  0  0  0  0  0
  145.0771  133.9928  153.2796 H   0  0  0  0  0  0  0  0  0  0  0  0
  144.7605  135.2747  152.1147 H   0  0  0  0  0  0  0  0  0  0  0  0
  147.0764  132.2997  149.3567 H   0  0  0  0  0  0  0  0  0  0  0  0
  144.8557  131.3198  148.1138 H   0  0  0  0  0  0  0  0  0  0  0  0
  142.7803  132.4352  149.5722 H   0  0  0  0  0  0  0  0  0  0  0  0
  147.7022  134.1122  153.9628 H   0  0  0  0  0  0  0  0  0  0  0  0
  1  2  1  0  0  0  0
  1 20  1  0  0  0  0
  1 21  1  0  0  0  0
  1 22  1  0  0  0  0
  2  3  1  0  0  0  0
  2 13  1  0  0  0  0
  2 23  1  0  0  0  0
  3  4  1  0  0  0  0
  3 24  1  0  0  0  0
  3 38  1  0  0  0  0
  4  5  1  0  0  0  0
  4 25  1  0  0  0  0
  4 26  1  0  0  0  0
  5  6  1  0  0  0  0
  5 27  1  0  0  0  0
  5 28  1  0  0  0  0
  6 11  1  0  0  0  0
  6  7  1  0  0  0  0
  7  8  2  0  0  0  0
  7  9  1  0  0  0  0
  9 10  1  0  0  0  0
  9 29  1  0  0  0  0
  9 30  1  0  0  0  0
 10 11  1  0  0  0  0
 11 12  2  0  0  0  0
 13 14  1  0  0  0  0
 13 15  1  0  0  0  0
 13 31  1  0  0  0  0
 14 32  1  0  0  0  0
 14 33  1  0  0  0  0
 14 34  1  0  0  0  0
 15 19  1  0  0  0  0
 15 16  1  0  0  0  0
 16 17  2  0  0  0  0
 16 35  1  0  0  0  0
 17 18  1  0  0  0  0
 17 36  1  0  0  0  0
 18 19  2  0  0  0  0
 18 37  1  0  0  0  0
M  CHG  1   3   1
M  CHG  1  10  -1
M  END
> <s_m_source_file>
AV-unprocessed.smi

> <i_m_source_file_index>
3330

> <i_lp_mmshare_version>
43012

> <i_f3d_flags>
0

> <s_epik_input>
bjFbY0hdW2NIXVtjSF1uMVtDQEBIXShbQ0gzXSlbQ0BIXShbQ0gzXSlbTkhdW0NIMl1bQ0gyXU4yQyg9TylbQ0gyXVtOSF1DMj1P

> <s_epik_cmdline>
J2VwaWtfcHl0aG9uJywgJy1waCcsICc3LjAnLCAnLXRuJywgJzgnLCAnLW1hJywgJzIwMCcsICctbWV0YWxfYmluZGluZycsICctaW1hZScsICc8aW5maWxlLm1hZT4nLCAnLW9tYWUnLCAnPG91dGZpbGUubWFlPic=

> <r_lp_tautomer_probability>
1

> <r_epik_Ionization_Penalty>
5.18149

> <r_epik_Ionization_Penalty_Charging>
5.18148

> <r_epik_Ionization_Penalty_Neutral>
9.83265e-06

> <r_epik_State_Penalty>
5.18201

> <r_epik_Charging_Adjusted_Penalty>
10.3635

> <i_epik_Tot_Q>
0

> <i_epik_Tot_abs_Q>
2

> <r_epik_Metal_State_Penalty>
1.25422

> <b_epik_Metal_Only>
1

> <s_lp_Force_Field>
OPLS_2005

> <r_lp_Energy>
23.9108

> <b_lp_Chiralities_Consistent>
1

> <s_lp_Variant>
AV-unprocessed.smi:3330-9

> <Gold.Version>
5.8.1

> <Gold.Id.Protein>
6NUR|6NUR_protein|mol2

> <Gold.PLP.Fitness>
47.5764

> <Gold.PLP.PLP>
-29.3292

> <Gold.PLP.part.hbond>
-2.7277

> <Gold.PLP.part.metal>
0.0000

> <Gold.PLP.part.buried>
-3.9132

> <Gold.PLP.part.nonpolar>
-25.1660

> <Gold.PLP.part.repulsive>
0.5665

> <Gold.PLP.ligand.clash>
0.0000

> <Gold.PLP.ligand.torsion>
0.7645

> <Gold.PLP.Chemscore.Hbond>
4.1492

> <Gold.PLP.Chemscore.CHOScore>
2.3615

> <Gold.PLP.Chemscore.Metal>
0.0000

> <Gold.Chemscore.Hbonds>
donor molecule, donor type, donor heavy atom, donor atom, acceptor molecule, acceptor atom, score
      L1  H     3    24       P1  7948  1.60
      P1  H 10752 10763       L1    10  1.90
      L1  C    16    35       P1 10747  1.00
      L1  C    18    37       P1 10186  0.63
      L1  C    18    37       P1 10952  0.18

> <Gold.PLP.Chemscore.Internal.Correction>
0.2438

> <Gold.Rescore>
     Score         DG    S(hbond)    S(metal)    S(lipo)     H(rot)  DE(clash)    DE(int)     intcor
     10.53     -11.77       1.49        0.00      67.89       2.59       0.39       0.85       ----

> <Gold.Chemscore.Fitness>
10.5330

> <Gold.Chemscore.DG>
-11.7720

> <Gold.Chemscore.ZeroCoef>
-5.4800

> <Gold.Chemscore.Hbond>
1.4910

> <Gold.Chemscore.Metal>
0.0000

> <Gold.Chemscore.Lipo>
67.8895

> <Gold.Chemscore.Internal_Hbond>
0.0000

> <Gold.Chemscore.DEClash>
0.3872

> <Gold.Chemscore.DEInternal>
0.8517

> <Gold.Chemscore.Rot>
2.5903

> <Gold.Chemscore.Internal.Correction>
   9.000000E+99

> <Gold.Chemscore.Hbonds>
donor molecule, donor type, donor heavy atom, donor atom, acceptor molecule, acceptor atom, score
      L1  H     3    24       P1  7948  0.12
      P1  H 10752 10763       L1    10  0.05

> <Gold.Chemscore.Hbond.Weighted>
-4.9800

> <Gold.Chemscore.Metal.Weighted>
-0.0000

> <Gold.Chemscore.Lipo.Weighted>
-7.9431

> <Gold.Chemscore.Internal_Hbond.Weighted>
0.0000

> <Gold.Chemscore.DEClash.Weighted>
0.3872

> <Gold.Chemscore.DEInternal.Weighted>
0.8517

> <Gold.Chemscore.Rot.Weighted>
6.6311

> <Gold.Chemscore.Internal.Correction.Weighted>
   9.000000E+99

> <Gold.Protein.RotatedTorsions>
[ 6907 6896 6895 6894 ] final  -49.71 input  -60.11 | X-H torsion
[ 7974 7965 7964 7962 ] final  -29.50 input  175.53 | X-H torsion
[ 8008 7997 7996 7995 ] final  141.70 input   59.86 | X-H torsion
[ 10167 10162 10161 10158 ] final  166.78 input  -65.29 | X-H torsion
[ 10718 10713 10712 10709 ] final  131.11 input   66.30 | X-H torsion
[ 10763 10752 10751 10750 ] final  114.58 input  -60.55 | X-H torsion
[ 11005 11000 10999 10996 ] final  -35.68 input  -57.11 | X-H torsion

> <Gold.Protein.ActiveResidues>
 VAL166  LYS551  ARG553  GLY616  TRP617  ASP618  TYR619  PRO620  LYS621  CYS622 
 ASP623  PHE694  ASN695  SER759  ASP760  ASP761  ALA762  ILE779  LEU786  VAL792 
 PHE793  MET794  SER795  GLU796  ALA797  LYS798  CYS799  TRP800  GLU811  SER814 

> <Gold.Protein.RotatedAtoms>
  150.8778  134.8164  159.7202 H   0  0  0  0  0  0  0  0  0  0  0  0  # atno 6907 bound_to 6896
  152.4758  134.4844  159.9685 H   0  0  0  0  0  0  0  0  0  0  0  0  # atno 6908 bound_to 6896
  151.4923  133.3483  159.2891 H   0  0  0  0  0  0  0  0  0  0  0  0  # atno 6909 bound_to 6896
  146.1212  140.5420  142.8734 H   0  0  0  0  0  0  0  0  0  0  0  0  # atno 7974 bound_to 7965
  156.2961  140.2308  156.4608 H   0  0  0  0  0  0  0  0  0  0  0  0  # atno 8008 bound_to 7997
  154.8020  140.0448  157.1301 H   0  0  0  0  0  0  0  0  0  0  0  0  # atno 8009 bound_to 7997
  154.9522  140.3043  155.5073 H   0  0  0  0  0  0  0  0  0  0  0  0  # atno 8010 bound_to 7997
  139.4931  144.3991  151.9430 H   0  0  0  0  0  0  0  0  0  0  0  0  # atno 10167 bound_to 10162
  157.4998  131.1094  150.9442 H   0  0  0  0  0  0  0  0  0  0  0  0  # atno 10718 bound_to 10713
  153.5095  135.3621  155.2579 H   0  0  0  0  0  0  0  0  0  0  0  0  # atno 10763 bound_to 10752
  154.8743  135.4019  154.3385 H   0  0  0  0  0  0  0  0  0  0  0  0  # atno 10764 bound_to 10752
  153.4036  135.7075  153.6475 H   0  0  0  0  0  0  0  0  0  0  0  0  # atno 10765 bound_to 10752
  140.9815  133.7053  156.1693 H   0  0  0  0  0  0  0  0  0  0  0  0  # atno 11005 bound_to 11000
  144.7599  140.5397  143.6743 LP  0  0  0  0  0  0  0  0  0  0  0  0  # atno 17320 bound_to 7965
  145.5462  139.1476  143.3419 LP  0  0  0  0  0  0  0  0  0  0  0  0  # atno 17321 bound_to 7965
  140.3430  144.3180  150.5963 LP  0  0  0  0  0  0  0  0  0  0  0  0  # atno 17342 bound_to 10162
  140.5550  143.2200  151.7863 LP  0  0  0  0  0  0  0  0  0  0  0  0  # atno 17343 bound_to 10162
  157.0116  130.5639  149.5321 LP  0  0  0  0  0  0  0  0  0  0  0  0  # atno 17370 bound_to 10713
  156.0222  130.5317  150.8309 LP  0  0  0  0  0  0  0  0  0  0  0  0  # atno 17371 bound_to 10713
  140.7178  134.4391  157.5577 LP  0  0  0  0  0  0  0  0  0  0  0  0  # atno 17394 bound_to 11000
  139.8952  134.8688  156.2141 LP  0  0  0  0  0  0  0  0  0  0  0  0  # atno 17395 bound_to 11000

$$$$
