#       Name:                AV-unprocessed.smi:99
#       Creating user name   scv26
#       Creation time:       Thu Mar 26 17:33:12 2020


#       File generated by GOLD software.
#

@<TRIPOS>MOLECULE
AV-unprocessed.smi:99
    65    68     1
SMALL
NO_CHARGES


@<TRIPOS>ATOM
      1 ****        -4.0733   0.5068  -0.6497 O.2            1 S1                 0.0000
      2 ****        -3.3730   1.3886  -0.1477 C.2            1 S1                 0.0000
      3 ****        -2.0488   1.2577   0.0650 O.3            1 S1                 0.0000
      4 ****        -1.3868   0.0607  -0.3082 C.3            1 S1                 0.0000
      5 ****         0.1144   0.2074  -0.0414 C.3            1 S1                 0.0000
      6 ****         0.6949   1.0731  -1.0033 O.3            1 S1                 0.0000
      7 ****         2.0547   0.7939  -1.1084 C.3            1 S1                 0.0000
      8 ****         2.4483   0.9682  -2.5592 N.am           1 S1                 0.0000
      9 ****         1.6455   0.4585  -3.5706 C.2            1 S1                 0.0000
     10 ****         1.9385   0.5927  -4.8856 C.2            1 S1                 0.0000
     11 ****         3.1438   1.3001  -5.3059 C.2            1 S1                 0.0000
     12 ****         3.4927   1.4755  -6.4714 O.2            1 S1                 0.0000
     13 ****         3.9235   1.7932  -4.2552 N.am           1 S1                 0.0000
     14 ****         3.6337   1.6583  -2.8961 C.2            1 S1                 0.0000
     15 ****         4.4026   2.1242  -2.0560 O.2            1 S1                 0.0000
     16 ****         2.2933  -0.6364  -0.5729 C.3            1 S1                 0.0000
     17 ****         2.8950  -1.5266  -1.4958 O.3            1 S1                 0.0000
     18 ****         0.8847  -1.1015  -0.2190 C.3            1 S1                 0.0000
     19 ****         0.8838  -1.8217   1.0077 O.3            1 S1                 0.0000
     20 ****         1.0123  -3.1659   1.0182 C.2            1 S1                 0.0000
     21 ****         1.1169  -3.8500  -0.0016 O.2            1 S1                 0.0000
     22 ****         1.0208  -3.7373   2.3955 C.ar           1 S1                 0.0000
     23 ****         1.0980  -5.1396   2.5629 C.ar           1 S1                 0.0000
     24 ****         1.1143  -5.7086   3.8511 C.ar           1 S1                 0.0000
     25 ****         1.0549  -4.8819   4.9880 C.ar           1 S1                 0.0000
     26 ****         0.9780  -3.4852   4.8351 C.ar           1 S1                 0.0000
     27 ****         0.9602  -2.9144   3.5473 C.ar           1 S1                 0.0000
     28 ****        -3.9037   2.7126   0.2886 C.ar           1 S1                 0.0000
     29 ****        -5.2827   2.9897   0.1385 C.ar           1 S1                 0.0000
     30 ****        -5.8129   4.2312   0.5402 C.ar           1 S1                 0.0000
     31 ****        -4.9705   5.2113   1.0964 C.ar           1 S1                 0.0000
     32 ****        -3.5968   4.9483   1.2506 C.ar           1 S1                 0.0000
     33 ****        -3.0648   3.7072   0.8496 C.ar           1 S1                 0.0000
     34 ****         4.7701   2.2857  -4.5003 H              1 S1                 0.0000
     35 ****        -1.7896  -0.7638   0.2817 H              1 S1                 0.0000
     36 ****        -1.5654  -0.1674  -1.3600 H              1 S1                 0.0000
     37 ****         0.2981   0.6172   0.9538 H              1 S1                 0.0000
     38 ****         2.5876   1.5462  -0.5251 H              1 S1                 0.0000
     39 ****         0.7463  -0.0786  -3.3037 H              1 S1                 0.0000
     40 ****         1.2779   0.1737  -5.6310 H              1 S1                 0.0000
     41 ****         2.9166  -0.5586   0.3191 H              1 S1                 0.0000
     42 ****         2.9486  -2.3823  -1.0977 H              1 S1                 0.0000
     43 ****         0.4443  -1.6670  -1.0424 H              1 S1                 0.0000
     44 ****         1.1457  -5.7952   1.7051 H              1 S1                 0.0000
     45 ****         1.1734  -6.7809   3.9662 H              1 S1                 0.0000
     46 ****         1.0691  -5.3185   5.9759 H              1 S1                 0.0000
     47 ****         0.9337  -2.8498   5.7073 H              1 S1                 0.0000
     48 ****         0.9034  -1.8388   3.4658 H              1 S1                 0.0000
     49 ****        -5.9496   2.2530  -0.2862 H              1 S1                 0.0000
     50 ****        -6.8676   4.4313   0.4211 H              1 S1                 0.0000
     51 ****        -5.3770   6.1634   1.4042 H              1 S1                 0.0000
     52 ****        -2.9493   5.7002   1.6771 H              1 S1                 0.0000
     53 ****        -2.0060   3.5386   0.9812 H              1 S1                 0.0000
     54 ****        -3.6624  -0.3628  -0.9232 LP             1 S1                 0.0000
     55 ****        -5.0523   0.6613  -0.7833 LP             1 S1                 0.0000
     56 ****         0.5695   2.0231  -0.7172 LP             1 S1                 0.0000
     57 ****         0.2547   0.9312  -1.8899 LP             1 S1                 0.0000
     58 ****         2.9326   1.1203  -7.2198 LP             1 S1                 0.0000
     59 ****         4.3366   1.9735  -6.6711 LP             1 S1                 0.0000
     60 ****         4.2003   2.0223  -1.0820 LP             1 S1                 0.0000
     61 ****         5.2297   2.6048  -2.3472 LP             1 S1                 0.0000
     62 ****         3.8131  -1.2038  -1.7258 LP             1 S1                 0.0000
     63 ****         2.3410  -1.5756  -2.3269 LP             1 S1                 0.0000
     64 ****         1.1092  -3.4119  -0.9005 LP             1 S1                 0.0000
     65 ****         1.2094  -4.8431   0.0699 LP             1 S1                 0.0000
@<TRIPOS>BOND
    1    1    2 2     
    2    2    3 1     
    3    2   28 1     
    4    3    4 1     
    5    4    5 1     
    6    4   35 1     
    7    4   36 1     
    8    5   18 1     
    9    5    6 1     
   10    5   37 1     
   11    6    7 1     
   12    7    8 1     
   13    7   16 1     
   14    7   38 1     
   15    8   14 1     
   16    8    9 1     
   17    9   10 2     
   18    9   39 1     
   19   10   11 1     
   20   10   40 1     
   21   11   12 2     
   22   11   13 1     
   23   13   34 1     
   24   13   14 1     
   25   14   15 2     
   26   16   17 1     
   27   16   18 1     
   28   16   41 1     
   29   17   42 1     
   30   18   19 1     
   31   18   43 1     
   32   19   20 1     
   33   20   21 2     
   34   20   22 1     
   35   22   27 ar    
   36   22   23 ar    
   37   23   24 ar    
   38   23   44 1     
   39   24   25 ar    
   40   24   45 1     
   41   25   26 ar    
   42   25   46 1     
   43   26   27 ar    
   44   26   47 1     
   45   27   48 1     
   46   28   33 ar    
   47   28   29 ar    
   48   29   30 ar    
   49   29   49 1     
   50   30   31 ar    
   51   30   50 1     
   52   31   32 ar    
   53   31   51 1     
   54   32   33 ar    
   55   32   52 1     
   56   33   53 1     
   57    1   54 1     
   58    1   55 1     
   59    6   56 1     
   60    6   57 1     
   61   12   58 1     
   62   12   59 1     
   63   15   60 1     
   64   15   61 1     
   65   17   62 1     
   66   17   63 1     
   67   21   64 1     
   68   21   65 1     
@<TRIPOS>SUBSTRUCTURE
      1 S1             1
@<TRIPOS>SET
LONE_PAIRS      STATIC     ATOMS    <user>   **** ""
12 54 55 56 57 58 59 60 61 62 63 64 65
DONOR_HYDROGENS      STATIC     ATOMS    <user>   **** ""
2 34 42
ATOM$BLUE        STATIC     ATOMS    COLORGROUP SYSTEM
12 54 55 56 57 58 59 60 61 62 63 64 65
ATOM$RED        STATIC     ATOMS    COLORGROUP SYSTEM
2 34 42
