#       Name:                AV-unprocessed.smi:1592
#       Creating user name   scv26
#       Creation time:       Fri Mar 27 07:04:02 2020


#       File generated by GOLD software.
#

@<TRIPOS>MOLECULE
AV-unprocessed.smi:1592
    31    32     1
SMALL
NO_CHARGES


@<TRIPOS>ATOM
      1 ****        -0.0684   1.1467   0.9331 O.2            1 S1                 0.0000
      2 ****         0.3811   0.2629   0.2012 C.2            1 S1                 0.0000
      3 ****        -0.3681  -0.6483  -0.4469 N.am           1 S1                 0.0000
      4 ****        -1.7812  -0.8138  -0.4312 C.ar           1 S1                 0.0000
      5 ****        -2.5970   0.0090   0.2747 N.pl3          1 S1                 1.0000
      6 ****        -3.9408  -0.1200   0.3091 C.ar           1 S1                 0.0000
      7 ****        -4.5635  -1.1544  -0.4151 C.ar           1 S1                 0.0000
      8 ****        -3.7636  -2.0386  -1.1656 C.ar           1 S1                 0.0000
      9 ****        -2.3627  -1.8691  -1.1754 C.ar           1 S1                 0.0000
     10 ****        -1.5878  -2.7282  -1.9036 O.co2          1 S1                -1.0000
     11 ****         1.8926   0.1639  -0.0328 C.3            1 S1                 0.0000
     12 ****         2.7371   0.3072   1.2479 C.3            1 S1                 0.0000
     13 ****         3.4585   1.6282   1.0611 C.3            1 S1                 0.0000
     14 ****         3.5484   1.7269  -0.4547 C.3            1 S1                 0.0000
     15 ****         2.2827   1.2453  -0.8767 O.3            1 S1                 0.0000
     16 ****         0.1300  -1.3138  -1.0209 H              1 S1                 0.0000
     17 ****        -4.4719   0.6033   0.9102 H              1 S1                 0.0000
     18 ****        -5.6372  -1.2689  -0.3965 H              1 S1                 0.0000
     19 ****        -4.2220  -2.8388  -1.7283 H              1 S1                 0.0000
     20 ****        -2.1694   0.7673   0.8074 H              1 S1                 0.0000
     21 ****         2.1388  -0.7768  -0.5287 H              1 S1                 0.0000
     22 ****         2.1568   0.2884   2.1716 H              1 S1                 0.0000
     23 ****         3.4600  -0.5077   1.3031 H              1 S1                 0.0000
     24 ****         2.8508   2.4454   1.4519 H              1 S1                 0.0000
     25 ****         4.4321   1.6587   1.5510 H              1 S1                 0.0000
     26 ****         3.7294   2.7439  -0.8032 H              1 S1                 0.0000
     27 ****         4.3363   1.0801  -0.8436 H              1 S1                 0.0000
     28 ****        -1.0550   1.2218   1.0786 LP             1 S1                 0.0000
     29 ****         0.5533   1.7888   1.3816 LP             1 S1                 0.0000
     30 ****         1.6068   1.9797  -0.8146 LP             1 S1                 0.0000
     31 ****         2.3434   0.9273  -1.8228 LP             1 S1                 0.0000
@<TRIPOS>BOND
    1    1    2 2     
    2    2    3 am    
    3    2   11 1     
    4    3   16 1     
    5    3    4 1     
    6    4    9 ar    
    7    4    5 ar    
    8    5   20 1     
    9    5    6 ar    
   10    6   17 1     
   11    6    7 ar    
   12    7   18 1     
   13    7    8 ar    
   14    8    9 ar    
   15    8   19 1     
   16    9   10 ar    
   17   11   15 1     
   18   11   12 1     
   19   11   21 1     
   20   12   13 1     
   21   12   22 1     
   22   12   23 1     
   23   13   14 1     
   24   13   24 1     
   25   13   25 1     
   26   14   15 1     
   27   14   26 1     
   28   14   27 1     
   29    1   28 1     
   30    1   29 1     
   31   15   30 1     
   32   15   31 1     
@<TRIPOS>SUBSTRUCTURE
      1 S1             1
@<TRIPOS>SET
LONE_PAIRS      STATIC     ATOMS    <user>   **** ""
5 28 29 10 30 31
DONOR_HYDROGENS      STATIC     ATOMS    <user>   **** ""
2 16 20
ATOM$BLUE        STATIC     ATOMS    COLORGROUP SYSTEM
5 28 29 10 30 31
ATOM$RED        STATIC     ATOMS    COLORGROUP SYSTEM
2 16 20
