AV-unprocessed.smi:2353|AV-procd|sdf|9381|dock9
  -GOLD-   2272013 13D 1   1.00000     0.00000
 Structure written by MMmdl.
 45 47  0  0  0  0  0  0  0  0  1 V2000
  152.6439  141.7816  158.8531 C   0  0  0  0  0  0  0  0  0  0  0  0
  151.6340  141.8020  157.7241 C   0  0  0  0  0  0  0  0  0  0  0  0
  150.5440  142.6926  157.7614 C   0  0  0  0  0  0  0  0  0  0  0  0
  149.6099  142.7032  156.7103 C   0  0  0  0  0  0  0  0  0  0  0  0
  149.7587  141.8250  155.6169 C   0  0  0  0  0  0  0  0  0  0  0  0
  148.7420  141.8524  154.4913 C   0  0  0  0  0  0  0  0  0  0  0  0
  150.8488  140.9254  155.5662 C   0  0  0  0  0  0  0  0  0  0  0  0
  150.9362  140.0951  154.4675 O   0  0  0  0  0  0  0  0  0  0  0  0
  151.7023  138.9024  154.5743 C   0  0  0  0  0  0  0  0  0  0  0  0
  150.7631  137.6958  154.4038 C   0  0  1  0  0  0  0  0  0  0  0  0
  151.5496  136.6321  153.9035 O   0  0  0  0  0  0  0  0  0  0  0  0
  150.1468  137.2489  155.7482 C   0  0  0  0  0  0  0  0  0  0  0  0
  150.0193  135.7886  155.8338 N   0  0  0  0  0  0  0  0  0  0  0  0
  149.0928  135.2500  154.9565 N   0  0  0  0  0  0  0  0  0  0  0  0
  148.8874  133.9730  154.9142 C   0  0  0  0  0  0  0  0  0  0  0  0
  147.9348  133.3426  154.0224 N   0  0  0  0  0  0  0  0  0  0  0  0
  147.2614  134.1144  153.0776 C   0  0  0  0  0  0  0  0  0  0  0  0
  146.4400  133.2441  152.3954 C   0  0  0  0  0  0  0  0  0  0  0  0
  146.5928  131.9522  152.8983 N   0  0  0  0  0  0  0  0  0  0  0  0
  147.4958  132.0857  153.8617 C   0  0  0  0  0  0  0  0  0  0  0  0
  149.6320  133.0872  155.7928 C   0  0  0  0  0  0  0  0  0  0  0  0
  150.5337  133.6216  156.6441 C   0  0  0  0  0  0  0  0  0  0  0  0
  150.7810  135.0614  156.7039 C   0  0  0  0  0  0  0  0  0  0  0  0
  151.6035  135.5709  157.4641 O   0  0  0  0  0  0  0  0  0  0  0  0
  151.7840  140.9224  156.6329 C   0  0  0  0  0  0  0  0  0  0  0  0
  152.5350  142.6536  159.4987 H   0  0  0  0  0  0  0  0  0  0  0  0
  153.6595  141.7799  158.4562 H   0  0  0  0  0  0  0  0  0  0  0  0
  152.5104  140.8862  159.4605 H   0  0  0  0  0  0  0  0  0  0  0  0
  150.4191  143.3694  158.5939 H   0  0  0  0  0  0  0  0  0  0  0  0
  148.7775  143.3906  156.7468 H   0  0  0  0  0  0  0  0  0  0  0  0
  149.2141  142.1834  153.5661 H   0  0  0  0  0  0  0  0  0  0  0  0
  147.9175  142.5305  154.7136 H   0  0  0  0  0  0  0  0  0  0  0  0
  148.3267  140.8573  154.3293 H   0  0  0  0  0  0  0  0  0  0  0  0
  152.5106  138.8715  153.8411 H   0  0  0  0  0  0  0  0  0  0  0  0
  152.1520  138.8788  155.5683 H   0  0  0  0  0  0  0  0  0  0  0  0
  149.9735  137.9459  153.6933 H   0  0  0  0  0  0  0  0  0  0  0  0
  151.0810  136.2196  153.1935 H   0  0  0  0  0  0  0  0  0  0  0  0
  150.7007  137.6630  156.5932 H   0  0  0  0  0  0  0  0  0  0  0  0
  149.1443  137.6699  155.8440 H   0  0  0  0  0  0  0  0  0  0  0  0
  147.4026  135.1792  152.9584 H   0  0  0  0  0  0  0  0  0  0  0  0
  145.7541  133.4468  151.5861 H   0  0  0  0  0  0  0  0  0  0  0  0
  147.8354  131.2487  154.4536 H   0  0  0  0  0  0  0  0  0  0  0  0
  149.4737  132.0199  155.7728 H   0  0  0  0  0  0  0  0  0  0  0  0
  151.0907  132.9682  157.2996 H   0  0  0  0  0  0  0  0  0  0  0  0
  152.6289  140.2509  156.6365 H   0  0  0  0  0  0  0  0  0  0  0  0
  1  2  1  0  0  0  0
  1 26  1  0  0  0  0
  1 27  1  0  0  0  0
  1 28  1  0  0  0  0
  2 25  1  0  0  0  0
  2  3  2  0  0  0  0
  3  4  1  0  0  0  0
  3 29  1  0  0  0  0
  4  5  2  0  0  0  0
  4 30  1  0  0  0  0
  5  6  1  0  0  0  0
  5  7  1  0  0  0  0
  6 31  1  0  0  0  0
  6 32  1  0  0  0  0
  6 33  1  0  0  0  0
  7  8  1  0  0  0  0
  7 25  2  0  0  0  0
  8  9  1  0  0  0  0
  9 10  1  0  0  0  0
  9 34  1  0  0  0  0
  9 35  1  0  0  0  0
 10 11  1  0  0  0  0
 10 12  1  0  0  0  0
 10 36  1  0  0  0  0
 11 37  1  0  0  0  0
 12 13  1  0  0  0  0
 12 38  1  0  0  0  0
 12 39  1  0  0  0  0
 13 23  1  0  0  0  0
 13 14  1  0  0  0  0
 14 15  2  0  0  0  0
 15 16  1  0  0  0  0
 15 21  1  0  0  0  0
 16 20  1  0  0  0  0
 16 17  1  0  0  0  0
 17 18  2  0  0  0  0
 17 40  1  0  0  0  0
 18 19  1  0  0  0  0
 18 41  1  0  0  0  0
 19 20  2  0  0  0  0
 20 42  1  0  0  0  0
 21 22  2  0  0  0  0
 21 43  1  0  0  0  0
 22 23  1  0  0  0  0
 22 44  1  0  0  0  0
 23 24  2  0  0  0  0
 25 45  1  0  0  0  0
M  END
> <s_m_source_file>
AV-unprocessed.smi

> <i_m_source_file_index>
2353

> <i_lp_mmshare_version>
43012

> <i_f3d_flags>
0

> <s_epik_input>
W0NIM11jMVtjSF1bY0hdYyhbQ0gzXSljKFtjSF0xKU9bQ0gyXVtDQEhdKFtPSF0pW0NIMl1uMm5jKFtjSF1bY0hdYzI9TyktbjNbY0hdW2NIXW5bY0hdMw==

> <s_epik_cmdline>
J2VwaWtfcHl0aG9uJywgJy1waCcsICc3LjAnLCAnLXRuJywgJzgnLCAnLW1hJywgJzIwMCcsICctbWV0YWxfYmluZGluZycsICctaW1hZScsICc8aW5maWxlLm1hZT4nLCAnLW9tYWUnLCAnPG91dGZpbGUubWFlPic=

> <r_lp_tautomer_probability>
1

> <r_epik_Ionization_Penalty>
0.03707

> <r_epik_Ionization_Penalty_Charging>
0.0370699

> <r_epik_Ionization_Penalty_Neutral>
1.17174e-07

> <r_epik_State_Penalty>
0.0310055

> <r_epik_Charging_Adjusted_Penalty>
0.0680754

> <i_epik_Tot_Q>
0

> <i_epik_Tot_abs_Q>
0

> <r_epik_Metal_State_Penalty>
0.0291724

> <b_epik_Metal_Only>
0

> <s_lp_Force_Field>
OPLS_2005

> <r_lp_Energy>
35.5456

> <b_lp_Chiralities_Consistent>
1

> <s_lp_Variant>
AV-unprocessed.smi:2353-2

> <Gold.Version>
5.8.1

> <Gold.Id.Protein>
6NUR|6NUR_protein|mol2

> <Gold.PLP.Fitness>
53.3138

> <Gold.PLP.PLP>
-44.2902

> <Gold.PLP.part.hbond>
-3.9483

> <Gold.PLP.part.metal>
0.0000

> <Gold.PLP.part.buried>
-3.8372

> <Gold.PLP.part.nonpolar>
-36.9520

> <Gold.PLP.part.repulsive>
1.2722

> <Gold.PLP.ligand.clash>
0.0000

> <Gold.PLP.ligand.torsion>
1.5555

> <Gold.PLP.Chemscore.Hbond>
3.0000

> <Gold.PLP.Chemscore.CHOScore>
1.0000

> <Gold.PLP.Chemscore.Metal>
0.0000

> <Gold.Chemscore.Hbonds>
donor molecule, donor type, donor heavy atom, donor atom, acceptor molecule, acceptor atom, score
      L1  H    11    37       P1  7949  0.83
      P1  H  7989  7998       L1     8  0.73
      P1  H 10752 10764       L1    11  1.00
      L1  C    17    40       P1  7948  0.95

> <Gold.PLP.Chemscore.Internal.Correction>
0.1347

> <Gold.Rescore>
     Score         DG    S(hbond)    S(metal)    S(lipo)     H(rot)  DE(clash)    DE(int)     intcor
     15.06     -16.80       2.19        0.00      91.15       2.60       0.25       1.49       ----

> <Gold.Chemscore.Fitness>
15.0555

> <Gold.Chemscore.DG>
-16.7961

> <Gold.Chemscore.ZeroCoef>
-5.4800

> <Gold.Chemscore.Hbond>
2.1867

> <Gold.Chemscore.Metal>
0.0000

> <Gold.Chemscore.Lipo>
91.1516

> <Gold.Chemscore.Internal_Hbond>
0.0000

> <Gold.Chemscore.DEClash>
0.2496

> <Gold.Chemscore.DEInternal>
1.4910

> <Gold.Chemscore.Rot>
2.5986

> <Gold.Chemscore.Internal.Correction>
   9.000000E+99

> <Gold.Chemscore.Hbonds>
donor molecule, donor type, donor heavy atom, donor atom, acceptor molecule, acceptor atom, score
      L1  H    11    37       P1  7949  0.24
      P1  H  7989  7998       L1     8  0.15
      P1  H 10752 10764       L1    11  0.74

> <Gold.Chemscore.Hbond.Weighted>
-7.3037

> <Gold.Chemscore.Metal.Weighted>
-0.0000

> <Gold.Chemscore.Lipo.Weighted>
-10.6647

> <Gold.Chemscore.Internal_Hbond.Weighted>
0.0000

> <Gold.Chemscore.DEClash.Weighted>
0.2496

> <Gold.Chemscore.DEInternal.Weighted>
1.4910

> <Gold.Chemscore.Rot.Weighted>
6.6524

> <Gold.Chemscore.Internal.Correction.Weighted>
   9.000000E+99

> <Gold.Protein.RotatedTorsions>
[ 6907 6896 6895 6894 ] final   44.38 input  -60.11 | X-H torsion
[ 7974 7965 7964 7962 ] final  125.45 input  175.53 | X-H torsion
[ 8008 7997 7996 7995 ] final  -87.77 input   59.86 | X-H torsion
[ 10167 10162 10161 10158 ] final -111.01 input  -65.29 | X-H torsion
[ 10718 10713 10712 10709 ] final  128.08 input   66.30 | X-H torsion
[ 10763 10752 10751 10750 ] final  -71.91 input  -60.55 | X-H torsion
[ 11005 11000 10999 10996 ] final -129.33 input  -57.11 | X-H torsion

> <Gold.Protein.ActiveResidues>
 VAL166  LYS551  ARG553  GLY616  TRP617  ASP618  TYR619  PRO620  LYS621  CYS622 
 ASP623  PHE694  ASN695  SER759  ASP760  ASP761  ALA762  ILE779  LEU786  VAL792 
 PHE793  MET794  SER795  GLU796  ALA797  LYS798  CYS799  TRP800  GLU811  SER814 

> <Gold.Protein.RotatedAtoms>
  152.2318  134.8315  160.0472 H   0  0  0  0  0  0  0  0  0  0  0  0  # atno 6907 bound_to 6896
  151.9061  133.3544  159.3855 H   0  0  0  0  0  0  0  0  0  0  0  0  # atno 6908 bound_to 6896
  150.7028  134.4705  159.5467 H   0  0  0  0  0  0  0  0  0  0  0  0  # atno 6909 bound_to 6896
  145.0728  139.3716  143.4949 H   0  0  0  0  0  0  0  0  0  0  0  0  # atno 7974 bound_to 7965
  154.6670  140.0562  157.0124 H   0  0  0  0  0  0  0  0  0  0  0  0  # atno 8008 bound_to 7997
  155.1144  140.3241  155.4494 H   0  0  0  0  0  0  0  0  0  0  0  0  # atno 8009 bound_to 7997
  156.2642  140.2008  156.6268 H   0  0  0  0  0  0  0  0  0  0  0  0  # atno 8010 bound_to 7997
  140.1382  143.4302  152.1580 H   0  0  0  0  0  0  0  0  0  0  0  0  # atno 10167 bound_to 10162
  157.5276  131.1098  150.9059 H   0  0  0  0  0  0  0  0  0  0  0  0  # atno 10718 bound_to 10713
  154.4384  135.5947  153.6113 H   0  0  0  0  0  0  0  0  0  0  0  0  # atno 10763 bound_to 10752
  152.9803  135.5992  154.3753 H   0  0  0  0  0  0  0  0  0  0  0  0  # atno 10764 bound_to 10752
  154.3599  135.2841  155.2304 H   0  0  0  0  0  0  0  0  0  0  0  0  # atno 10765 bound_to 10752
  140.9440  134.1155  157.4124 H   0  0  0  0  0  0  0  0  0  0  0  0  # atno 11005 bound_to 11000
  146.3529  140.0482  142.8638 LP  0  0  0  0  0  0  0  0  0  0  0  0  # atno 17320 bound_to 7965
  145.1271  140.9496  143.4566 LP  0  0  0  0  0  0  0  0  0  0  0  0  # atno 17321 bound_to 7965
  139.5485  144.7318  151.4508 LP  0  0  0  0  0  0  0  0  0  0  0  0  # atno 17342 bound_to 10162
  140.6776  143.8154  150.7079 LP  0  0  0  0  0  0  0  0  0  0  0  0  # atno 17343 bound_to 10162
  156.9650  130.5469  149.5287 LP  0  0  0  0  0  0  0  0  0  0  0  0  # atno 17370 bound_to 10713
  156.0398  130.5482  150.8744 LP  0  0  0  0  0  0  0  0  0  0  0  0  # atno 17371 bound_to 10713
  139.8828  135.0045  156.6257 LP  0  0  0  0  0  0  0  0  0  0  0  0  # atno 17394 bound_to 11000
  140.7695  133.8750  155.8480 LP  0  0  0  0  0  0  0  0  0  0  0  0  # atno 17395 bound_to 11000

$$$$
