#       Name:                AV-unprocessed.smi:1239
#       Creating user name   scv26
#       Creation time:       Fri Mar 27 04:26:47 2020


#       File generated by GOLD software.
#

@<TRIPOS>MOLECULE
AV-unprocessed.smi:1239
    53    54     1
SMALL
NO_CHARGES


@<TRIPOS>ATOM
      1 ****        -3.4135   1.9042   0.4410 C.3            1 S1                 0.0000
      2 ****        -3.5192   1.1783  -0.9198 C.3            1 S1                 0.0000
      3 ****        -2.8896  -0.2288  -0.7619 C.3            1 S1                 0.0000
      4 ****        -1.4421  -0.1557  -0.5763 N.am           1 S1                 0.0000
      5 ****        -0.7292  -0.9073   0.2737 C.2            1 S1                 0.0000
      6 ****        -1.2252  -1.7681   0.9998 O.2            1 S1                 0.0000
      7 ****         0.5750  -0.5829   0.2313 N.am           1 S1                 0.0000
      8 ****         1.6558  -1.1297   0.9776 C.ar           1 S1                 0.0000
      9 ****         2.8796  -0.4281   0.9678 C.ar           1 S1                 0.0000
     10 ****         3.9847  -0.9302   1.6855 C.ar           1 S1                 0.0000
     11 ****         3.8635  -2.1418   2.4092 C.ar           1 S1                 0.0000
     12 ****         4.9212  -2.7085   3.1528 N.pl3          1 S1                 0.0000
     13 ****         4.7024  -3.9417   3.9006 C.3            1 S1                 0.0000
     14 ****         6.2186  -2.0461   3.1892 C.3            1 S1                 0.0000
     15 ****         2.6714  -2.7857   2.3802 N.pl3          1 S1                 1.0000
     16 ****         1.5884  -2.3412   1.7067 C.ar           1 S1                 0.0000
     17 ****        -2.9763   1.9625  -2.0510 N.3            1 S1                 0.0000
     18 ****        -3.1104   1.2658  -3.3341 C.3            1 S1                 0.0000
     19 ****        -2.5686   2.0899  -4.5149 C.3            1 S1                 0.0000
     20 ****        -3.2324   3.3458  -4.5667 O.3            1 S1                 0.0000
     21 ****        -3.0715   4.0883  -3.3653 C.3            1 S1                 0.0000
     22 ****        -3.6150   3.2760  -2.1773 C.3            1 S1                 0.0000
     23 ****        -3.7208   1.2542   1.2607 H              1 S1                 0.0000
     24 ****        -4.0600   2.7797   0.4911 H              1 S1                 0.0000
     25 ****        -2.3920   2.2273   0.6440 H              1 S1                 0.0000
     26 ****        -4.5828   1.0187  -1.1041 H              1 S1                 0.0000
     27 ****        -3.3623  -0.7358   0.0811 H              1 S1                 0.0000
     28 ****        -3.1039  -0.8627  -1.6217 H              1 S1                 0.0000
     29 ****        -0.9540   0.5322  -1.1314 H              1 S1                 0.0000
     30 ****         0.8169   0.1813  -0.3825 H              1 S1                 0.0000
     31 ****         2.9747   0.4959   0.4161 H              1 S1                 0.0000
     32 ****         4.9099  -0.3739   1.6686 H              1 S1                 0.0000
     33 ****         4.4282  -4.7546   3.2273 H              1 S1                 0.0000
     34 ****         3.9031  -3.8109   4.6308 H              1 S1                 0.0000
     35 ****         5.6002  -4.2445   4.4397 H              1 S1                 0.0000
     36 ****         6.1296  -1.0528   3.6304 H              1 S1                 0.0000
     37 ****         6.6269  -1.9467   2.1831 H              1 S1                 0.0000
     38 ****         6.9361  -2.6119   3.7837 H              1 S1                 0.0000
     39 ****         0.7231  -2.9820   1.7779 H              1 S1                 0.0000
     40 ****        -2.5645   0.3240  -3.3174 H              1 S1                 0.0000
     41 ****        -4.1583   1.0210  -3.5144 H              1 S1                 0.0000
     42 ****        -1.4923   2.2414  -4.4187 H              1 S1                 0.0000
     43 ****        -2.7349   1.5613  -5.4536 H              1 S1                 0.0000
     44 ****        -2.0183   4.3327  -3.2174 H              1 S1                 0.0000
     45 ****        -3.6092   5.0322  -3.4561 H              1 S1                 0.0000
     46 ****        -4.6937   3.1534  -2.2873 H              1 S1                 0.0000
     47 ****        -3.4550   3.8673  -1.2769 H              1 S1                 0.0000
     48 ****         2.5857  -3.6612   2.8966 H              1 S1                 0.0000
     49 ****        -2.2106  -1.9365   0.9744 LP             1 S1                 0.0000
     50 ****        -0.6429  -2.2992   1.6153 LP             1 S1                 0.0000
     51 ****        -2.0065   2.0809  -1.8375 LP             1 S1                 0.0000
     52 ****        -4.2080   3.1883  -4.7197 LP             1 S1                 0.0000
     53 ****        -2.8574   3.8771  -5.3263 LP             1 S1                 0.0000
@<TRIPOS>BOND
    1    1    2 1     
    2    1   23 1     
    3    1   24 1     
    4    1   25 1     
    5    2    3 1     
    6    2   17 1     
    7    2   26 1     
    8    3    4 1     
    9    3   27 1     
   10    3   28 1     
   11    4    5 am    
   12    4   29 1     
   13    5    6 2     
   14    5    7 am    
   15    7    8 1     
   16    7   30 1     
   17    8   16 ar    
   18    8    9 ar    
   19    9   10 ar    
   20    9   31 1     
   21   10   11 ar    
   22   10   32 1     
   23   11   12 1     
   24   11   15 ar    
   25   12   13 1     
   26   12   14 1     
   27   13   33 1     
   28   13   34 1     
   29   13   35 1     
   30   14   36 1     
   31   14   37 1     
   32   14   38 1     
   33   15   16 ar    
   34   15   48 1     
   35   16   39 1     
   36   17   22 1     
   37   17   18 1     
   38   18   19 1     
   39   18   40 1     
   40   18   41 1     
   41   19   20 1     
   42   19   42 1     
   43   19   43 1     
   44   20   21 1     
   45   21   22 1     
   46   21   44 1     
   47   21   45 1     
   48   22   46 1     
   49   22   47 1     
   50    6   49 1     
   51    6   50 1     
   52   17   51 1     
   53   20   52 1     
   54   20   53 1     
@<TRIPOS>SUBSTRUCTURE
      1 S1             1
@<TRIPOS>SET
LONE_PAIRS      STATIC     ATOMS    <user>   **** ""
5 49 50 51 52 53
DONOR_HYDROGENS      STATIC     ATOMS    <user>   **** ""
3 29 30 48
ATOM$BLUE        STATIC     ATOMS    COLORGROUP SYSTEM
5 49 50 51 52 53
ATOM$RED        STATIC     ATOMS    COLORGROUP SYSTEM
3 29 30 48
