AV-unprocessed.smi:2356|AV-procd|sdf|9393|dock8
  -GOLD-   2272013 23D 1   1.00000     0.00000
 Structure written by MMmdl.
 53 56  0  0  0  0  0  0  0  0  1 V2000
  152.9809  138.5682  155.0609 C   0  0  0  0  0  0  0  0  0  0  0  0
  152.3607  138.7088  156.4408 C   0  0  0  0  0  0  0  0  0  0  0  0
  152.7909  139.7662  157.1619 N   0  0  0  0  0  0  0  0  0  0  0  0
  152.2978  139.9631  158.4066 C   0  0  0  0  0  0  0  0  0  0  0  0
  152.7786  141.0789  159.1205 N   0  0  0  0  0  0  0  0  0  0  0  0
  152.3740  142.4372  158.7959 C   0  0  0  0  0  0  0  0  0  0  0  0
  152.9868  143.3004  159.8983 C   0  0  0  0  0  0  0  0  0  0  0  0
  152.9796  142.3713  161.1116 C   0  0  0  0  0  0  0  0  0  0  0  0
  153.1989  140.9776  160.5127 C   0  0  0  0  0  0  0  0  0  0  0  0
  151.3348  139.0925  158.9675 C   0  0  0  0  0  0  0  0  0  0  0  0
  150.8865  137.9889  158.2176 C   0  0  0  0  0  0  0  0  0  0  0  0
  151.4036  137.7819  156.9168 C   0  0  0  0  0  0  0  0  0  0  0  0
  151.0440  136.6921  156.0751 N   0  0  0  0  0  0  0  0  0  0  0  0
  150.3958  135.5465  156.3619 C   0  0  0  0  0  0  0  0  0  0  0  0
  149.9190  135.2597  157.4572 O   0  0  0  0  0  0  0  0  0  0  0  0
  150.2837  134.7087  155.3145 N   0  0  0  0  0  0  0  0  0  0  0  0
  149.6450  133.3903  155.2722 C   0  0  2  0  0  0  0  0  0  0  0  0
  150.4180  132.3817  156.1376 C   0  0  0  0  0  0  0  0  0  0  0  0
  149.8307  130.9710  155.9843 C   0  0  0  0  0  0  0  0  0  0  0  0
  149.8249  130.5805  154.6130 O   0  0  0  0  0  0  0  0  0  0  0  0
  149.0766  131.4301  153.7423 C   0  0  1  0  0  0  0  0  0  0  0  0
  147.5778  131.3067  153.9856 C   0  0  0  0  0  0  0  0  0  0  0  0
  146.7959  130.1633  153.3842 C   0  0  0  0  0  0  0  0  0  0  0  0
  146.5865  131.5704  152.8766 C   0  0  0  0  0  0  0  0  0  0  0  0
  149.5971  132.8794  153.8240 C   0  0  0  0  0  0  0  0  0  0  0  0
  152.2075  138.5892  154.2925 H   0  0  0  0  0  0  0  0  0  0  0  0
  153.5204  137.6239  154.9818 H   0  0  0  0  0  0  0  0  0  0  0  0
  153.6833  139.3763  154.8525 H   0  0  0  0  0  0  0  0  0  0  0  0
  152.7271  142.7387  157.8093 H   0  0  0  0  0  0  0  0  0  0  0  0
  151.2855  142.5060  158.8133 H   0  0  0  0  0  0  0  0  0  0  0  0
  154.0148  143.5570  159.6388 H   0  0  0  0  0  0  0  0  0  0  0  0
  152.4387  144.2278  160.0665 H   0  0  0  0  0  0  0  0  0  0  0  0
  153.7316  142.6352  161.8555 H   0  0  0  0  0  0  0  0  0  0  0  0
  152.0020  142.4121  161.5938 H   0  0  0  0  0  0  0  0  0  0  0  0
  152.6372  140.2236  161.0656 H   0  0  0  0  0  0  0  0  0  0  0  0
  154.2547  140.7064  160.5404 H   0  0  0  0  0  0  0  0  0  0  0  0
  150.9372  139.2486  159.9590 H   0  0  0  0  0  0  0  0  0  0  0  0
  150.1657  137.3257  158.6674 H   0  0  0  0  0  0  0  0  0  0  0  0
  151.3200  136.7967  155.1099 H   0  0  0  0  0  0  0  0  0  0  0  0
  150.6844  135.0273  154.4439 H   0  0  0  0  0  0  0  0  0  0  0  0
  148.6191  133.4662  155.6347 H   0  0  0  0  0  0  0  0  0  0  0  0
  151.4677  132.3668  155.8404 H   0  0  0  0  0  0  0  0  0  0  0  0
  150.3957  132.6787  157.1865 H   0  0  0  0  0  0  0  0  0  0  0  0
  150.4341  130.2561  156.5440 H   0  0  0  0  0  0  0  0  0  0  0  0
  148.8258  130.9212  156.4037 H   0  0  0  0  0  0  0  0  0  0  0  0
  149.2676  131.0675  152.7315 H   0  0  0  0  0  0  0  0  0  0  0  0
  147.2564  131.6133  154.9786 H   0  0  0  0  0  0  0  0  0  0  0  0
  147.3290  129.4699  152.7368 H   0  0  0  0  0  0  0  0  0  0  0  0
  146.0069  129.7228  153.9904 H   0  0  0  0  0  0  0  0  0  0  0  0
  145.6561  132.0677  153.1430 H   0  0  0  0  0  0  0  0  0  0  0  0
  146.9786  131.8117  151.8906 H   0  0  0  0  0  0  0  0  0  0  0  0
  148.9813  133.5361  153.2080 H   0  0  0  0  0  0  0  0  0  0  0  0
  150.6010  132.9128  153.3974 H   0  0  0  0  0  0  0  0  0  0  0  0
  1  2  1  0  0  0  0
  1 26  1  0  0  0  0
  1 27  1  0  0  0  0
  1 28  1  0  0  0  0
  2 12  1  0  0  0  0
  2  3  2  0  0  0  0
  3  4  1  0  0  0  0
  4  5  1  0  0  0  0
  4 10  2  0  0  0  0
  5  9  1  0  0  0  0
  5  6  1  0  0  0  0
  6  7  1  0  0  0  0
  6 29  1  0  0  0  0
  6 30  1  0  0  0  0
  7  8  1  0  0  0  0
  7 31  1  0  0  0  0
  7 32  1  0  0  0  0
  8  9  1  0  0  0  0
  8 33  1  0  0  0  0
  8 34  1  0  0  0  0
  9 35  1  0  0  0  0
  9 36  1  0  0  0  0
 10 11  1  0  0  0  0
 10 37  1  0  0  0  0
 11 12  2  0  0  0  0
 11 38  1  0  0  0  0
 12 13  1  0  0  0  0
 13 14  1  0  0  0  0
 13 39  1  0  0  0  0
 14 15  2  0  0  0  0
 14 16  1  0  0  0  0
 16 17  1  0  0  0  0
 16 40  1  0  0  0  0
 17 25  1  0  0  0  0
 17 18  1  0  0  0  0
 17 41  1  0  0  0  0
 18 19  1  0  0  0  0
 18 42  1  0  0  0  0
 18 43  1  0  0  0  0
 19 20  1  0  0  0  0
 19 44  1  0  0  0  0
 19 45  1  0  0  0  0
 20 21  1  0  0  0  0
 21 22  1  0  0  0  0
 21 25  1  0  0  0  0
 21 46  1  0  0  0  0
 22 24  1  0  0  0  0
 22 23  1  0  0  0  0
 22 47  1  0  0  0  0
 23 24  1  0  0  0  0
 23 48  1  0  0  0  0
 23 49  1  0  0  0  0
 24 50  1  0  0  0  0
 24 51  1  0  0  0  0
 25 52  1  0  0  0  0
 25 53  1  0  0  0  0
M  END
> <s_m_source_file>
AV-unprocessed.smi

> <i_m_source_file_index>
2356

> <i_lp_mmshare_version>
43012

> <i_f3d_flags>
0

> <s_epik_input>
W0NIMl0xW0NIMl1bQ0gyXVtDSDJdTjFjKG5jMltDSDNdKVtjSF1bY0hdYzJbTkhdQyg9TylbTkhdW0NAQEhdM1tDSDJdW0NIMl1PW0NASF0oW0NIMl0zKVtDSF00W0NIMl1bQ0gyXTQ=

> <s_epik_cmdline>
J2VwaWtfcHl0aG9uJywgJy1waCcsICc3LjAnLCAnLXRuJywgJzgnLCAnLW1hJywgJzIwMCcsICctbWV0YWxfYmluZGluZycsICctaW1hZScsICc8aW5maWxlLm1hZT4nLCAnLW9tYWUnLCAnPG91dGZpbGUubWFlPic=

> <r_lp_tautomer_probability>
1

> <r_epik_Ionization_Penalty>
0.308781

> <r_epik_Ionization_Penalty_Charging>
0

> <r_epik_Ionization_Penalty_Neutral>
0.308781

> <r_epik_State_Penalty>
0.302092

> <r_epik_Charging_Adjusted_Penalty>
0.302092

> <i_epik_Tot_Q>
0

> <i_epik_Tot_abs_Q>
0

> <r_epik_Metal_State_Penalty>
0.197467

> <b_epik_Metal_Only>
0

> <s_lp_Force_Field>
OPLS_2005

> <r_lp_Energy>
55.4092

> <b_lp_Chiralities_Consistent>
1

> <s_lp_Variant>
AV-unprocessed.smi:2356-1

> <Gold.Version>
5.8.1

> <Gold.Id.Protein>
6NUR|6NUR_protein|mol2

> <Gold.PLP.Fitness>
45.3761

> <Gold.PLP.PLP>
-44.5658

> <Gold.PLP.part.hbond>
-1.5042

> <Gold.PLP.part.metal>
0.0000

> <Gold.PLP.part.buried>
-5.6431

> <Gold.PLP.part.nonpolar>
-37.5288

> <Gold.PLP.part.repulsive>
0.2073

> <Gold.PLP.ligand.clash>
0.0000

> <Gold.PLP.ligand.torsion>
1.7184

> <Gold.PLP.Chemscore.Hbond>
1.0000

> <Gold.PLP.Chemscore.CHOScore>
0.0000

> <Gold.PLP.Chemscore.Metal>
0.0000

> <Gold.Chemscore.Hbonds>
donor molecule, donor type, donor heavy atom, donor atom, acceptor molecule, acceptor atom, score
      P1  H  7997  8010       L1     3  1.00

> <Gold.PLP.Chemscore.Internal.Correction>
1.2471

> <Gold.Rescore>
     Score         DG    S(hbond)    S(metal)    S(lipo)     H(rot)  DE(clash)    DE(int)     intcor
     15.95     -18.83       0.82        0.00     115.75       1.14       0.18       2.70       ----

> <Gold.Chemscore.Fitness>
15.9511

> <Gold.Chemscore.DG>
-18.8299

> <Gold.Chemscore.ZeroCoef>
-5.4800

> <Gold.Chemscore.Hbond>
0.8155

> <Gold.Chemscore.Metal>
0.0000

> <Gold.Chemscore.Lipo>
115.7540

> <Gold.Chemscore.Internal_Hbond>
0.0000

> <Gold.Chemscore.DEClash>
0.1758

> <Gold.Chemscore.DEInternal>
2.7031

> <Gold.Chemscore.Rot>
1.1395

> <Gold.Chemscore.Internal.Correction>
   9.000000E+99

> <Gold.Chemscore.Hbonds>
donor molecule, donor type, donor heavy atom, donor atom, acceptor molecule, acceptor atom, score
      P1  H  7997  8010       L1     3  0.38

> <Gold.Chemscore.Hbond.Weighted>
-2.7238

> <Gold.Chemscore.Metal.Weighted>
-0.0000

> <Gold.Chemscore.Lipo.Weighted>
-13.5432

> <Gold.Chemscore.Internal_Hbond.Weighted>
0.0000

> <Gold.Chemscore.DEClash.Weighted>
0.1758

> <Gold.Chemscore.DEInternal.Weighted>
2.7031

> <Gold.Chemscore.Rot.Weighted>
2.9171

> <Gold.Chemscore.Internal.Correction.Weighted>
   9.000000E+99

> <Gold.Protein.RotatedTorsions>
[ 6907 6896 6895 6894 ] final  -31.96 input  -60.11 | X-H torsion
[ 7974 7965 7964 7962 ] final    2.04 input  175.53 | X-H torsion
[ 8008 7997 7996 7995 ] final   73.23 input   59.86 | X-H torsion
[ 10167 10162 10161 10158 ] final  -65.42 input  -65.29 | X-H torsion
[ 10718 10713 10712 10709 ] final  177.90 input   66.30 | X-H torsion
[ 10763 10752 10751 10750 ] final  134.13 input  -60.55 | X-H torsion
[ 11005 11000 10999 10996 ] final  -73.20 input  -57.11 | X-H torsion

> <Gold.Protein.ActiveResidues>
 VAL166  LYS551  ARG553  GLY616  TRP617  ASP618  TYR619  PRO620  LYS621  CYS622 
 ASP623  PHE694  ASN695  SER759  ASP760  ASP761  ALA762  ILE779  LEU786  VAL792 
 PHE793  MET794  SER795  GLU796  ALA797  LYS798  CYS799  TRP800  GLU811  SER814 

> <Gold.Protein.RotatedAtoms>
  151.0851  134.9882  159.8374 H   0  0  0  0  0  0  0  0  0  0  0  0  # atno 6907 bound_to 6896
  152.5423  134.2134  159.8769 H   0  0  0  0  0  0  0  0  0  0  0  0  # atno 6908 bound_to 6896
  151.2167  133.4482  159.2633 H   0  0  0  0  0  0  0  0  0  0  0  0  # atno 6909 bound_to 6896
  146.2442  140.0896  142.8353 H   0  0  0  0  0  0  0  0  0  0  0  0  # atno 7974 bound_to 7965
  155.7806  140.3482  155.5295 H   0  0  0  0  0  0  0  0  0  0  0  0  # atno 8008 bound_to 7997
  155.8732  140.0990  157.1556 H   0  0  0  0  0  0  0  0  0  0  0  0  # atno 8009 bound_to 7997
  154.4019  140.1336  156.4092 H   0  0  0  0  0  0  0  0  0  0  0  0  # atno 8010 bound_to 7997
  140.5731  143.2319  151.6497 H   0  0  0  0  0  0  0  0  0  0  0  0  # atno 10167 bound_to 10162
  156.8984  130.9871  151.3039 H   0  0  0  0  0  0  0  0  0  0  0  0  # atno 10718 bound_to 10713
  153.8184  135.3119  155.3408 H   0  0  0  0  0  0  0  0  0  0  0  0  # atno 10763 bound_to 10752
  154.8022  135.4719  154.0308 H   0  0  0  0  0  0  0  0  0  0  0  0  # atno 10764 bound_to 10752
  153.1709  135.6877  153.8699 H   0  0  0  0  0  0  0  0  0  0  0  0  # atno 10765 bound_to 10752
  141.1619  133.6871  156.7176 H   0  0  0  0  0  0  0  0  0  0  0  0  # atno 11005 bound_to 11000
  145.0662  140.9123  143.4909 LP  0  0  0  0  0  0  0  0  0  0  0  0  # atno 17320 bound_to 7965
  145.1021  139.2815  143.5681 LP  0  0  0  0  0  0  0  0  0  0  0  0  # atno 17321 bound_to 7965
  139.5128  144.3464  152.0693 LP  0  0  0  0  0  0  0  0  0  0  0  0  # atno 17342 bound_to 10162
  140.2604  144.4073  150.6188 LP  0  0  0  0  0  0  0  0  0  0  0  0  # atno 17343 bound_to 10162
  157.6041  130.8534  149.8847 LP  0  0  0  0  0  0  0  0  0  0  0  0  # atno 17370 bound_to 10713
  156.0594  130.3702  150.1017 LP  0  0  0  0  0  0  0  0  0  0  0  0  # atno 17371 bound_to 10713
  140.2840  134.8294  157.3958 LP  0  0  0  0  0  0  0  0  0  0  0  0  # atno 17394 bound_to 11000
  140.1407  134.4976  155.8034 LP  0  0  0  0  0  0  0  0  0  0  0  0  # atno 17395 bound_to 11000

$$$$
