AV-unprocessed.smi:2131|AV-procd|sdf|8690|dock2
  -GOLD-   2272011443D 1   1.00000     0.00000
 Structure written by MMmdl.
 41 43  0  0  0  0  0  0  0  0  2 V2000
  152.8998  140.0247  157.8259 N   0  0  0  0  0  0  0  0  0  0  0  0
  152.1301  140.6966  157.2828 C   0  0  0  0  0  0  0  0  0  0  0  0
  151.1517  141.5502  156.5921 C   0  0  0  0  0  0  0  0  0  0  0  0
  150.2469  140.7506  155.6778 C   0  0  0  0  0  0  0  0  0  0  0  0
  150.4414  139.3641  155.5241 C   0  0  0  0  0  0  0  0  0  0  0  0
  149.6016  138.6241  154.6699 C   0  0  0  0  0  0  0  0  0  0  0  0
  148.5604  139.2533  153.9570 C   0  0  0  0  0  0  0  0  0  0  0  0
  147.7887  138.4538  153.1415 O   0  0  0  0  0  0  0  0  0  0  0  0
  146.7625  139.0677  152.3726 C   0  0  0  0  0  0  0  0  0  0  0  0
  145.9272  137.9718  151.6951 C   0  0  1  0  0  0  0  0  0  0  0  0
  146.3694  137.8255  150.3600 O   0  0  0  0  0  0  0  0  0  0  0  0
  146.0302  136.6179  152.4257 C   0  0  0  0  0  0  0  0  0  0  0  0
  145.2272  135.5655  151.7903 N   0  0  0  0  0  0  0  0  0  0  0  0
  144.0441  135.6494  151.1236 C   0  0  0  0  0  0  0  0  0  0  0  0
  143.7062  134.3908  150.7273 N   0  3  0  0  0  0  0  0  0  0  0  0
  144.6876  133.4901  151.1473 C   0  0  0  0  0  0  0  0  0  0  0  0
  144.7903  132.1116  150.9871 C   0  0  0  0  0  0  0  0  0  0  0  0
  145.9281  131.4926  151.5456 C   0  0  0  0  0  0  0  0  0  0  0  0
  146.9100  132.2390  152.2295 C   0  0  0  0  0  0  0  0  0  0  0  0
  146.7970  133.6365  152.3844 C   0  0  0  0  0  0  0  0  0  0  0  0
  145.6684  134.2394  151.8307 C   0  0  0  0  0  0  0  0  0  0  0  0
  148.3697  140.6493  154.1174 C   0  0  0  0  0  0  0  0  0  0  0  0
  149.2087  141.3901  154.9725 C   0  0  0  0  0  0  0  0  0  0  0  0
  150.5593  142.0734  157.3432 H   0  0  0  0  0  0  0  0  0  0  0  0
  151.6938  142.3029  156.0192 H   0  0  0  0  0  0  0  0  0  0  0  0
  151.2361  138.8651  156.0590 H   0  0  0  0  0  0  0  0  0  0  0  0
  149.7610  137.5615  154.5580 H   0  0  0  0  0  0  0  0  0  0  0  0
  146.1245  139.6619  153.0291 H   0  0  0  0  0  0  0  0  0  0  0  0
  147.1886  139.7334  151.6198 H   0  0  0  0  0  0  0  0  0  0  0  0
  144.8860  138.2938  151.6600 H   0  0  0  0  0  0  0  0  0  0  0  0
  145.6426  138.0019  149.7820 H   0  0  0  0  0  0  0  0  0  0  0  0
  147.0656  136.2742  152.4433 H   0  0  0  0  0  0  0  0  0  0  0  0
  145.7160  136.7073  153.4664 H   0  0  0  0  0  0  0  0  0  0  0  0
  143.4748  136.5505  150.9457 H   0  0  0  0  0  0  0  0  0  0  0  0
  144.0400  131.5372  150.4637 H   0  0  0  0  0  0  0  0  0  0  0  0
  146.0497  130.4235  151.4478 H   0  0  0  0  0  0  0  0  0  0  0  0
  147.7676  131.7295  152.6448 H   0  0  0  0  0  0  0  0  0  0  0  0
  147.5529  134.2010  152.9102 H   0  0  0  0  0  0  0  0  0  0  0  0
  147.5857  141.1765  153.5959 H   0  0  0  0  0  0  0  0  0  0  0  0
  149.0536  142.4532  155.0846 H   0  0  0  0  0  0  0  0  0  0  0  0
  142.8656  134.1662  150.2104 H   0  0  0  0  0  0  0  0  0  0  0  0
  1  2  3  0  0  0  0
  2  3  1  0  0  0  0
  3  4  1  0  0  0  0
  3 24  1  0  0  0  0
  3 25  1  0  0  0  0
  4 23  1  0  0  0  0
  4  5  2  0  0  0  0
  5  6  1  0  0  0  0
  5 26  1  0  0  0  0
  6  7  2  0  0  0  0
  6 27  1  0  0  0  0
  7  8  1  0  0  0  0
  7 22  1  0  0  0  0
  8  9  1  0  0  0  0
  9 10  1  0  0  0  0
  9 28  1  0  0  0  0
  9 29  1  0  0  0  0
 10 11  1  0  0  0  0
 10 12  1  0  0  0  0
 10 30  1  0  0  0  0
 11 31  1  0  0  0  0
 12 13  1  0  0  0  0
 12 32  1  0  0  0  0
 12 33  1  0  0  0  0
 13 21  1  0  0  0  0
 13 14  1  0  0  0  0
 14 15  2  0  0  0  0
 14 34  1  0  0  0  0
 15 16  1  0  0  0  0
 15 41  1  0  0  0  0
 16 21  2  0  0  0  0
 16 17  1  0  0  0  0
 17 18  2  0  0  0  0
 17 35  1  0  0  0  0
 18 19  1  0  0  0  0
 18 36  1  0  0  0  0
 19 20  2  0  0  0  0
 19 37  1  0  0  0  0
 20 21  1  0  0  0  0
 20 38  1  0  0  0  0
 22 23  2  0  0  0  0
 22 39  1  0  0  0  0
 23 40  1  0  0  0  0
M  CHG  1  15   1
M  END
> <s_m_source_file>
AV-unprocessed.smi

> <i_m_source_file_index>
2131

> <i_lp_mmshare_version>
43012

> <i_f3d_flags>
0

> <s_epik_input>
TiNDW0NIMl1jMVtjSF1bY0hdYyhbY0hdW2NIXTEpT1tDSDJdW0NASF0oW09IXSlbQ0gyXW4oW2NIXW4yKWMoYzIzKVtjSF1bY0hdW2NIXVtjSF0z

> <s_epik_cmdline>
J2VwaWtfcHl0aG9uJywgJy1waCcsICc3LjAnLCAnLXRuJywgJzgnLCAnLW1hJywgJzIwMCcsICctbWV0YWxfYmluZGluZycsICctaW1hZScsICc8aW5maWxlLm1hZT4nLCAnLW9tYWUnLCAnPG91dGZpbGUubWFlPic=

> <r_lp_tautomer_probability>
1

> <r_epik_Ionization_Penalty>
1.3774

> <r_epik_Ionization_Penalty_Charging>
1.37739

> <r_epik_Ionization_Penalty_Neutral>
2.3994e-06

> <r_epik_State_Penalty>
1.45762

> <r_epik_Charging_Adjusted_Penalty>
2.83501

> <i_epik_Tot_Q>
1

> <i_epik_Tot_abs_Q>
1

> <r_epik_Metal_State_Penalty>
5.49752

> <b_epik_Metal_Only>
0

> <s_lp_Force_Field>
OPLS_2005

> <r_lp_Energy>
20.3244

> <b_lp_Chiralities_Consistent>
1

> <s_lp_Variant>
AV-unprocessed.smi:2131-4

> <Gold.Version>
5.8.1

> <Gold.Id.Protein>
6NUR|6NUR_protein|mol2

> <Gold.PLP.Fitness>
56.4552

> <Gold.PLP.PLP>
-41.1267

> <Gold.PLP.part.hbond>
-4.2471

> <Gold.PLP.part.metal>
0.0000

> <Gold.PLP.part.buried>
-0.8418

> <Gold.PLP.part.nonpolar>
-38.4554

> <Gold.PLP.part.repulsive>
2.4341

> <Gold.PLP.ligand.clash>
0.0000

> <Gold.PLP.ligand.torsion>
0.9214

> <Gold.PLP.Chemscore.Hbond>
4.6480

> <Gold.PLP.Chemscore.CHOScore>
1.0000

> <Gold.PLP.Chemscore.Metal>
0.0000

> <Gold.Chemscore.Hbonds>
donor molecule, donor type, donor heavy atom, donor atom, acceptor molecule, acceptor atom, score
      L1  H    11    31       P1 10171  0.85
      L1  H    15    41       P1 10186  2.00
      P1  H  7954  7966       L1    11  0.83
      P1  H  7997  8010       L1     1  1.00
      L1  C    14    34       P1 10171  1.00

> <Gold.PLP.Chemscore.Internal.Correction>
0.2272

> <Gold.Rescore>
     Score         DG    S(hbond)    S(metal)    S(lipo)     H(rot)  DE(clash)    DE(int)     intcor
     18.27     -22.13       3.58        0.00     101.60       2.81       2.95       0.91       ----

> <Gold.Chemscore.Fitness>
18.2660

> <Gold.Chemscore.DG>
-22.1260

> <Gold.Chemscore.ZeroCoef>
-5.4800

> <Gold.Chemscore.Hbond>
3.5817

> <Gold.Chemscore.Metal>
0.0000

> <Gold.Chemscore.Lipo>
101.6000

> <Gold.Chemscore.Internal_Hbond>
0.0000

> <Gold.Chemscore.DEClash>
2.9508

> <Gold.Chemscore.DEInternal>
0.9093

> <Gold.Chemscore.Rot>
2.8140

> <Gold.Chemscore.Internal.Correction>
   9.000000E+99

> <Gold.Chemscore.Hbonds>
donor molecule, donor type, donor heavy atom, donor atom, acceptor molecule, acceptor atom, score
      L1  H    11    31       P1 10171  0.85
      L1  H    15    41       P1 10186  0.90
      P1  H  7954  7966       L1    11  0.83
      P1  H  7997  8010       L1     1  0.54

> <Gold.Chemscore.Hbond.Weighted>
-11.9628

> <Gold.Chemscore.Metal.Weighted>
-0.0000

> <Gold.Chemscore.Lipo.Weighted>
-11.8872

> <Gold.Chemscore.Internal_Hbond.Weighted>
0.0000

> <Gold.Chemscore.DEClash.Weighted>
2.9508

> <Gold.Chemscore.DEInternal.Weighted>
0.9093

> <Gold.Chemscore.Rot.Weighted>
7.2039

> <Gold.Chemscore.Internal.Correction.Weighted>
   9.000000E+99

> <Gold.Protein.RotatedTorsions>
[ 6907 6896 6895 6894 ] final -158.90 input  -60.11 | X-H torsion
[ 7974 7965 7964 7962 ] final   62.92 input  175.53 | X-H torsion
[ 8008 7997 7996 7995 ] final   50.44 input   59.86 | X-H torsion
[ 10167 10162 10161 10158 ] final  179.94 input  -65.29 | X-H torsion
[ 10718 10713 10712 10709 ] final   39.32 input   66.30 | X-H torsion
[ 10763 10752 10751 10750 ] final  -46.30 input  -60.55 | X-H torsion
[ 11005 11000 10999 10996 ] final   99.37 input  -57.11 | X-H torsion

> <Gold.Protein.ActiveResidues>
 VAL166  LYS551  ARG553  GLY616  TRP617  ASP618  TYR619  PRO620  LYS621  CYS622 
 ASP623  PHE694  ASN695  SER759  ASP760  ASP761  ALA762  ILE779  LEU786  VAL792 
 PHE793  MET794  SER795  GLU796  ALA797  LYS798  CYS799  TRP800  GLU811  SER814 

> <Gold.Protein.RotatedAtoms>
  151.3253  133.4023  159.2657 H   0  0  0  0  0  0  0  0  0  0  0  0  # atno 6907 bound_to 6896
  151.0000  134.9315  159.7959 H   0  0  0  0  0  0  0  0  0  0  0  0  # atno 6908 bound_to 6896
  152.5272  134.3218  159.9203 H   0  0  0  0  0  0  0  0  0  0  0  0  # atno 6909 bound_to 6896
  145.8678  139.3357  143.0780 H   0  0  0  0  0  0  0  0  0  0  0  0  # atno 7974 bound_to 7965
  155.4188  140.3445  155.4269 H   0  0  0  0  0  0  0  0  0  0  0  0  # atno 8008 bound_to 7997
  156.1405  140.1540  156.8959 H   0  0  0  0  0  0  0  0  0  0  0  0  # atno 8009 bound_to 7997
  154.4967  140.0826  156.7692 H   0  0  0  0  0  0  0  0  0  0  0  0  # atno 8010 bound_to 7997
  139.5358  144.2501  152.0791 H   0  0  0  0  0  0  0  0  0  0  0  0  # atno 10167 bound_to 10162
  157.3692  130.7692  149.7106 H   0  0  0  0  0  0  0  0  0  0  0  0  # atno 10718 bound_to 10713
  154.0427  135.6642  153.4792 H   0  0  0  0  0  0  0  0  0  0  0  0  # atno 10763 bound_to 10752
  153.0495  135.5093  154.7826 H   0  0  0  0  0  0  0  0  0  0  0  0  # atno 10764 bound_to 10752
  154.6808  135.3044  154.9582 H   0  0  0  0  0  0  0  0  0  0  0  0  # atno 10765 bound_to 10752
  139.8771  134.9092  156.4596 H   0  0  0  0  0  0  0  0  0  0  0  0  # atno 11005 bound_to 11000
  145.9172  140.9140  143.0423 LP  0  0  0  0  0  0  0  0  0  0  0  0  # atno 17320 bound_to 7965
  144.6726  140.1240  143.7448 LP  0  0  0  0  0  0  0  0  0  0  0  0  # atno 17321 bound_to 7965
  140.1972  144.4694  150.6449 LP  0  0  0  0  0  0  0  0  0  0  0  0  # atno 17342 bound_to 10162
  140.6564  143.2239  151.5960 LP  0  0  0  0  0  0  0  0  0  0  0  0  # atno 17343 bound_to 10162
  155.9752  130.4092  150.3866 LP  0  0  0  0  0  0  0  0  0  0  0  0  # atno 17370 bound_to 10713
  157.1954  131.0425  151.2678 LP  0  0  0  0  0  0  0  0  0  0  0  0  # atno 17371 bound_to 10713
  140.8873  133.7874  155.9533 LP  0  0  0  0  0  0  0  0  0  0  0  0  # atno 17394 bound_to 11000
  140.8791  134.2634  157.5153 LP  0  0  0  0  0  0  0  0  0  0  0  0  # atno 17395 bound_to 11000

$$$$
