#       Name:                AV-unprocessed.smi:2060
#       Creating user name   scv26
#       Creation time:       Fri Mar 27 11:03:06 2020


#       File generated by GOLD software.
#

@<TRIPOS>MOLECULE
AV-unprocessed.smi:2060
    53    54     1
SMALL
NO_CHARGES


@<TRIPOS>ATOM
      1 ****        -1.7546   0.3745  -4.4420 C.3            1 S1                 0.0000
      2 ****        -1.8972  -0.4282  -3.1294 C.3            1 S1                 0.0000
      3 ****        -1.3044   0.1942  -1.8137 C.3            1 S1                 0.0000
      4 ****        -1.8045   1.6723  -1.7196 C.3            1 S1                 0.0000
      5 ****         0.2706   0.2131  -1.8345 C.3            1 S1                 0.0000
      6 ****         0.8135   0.6414  -0.5395 N.pl3          1 S1                -1.0000
      7 ****         2.0453   0.3074  -0.0672 C.2            1 S1                 0.0000
      8 ****         2.8929  -0.4067  -0.6152 O.2            1 S1                 0.0000
      9 ****         2.2915   0.8517   1.1386 N.am           1 S1                 0.0000
     10 ****         3.4499   0.7274   1.9507 C.2            1 S1                 0.0000
     11 ****         3.5286   1.3879   3.2059 C.2            1 S1                 0.0000
     12 ****         4.7635   1.0287   3.6676 C.2            1 S1                 0.0000
     13 ****         5.5136   1.3495   4.9146 C.3            1 S1                 0.0000
     14 ****         5.3867   0.2169   2.7713 O.3            1 S1                 0.0000
     15 ****         4.5393   0.0265   1.6734 N.2            1 S1                 0.0000
     16 ****        -1.7563  -0.6190  -0.6125 N.4            1 S1                 1.0000
     17 ****        -3.0561  -0.2368   0.0124 C.3            1 S1                 0.0000
     18 ****        -3.2693  -0.9961   1.3341 C.3            1 S1                 0.0000
     19 ****        -3.2002  -2.3976   1.1159 O.3            1 S1                 0.0000
     20 ****        -1.9303  -2.7834   0.6107 C.3            1 S1                 0.0000
     21 ****        -1.7060  -2.1087  -0.7500 C.3            1 S1                 0.0000
     22 ****        -2.1804  -0.1866  -5.2739 H              1 S1                 0.0000
     23 ****        -0.7138   0.5772  -4.6939 H              1 S1                 0.0000
     24 ****        -2.2847   1.3254  -4.3985 H              1 S1                 0.0000
     25 ****        -2.9654  -0.5920  -2.9814 H              1 S1                 0.0000
     26 ****        -1.4824  -1.4213  -3.3140 H              1 S1                 0.0000
     27 ****        -1.3913   2.3166  -2.4987 H              1 S1                 0.0000
     28 ****        -1.5527   2.1443  -0.7675 H              1 S1                 0.0000
     29 ****        -2.8873   1.7337  -1.8333 H              1 S1                 0.0000
     30 ****         0.6233  -0.7826  -2.1058 H              1 S1                 0.0000
     31 ****         0.6141   0.8635  -2.6389 H              1 S1                 0.0000
     32 ****         1.5556   1.4289   1.5169 H              1 S1                 0.0000
     33 ****         2.8004   2.0220   3.6894 H              1 S1                 0.0000
     34 ****         4.8864   1.9004   5.6157 H              1 S1                 0.0000
     35 ****         6.3887   1.9600   4.6917 H              1 S1                 0.0000
     36 ****         5.8519   0.4382   5.4079 H              1 S1                 0.0000
     37 ****        -3.0965   0.8223   0.2581 H              1 S1                 0.0000
     38 ****        -3.8735  -0.4425  -0.6798 H              1 S1                 0.0000
     39 ****        -2.5268  -0.6968   2.0758 H              1 S1                 0.0000
     40 ****        -4.2471  -0.7533   1.7506 H              1 S1                 0.0000
     41 ****        -1.1400  -2.5200   1.3159 H              1 S1                 0.0000
     42 ****        -1.9116  -3.8677   0.4998 H              1 S1                 0.0000
     43 ****        -2.4757  -2.4498  -1.4431 H              1 S1                 0.0000
     44 ****        -0.7495  -2.4464  -1.1474 H              1 S1                 0.0000
     45 ****        -1.0602  -0.3899   0.0846 H              1 S1                 0.0000
     46 ****         0.2367   1.2202   0.0369 LP             1 S1                 0.0000
     47 ****         2.7031  -0.8111  -1.5099 LP             1 S1                 0.0000
     48 ****         3.7683  -0.5798  -0.1638 LP             1 S1                 0.0000
     49 ****         5.5873  -0.6647   3.1985 LP             1 S1                 0.0000
     50 ****         6.2396   0.6422   2.4683 LP             1 S1                 0.0000
     51 ****         4.7179  -0.5208   0.8557 LP             1 S1                 0.0000
     52 ****        -3.9052  -2.6590   0.4567 LP             1 S1                 0.0000
     53 ****        -3.3624  -2.8698   1.9823 LP             1 S1                 0.0000
@<TRIPOS>BOND
    1    1    2 1     
    2    1   22 1     
    3    1   23 1     
    4    1   24 1     
    5    2    3 1     
    6    2   25 1     
    7    2   26 1     
    8    3    4 1     
    9    3    5 1     
   10    3   16 1     
   11    4   27 1     
   12    4   28 1     
   13    4   29 1     
   14    5    6 1     
   15    5   30 1     
   16    5   31 1     
   17    6    7 1     
   18    7    8 2     
   19    7    9 am    
   20    9   10 1     
   21    9   32 1     
   22   10   15 2     
   23   10   11 1     
   24   11   12 2     
   25   11   33 1     
   26   12   13 1     
   27   12   14 1     
   28   13   34 1     
   29   13   35 1     
   30   13   36 1     
   31   14   15 1     
   32   16   21 1     
   33   16   17 1     
   34   16   45 1     
   35   17   18 1     
   36   17   37 1     
   37   17   38 1     
   38   18   19 1     
   39   18   39 1     
   40   18   40 1     
   41   19   20 1     
   42   20   21 1     
   43   20   41 1     
   44   20   42 1     
   45   21   43 1     
   46   21   44 1     
   47    6   46 1     
   48    8   47 1     
   49    8   48 1     
   50   14   49 1     
   51   14   50 1     
   52   15   51 1     
   53   19   52 1     
   54   19   53 1     
@<TRIPOS>SUBSTRUCTURE
      1 S1             1
@<TRIPOS>SET
LONE_PAIRS      STATIC     ATOMS    <user>   **** ""
8 46 47 48 49 50 51 52 53
DONOR_HYDROGENS      STATIC     ATOMS    <user>   **** ""
2 32 45
ATOM$BLUE        STATIC     ATOMS    COLORGROUP SYSTEM
8 46 47 48 49 50 51 52 53
ATOM$RED        STATIC     ATOMS    COLORGROUP SYSTEM
2 32 45
