AV-unprocessed.smi:1812|AV-procd|sdf|7336|dock9
  -GOLD-   22720 8593D 1   1.00000     0.00000
 Structure written by MMmdl.
 34 36  0  0  0  0  0  0  0  0  1 V2000
  146.7056  139.4139  154.0422 O   0  0  0  0  0  0  0  0  0  0  0  0
  147.4565  138.6490  153.4360 C   0  0  0  0  0  0  0  0  0  0  0  0
  147.0220  137.7103  152.5833 N   0  0  0  0  0  0  0  0  0  0  0  0
  145.6237  137.4748  152.2419 C   0  0  0  0  0  0  0  0  0  0  0  0
  145.4546  136.1999  151.3992 C   0  0  2  0  0  0  0  0  0  0  0  0
  144.0172  135.6850  151.3457 C   0  0  0  0  0  0  0  0  0  0  0  0
  144.2310  134.2171  151.0553 C   0  0  0  0  0  0  0  0  0  0  0  0
  145.4644  133.9124  151.8997 C   0  0  0  0  0  0  0  0  0  0  0  0
  146.2103  135.1258  151.9560 O   0  0  0  0  0  0  0  0  0  0  0  0
  148.7979  138.6384  153.5297 N   0  0  0  0  0  0  0  0  0  0  0  0
  149.6313  139.4756  154.3179 C   0  0  0  0  0  0  0  0  0  0  0  0
  150.9546  139.3045  154.4427 N   0  0  0  0  0  0  0  0  0  0  0  0
  151.5248  140.2619  155.2699 N   0  0  0  0  0  0  0  0  0  0  0  0
  150.6207  141.1272  155.7446 C   0  0  0  0  0  0  0  0  0  0  0  0
  150.9944  142.2486  156.6557 C   0  0  0  0  0  0  0  0  0  0  0  0
  151.6958  142.0004  157.9734 C   0  0  0  0  0  0  0  0  0  0  0  0
  150.2608  142.4615  157.9600 C   0  0  0  0  0  0  0  0  0  0  0  0
  148.9687  140.8339  155.2105 S   0  0  0  0  0  0  0  0  0  0  0  0
  147.7058  137.1268  152.1238 H   0  0  0  0  0  0  0  0  0  0  0  0
  145.0525  137.3913  153.1668 H   0  0  0  0  0  0  0  0  0  0  0  0
  145.2227  138.3376  151.7072 H   0  0  0  0  0  0  0  0  0  0  0  0
  145.8059  136.3640  150.3789 H   0  0  0  0  0  0  0  0  0  0  0  0
  143.5263  135.8056  152.3126 H   0  0  0  0  0  0  0  0  0  0  0  0
  143.4138  136.1879  150.5896 H   0  0  0  0  0  0  0  0  0  0  0  0
  143.3722  133.5966  151.3129 H   0  0  0  0  0  0  0  0  0  0  0  0
  144.4536  134.0735  149.9972 H   0  0  0  0  0  0  0  0  0  0  0  0
  145.1732  133.6400  152.9150 H   0  0  0  0  0  0  0  0  0  0  0  0
  146.0591  133.0968  151.4879 H   0  0  0  0  0  0  0  0  0  0  0  0
  149.2802  137.9525  152.9681 H   0  0  0  0  0  0  0  0  0  0  0  0
  151.2831  143.1283  156.0838 H   0  0  0  0  0  0  0  0  0  0  0  0
  151.8832  140.9713  158.2730 H   0  0  0  0  0  0  0  0  0  0  0  0
  152.4513  142.7199  158.2824 H   0  0  0  0  0  0  0  0  0  0  0  0
  150.0592  143.4878  158.2603 H   0  0  0  0  0  0  0  0  0  0  0  0
  149.4982  141.7358  158.2357 H   0  0  0  0  0  0  0  0  0  0  0  0
  1  2  2  0  0  0  0
  2  3  1  0  0  0  0
  2 10  1  0  0  0  0
  3  4  1  0  0  0  0
  3 19  1  0  0  0  0
  4  5  1  0  0  0  0
  4 20  1  0  0  0  0
  4 21  1  0  0  0  0
  5  9  1  0  0  0  0
  5  6  1  0  0  0  0
  5 22  1  0  0  0  0
  6  7  1  0  0  0  0
  6 23  1  0  0  0  0
  6 24  1  0  0  0  0
  7  8  1  0  0  0  0
  7 25  1  0  0  0  0
  7 26  1  0  0  0  0
  8  9  1  0  0  0  0
  8 27  1  0  0  0  0
  8 28  1  0  0  0  0
 10 11  1  0  0  0  0
 10 29  1  0  0  0  0
 11 18  1  0  0  0  0
 11 12  2  0  0  0  0
 12 13  1  0  0  0  0
 13 14  2  0  0  0  0
 14 15  1  0  0  0  0
 14 18  1  0  0  0  0
 15 17  1  0  0  0  0
 15 16  1  0  0  0  0
 15 30  1  0  0  0  0
 16 17  1  0  0  0  0
 16 31  1  0  0  0  0
 16 32  1  0  0  0  0
 17 33  1  0  0  0  0
 17 34  1  0  0  0  0
M  END
> <s_m_source_file>
AV-unprocessed.smi

> <i_m_source_file_index>
1812

> <i_lp_mmshare_version>
43012

> <i_f3d_flags>
0

> <s_epik_input>
TzFbQ0gyXVtDSDJdW0NIMl1bQ0BIXTFbQ0gyXVtOSF1DKD1PKVtOSF1jMm5uYyhzMilbQ0hdM1tDSDJdW0NIMl0z

> <s_epik_cmdline>
J2VwaWtfcHl0aG9uJywgJy1waCcsICc3LjAnLCAnLXRuJywgJzgnLCAnLW1hJywgJzIwMCcsICctbWV0YWxfYmluZGluZycsICctaW1hZScsICc8aW5maWxlLm1hZT4nLCAnLW9tYWUnLCAnPG91dGZpbGUubWFlPic=

> <r_lp_tautomer_probability>
1

> <r_epik_Ionization_Penalty>
0.000281817

> <r_epik_Ionization_Penalty_Charging>
0

> <r_epik_Ionization_Penalty_Neutral>
0.000281817

> <r_epik_State_Penalty>
-0

> <r_epik_Charging_Adjusted_Penalty>
0

> <i_epik_Tot_Q>
0

> <i_epik_Tot_abs_Q>
0

> <r_epik_Metal_State_Penalty>
0.157535

> <b_epik_Metal_Only>
0

> <s_lp_Force_Field>
OPLS_2005

> <r_lp_Energy>
14.57

> <b_lp_Chiralities_Consistent>
1

> <s_lp_Variant>
AV-unprocessed.smi:1812-1

> <Gold.Version>
5.8.1

> <Gold.Id.Protein>
6NUR|6NUR_protein|mol2

> <Gold.PLP.Fitness>
36.3797

> <Gold.PLP.PLP>
-31.0992

> <Gold.PLP.part.hbond>
-5.0000

> <Gold.PLP.part.metal>
0.0000

> <Gold.PLP.part.buried>
-4.6738

> <Gold.PLP.part.nonpolar>
-22.8214

> <Gold.PLP.part.repulsive>
1.7511

> <Gold.PLP.ligand.clash>
0.0000

> <Gold.PLP.ligand.torsion>
0.2358

> <Gold.PLP.Chemscore.Hbond>
1.8723

> <Gold.PLP.Chemscore.CHOScore>
0.0000

> <Gold.PLP.Chemscore.Metal>
0.0000

> <Gold.Chemscore.Hbonds>
donor molecule, donor type, donor heavy atom, donor atom, acceptor molecule, acceptor atom, score
      L1  H     3    19       P1  7948  1.00
      L1  H    10    29       P1  7948  0.84

> <Gold.PLP.Chemscore.Internal.Correction>
0.1352

> <Gold.Rescore>
     Score         DG    S(hbond)    S(metal)    S(lipo)     H(rot)  DE(clash)    DE(int)     intcor
     13.82     -15.31       1.89        0.00      62.15       1.47       0.05       1.44       ----

> <Gold.Chemscore.Fitness>
13.8179

> <Gold.Chemscore.DG>
-15.3054

> <Gold.Chemscore.ZeroCoef>
-5.4800

> <Gold.Chemscore.Hbond>
1.8932

> <Gold.Chemscore.Metal>
0.0000

> <Gold.Chemscore.Lipo>
62.1513

> <Gold.Chemscore.Internal_Hbond>
0.0000

> <Gold.Chemscore.DEClash>
0.0453

> <Gold.Chemscore.DEInternal>
1.4422

> <Gold.Chemscore.Rot>
1.4725

> <Gold.Chemscore.Internal.Correction>
   9.000000E+99

> <Gold.Chemscore.Hbonds>
donor molecule, donor type, donor heavy atom, donor atom, acceptor molecule, acceptor atom, score
      L1  H     3    19       P1  7948  0.94
      L1  H    10    29       P1  7948  0.76

> <Gold.Chemscore.Hbond.Weighted>
-6.3232

> <Gold.Chemscore.Metal.Weighted>
-0.0000

> <Gold.Chemscore.Lipo.Weighted>
-7.2717

> <Gold.Chemscore.Internal_Hbond.Weighted>
0.0000

> <Gold.Chemscore.DEClash.Weighted>
0.0453

> <Gold.Chemscore.DEInternal.Weighted>
1.4422

> <Gold.Chemscore.Rot.Weighted>
3.7695

> <Gold.Chemscore.Internal.Correction.Weighted>
   9.000000E+99

> <Gold.Protein.RotatedTorsions>
[ 6907 6896 6895 6894 ] final   86.09 input  -60.11 | X-H torsion
[ 7974 7965 7964 7962 ] final   67.21 input  175.53 | X-H torsion
[ 8008 7997 7996 7995 ] final -155.00 input   59.86 | X-H torsion
[ 10167 10162 10161 10158 ] final   96.51 input  -65.29 | X-H torsion
[ 10718 10713 10712 10709 ] final -135.05 input   66.30 | X-H torsion
[ 10763 10752 10751 10750 ] final  166.35 input  -60.55 | X-H torsion
[ 11005 11000 10999 10996 ] final -142.91 input  -57.11 | X-H torsion

> <Gold.Protein.ActiveResidues>
 VAL166  LYS551  ARG553  GLY616  TRP617  ASP618  TYR619  PRO620  LYS621  CYS622 
 ASP623  PHE694  ASN695  SER759  ASP760  ASP761  ALA762  ILE779  LEU786  VAL792 
 PHE793  MET794  SER795  GLU796  ALA797  LYS798  CYS799  TRP800  GLU811  SER814 

> <Gold.Protein.RotatedAtoms>
  152.5387  134.2486  159.8889 H   0  0  0  0  0  0  0  0  0  0  0  0  # atno 6907 bound_to 6896
  151.2450  133.4373  159.2616 H   0  0  0  0  0  0  0  0  0  0  0  0  # atno 6908 bound_to 6896
  151.0592  134.9739  159.8307 H   0  0  0  0  0  0  0  0  0  0  0  0  # atno 6909 bound_to 6896
  145.8174  139.3066  143.1063 H   0  0  0  0  0  0  0  0  0  0  0  0  # atno 7974 bound_to 7965
  155.6951  140.0760  157.2432 H   0  0  0  0  0  0  0  0  0  0  0  0  # atno 8008 bound_to 7997
  154.4082  140.1657  156.2182 H   0  0  0  0  0  0  0  0  0  0  0  0  # atno 8009 bound_to 7997
  155.9417  140.3384  155.6336 H   0  0  0  0  0  0  0  0  0  0  0  0  # atno 8010 bound_to 7997
  139.7887  144.6860  150.9921 H   0  0  0  0  0  0  0  0  0  0  0  0  # atno 10167 bound_to 10162
  156.2620  130.7215  151.1153 H   0  0  0  0  0  0  0  0  0  0  0  0  # atno 10718 bound_to 10713
  154.3377  135.2754  155.2439 H   0  0  0  0  0  0  0  0  0  0  0  0  # atno 10763 bound_to 10752
  154.4723  135.5880  153.6334 H   0  0  0  0  0  0  0  0  0  0  0  0  # atno 10764 bound_to 10752
  152.9860  135.6091  154.3575 H   0  0  0  0  0  0  0  0  0  0  0  0  # atno 10765 bound_to 10752
  140.8178  134.2667  157.4913 H   0  0  0  0  0  0  0  0  0  0  0  0  # atno 11005 bound_to 11000
  145.9712  140.8759  143.0162 LP  0  0  0  0  0  0  0  0  0  0  0  0  # atno 17320 bound_to 7965
  144.6751  140.1948  143.7393 LP  0  0  0  0  0  0  0  0  0  0  0  0  # atno 17321 bound_to 7965
  140.7820  143.4404  151.0561 LP  0  0  0  0  0  0  0  0  0  0  0  0  # atno 17342 bound_to 10162
  139.8081  143.7989  152.3169 LP  0  0  0  0  0  0  0  0  0  0  0  0  # atno 17343 bound_to 10162
  157.7254  131.0653  150.5954 LP  0  0  0  0  0  0  0  0  0  0  0  0  # atno 17370 bound_to 10713
  156.6043  130.4363  149.5884 LP  0  0  0  0  0  0  0  0  0  0  0  0  # atno 17371 bound_to 10713
  139.8710  134.9519  156.4098 LP  0  0  0  0  0  0  0  0  0  0  0  0  # atno 17394 bound_to 11000
  140.9131  133.7698  155.9815 LP  0  0  0  0  0  0  0  0  0  0  0  0  # atno 17395 bound_to 11000

$$$$
