#       Name:                AV-unprocessed.smi:1619
#       Creating user name   scv26
#       Creation time:       Fri Mar 27 07:15:13 2020


#       File generated by GOLD software.
#

@<TRIPOS>MOLECULE
AV-unprocessed.smi:1619
    47    49     1
SMALL
NO_CHARGES


@<TRIPOS>ATOM
      1 ****        -2.8483   4.3322   2.6229 C.3            1 S1                 0.0000
      2 ****        -2.5457   3.2464   1.6040 C.ar           1 S1                 0.0000
      3 ****        -2.8555   3.4902   0.2467 C.ar           1 S1                 0.0000
      4 ****        -2.5635   2.4798  -0.6619 C.ar           1 S1                 0.0000
      5 ****        -2.7425   2.4123  -2.0453 N.pl3          1 S1                 1.0000
      6 ****        -2.3004   1.2080  -2.5028 C.2            1 S1                 0.0000
      7 ****        -1.8393   0.5063  -1.4313 N.pl3          1 S1                 0.0000
      8 ****        -1.2554  -0.8402  -1.3609 C.3            1 S1                 0.0000
      9 ****         0.2838  -0.8235  -1.2762 C.3            1 S1                 0.0000
     10 ****         0.8052  -0.1705  -2.4182 O.3            1 S1                 0.0000
     11 ****         0.8697  -2.2468  -1.1990 C.3            1 S1                 0.0000
     12 ****         2.3379  -2.2489  -0.9879 N.4            1 S1                 1.0000
     13 ****         2.7913  -1.7734   0.3349 C.3            1 S1                 0.0000
     14 ****         4.2110  -2.3222   0.5100 C.3            1 S1                 0.0000
     15 ****         4.3422  -3.4618  -0.5077 C.3            1 S1                 0.0000
     16 ****         2.9708  -3.5669  -1.1780 C.3            1 S1                 0.0000
     17 ****        -1.9859   1.2594  -0.2615 C.ar           1 S1                 0.0000
     18 ****        -1.6765   1.0014   1.0716 C.ar           1 S1                 0.0000
     19 ****        -1.9630   2.0180   2.0108 C.ar           1 S1                 0.0000
     20 ****        -1.6318   1.7681   3.4724 C.3            1 S1                 0.0000
     21 ****        -3.3265   5.1944   2.1568 H              1 S1                 0.0000
     22 ****        -1.9296   4.6766   3.0983 H              1 S1                 0.0000
     23 ****        -3.5196   3.9581   3.3962 H              1 S1                 0.0000
     24 ****        -3.2990   4.4229  -0.0703 H              1 S1                 0.0000
     25 ****        -2.3106   0.8732  -3.5301 H              1 S1                 0.0000
     26 ****        -1.6888  -1.3566  -0.5033 H              1 S1                 0.0000
     27 ****        -1.5819  -1.3857  -2.2475 H              1 S1                 0.0000
     28 ****         0.5794  -0.2539  -0.3952 H              1 S1                 0.0000
     29 ****         0.5126  -0.6296  -3.1910 H              1 S1                 0.0000
     30 ****         0.3924  -2.8078  -0.3939 H              1 S1                 0.0000
     31 ****         0.6434  -2.7819  -2.1228 H              1 S1                 0.0000
     32 ****         2.7602  -0.6859   0.4089 H              1 S1                 0.0000
     33 ****         2.1447  -2.1829   1.1130 H              1 S1                 0.0000
     34 ****         4.9489  -1.5478   0.2965 H              1 S1                 0.0000
     35 ****         4.3802  -2.6639   1.5318 H              1 S1                 0.0000
     36 ****         5.1031  -3.2093  -1.2472 H              1 S1                 0.0000
     37 ****         4.6363  -4.4025  -0.0409 H              1 S1                 0.0000
     38 ****         2.3759  -4.3309  -0.6744 H              1 S1                 0.0000
     39 ****         3.0402  -3.8343  -2.2331 H              1 S1                 0.0000
     40 ****        -1.2344   0.0662   1.3813 H              1 S1                 0.0000
     41 ****        -1.1692   0.7914   3.6159 H              1 S1                 0.0000
     42 ****        -2.5358   1.8009   4.0808 H              1 S1                 0.0000
     43 ****        -0.9374   2.5228   3.8420 H              1 S1                 0.0000
     44 ****         2.7473  -1.6339  -1.6772 H              1 S1                 0.0000
     45 ****        -3.1364   3.1337  -2.6359 H              1 S1                 0.0000
     46 ****         1.8045  -0.1762  -2.3819 LP             1 S1                 0.0000
     47 ****         0.4780   0.7741  -2.4442 LP             1 S1                 0.0000
@<TRIPOS>BOND
    1    1    2 1     
    2    1   21 1     
    3    1   22 1     
    4    1   23 1     
    5    2   19 ar    
    6    2    3 ar    
    7    3    4 ar    
    8    3   24 1     
    9    4   17 ar    
   10    4    5 1     
   11    5    6 2     
   12    5   45 1     
   13    6    7 1     
   14    6   25 1     
   15    7    8 1     
   16    7   17 1     
   17    8    9 1     
   18    8   26 1     
   19    8   27 1     
   20    9   10 1     
   21    9   11 1     
   22    9   28 1     
   23   10   29 1     
   24   11   12 1     
   25   11   30 1     
   26   11   31 1     
   27   12   16 1     
   28   12   13 1     
   29   12   44 1     
   30   13   14 1     
   31   13   32 1     
   32   13   33 1     
   33   14   15 1     
   34   14   34 1     
   35   14   35 1     
   36   15   16 1     
   37   15   36 1     
   38   15   37 1     
   39   16   38 1     
   40   16   39 1     
   41   17   18 ar    
   42   18   19 ar    
   43   18   40 1     
   44   19   20 1     
   45   20   41 1     
   46   20   42 1     
   47   20   43 1     
   48   10   46 1     
   49   10   47 1     
@<TRIPOS>SUBSTRUCTURE
      1 S1             1
@<TRIPOS>SET
LONE_PAIRS      STATIC     ATOMS    <user>   **** ""
2 46 47
DONOR_HYDROGENS      STATIC     ATOMS    <user>   **** ""
3 45 29 44
ATOM$BLUE        STATIC     ATOMS    COLORGROUP SYSTEM
2 46 47
ATOM$RED        STATIC     ATOMS    COLORGROUP SYSTEM
3 45 29 44
