AV-unprocessed.smi:1986|AV-procd|sdf|8049|dock2
  -GOLD-   2272010253D 1   1.00000     0.00000
 Structure written by MMmdl.
 47 48  0  0  0  0  0  0  0  0  3 V2000
  150.4231  132.7393  155.0130 C   0  0  0  0  0  0  0  0  0  0  0  0
  149.3714  132.9130  153.9028 C   0  0  0  0  0  0  0  0  0  0  0  0
  148.1775  133.8602  154.2320 C   0  0  2  0  0  0  0  0  0  0  0  0
  148.7211  135.1656  154.8706 C   0  0  0  0  0  0  0  0  0  0  0  0
  147.2416  133.1839  155.2805 C   0  0  0  0  0  0  0  0  0  0  0  0
  147.8834  133.0389  156.5843 N   0  0  0  0  0  0  0  0  0  0  0  0
  147.4229  133.5095  157.7546 C   0  0  0  0  0  0  0  0  0  0  0  0
  146.4244  134.2231  157.8422 O   0  0  0  0  0  0  0  0  0  0  0  0
  148.1651  133.0915  159.0349 C   0  0  0  0  0  0  0  0  0  0  0  0
  147.7395  133.8026  160.2523 N   0  0  0  0  0  0  0  0  0  0  0  0
  147.8567  135.2563  160.1577 N   0  5  0  0  0  0  0  0  0  0  0  0
  147.5924  136.0130  161.2556 C   0  0  0  0  0  0  0  0  0  0  0  0
  147.7166  137.2350  161.2674 O   0  0  0  0  0  0  0  0  0  0  0  0
  147.1168  135.3391  162.4523 C   0  0  0  0  0  0  0  0  0  0  0  0
  146.9499  134.0021  162.4873 C   0  0  0  0  0  0  0  0  0  0  0  0
  147.2541  133.1482  161.3454 C   0  0  0  0  0  0  0  0  0  0  0  0
  147.0919  131.9284  161.3657 O   0  0  0  0  0  0  0  0  0  0  0  0
  147.3868  134.1906  152.9872 N   0  3  0  0  0  0  0  0  0  0  0  0
  147.0091  133.0429  152.1150 C   0  0  0  0  0  0  0  0  0  0  0  0
  146.3856  133.5493  150.8033 C   0  0  0  0  0  0  0  0  0  0  0  0
  145.2550  134.3616  151.0870 O   0  0  0  0  0  0  0  0  0  0  0  0
  145.6089  135.5082  151.8471 C   0  0  0  0  0  0  0  0  0  0  0  0
  146.2009  135.0691  153.1951 C   0  0  0  0  0  0  0  0  0  0  0  0
  151.2005  132.0458  154.6920 H   0  0  0  0  0  0  0  0  0  0  0  0
  149.9889  132.3338  155.9263 H   0  0  0  0  0  0  0  0  0  0  0  0
  150.9160  133.6795  155.2591 H   0  0  0  0  0  0  0  0  0  0  0  0
  149.8884  133.2654  153.0105 H   0  0  0  0  0  0  0  0  0  0  0  0
  149.0007  131.9180  153.6582 H   0  0  0  0  0  0  0  0  0  0  0  0
  149.0776  135.0010  155.8878 H   0  0  0  0  0  0  0  0  0  0  0  0
  147.9517  135.9364  154.9291 H   0  0  0  0  0  0  0  0  0  0  0  0
  149.5619  135.5770  154.3116 H   0  0  0  0  0  0  0  0  0  0  0  0
  146.3377  133.7747  155.4274 H   0  0  0  0  0  0  0  0  0  0  0  0
  146.8866  132.2160  154.9241 H   0  0  0  0  0  0  0  0  0  0  0  0
  148.7185  132.4715  156.6193 H   0  0  0  0  0  0  0  0  0  0  0  0
  148.0591  132.0127  159.1597 H   0  0  0  0  0  0  0  0  0  0  0  0
  149.2322  133.2567  158.8757 H   0  0  0  0  0  0  0  0  0  0  0  0
  146.8840  135.9241  163.3300 H   0  0  0  0  0  0  0  0  0  0  0  0
  146.5893  133.5439  163.3963 H   0  0  0  0  0  0  0  0  0  0  0  0
  147.8725  132.4363  151.8482 H   0  0  0  0  0  0  0  0  0  0  0  0
  146.3037  132.3921  152.6319 H   0  0  0  0  0  0  0  0  0  0  0  0
  147.1160  134.1088  150.2180 H   0  0  0  0  0  0  0  0  0  0  0  0
  146.0679  132.7065  150.1895 H   0  0  0  0  0  0  0  0  0  0  0  0
  146.3140  136.1292  151.2961 H   0  0  0  0  0  0  0  0  0  0  0  0
  144.7159  136.1120  152.0088 H   0  0  0  0  0  0  0  0  0  0  0  0
  145.4330  134.5405  153.7601 H   0  0  0  0  0  0  0  0  0  0  0  0
  146.4617  135.9613  153.7615 H   0  0  0  0  0  0  0  0  0  0  0  0
  148.0261  134.7364  152.4250 H   0  0  0  0  0  0  0  0  0  0  0  0
  1  2  1  0  0  0  0
  1 24  1  0  0  0  0
  1 25  1  0  0  0  0
  1 26  1  0  0  0  0
  2  3  1  0  0  0  0
  2 27  1  0  0  0  0
  2 28  1  0  0  0  0
  3  4  1  0  0  0  0
  3  5  1  0  0  0  0
  3 18  1  0  0  0  0
  4 29  1  0  0  0  0
  4 30  1  0  0  0  0
  4 31  1  0  0  0  0
  5  6  1  0  0  0  0
  5 32  1  0  0  0  0
  5 33  1  0  0  0  0
  6  7  1  0  0  0  0
  6 34  1  0  0  0  0
  7  8  2  0  0  0  0
  7  9  1  0  0  0  0
  9 35  1  0  0  0  0
  9 36  1  0  0  0  0
  9 10  1  0  0  0  0
 10 11  1  0  0  0  0
 10 16  1  0  0  0  0
 11 12  1  0  0  0  0
 12 13  2  0  0  0  0
 12 14  1  0  0  0  0
 14 37  1  0  0  0  0
 14 15  2  0  0  0  0
 15 38  1  0  0  0  0
 15 16  1  0  0  0  0
 16 17  2  0  0  0  0
 18 23  1  0  0  0  0
 18 19  1  0  0  0  0
 18 47  1  0  0  0  0
 19 20  1  0  0  0  0
 19 39  1  0  0  0  0
 19 40  1  0  0  0  0
 20 21  1  0  0  0  0
 20 41  1  0  0  0  0
 20 42  1  0  0  0  0
 21 22  1  0  0  0  0
 22 23  1  0  0  0  0
 22 43  1  0  0  0  0
 22 44  1  0  0  0  0
 23 45  1  0  0  0  0
 23 46  1  0  0  0  0
M  CHG  1  11  -1
M  CHG  1  18   1
M  END
> <s_m_source_file>
AV-unprocessed.smi

> <i_m_source_file_index>
1986

> <i_lp_mmshare_version>
43012

> <i_f3d_flags>
0

> <s_epik_input>
W0NIMl0xW0NIMl1PW0NIMl1bQ0gyXU4xW0NAQF0oW0NIM10pKFtDSDJdW0NIM10pW0NIMl1bTkhdQyg9TylbQ0gyXW4yW25IXWMoPU8pW2NIXVtjSF1jMj1P

> <s_epik_cmdline>
J2VwaWtfcHl0aG9uJywgJy1waCcsICc3LjAnLCAnLXRuJywgJzgnLCAnLW1hJywgJzIwMCcsICctbWV0YWxfYmluZGluZycsICctaW1hZScsICc8aW5maWxlLm1hZT4nLCAnLW9tYWUnLCAnPG91dGZpbGUubWFlPic=

> <r_lp_tautomer_probability>
1

> <r_epik_Ionization_Penalty>
0.604767

> <r_epik_Ionization_Penalty_Charging>
0.604766

> <r_epik_Ionization_Penalty_Neutral>
8.70177e-08

> <r_epik_State_Penalty>
0.54579

> <r_epik_Charging_Adjusted_Penalty>
1.15056

> <i_epik_Tot_Q>
0

> <i_epik_Tot_abs_Q>
2

> <r_epik_Metal_State_Penalty>
0.54579

> <b_epik_Metal_Only>
0

> <s_lp_Force_Field>
OPLS_2005

> <r_lp_Energy>
38.6352

> <b_lp_Chiralities_Consistent>
1

> <s_lp_Variant>
AV-unprocessed.smi:1986-4

> <Gold.Version>
5.8.1

> <Gold.Id.Protein>
6NUR|6NUR_protein|mol2

> <Gold.PLP.Fitness>
46.2939

> <Gold.PLP.PLP>
-35.3981

> <Gold.PLP.part.hbond>
-3.0000

> <Gold.PLP.part.metal>
0.0000

> <Gold.PLP.part.buried>
-3.9189

> <Gold.PLP.part.nonpolar>
-27.3957

> <Gold.PLP.part.repulsive>
0.1631

> <Gold.PLP.ligand.clash>
0.0000

> <Gold.PLP.ligand.torsion>
0.3882

> <Gold.PLP.Chemscore.Hbond>
3.8240

> <Gold.PLP.Chemscore.CHOScore>
0.0000

> <Gold.PLP.Chemscore.Metal>
0.0000

> <Gold.Chemscore.Hbonds>
donor molecule, donor type, donor heavy atom, donor atom, acceptor molecule, acceptor atom, score
      L1  H    18    47       P1  7948  2.00
      P1  H  6931  6943       L1    13  0.94
      P1  H  6934  6947       L1    13  0.82

> <Gold.PLP.Chemscore.Internal.Correction>
0.2001

> <Gold.Rescore>
     Score         DG    S(hbond)    S(metal)    S(lipo)     H(rot)  DE(clash)    DE(int)     intcor
     13.37     -15.30       2.74        0.00      60.45       2.50       0.04       1.90       ----

> <Gold.Chemscore.Fitness>
13.3713

> <Gold.Chemscore.DG>
-15.3024

> <Gold.Chemscore.ZeroCoef>
-5.4800

> <Gold.Chemscore.Hbond>
2.7373

> <Gold.Chemscore.Metal>
0.0000

> <Gold.Chemscore.Lipo>
60.4528

> <Gold.Chemscore.Internal_Hbond>
0.0000

> <Gold.Chemscore.DEClash>
0.0358

> <Gold.Chemscore.DEInternal>
1.8953

> <Gold.Chemscore.Rot>
2.4973

> <Gold.Chemscore.Internal.Correction>
   9.000000E+99

> <Gold.Chemscore.Hbonds>
donor molecule, donor type, donor heavy atom, donor atom, acceptor molecule, acceptor atom, score
      L1  H    18    47       P1  7948  0.55
      P1  H  6931  6943       L1    13  0.91
      P1  H  6934  6947       L1    13  0.81

> <Gold.Chemscore.Hbond.Weighted>
-9.1424

> <Gold.Chemscore.Metal.Weighted>
-0.0000

> <Gold.Chemscore.Lipo.Weighted>
-7.0730

> <Gold.Chemscore.Internal_Hbond.Weighted>
0.0000

> <Gold.Chemscore.DEClash.Weighted>
0.0358

> <Gold.Chemscore.DEInternal.Weighted>
1.8953

> <Gold.Chemscore.Rot.Weighted>
6.3930

> <Gold.Chemscore.Internal.Correction.Weighted>
   9.000000E+99

> <Gold.Protein.RotatedTorsions>
[ 6907 6896 6895 6894 ] final  127.14 input  -60.11 | X-H torsion
[ 7974 7965 7964 7962 ] final  100.78 input  175.53 | X-H torsion
[ 8008 7997 7996 7995 ] final   58.59 input   59.86 | X-H torsion
[ 10167 10162 10161 10158 ] final  -88.81 input  -65.29 | X-H torsion
[ 10718 10713 10712 10709 ] final -123.00 input   66.30 | X-H torsion
[ 10763 10752 10751 10750 ] final -122.78 input  -60.55 | X-H torsion
[ 11005 11000 10999 10996 ] final -123.55 input  -57.11 | X-H torsion

> <Gold.Protein.ActiveResidues>
 VAL166  LYS551  ARG553  GLY616  TRP617  ASP618  TYR619  PRO620  LYS621  CYS622 
 ASP623  PHE694  ASN695  SER759  ASP760  ASP761  ALA762  ILE779  LEU786  VAL792 
 PHE793  MET794  SER795  GLU796  ALA797  LYS798  CYS799  TRP800  GLU811  SER814 

> <Gold.Protein.RotatedAtoms>
  152.3840  133.6585  159.6183 H   0  0  0  0  0  0  0  0  0  0  0  0  # atno 6907 bound_to 6896
  150.7764  133.9066  159.3366 H   0  0  0  0  0  0  0  0  0  0  0  0  # atno 6908 bound_to 6896
  151.6866  135.0954  160.0277 H   0  0  0  0  0  0  0  0  0  0  0  0  # atno 6909 bound_to 6896
  145.3811  139.2380  143.3403 H   0  0  0  0  0  0  0  0  0  0  0  0  # atno 7974 bound_to 7965
  155.5524  140.3486  155.4472 H   0  0  0  0  0  0  0  0  0  0  0  0  # atno 8008 bound_to 7997
  156.0573  140.1332  157.0007 H   0  0  0  0  0  0  0  0  0  0  0  0  # atno 8009 bound_to 7997
  154.4463  140.0992  156.6450 H   0  0  0  0  0  0  0  0  0  0  0  0  # atno 8010 bound_to 7997
  140.3710  143.2794  151.9500 H   0  0  0  0  0  0  0  0  0  0  0  0  # atno 10167 bound_to 10162
  156.1465  130.6504  150.9850 H   0  0  0  0  0  0  0  0  0  0  0  0  # atno 10718 bound_to 10713
  154.8696  135.4121  154.2838 H   0  0  0  0  0  0  0  0  0  0  0  0  # atno 10763 bound_to 10752
  153.3726  135.7008  153.6632 H   0  0  0  0  0  0  0  0  0  0  0  0  # atno 10764 bound_to 10752
  153.5487  135.3633  155.2722 H   0  0  0  0  0  0  0  0  0  0  0  0  # atno 10765 bound_to 10752
  140.9910  134.0539  157.3654 H   0  0  0  0  0  0  0  0  0  0  0  0  # atno 11005 bound_to 11000
  146.2842  140.4478  142.8764 LP  0  0  0  0  0  0  0  0  0  0  0  0  # atno 17320 bound_to 7965
  144.8507  140.6997  143.6170 LP  0  0  0  0  0  0  0  0  0  0  0  0  # atno 17321 bound_to 7965
  139.4804  144.5906  151.7778 LP  0  0  0  0  0  0  0  0  0  0  0  0  # atno 17342 bound_to 10162
  140.5033  144.1136  150.5976 LP  0  0  0  0  0  0  0  0  0  0  0  0  # atno 17343 bound_to 10162
  157.6621  131.0879  150.7814 LP  0  0  0  0  0  0  0  0  0  0  0  0  # atno 17370 bound_to 10713
  156.7886  130.4882  149.5388 LP  0  0  0  0  0  0  0  0  0  0  0  0  # atno 17371 bound_to 10713
  139.8992  135.0158  156.7185 LP  0  0  0  0  0  0  0  0  0  0  0  0  # atno 17394 bound_to 11000
  140.7040  133.9281  155.8042 LP  0  0  0  0  0  0  0  0  0  0  0  0  # atno 17395 bound_to 11000

$$$$
