AV-unprocessed.smi:1487|AV-procd|sdf|6014|dock2
  -GOLD-   22720 6113D 1   1.00000     0.00000
 Structure written by MMmdl.
 48 50  0  0  0  0  0  0  0  0  2 V2000
  152.2607  144.2702  158.2667 C   0  0  0  0  0  0  0  0  0  0  0  0
  151.7242  142.9682  157.6984 C   0  0  0  0  0  0  0  0  0  0  0  0
  150.9512  143.0017  156.5158 C   0  0  0  0  0  0  0  0  0  0  0  0
  150.4329  141.8137  155.9557 C   0  0  0  0  0  0  0  0  0  0  0  0
  149.6646  141.6146  154.8212 N   0  0  0  0  0  0  0  0  0  0  0  0
  149.5039  140.2949  154.8341 C   0  0  0  0  0  0  0  0  0  0  0  0
  150.0825  139.6128  155.8409 N   0  0  0  0  0  0  0  0  0  0  0  0
  150.0464  138.1775  156.0591 C   0  0  0  0  0  0  0  0  0  0  0  0
  149.3376  137.4229  154.9179 C   0  0  1  0  0  0  0  0  0  0  0  0
  150.0811  137.5699  153.7231 O   0  0  0  0  0  0  0  0  0  0  0  0
  149.2042  135.9192  155.2294 C   0  0  0  0  0  0  0  0  0  0  0  0
  148.4624  135.1814  154.1747 N   0  3  2  0  0  0  0  0  0  0  0  0
  146.9848  135.2806  154.3179 C   0  0  0  0  0  0  0  0  0  0  0  0
  146.2644  134.6130  153.1341 C   0  0  0  0  0  0  0  0  0  0  0  0
  146.6971  133.1491  152.9834 C   0  0  0  0  0  0  0  0  0  0  0  0
  148.2260  133.0688  152.8654 C   0  0  2  0  0  0  0  0  0  0  0  0
  148.6251  131.7155  152.8271 O   0  0  0  0  0  0  0  0  0  0  0  0
  148.9071  133.7685  154.0561 C   0  0  0  0  0  0  0  0  0  0  0  0
  150.7115  140.5813  156.6162 C   0  0  0  0  0  0  0  0  0  0  0  0
  151.4806  140.5349  157.7924 C   0  0  0  0  0  0  0  0  0  0  0  0
  151.9897  141.7313  158.3391 C   0  0  0  0  0  0  0  0  0  0  0  0
  152.8191  141.6705  159.6096 C   0  0  0  0  0  0  0  0  0  0  0  0
  152.0181  145.1157  157.6221 H   0  0  0  0  0  0  0  0  0  0  0  0
  153.3455  144.2278  158.3660 H   0  0  0  0  0  0  0  0  0  0  0  0
  151.8292  144.4630  159.2491 H   0  0  0  0  0  0  0  0  0  0  0  0
  150.7494  143.9437  156.0276 H   0  0  0  0  0  0  0  0  0  0  0  0
  148.9347  139.7937  154.0648 H   0  0  0  0  0  0  0  0  0  0  0  0
  151.0687  137.8175  156.1805 H   0  0  0  0  0  0  0  0  0  0  0  0
  149.5376  137.9904  157.0056 H   0  0  0  0  0  0  0  0  0  0  0  0
  148.3562  137.8712  154.7648 H   0  0  0  0  0  0  0  0  0  0  0  0
  149.6477  137.0832  153.0375 H   0  0  0  0  0  0  0  0  0  0  0  0
  150.2069  135.5023  155.3391 H   0  0  0  0  0  0  0  0  0  0  0  0
  148.7090  135.7681  156.1898 H   0  0  0  0  0  0  0  0  0  0  0  0
  146.6773  134.8108  155.2533 H   0  0  0  0  0  0  0  0  0  0  0  0
  146.6773  136.3242  154.3750 H   0  0  0  0  0  0  0  0  0  0  0  0
  145.1844  134.6679  153.2756 H   0  0  0  0  0  0  0  0  0  0  0  0
  146.4844  135.1583  152.2155 H   0  0  0  0  0  0  0  0  0  0  0  0
  146.3575  132.5773  153.8486 H   0  0  0  0  0  0  0  0  0  0  0  0
  146.2223  132.7054  152.1075 H   0  0  0  0  0  0  0  0  0  0  0  0
  148.5450  133.5415  151.9353 H   0  0  0  0  0  0  0  0  0  0  0  0
  148.6778  131.4402  151.9241 H   0  0  0  0  0  0  0  0  0  0  0  0
  149.9890  133.7355  153.9200 H   0  0  0  0  0  0  0  0  0  0  0  0
  148.6869  133.2417  154.9865 H   0  0  0  0  0  0  0  0  0  0  0  0
  151.6781  139.5864  158.2696 H   0  0  0  0  0  0  0  0  0  0  0  0
  152.8925  140.6507  159.9890 H   0  0  0  0  0  0  0  0  0  0  0  0
  152.3711  142.2860  160.3901 H   0  0  0  0  0  0  0  0  0  0  0  0
  153.8307  142.0310  159.4214 H   0  0  0  0  0  0  0  0  0  0  0  0
  148.7075  135.6243  153.3002 H   0  0  0  0  0  0  0  0  0  0  0  0
  1  2  1  0  0  0  0
  1 23  1  0  0  0  0
  1 24  1  0  0  0  0
  1 25  1  0  0  0  0
  2 21  1  0  0  0  0
  2  3  2  0  0  0  0
  3  4  1  0  0  0  0
  3 26  1  0  0  0  0
  4 19  2  0  0  0  0
  4  5  1  0  0  0  0
  5  6  2  0  0  0  0
  6  7  1  0  0  0  0
  6 27  1  0  0  0  0
  7  8  1  0  0  0  0
  7 19  1  0  0  0  0
  8  9  1  0  0  0  0
  8 28  1  0  0  0  0
  8 29  1  0  0  0  0
  9 10  1  0  0  0  0
  9 11  1  0  0  0  0
  9 30  1  0  0  0  0
 10 31  1  0  0  0  0
 11 12  1  0  0  0  0
 11 32  1  0  0  0  0
 11 33  1  0  0  0  0
 12 18  1  0  0  0  0
 12 13  1  0  0  0  0
 12 48  1  0  0  0  0
 13 14  1  0  0  0  0
 13 34  1  0  0  0  0
 13 35  1  0  0  0  0
 14 15  1  0  0  0  0
 14 36  1  0  0  0  0
 14 37  1  0  0  0  0
 15 16  1  0  0  0  0
 15 38  1  0  0  0  0
 15 39  1  0  0  0  0
 16 17  1  0  0  0  0
 16 18  1  0  0  0  0
 16 40  1  0  0  0  0
 17 41  1  0  0  0  0
 18 42  1  0  0  0  0
 18 43  1  0  0  0  0
 19 20  1  0  0  0  0
 20 21  2  0  0  0  0
 20 44  1  0  0  0  0
 21 22  1  0  0  0  0
 22 45  1  0  0  0  0
 22 46  1  0  0  0  0
 22 47  1  0  0  0  0
M  CHG  1  12   1
M  END
> <s_m_source_file>
AV-unprocessed.smi

> <i_m_source_file_index>
1487

> <i_lp_mmshare_version>
43012

> <i_f3d_flags>
0

> <s_epik_input>
W0NIM11jKFtjSF0xKWMoW0NIM10pW2NIXWMoYzEyKW4oW2NIXW4yKVtDSDJdW0NASF0oW09IXSlbQ0gyXU4zW0NIMl1bQ0gyXVtDSDJdW0NAQEhdKFtPSF0pW0NIMl0z

> <s_epik_cmdline>
J2VwaWtfcHl0aG9uJywgJy1waCcsICc3LjAnLCAnLXRuJywgJzgnLCAnLW1hJywgJzIwMCcsICctbWV0YWxfYmluZGluZycsICctaW1hZScsICc8aW5maWxlLm1hZT4nLCAnLW9tYWUnLCAnPG91dGZpbGUubWFlPic=

> <r_epik_Ionization_Penalty>
0.0940186

> <r_epik_Ionization_Penalty_Charging>
0.00679686

> <r_epik_Ionization_Penalty_Neutral>
0.0872218

> <r_epik_State_Penalty>
0.0799311

> <r_epik_Charging_Adjusted_Penalty>
0.086728

> <i_epik_Tot_Q>
1

> <i_epik_Tot_abs_Q>
1

> <r_epik_Metal_State_Penalty>
7.95545e-05

> <b_epik_Metal_Only>
0

> <s_lp_Force_Field>
OPLS_2005

> <r_lp_Energy>
21.0759

> <b_lp_Chiralities_Consistent>
1

> <s_lp_Variant>
AV-unprocessed.smi:1487-8

> <Gold.Version>
5.8.1

> <Gold.Id.Protein>
6NUR|6NUR_protein|mol2

> <Gold.PLP.Fitness>
48.3899

> <Gold.PLP.PLP>
-36.4546

> <Gold.PLP.part.hbond>
-5.5247

> <Gold.PLP.part.metal>
0.0000

> <Gold.PLP.part.buried>
1.0751

> <Gold.PLP.part.nonpolar>
-31.4229

> <Gold.PLP.part.repulsive>
0.1656

> <Gold.PLP.ligand.clash>
0.0371

> <Gold.PLP.ligand.torsion>
0.3404

> <Gold.PLP.Chemscore.Hbond>
4.0129

> <Gold.PLP.Chemscore.CHOScore>
0.1807

> <Gold.PLP.Chemscore.Metal>
0.0000

> <Gold.Chemscore.Hbonds>
donor molecule, donor type, donor heavy atom, donor atom, acceptor molecule, acceptor atom, score
      L1  H    10    31       P1  7948  1.00
      L1  H    12    48       P1  7948  2.00
      L1  H    17    41       P1 10747  1.00

> <Gold.PLP.Chemscore.Internal.Correction>
0.0723

> <Gold.Rescore>
     Score         DG    S(hbond)    S(metal)    S(lipo)     H(rot)  DE(clash)    DE(int)     intcor
     18.10     -18.82       2.82        0.00      92.05       2.67       0.14       0.58       ----

> <Gold.Chemscore.Fitness>
18.0985

> <Gold.Chemscore.DG>
-18.8187

> <Gold.Chemscore.ZeroCoef>
-5.4800

> <Gold.Chemscore.Hbond>
2.8166

> <Gold.Chemscore.Metal>
0.0000

> <Gold.Chemscore.Lipo>
92.0494

> <Gold.Chemscore.Internal_Hbond>
0.0000

> <Gold.Chemscore.DEClash>
0.1417

> <Gold.Chemscore.DEInternal>
0.5786

> <Gold.Chemscore.Rot>
2.6712

> <Gold.Chemscore.Internal.Correction>
   9.000000E+99

> <Gold.Chemscore.Hbonds>
donor molecule, donor type, donor heavy atom, donor atom, acceptor molecule, acceptor atom, score
      L1  H    10    31       P1  7948  0.53
      L1  H    12    48       P1  7948  0.93
      L1  H    17    41       P1 10747  0.97

> <Gold.Chemscore.Hbond.Weighted>
-9.4073

> <Gold.Chemscore.Metal.Weighted>
-0.0000

> <Gold.Chemscore.Lipo.Weighted>
-10.7698

> <Gold.Chemscore.Internal_Hbond.Weighted>
0.0000

> <Gold.Chemscore.DEClash.Weighted>
0.1417

> <Gold.Chemscore.DEInternal.Weighted>
0.5786

> <Gold.Chemscore.Rot.Weighted>
6.8383

> <Gold.Chemscore.Internal.Correction.Weighted>
   9.000000E+99

> <Gold.Protein.RotatedTorsions>
[ 6907 6896 6895 6894 ] final  111.62 input  -60.11 | X-H torsion
[ 7974 7965 7964 7962 ] final -163.90 input  175.53 | X-H torsion
[ 8008 7997 7996 7995 ] final   73.77 input   59.86 | X-H torsion
[ 10167 10162 10161 10158 ] final  -50.94 input  -65.29 | X-H torsion
[ 10718 10713 10712 10709 ] final   97.65 input   66.30 | X-H torsion
[ 10763 10752 10751 10750 ] final  156.84 input  -60.55 | X-H torsion
[ 11005 11000 10999 10996 ] final -154.55 input  -57.11 | X-H torsion

> <Gold.Protein.ActiveResidues>
 VAL166  LYS551  ARG553  GLY616  TRP617  ASP618  TYR619  PRO620  LYS621  CYS622 
 ASP623  PHE694  ASN695  SER759  ASP760  ASP761  ALA762  ILE779  LEU786  VAL792 
 PHE793  MET794  SER795  GLU796  ALA797  LYS798  CYS799  TRP800  GLU811  SER814 

> <Gold.Protein.RotatedAtoms>
  152.4960  133.8632  159.7260 H   0  0  0  0  0  0  0  0  0  0  0  0  # atno 6907 bound_to 6896
  150.9138  133.6955  159.2855 H   0  0  0  0  0  0  0  0  0  0  0  0  # atno 6908 bound_to 6896
  151.4356  135.1019  159.9707 H   0  0  0  0  0  0  0  0  0  0  0  0  # atno 6909 bound_to 6896
  144.7312  140.3040  143.6199 H   0  0  0  0  0  0  0  0  0  0  0  0  # atno 7974 bound_to 7965
  155.7885  140.3480  155.5336 H   0  0  0  0  0  0  0  0  0  0  0  0  # atno 8008 bound_to 7997
  155.8658  140.0978  157.1604 H   0  0  0  0  0  0  0  0  0  0  0  0  # atno 8009 bound_to 7997
  154.4014  140.1350  156.4004 H   0  0  0  0  0  0  0  0  0  0  0  0  # atno 8010 bound_to 7997
  140.6613  143.2638  151.4432 H   0  0  0  0  0  0  0  0  0  0  0  0  # atno 10167 bound_to 10162
  157.6909  131.0616  150.4676 H   0  0  0  0  0  0  0  0  0  0  0  0  # atno 10718 bound_to 10713
  154.1908  135.2795  155.3022 H   0  0  0  0  0  0  0  0  0  0  0  0  # atno 10763 bound_to 10752
  154.5931  135.5553  153.7301 H   0  0  0  0  0  0  0  0  0  0  0  0  # atno 10764 bound_to 10752
  153.0113  135.6373  154.2046 H   0  0  0  0  0  0  0  0  0  0  0  0  # atno 10765 bound_to 10752
  140.6961  134.3988  157.5214 H   0  0  0  0  0  0  0  0  0  0  0  0  # atno 11005 bound_to 11000
  145.7732  139.1864  143.2200 LP  0  0  0  0  0  0  0  0  0  0  0  0  # atno 17320 bound_to 7965
  146.0894  140.7673  142.9602 LP  0  0  0  0  0  0  0  0  0  0  0  0  # atno 17321 bound_to 7965
  139.5847  144.1630  152.2014 LP  0  0  0  0  0  0  0  0  0  0  0  0  # atno 17342 bound_to 10162
  140.0966  144.5575  150.7017 LP  0  0  0  0  0  0  0  0  0  0  0  0  # atno 17343 bound_to 10162
  156.5016  130.4118  149.6350 LP  0  0  0  0  0  0  0  0  0  0  0  0  # atno 17370 bound_to 10713
  156.3323  130.7338  151.2269 LP  0  0  0  0  0  0  0  0  0  0  0  0  # atno 17371 bound_to 10713
  139.8910  134.8791  156.2343 LP  0  0  0  0  0  0  0  0  0  0  0  0  # atno 17394 bound_to 11000
  141.0202  133.7046  156.1255 LP  0  0  0  0  0  0  0  0  0  0  0  0  # atno 17395 bound_to 11000

$$$$
