AV-unprocessed.smi:124|AV-procd|sdf|1148|dock1
  -GOLD-   2262018283D 1   1.00000     0.00000
 Structure written by MMmdl.
 52 56  0  0  0  0  0  0  0  0  1 V2000
  153.2967  139.5036  157.9763 O   0  0  0  0  0  0  0  0  0  0  0  0
  152.0676  139.4338  157.9271 C   0  0  0  0  0  0  0  0  0  0  0  0
  151.3371  138.3607  158.7551 C   0  0  0  0  0  0  0  0  0  0  0  0
  150.5316  137.4683  157.9294 N   0  0  0  0  0  0  0  0  0  0  0  0
  149.1252  137.6441  157.9564 C   0  0  0  0  0  0  0  0  0  0  0  0
  148.5886  138.5179  158.6403 O   0  0  0  0  0  0  0  0  0  0  0  0
  148.3817  136.7189  157.1084 C   0  0  0  0  0  0  0  0  0  0  0  0
  147.0395  136.7790  157.0768 F   0  0  0  0  0  0  0  0  0  0  0  0
  149.0194  135.7976  156.3545 C   0  0  0  0  0  0  0  0  0  0  0  0
  150.3980  135.6673  156.3258 N   0  0  0  0  0  0  0  0  0  0  0  0
  151.0727  134.6290  155.4568 C   0  0  1  0  0  0  0  0  0  0  0  0
  151.6492  133.5045  156.3243 C   0  0  0  0  0  0  0  0  0  0  0  0
  150.5299  132.4862  156.2978 C   0  0  0  0  0  0  0  0  0  0  0  0
  149.9822  132.6680  154.8869 C   0  0  0  0  0  0  0  0  0  0  0  0
  150.1224  134.0579  154.6033 O   0  0  0  0  0  0  0  0  0  0  0  0
  151.1982  136.5058  157.1323 C   0  0  0  0  0  0  0  0  0  0  0  0
  152.4268  136.3974  157.1307 O   0  0  0  0  0  0  0  0  0  0  0  0
  151.2179  140.2979  157.1070 C   0  0  0  0  0  0  0  0  0  0  0  0
  150.9342  141.6142  157.4132 C   0  0  0  0  0  0  0  0  0  0  0  0
  151.3990  142.4938  158.4829 C   0  0  0  0  0  0  0  0  0  0  0  0
  152.1528  141.9741  159.5582 C   0  0  0  0  0  0  0  0  0  0  0  0
  152.5967  142.8170  160.5958 C   0  0  0  0  0  0  0  0  0  0  0  0
  152.2863  144.1896  160.5699 C   0  0  0  0  0  0  0  0  0  0  0  0
  151.5296  144.7167  159.5066 C   0  0  0  0  0  0  0  0  0  0  0  0
  151.0865  143.8715  158.4709 C   0  0  0  0  0  0  0  0  0  0  0  0
  150.0678  142.1224  156.4617 N   0  0  0  0  0  0  0  0  0  0  0  0
  149.7605  141.1705  155.5158 C   0  0  0  0  0  0  0  0  0  0  0  0
  148.9387  141.2136  154.3746 C   0  0  0  0  0  0  0  0  0  0  0  0
  148.7961  140.0628  153.5805 C   0  0  0  0  0  0  0  0  0  0  0  0
  149.4725  138.8822  153.9382 C   0  0  0  0  0  0  0  0  0  0  0  0
  150.2937  138.8508  155.0832 C   0  0  0  0  0  0  0  0  0  0  0  0
  150.4708  139.9948  155.9035 C   0  0  0  0  0  0  0  0  0  0  0  0
  149.7302  143.0742  156.4793 H   0  0  0  0  0  0  0  0  0  0  0  0
  152.0490  137.7588  159.3200 H   0  0  0  0  0  0  0  0  0  0  0  0
  150.6713  138.8057  159.4964 H   0  0  0  0  0  0  0  0  0  0  0  0
  148.4126  135.1377  155.7527 H   0  0  0  0  0  0  0  0  0  0  0  0
  151.8201  135.1623  154.8675 H   0  0  0  0  0  0  0  0  0  0  0  0
  152.5392  133.1085  155.8334 H   0  0  0  0  0  0  0  0  0  0  0  0
  151.9189  133.8447  157.3249 H   0  0  0  0  0  0  0  0  0  0  0  0
  150.8700  131.4695  156.4955 H   0  0  0  0  0  0  0  0  0  0  0  0
  149.7692  132.7427  157.0362 H   0  0  0  0  0  0  0  0  0  0  0  0
  150.5818  132.1035  154.1715 H   0  0  0  0  0  0  0  0  0  0  0  0
  148.9459  132.3431  154.7931 H   0  0  0  0  0  0  0  0  0  0  0  0
  152.3992  140.9227  159.5870 H   0  0  0  0  0  0  0  0  0  0  0  0
  153.1762  142.4098  161.4113 H   0  0  0  0  0  0  0  0  0  0  0  0
  152.6267  144.8367  161.3650 H   0  0  0  0  0  0  0  0  0  0  0  0
  151.2880  145.7692  159.4848 H   0  0  0  0  0  0  0  0  0  0  0  0
  150.5037  144.2864  157.6612 H   0  0  0  0  0  0  0  0  0  0  0  0
  148.4187  142.1230  154.1118 H   0  0  0  0  0  0  0  0  0  0  0  0
  148.1671  140.0835  152.7026 H   0  0  0  0  0  0  0  0  0  0  0  0
  149.3614  137.9948  153.3326 H   0  0  0  0  0  0  0  0  0  0  0  0
  150.7927  137.9269  155.3290 H   0  0  0  0  0  0  0  0  0  0  0  0
  1  2  2  0  0  0  0
  2  3  1  0  0  0  0
  2 18  1  0  0  0  0
  3  4  1  0  0  0  0
  3 34  1  0  0  0  0
  3 35  1  0  0  0  0
  4 16  1  0  0  0  0
  4  5  1  0  0  0  0
  5  6  2  0  0  0  0
  5  7  1  0  0  0  0
  7  8  1  0  0  0  0
  7  9  2  0  0  0  0
  9 10  1  0  0  0  0
  9 36  1  0  0  0  0
 10 11  1  0  0  0  0
 10 16  1  0  0  0  0
 11 15  1  0  0  0  0
 11 12  1  0  0  0  0
 11 37  1  0  0  0  0
 12 13  1  0  0  0  0
 12 38  1  0  0  0  0
 12 39  1  0  0  0  0
 13 14  1  0  0  0  0
 13 40  1  0  0  0  0
 13 41  1  0  0  0  0
 14 15  1  0  0  0  0
 14 42  1  0  0  0  0
 14 43  1  0  0  0  0
 16 17  2  0  0  0  0
 18 32  1  0  0  0  0
 18 19  2  0  0  0  0
 19 20  1  0  0  0  0
 19 26  1  0  0  0  0
 20 25  1  0  0  0  0
 20 21  2  0  0  0  0
 21 22  1  0  0  0  0
 21 44  1  0  0  0  0
 22 23  2  0  0  0  0
 22 45  1  0  0  0  0
 23 24  1  0  0  0  0
 23 46  1  0  0  0  0
 24 25  2  0  0  0  0
 24 47  1  0  0  0  0
 25 48  1  0  0  0  0
 26 33  1  0  0  0  0
 26 27  1  0  0  0  0
 27 32  1  0  0  0  0
 27 28  2  0  0  0  0
 28 29  1  0  0  0  0
 28 49  1  0  0  0  0
 29 30  2  0  0  0  0
 29 50  1  0  0  0  0
 30 31  1  0  0  0  0
 30 51  1  0  0  0  0
 31 32  2  0  0  0  0
 31 52  1  0  0  0  0
M  END
> <s_m_source_file>
AV-unprocessed.smi

> <i_m_source_file_index>
124

> <i_lp_mmshare_version>
43012

> <i_f3d_flags>
0

> <s_epik_input>
W2NIXTFbY0hdW2NIXVtjSF1bY0hdYzEtYyhbbkhdMiljKGMoYzIzKVtjSF1bY0hdW2NIXVtjSF0zKUMoPU8pW0NIMl1uNGMoPU8pYyhGKVtjSF1uKGM0PU8pW0NAQEhdNVtDSDJdW0NIMl1bQ0gyXU81

> <s_epik_cmdline>
J2VwaWtfcHl0aG9uJywgJy1waCcsICc3LjAnLCAnLXRuJywgJzgnLCAnLW1hJywgJzIwMCcsICctbWV0YWxfYmluZGluZycsICctaW1hZScsICc8aW5maWxlLm1hZT4nLCAnLW9tYWUnLCAnPG91dGZpbGUubWFlPic=

> <r_lp_tautomer_probability>
1

> <r_epik_Ionization_Penalty>
1.43207e-08

> <r_epik_Ionization_Penalty_Charging>
5.01743e-09

> <r_epik_Ionization_Penalty_Neutral>
9.30329e-09

> <r_epik_State_Penalty>
-0

> <r_epik_Charging_Adjusted_Penalty>
5.01743e-09

> <i_epik_Tot_Q>
0

> <i_epik_Tot_abs_Q>
0

> <r_epik_Metal_State_Penalty>
-0

> <b_epik_Metal_Only>
0

> <s_epik_Chemistry_Notes>
This compound contains an acetal/aminal-like group ( X-CH(R)-Y where X, Y are N, S, or O) that may be acid/base labile, releasing an aldehyde.

> <s_lp_Force_Field>
OPLS_2005

> <r_lp_Energy>
48.1056

> <b_lp_Chiralities_Consistent>
1

> <s_lp_Variant>
AV-unprocessed.smi:124-2

> <Gold.Version>
5.8.1

> <Gold.Id.Protein>
6NUR|6NUR_protein|mol2

> <Gold.PLP.Fitness>
55.8110

> <Gold.PLP.PLP>
-50.5153

> <Gold.PLP.part.hbond>
-3.2379

> <Gold.PLP.part.metal>
0.0000

> <Gold.PLP.part.buried>
-2.2755

> <Gold.PLP.part.nonpolar>
-44.7192

> <Gold.PLP.part.repulsive>
0.2287

> <Gold.PLP.ligand.clash>
0.0000

> <Gold.PLP.ligand.torsion>
1.7689

> <Gold.PLP.Chemscore.Hbond>
2.4225

> <Gold.PLP.Chemscore.CHOScore>
0.0000

> <Gold.PLP.Chemscore.Metal>
0.0000

> <Gold.Chemscore.Hbonds>
donor molecule, donor type, donor heavy atom, donor atom, acceptor molecule, acceptor atom, score
      L1  H    26    33       P1  8028  1.00
      P1  H  7997  8010       L1     1  1.00
      P1  H 10752 10765       L1    17  0.26

> <Gold.PLP.Chemscore.Internal.Correction>
1.5659

> <Gold.Rescore>
     Score         DG    S(hbond)    S(metal)    S(lipo)     H(rot)  DE(clash)    DE(int)     intcor
     24.27     -27.15       2.90        0.00     136.51       1.55       0.03       2.85       ----

> <Gold.Chemscore.Fitness>
24.2727

> <Gold.Chemscore.DG>
-27.1508

> <Gold.Chemscore.ZeroCoef>
-5.4800

> <Gold.Chemscore.Hbond>
2.8971

> <Gold.Chemscore.Metal>
0.0000

> <Gold.Chemscore.Lipo>
136.5114

> <Gold.Chemscore.Internal_Hbond>
0.0000

> <Gold.Chemscore.DEClash>
0.0318

> <Gold.Chemscore.DEInternal>
2.8464

> <Gold.Chemscore.Rot>
1.5537

> <Gold.Chemscore.Internal.Correction>
   9.000000E+99

> <Gold.Chemscore.Hbonds>
donor molecule, donor type, donor heavy atom, donor atom, acceptor molecule, acceptor atom, score
      L1  H    26    33       P1  8028  0.92
      P1  H  7997  8010       L1     1  1.00
      P1  H 10752 10765       L1    17  0.24

> <Gold.Chemscore.Hbond.Weighted>
-9.6764

> <Gold.Chemscore.Metal.Weighted>
-0.0000

> <Gold.Chemscore.Lipo.Weighted>
-15.9718

> <Gold.Chemscore.Internal_Hbond.Weighted>
0.0000

> <Gold.Chemscore.DEClash.Weighted>
0.0318

> <Gold.Chemscore.DEInternal.Weighted>
2.8464

> <Gold.Chemscore.Rot.Weighted>
3.9774

> <Gold.Chemscore.Internal.Correction.Weighted>
   9.000000E+99

> <Gold.Protein.RotatedTorsions>
[ 6907 6896 6895 6894 ] final  155.19 input  -60.11 | X-H torsion
[ 7974 7965 7964 7962 ] final -154.45 input  175.53 | X-H torsion
[ 8008 7997 7996 7995 ] final   48.62 input   59.86 | X-H torsion
[ 10167 10162 10161 10158 ] final  -14.77 input  -65.29 | X-H torsion
[ 10718 10713 10712 10709 ] final  -81.66 input   66.30 | X-H torsion
[ 10763 10752 10751 10750 ] final -138.05 input  -60.55 | X-H torsion
[ 11005 11000 10999 10996 ] final    4.75 input  -57.11 | X-H torsion

> <Gold.Protein.ActiveResidues>
 VAL166  LYS551  ARG553  GLY616  TRP617  ASP618  TYR619  PRO620  LYS621  CYS622 
 ASP623  PHE694  ASN695  SER759  ASP760  ASP761  ALA762  ILE779  LEU786  VAL792 
 PHE793  MET794  SER795  GLU796  ALA797  LYS798  CYS799  TRP800  GLU811  SER814 

> <Gold.Protein.RotatedAtoms>
  152.0477  133.4005  159.4363 H   0  0  0  0  0  0  0  0  0  0  0  0  # atno 6907 bound_to 6896
  150.6872  134.3343  159.4850 H   0  0  0  0  0  0  0  0  0  0  0  0  # atno 6908 bound_to 6896
  152.1150  134.9247  160.0616 H   0  0  0  0  0  0  0  0  0  0  0  0  # atno 6909 bound_to 6896
  144.7689  140.4386  143.5922 H   0  0  0  0  0  0  0  0  0  0  0  0  # atno 7974 bound_to 7965
  155.3887  140.3432  155.4250 H   0  0  0  0  0  0  0  0  0  0  0  0  # atno 8008 bound_to 7997
  156.1570  140.1588  156.8709 H   0  0  0  0  0  0  0  0  0  0  0  0  # atno 8009 bound_to 7997
  154.5104  140.0791  156.7959 H   0  0  0  0  0  0  0  0  0  0  0  0  # atno 8010 bound_to 7997
  140.7207  143.5287  150.9546 H   0  0  0  0  0  0  0  0  0  0  0  0  # atno 10167 bound_to 10162
  156.0046  130.4610  150.3987 H   0  0  0  0  0  0  0  0  0  0  0  0  # atno 10718 bound_to 10713
  154.8647  135.3623  154.5323 H   0  0  0  0  0  0  0  0  0  0  0  0  # atno 10763 bound_to 10752
  153.5948  135.7014  153.5413 H   0  0  0  0  0  0  0  0  0  0  0  0  # atno 10764 bound_to 10752
  153.3342  135.4116  155.1482 H   0  0  0  0  0  0  0  0  0  0  0  0  # atno 10765 bound_to 10752
  140.5784  134.0036  155.8037 H   0  0  0  0  0  0  0  0  0  0  0  0  # atno 11005 bound_to 11000
  145.6385  139.1546  143.2929 LP  0  0  0  0  0  0  0  0  0  0  0  0  # atno 17320 bound_to 7965
  146.1819  140.6484  142.9185 LP  0  0  0  0  0  0  0  0  0  0  0  0  # atno 17321 bound_to 7965
  139.9006  143.6840  152.3132 LP  0  0  0  0  0  0  0  0  0  0  0  0  # atno 17342 bound_to 10162
  139.7188  144.7606  151.0989 LP  0  0  0  0  0  0  0  0  0  0  0  0  # atno 17343 bound_to 10162
  157.2057  131.0448  151.2626 LP  0  0  0  0  0  0  0  0  0  0  0  0  # atno 17370 bound_to 10713
  157.3935  130.7295  149.6714 LP  0  0  0  0  0  0  0  0  0  0  0  0  # atno 17371 bound_to 10713
  141.1012  133.9765  157.3076 LP  0  0  0  0  0  0  0  0  0  0  0  0  # atno 17394 bound_to 11000
  139.9329  135.0199  156.8459 LP  0  0  0  0  0  0  0  0  0  0  0  0  # atno 17395 bound_to 11000

$$$$
