AV-unprocessed.smi:2061|AV-procd|sdf|8361|dock6
  -GOLD-   2272011 33D 1   1.00000     0.00000
 Structure written by MMmdl.
 45 46  0  0  0  0  0  0  0  0  1 V2000
  151.9569  141.1302  156.3154 C   0  0  0  0  0  0  0  0  0  0  0  0
  151.7393  139.7998  155.6803 C   0  0  0  0  0  0  0  0  0  0  0  0
  150.6132  139.0834  155.3862 C   0  0  0  0  0  0  0  0  0  0  0  0
  151.1314  137.9064  154.7837 C   0  0  0  0  0  0  0  0  0  0  0  0
  150.2649  136.8839  154.3197 N   0  0  0  0  0  0  0  0  0  0  0  0
  149.8404  135.8018  154.9943 C   0  0  0  0  0  0  0  0  0  0  0  0
  150.1265  135.5388  156.1626 O   0  0  0  0  0  0  0  0  0  0  0  0
  149.0599  135.0270  154.2264 N   0  0  0  0  0  0  0  0  0  0  0  0
  148.4405  133.7693  154.6393 C   0  0  0  0  0  0  0  0  0  0  0  0
  148.7642  132.5885  153.6802 C   0  0  1  0  0  0  0  0  0  0  0  0
  149.8714  131.7074  154.3142 C   0  0  0  0  0  0  0  0  0  0  0  0
  147.5660  131.8075  153.2910 N   0  0  0  0  0  0  0  0  0  0  0  0
  146.7414  132.4906  152.2881 C   0  0  0  0  0  0  0  0  0  0  0  0
  145.5069  131.6714  151.8650 C   0  0  1  0  0  0  0  0  0  0  0  0
  144.7039  132.3633  150.7584 C   0  0  0  0  0  0  0  0  0  0  0  0
  145.9308  130.4042  151.3796 O   0  0  0  0  0  0  0  0  0  0  0  0
  146.6661  129.6661  152.3467 C   0  0  1  0  0  0  0  0  0  0  0  0
  147.0420  128.3131  151.7337 C   0  0  0  0  0  0  0  0  0  0  0  0
  147.9046  130.4796  152.7671 C   0  0  0  0  0  0  0  0  0  0  0  0
  152.4540  137.9036  154.7176 N   0  0  0  0  0  0  0  0  0  0  0  0
  152.8503  139.1172  155.2915 O   0  0  0  0  0  0  0  0  0  0  0  0
  151.1794  141.3421  157.0493 H   0  0  0  0  0  0  0  0  0  0  0  0
  151.9408  141.9214  155.5658 H   0  0  0  0  0  0  0  0  0  0  0  0
  152.9199  141.1667  156.8255 H   0  0  0  0  0  0  0  0  0  0  0  0
  149.5861  139.3609  155.5712 H   0  0  0  0  0  0  0  0  0  0  0  0
  149.9464  136.9786  153.3669 H   0  0  0  0  0  0  0  0  0  0  0  0
  148.8835  135.3250  153.2785 H   0  0  0  0  0  0  0  0  0  0  0  0
  148.7113  133.5045  155.6629 H   0  0  0  0  0  0  0  0  0  0  0  0
  147.3741  133.9855  154.6521 H   0  0  0  0  0  0  0  0  0  0  0  0
  149.1878  133.0244  152.7740 H   0  0  0  0  0  0  0  0  0  0  0  0
  150.7400  132.2882  154.6205 H   0  0  0  0  0  0  0  0  0  0  0  0
  150.2645  130.9675  153.6190 H   0  0  0  0  0  0  0  0  0  0  0  0
  149.5012  131.1818  155.1949 H   0  0  0  0  0  0  0  0  0  0  0  0
  146.3712  133.4372  152.6766 H   0  0  0  0  0  0  0  0  0  0  0  0
  147.3461  132.7212  151.4096 H   0  0  0  0  0  0  0  0  0  0  0  0
  144.8550  131.5211  152.7275 H   0  0  0  0  0  0  0  0  0  0  0  0
  144.3431  133.3386  151.0860 H   0  0  0  0  0  0  0  0  0  0  0  0
  143.8368  131.7660  150.4753 H   0  0  0  0  0  0  0  0  0  0  0  0
  145.3112  132.5126  149.8652 H   0  0  0  0  0  0  0  0  0  0  0  0
  146.0321  129.4905  153.2176 H   0  0  0  0  0  0  0  0  0  0  0  0
  147.5979  127.7013  152.4444 H   0  0  0  0  0  0  0  0  0  0  0  0
  147.6603  128.4401  150.8446 H   0  0  0  0  0  0  0  0  0  0  0  0
  146.1506  127.7571  151.4427 H   0  0  0  0  0  0  0  0  0  0  0  0
  148.5814  130.5809  151.9170 H   0  0  0  0  0  0  0  0  0  0  0  0
  148.4274  129.8930  153.5201 H   0  0  0  0  0  0  0  0  0  0  0  0
  1  2  1  0  0  0  0
  1 22  1  0  0  0  0
  1 23  1  0  0  0  0
  1 24  1  0  0  0  0
  2 21  1  0  0  0  0
  2  3  2  0  0  0  0
  3  4  1  0  0  0  0
  3 25  1  0  0  0  0
  4  5  1  0  0  0  0
  4 20  2  0  0  0  0
  5  6  1  0  0  0  0
  5 26  1  0  0  0  0
  6  7  2  0  0  0  0
  6  8  1  0  0  0  0
  8  9  1  0  0  0  0
  8 27  1  0  0  0  0
  9 10  1  0  0  0  0
  9 28  1  0  0  0  0
  9 29  1  0  0  0  0
 10 11  1  0  0  0  0
 10 12  1  0  0  0  0
 10 30  1  0  0  0  0
 11 31  1  0  0  0  0
 11 32  1  0  0  0  0
 11 33  1  0  0  0  0
 12 19  1  0  0  0  0
 12 13  1  0  0  0  0
 13 14  1  0  0  0  0
 13 34  1  0  0  0  0
 13 35  1  0  0  0  0
 14 15  1  0  0  0  0
 14 16  1  0  0  0  0
 14 36  1  0  0  0  0
 15 37  1  0  0  0  0
 15 38  1  0  0  0  0
 15 39  1  0  0  0  0
 16 17  1  0  0  0  0
 17 18  1  0  0  0  0
 17 19  1  0  0  0  0
 17 40  1  0  0  0  0
 18 41  1  0  0  0  0
 18 42  1  0  0  0  0
 18 43  1  0  0  0  0
 19 44  1  0  0  0  0
 19 45  1  0  0  0  0
 20 21  1  0  0  0  0
M  END
> <s_m_source_file>
AV-unprocessed.smi

> <i_m_source_file_index>
2061

> <i_lp_mmshare_version>
43012

> <i_f3d_flags>
0

> <s_epik_input>
W0NIM11jMVtjSF1jKG5vMSlbTkhdQyg9TylbTkhdW0NIMl1bQ0BIXShbQ0gzXSlOMltDSDJdW0NAQEhdKFtDSDNdKU9bQ0BASF0oW0NIM10pW0NIMl0y

> <s_epik_cmdline>
J2VwaWtfcHl0aG9uJywgJy1waCcsICc3LjAnLCAnLXRuJywgJzgnLCAnLW1hJywgJzIwMCcsICctbWV0YWxfYmluZGluZycsICctaW1hZScsICc8aW5maWxlLm1hZT4nLCAnLW9tYWUnLCAnPG91dGZpbGUubWFlPic=

> <r_epik_Ionization_Penalty>
0.214073

> <r_epik_Ionization_Penalty_Charging>
0

> <r_epik_Ionization_Penalty_Neutral>
0.214073

> <r_epik_State_Penalty>
0.204211

> <r_epik_Charging_Adjusted_Penalty>
0.204211

> <i_epik_Tot_Q>
0

> <i_epik_Tot_abs_Q>
0

> <r_epik_Metal_State_Penalty>
0.217067

> <b_epik_Metal_Only>
0

> <s_lp_Force_Field>
OPLS_2005

> <r_lp_Energy>
26.0702

> <b_lp_Chiralities_Consistent>
1

> <s_lp_Variant>
AV-unprocessed.smi:2061-2

> <Gold.Version>
5.8.1

> <Gold.Id.Protein>
6NUR|6NUR_protein|mol2

> <Gold.PLP.Fitness>
39.5727

> <Gold.PLP.PLP>
-33.6905

> <Gold.PLP.part.hbond>
-4.6150

> <Gold.PLP.part.metal>
0.0000

> <Gold.PLP.part.buried>
-3.2563

> <Gold.PLP.part.nonpolar>
-25.1660

> <Gold.PLP.part.repulsive>
0.3681

> <Gold.PLP.ligand.clash>
0.0000

> <Gold.PLP.ligand.torsion>
1.7661

> <Gold.PLP.Chemscore.Hbond>
3.1267

> <Gold.PLP.Chemscore.CHOScore>
0.0000

> <Gold.PLP.Chemscore.Metal>
0.0000

> <Gold.Chemscore.Hbonds>
donor molecule, donor type, donor heavy atom, donor atom, acceptor molecule, acceptor atom, score
      L1  H     5    26       P1  7948  0.99
      L1  H     8    27       P1  7948  1.00
      P1  H  7997  8009       L1    21  1.00
      P1  H 10752 10765       L1    20  0.17

> <Gold.PLP.Chemscore.Internal.Correction>
0.0343

> <Gold.Rescore>
     Score         DG    S(hbond)    S(metal)    S(lipo)     H(rot)  DE(clash)    DE(int)     intcor
     15.40     -18.62       2.31        0.00      80.21       1.55       1.48       1.73       ----

> <Gold.Chemscore.Fitness>
15.4016

> <Gold.Chemscore.DG>
-18.6158

> <Gold.Chemscore.ZeroCoef>
-5.4800

> <Gold.Chemscore.Hbond>
2.3091

> <Gold.Chemscore.Metal>
0.0000

> <Gold.Chemscore.Lipo>
80.2099

> <Gold.Chemscore.Internal_Hbond>
0.0000

> <Gold.Chemscore.DEClash>
1.4803

> <Gold.Chemscore.DEInternal>
1.7340

> <Gold.Chemscore.Rot>
1.5474

> <Gold.Chemscore.Internal.Correction>
   9.000000E+99

> <Gold.Chemscore.Hbonds>
donor molecule, donor type, donor heavy atom, donor atom, acceptor molecule, acceptor atom, score
      L1  H     5    26       P1  7948  0.24
      L1  H     8    27       P1  7948  0.65
      P1  H  7997  8009       L1    21  0.57
      P1  H 10752 10765       L1    20  0.08

> <Gold.Chemscore.Hbond.Weighted>
-7.7125

> <Gold.Chemscore.Metal.Weighted>
-0.0000

> <Gold.Chemscore.Lipo.Weighted>
-9.3846

> <Gold.Chemscore.Internal_Hbond.Weighted>
0.0000

> <Gold.Chemscore.DEClash.Weighted>
1.4803

> <Gold.Chemscore.DEInternal.Weighted>
1.7340

> <Gold.Chemscore.Rot.Weighted>
3.9612

> <Gold.Chemscore.Internal.Correction.Weighted>
   9.000000E+99

> <Gold.Protein.RotatedTorsions>
[ 6907 6896 6895 6894 ] final -115.53 input  -60.11 | X-H torsion
[ 7974 7965 7964 7962 ] final  124.80 input  175.53 | X-H torsion
[ 8008 7997 7996 7995 ] final -137.48 input   59.86 | X-H torsion
[ 10167 10162 10161 10158 ] final -112.51 input  -65.29 | X-H torsion
[ 10718 10713 10712 10709 ] final -101.24 input   66.30 | X-H torsion
[ 10763 10752 10751 10750 ] final  164.26 input  -60.55 | X-H torsion
[ 11005 11000 10999 10996 ] final  178.58 input  -57.11 | X-H torsion

> <Gold.Protein.ActiveResidues>
 VAL166  LYS551  ARG553  GLY616  TRP617  ASP618  TYR619  PRO620  LYS621  CYS622 
 ASP623  PHE694  ASN695  SER759  ASP760  ASP761  ALA762  ILE779  LEU786  VAL792 
 PHE793  MET794  SER795  GLU796  ALA797  LYS798  CYS799  TRP800  GLU811  SER814 

> <Gold.Protein.RotatedAtoms>
  150.7985  133.8645  159.3240 H   0  0  0  0  0  0  0  0  0  0  0  0  # atno 6907 bound_to 6896
  151.6464  135.1005  160.0161 H   0  0  0  0  0  0  0  0  0  0  0  0  # atno 6908 bound_to 6896
  152.4070  133.6864  159.6400 H   0  0  0  0  0  0  0  0  0  0  0  0  # atno 6909 bound_to 6896
  145.0803  139.3662  143.4912 H   0  0  0  0  0  0  0  0  0  0  0  0  # atno 7974 bound_to 7965
  155.4125  140.0513  157.3031 H   0  0  0  0  0  0  0  0  0  0  0  0  # atno 8008 bound_to 7997
  154.4939  140.2131  155.9448 H   0  0  0  0  0  0  0  0  0  0  0  0  # atno 8009 bound_to 7997
  156.1380  140.3159  155.8456 H   0  0  0  0  0  0  0  0  0  0  0  0  # atno 8010 bound_to 7997
  140.1219  143.4436  152.1685 H   0  0  0  0  0  0  0  0  0  0  0  0  # atno 10167 bound_to 10162
  156.0188  130.5364  150.6934 H   0  0  0  0  0  0  0  0  0  0  0  0  # atno 10718 bound_to 10713
  154.3062  135.2758  155.2588 H   0  0  0  0  0  0  0  0  0  0  0  0  # atno 10763 bound_to 10752
  154.5003  135.5810  153.6529 H   0  0  0  0  0  0  0  0  0  0  0  0  # atno 10764 bound_to 10752
  152.9894  135.6156  154.3236 H   0  0  0  0  0  0  0  0  0  0  0  0  # atno 10765 bound_to 10752
  140.3967  134.6814  157.4538 H   0  0  0  0  0  0  0  0  0  0  0  0  # atno 11005 bound_to 11000
  146.3531  140.0590  142.8630 LP  0  0  0  0  0  0  0  0  0  0  0  0  # atno 17320 bound_to 7965
  145.1186  140.9449  143.4614 LP  0  0  0  0  0  0  0  0  0  0  0  0  # atno 17321 bound_to 7965
  139.5564  144.7375  151.4282 LP  0  0  0  0  0  0  0  0  0  0  0  0  # atno 17342 bound_to 10162
  140.6867  143.7958  150.7196 LP  0  0  0  0  0  0  0  0  0  0  0  0  # atno 17343 bound_to 10162
  157.4611  131.0883  151.0745 LP  0  0  0  0  0  0  0  0  0  0  0  0  # atno 17370 bound_to 10713
  157.1233  130.6071  149.5510 LP  0  0  0  0  0  0  0  0  0  0  0  0  # atno 17371 bound_to 10713
  140.0366  134.6327  155.9035 LP  0  0  0  0  0  0  0  0  0  0  0  0  # atno 17394 bound_to 11000
  141.1871  133.6559  156.5269 LP  0  0  0  0  0  0  0  0  0  0  0  0  # atno 17395 bound_to 11000

$$$$
