AV-unprocessed.smi:110|AV-procd|sdf|1064|dock4
  -GOLD-   2262018143D 1   1.00000     0.00000
 Structure written by MMmdl.
 46 50  0  0  0  0  0  0  0  0  1 V2000
  145.2793  140.1301  154.7479 O   0  0  0  0  0  0  0  0  0  0  0  0
  145.6745  138.7917  154.5334 C   0  0  0  0  0  0  0  0  0  0  0  0
  147.1152  138.4848  154.9952 C   0  0  2  0  0  0  0  0  0  0  0  0
  148.1028  139.2168  154.2841 O   0  0  0  0  0  0  0  0  0  0  0  0
  149.3625  138.7096  154.6170 C   0  0  1  0  0  0  0  0  0  0  0  0
  149.9504  139.5886  155.6787 N   0  0  0  0  0  0  0  0  0  0  0  0
  149.4868  140.7836  156.1867 C   0  0  0  0  0  0  0  0  0  0  0  0
  150.2320  141.3206  157.1142 N   0  0  0  0  0  0  0  0  0  0  0  0
  151.3088  140.4501  157.2380 C   0  0  0  0  0  0  0  0  0  0  0  0
  152.4815  140.4142  158.0460 C   0  0  0  0  0  0  0  0  0  0  0  0
  152.8111  141.3481  158.9686 N   0  0  0  0  0  0  0  0  0  0  0  0
  153.4953  140.9254  160.1993 C   0  0  0  0  0  0  0  0  0  0  0  0
  153.3164  142.0462  161.2407 C   0  0  0  0  0  0  0  0  0  0  0  0
  152.6020  143.0784  160.4295 C   0  0  0  0  0  0  0  0  0  0  0  0
  152.2212  144.3687  160.8375 C   0  0  0  0  0  0  0  0  0  0  0  0
  151.5720  145.1984  159.8985 C   0  0  0  0  0  0  0  0  0  0  0  0
  151.3271  144.7355  158.5847 C   0  0  0  0  0  0  0  0  0  0  0  0
  151.7207  143.4357  158.1967 C   0  0  0  0  0  0  0  0  0  0  0  0
  152.3487  142.6038  159.1464 C   0  0  0  0  0  0  0  0  0  0  0  0
  153.3009  139.3396  157.9167 N   0  0  0  0  0  0  0  0  0  0  0  0
  153.0199  138.3828  157.0278 C   0  0  0  0  0  0  0  0  0  0  0  0
  151.9802  138.2965  156.1963 N   0  0  0  0  0  0  0  0  0  0  0  0
  151.1349  139.3569  156.3433 C   0  0  0  0  0  0  0  0  0  0  0  0
  149.1516  137.2817  155.1726 C   0  0  2  0  0  0  0  0  0  0  0  0
  149.9439  136.3080  154.5181 O   0  0  0  0  0  0  0  0  0  0  0  0
  147.6480  137.0460  154.9949 C   0  0  2  0  0  0  0  0  0  0  0  0
  147.3516  136.3641  153.7887 O   0  0  0  0  0  0  0  0  0  0  0  0
  147.1710  138.8352  156.0275 H   0  0  0  0  0  0  0  0  0  0  0  0
  150.0564  138.7804  153.7783 H   0  0  0  0  0  0  0  0  0  0  0  0
  149.3908  137.2680  156.2372 H   0  0  0  0  0  0  0  0  0  0  0  0
  147.2309  136.4680  155.8201 H   0  0  0  0  0  0  0  0  0  0  0  0
  144.5012  140.2997  154.2387 H   0  0  0  0  0  0  0  0  0  0  0  0
  144.9724  138.1327  155.0449 H   0  0  0  0  0  0  0  0  0  0  0  0
  145.5812  138.5835  153.4673 H   0  0  0  0  0  0  0  0  0  0  0  0
  148.5717  141.2517  155.8547 H   0  0  0  0  0  0  0  0  0  0  0  0
  153.0852  139.9835  160.5664 H   0  0  0  0  0  0  0  0  0  0  0  0
  154.5532  140.7674  159.9861 H   0  0  0  0  0  0  0  0  0  0  0  0
  152.6998  141.7287  162.0820 H   0  0  0  0  0  0  0  0  0  0  0  0
  154.2703  142.4239  161.6102 H   0  0  0  0  0  0  0  0  0  0  0  0
  152.4237  144.7171  161.8395 H   0  0  0  0  0  0  0  0  0  0  0  0
  151.2682  146.1954  160.1821 H   0  0  0  0  0  0  0  0  0  0  0  0
  150.8396  145.3826  157.8705 H   0  0  0  0  0  0  0  0  0  0  0  0
  151.5443  143.0948  157.1873 H   0  0  0  0  0  0  0  0  0  0  0  0
  153.7284  137.5693  156.9766 H   0  0  0  0  0  0  0  0  0  0  0  0
  149.6228  136.2044  153.6356 H   0  0  0  0  0  0  0  0  0  0  0  0
  148.1562  136.2431  153.3069 H   0  0  0  0  0  0  0  0  0  0  0  0
  1  2  1  0  0  0  0
  1 32  1  0  0  0  0
  2  3  1  0  0  0  0
  2 33  1  0  0  0  0
  2 34  1  0  0  0  0
  3 28  1  0  0  0  0
  3 26  1  0  0  0  0
  3  4  1  0  0  0  0
  4  5  1  0  0  0  0
  5 29  1  0  0  0  0
  5  6  1  0  0  0  0
  5 24  1  0  0  0  0
  6 23  1  0  0  0  0
  6  7  1  0  0  0  0
  7  8  2  0  0  0  0
  7 35  1  0  0  0  0
  8  9  1  0  0  0  0
  9 23  2  0  0  0  0
  9 10  1  0  0  0  0
 10 11  1  0  0  0  0
 10 20  2  0  0  0  0
 11 19  1  0  0  0  0
 11 12  1  0  0  0  0
 12 13  1  0  0  0  0
 12 36  1  0  0  0  0
 12 37  1  0  0  0  0
 13 14  1  0  0  0  0
 13 38  1  0  0  0  0
 13 39  1  0  0  0  0
 14 19  2  0  0  0  0
 14 15  1  0  0  0  0
 15 16  2  0  0  0  0
 15 40  1  0  0  0  0
 16 17  1  0  0  0  0
 16 41  1  0  0  0  0
 17 18  2  0  0  0  0
 17 42  1  0  0  0  0
 18 19  1  0  0  0  0
 18 43  1  0  0  0  0
 20 21  1  0  0  0  0
 21 22  2  0  0  0  0
 21 44  1  0  0  0  0
 22 23  1  0  0  0  0
 24 30  1  0  0  0  0
 24 25  1  0  0  0  0
 24 26  1  0  0  0  0
 25 45  1  0  0  0  0
 26 31  1  0  0  0  0
 26 27  1  0  0  0  0
 27 46  1  0  0  0  0
M  END
> <s_m_source_file>
AV-unprocessed.smi

> <i_m_source_file_index>
110

> <i_lp_mmshare_version>
43012

> <i_f3d_flags>
0

> <s_epik_input>
W09IXVtDSDJdW0NASF0xT1tDQEhdKFtDQEhdKFtPSF0pW0NAQEhdMVtPSF0pbihbY0hdbjIpYyhjMjMpbltjSF1uYzNOKFtDSDJdW0NIMl00KWMoYzQ1KVtjSF1bY0hdW2NIXVtjSF01

> <s_epik_cmdline>
J2VwaWtfcHl0aG9uJywgJy1waCcsICc3LjAnLCAnLXRuJywgJzgnLCAnLW1hJywgJzIwMCcsICctbWV0YWxfYmluZGluZycsICctaW1hZScsICc8aW5maWxlLm1hZT4nLCAnLW9tYWUnLCAnPG91dGZpbGUubWFlPic=

> <r_lp_tautomer_probability>
1

> <r_epik_Ionization_Penalty>
0.00068475

> <r_epik_Ionization_Penalty_Charging>
0

> <r_epik_Ionization_Penalty_Neutral>
0.00068475

> <r_epik_State_Penalty>
0.000417442

> <r_epik_Charging_Adjusted_Penalty>
0.000417442

> <i_epik_Tot_Q>
0

> <i_epik_Tot_abs_Q>
0

> <r_epik_Metal_State_Penalty>
-0

> <b_epik_Metal_Only>
0

> <s_epik_Chemistry_Notes>
This compound contains an acetal/aminal-like group ( X-CH(R)-Y where X, Y are N, S, or O) that may be acid/base labile, releasing an aldehyde.

> <s_lp_Force_Field>
OPLS_2005

> <r_lp_Energy>
64.7575

> <b_lp_Chiralities_Consistent>
1

> <s_lp_Variant>
AV-unprocessed.smi:110-2

> <Gold.Version>
5.8.1

> <Gold.Id.Protein>
6NUR|6NUR_protein|mol2

> <Gold.PLP.Fitness>
58.4932

> <Gold.PLP.PLP>
-47.1173

> <Gold.PLP.part.hbond>
-3.9764

> <Gold.PLP.part.metal>
0.0000

> <Gold.PLP.part.buried>
-5.0740

> <Gold.PLP.part.nonpolar>
-38.2084

> <Gold.PLP.part.repulsive>
0.1984

> <Gold.PLP.ligand.clash>
0.0000

> <Gold.PLP.ligand.torsion>
0.3505

> <Gold.PLP.Chemscore.Hbond>
3.9920

> <Gold.PLP.Chemscore.CHOScore>
0.0000

> <Gold.PLP.Chemscore.Metal>
0.0000

> <Gold.Chemscore.Hbonds>
donor molecule, donor type, donor heavy atom, donor atom, acceptor molecule, acceptor atom, score
      L1  H     1    32       P1 10175  0.98
      L1  H    25    45       P1  7948  1.00
      L1  H    27    46       P1  7948  0.99
      P1  H  7997  8009       L1    20  1.00

> <Gold.PLP.Chemscore.Internal.Correction>
0.1010

> <Gold.Rescore>
     Score         DG    S(hbond)    S(metal)    S(lipo)     H(rot)  DE(clash)    DE(int)     intcor
     16.45     -18.36       2.78        0.00     104.69       3.38       0.21       1.70       ----

> <Gold.Chemscore.Fitness>
16.4457

> <Gold.Chemscore.DG>
-18.3589

> <Gold.Chemscore.ZeroCoef>
-5.4800

> <Gold.Chemscore.Hbond>
2.7821

> <Gold.Chemscore.Metal>
0.0000

> <Gold.Chemscore.Lipo>
104.6901

> <Gold.Chemscore.Internal_Hbond>
0.0000

> <Gold.Chemscore.DEClash>
0.2133

> <Gold.Chemscore.DEInternal>
1.6999

> <Gold.Chemscore.Rot>
3.3837

> <Gold.Chemscore.Internal.Correction>
   9.000000E+99

> <Gold.Chemscore.Hbonds>
donor molecule, donor type, donor heavy atom, donor atom, acceptor molecule, acceptor atom, score
      L1  H     1    32       P1 10175  0.93
      L1  H    25    45       P1  7948  0.45
      L1  H    27    46       P1  7948  0.94
      P1  H  7997  8009       L1    20  0.11

> <Gold.Chemscore.Hbond.Weighted>
-9.2923

> <Gold.Chemscore.Metal.Weighted>
-0.0000

> <Gold.Chemscore.Lipo.Weighted>
-12.2487

> <Gold.Chemscore.Internal_Hbond.Weighted>
0.0000

> <Gold.Chemscore.DEClash.Weighted>
0.2133

> <Gold.Chemscore.DEInternal.Weighted>
1.6999

> <Gold.Chemscore.Rot.Weighted>
8.6622

> <Gold.Chemscore.Internal.Correction.Weighted>
   9.000000E+99

> <Gold.Protein.RotatedTorsions>
[ 6907 6896 6895 6894 ] final -119.31 input  -60.11 | X-H torsion
[ 7974 7965 7964 7962 ] final  -20.16 input  175.53 | X-H torsion
[ 8008 7997 7996 7995 ] final  137.49 input   59.86 | X-H torsion
[ 10167 10162 10161 10158 ] final   -8.05 input  -65.29 | X-H torsion
[ 10718 10713 10712 10709 ] final  -98.21 input   66.30 | X-H torsion
[ 10763 10752 10751 10750 ] final   97.68 input  -60.55 | X-H torsion
[ 11005 11000 10999 10996 ] final   48.46 input  -57.11 | X-H torsion

> <Gold.Protein.ActiveResidues>
 VAL166  LYS551  ARG553  GLY616  TRP617  ASP618  TYR619  PRO620  LYS621  CYS622 
 ASP623  PHE694  ASN695  SER759  ASP760  ASP761  ALA762  ILE779  LEU786  VAL792 
 PHE793  MET794  SER795  GLU796  ALA797  LYS798  CYS799  TRP800  GLU811  SER814 

> <Gold.Protein.RotatedAtoms>
  150.8294  133.8116  159.3104 H   0  0  0  0  0  0  0  0  0  0  0  0  # atno 6907 bound_to 6896
  151.5850  135.1055  160.0035 H   0  0  0  0  0  0  0  0  0  0  0  0  # atno 6908 bound_to 6896
  152.4376  133.7347  159.6663 H   0  0  0  0  0  0  0  0  0  0  0  0  # atno 6909 bound_to 6896
  146.1803  140.4163  142.8497 H   0  0  0  0  0  0  0  0  0  0  0  0  # atno 7974 bound_to 7965
  156.3002  140.2418  156.3919 H   0  0  0  0  0  0  0  0  0  0  0  0  # atno 8008 bound_to 7997
  154.8606  140.0420  157.1682 H   0  0  0  0  0  0  0  0  0  0  0  0  # atno 8009 bound_to 7997
  154.8900  140.2962  155.5380 H   0  0  0  0  0  0  0  0  0  0  0  0  # atno 8010 bound_to 7997
  140.7047  143.6012  150.8796 H   0  0  0  0  0  0  0  0  0  0  0  0  # atno 10167 bound_to 10162
  156.0102  130.5228  150.6489 H   0  0  0  0  0  0  0  0  0  0  0  0  # atno 10718 bound_to 10713
  153.2799  135.4175  155.1068 H   0  0  0  0  0  0  0  0  0  0  0  0  # atno 10763 bound_to 10752
  154.8485  135.3492  154.6127 H   0  0  0  0  0  0  0  0  0  0  0  0  # atno 10764 bound_to 10752
  153.6548  135.7051  153.5254 H   0  0  0  0  0  0  0  0  0  0  0  0  # atno 10765 bound_to 10752
  140.1189  134.4856  155.8614 H   0  0  0  0  0  0  0  0  0  0  0  0  # atno 11005 bound_to 11000
  144.8304  140.6698  143.6294 LP  0  0  0  0  0  0  0  0  0  0  0  0  # atno 17320 bound_to 7965
  145.4095  139.1583  143.4134 LP  0  0  0  0  0  0  0  0  0  0  0  0  # atno 17321 bound_to 7965
  139.9736  143.6029  152.2965 LP  0  0  0  0  0  0  0  0  0  0  0  0  # atno 17342 bound_to 10162
  139.6625  144.7662  151.1936 LP  0  0  0  0  0  0  0  0  0  0  0  0  # atno 17343 bound_to 10162
  157.4255  131.0842  151.1090 LP  0  0  0  0  0  0  0  0  0  0  0  0  # atno 17370 bound_to 10713
  157.1679  130.6254  149.5631 LP  0  0  0  0  0  0  0  0  0  0  0  0  # atno 17371 bound_to 10713
  141.2147  133.6753  156.6850 LP  0  0  0  0  0  0  0  0  0  0  0  0  # atno 17394 bound_to 11000
  140.2991  134.8178  157.4083 LP  0  0  0  0  0  0  0  0  0  0  0  0  # atno 17395 bound_to 11000

$$$$
