AV-unprocessed.smi:177|AV-procd|sdf|1441|dock8
  -GOLD-   2262019233D 1   1.00000     0.00000
 Structure written by MMmdl.
 61 65  0  0  0  0  0  0  0  0  1 V2000
  147.7059  141.5283  154.5452 C   0  0  0  0  0  0  0  0  0  0  0  0
  148.6322  140.5375  154.1273 O   0  0  0  0  0  0  0  0  0  0  0  0
  149.4088  139.9826  155.1809 C   0  0  2  0  0  0  0  0  0  0  0  0
  150.1203  141.0932  155.9799 C   0  0  0  0  0  0  0  0  0  0  0  0
  151.0699  140.5072  157.0365 C   0  0  0  0  0  0  0  0  0  0  0  0
  152.1070  139.5696  156.3868 C   0  0  1  0  0  0  0  0  0  0  0  0
  153.0508  139.0487  157.3248 O   0  0  0  0  0  0  0  0  0  0  0  0
  152.5501  138.0147  158.1656 C   0  0  0  0  0  0  0  0  0  0  0  0
  152.0456  136.8446  157.3041 C   0  0  0  0  0  0  0  0  0  0  0  0
  151.0391  137.2994  156.3517 N   0  0  0  0  0  0  0  0  0  0  0  0
  149.7452  137.1492  156.7234 C   0  0  0  0  0  0  0  0  0  0  0  0
  148.7537  137.3163  155.8105 N   0  0  0  0  0  0  0  0  0  0  0  0
  147.4778  137.1415  156.1649 C   0  0  0  0  0  0  0  0  0  0  0  0
  146.9822  136.8179  157.3602 N   0  0  0  0  0  0  0  0  0  0  0  0
  147.9714  136.6842  158.2892 C   0  0  0  0  0  0  0  0  0  0  0  0
  149.3675  136.8317  158.0564 C   0  0  0  0  0  0  0  0  0  0  0  0
  150.0707  136.6199  159.2352 N   0  0  0  0  0  0  0  0  0  0  0  0
  149.1447  136.3398  160.1104 C   0  0  0  0  0  0  0  0  0  0  0  0
  147.8525  136.3782  159.6343 N   0  0  0  0  0  0  0  0  0  0  0  0
  146.6402  136.1059  160.3926 C   0  0  0  0  0  0  0  0  0  0  0  0
  146.8474  135.5327  161.8321 C   0  0  0  0  0  0  0  0  0  0  0  0
  147.6367  136.5310  162.7262 C   0  0  0  0  0  0  0  0  0  0  0  0
  147.0906  137.8354  162.7404 O   0  0  0  0  0  0  0  0  0  0  0  0
  145.5164  135.1443  162.5265 C   0  0  0  0  0  0  0  0  0  0  0  0
  144.8397  133.9212  161.8808 C   0  0  0  0  0  0  0  0  0  0  0  0
  145.7304  132.8136  161.8850 O   0  0  0  0  0  0  0  0  0  0  0  0
  146.9090  133.0524  161.1275 C   0  0  0  0  0  0  0  0  0  0  0  0
  147.6891  134.2346  161.7321 C   0  0  0  0  0  0  0  0  0  0  0  0
  151.4716  138.4428  155.5323 C   0  0  1  0  0  0  0  0  0  0  0  0
  150.4344  139.0240  154.5372 C   0  0  0  0  0  0  0  0  0  0  0  0
  147.1500  141.8918  153.6810 H   0  0  0  0  0  0  0  0  0  0  0  0
  148.2030  142.3833  155.0032 H   0  0  0  0  0  0  0  0  0  0  0  0
  146.9862  141.1194  155.2556 H   0  0  0  0  0  0  0  0  0  0  0  0
  148.7535  139.4203  155.8444 H   0  0  0  0  0  0  0  0  0  0  0  0
  150.6848  141.7298  155.2974 H   0  0  0  0  0  0  0  0  0  0  0  0
  149.3927  141.7383  156.4715 H   0  0  0  0  0  0  0  0  0  0  0  0
  151.5838  141.3174  157.5541 H   0  0  0  0  0  0  0  0  0  0  0  0
  150.4877  139.9870  157.7941 H   0  0  0  0  0  0  0  0  0  0  0  0
  152.6945  140.1904  155.7090 H   0  0  0  0  0  0  0  0  0  0  0  0
  153.3568  137.6739  158.8145 H   0  0  0  0  0  0  0  0  0  0  0  0
  151.7696  138.3977  158.8221 H   0  0  0  0  0  0  0  0  0  0  0  0
  152.8758  136.4091  156.7475 H   0  0  0  0  0  0  0  0  0  0  0  0
  151.6463  136.0507  157.9369 H   0  0  0  0  0  0  0  0  0  0  0  0
  146.7512  137.2784  155.3780 H   0  0  0  0  0  0  0  0  0  0  0  0
  149.3797  136.1105  161.1398 H   0  0  0  0  0  0  0  0  0  0  0  0
  146.0607  137.0277  160.4151 H   0  0  0  0  0  0  0  0  0  0  0  0
  146.0423  135.4065  159.8067 H   0  0  0  0  0  0  0  0  0  0  0  0
  147.6481  136.1917  163.7625 H   0  0  0  0  0  0  0  0  0  0  0  0
  148.6786  136.5872  162.4095 H   0  0  0  0  0  0  0  0  0  0  0  0
  147.0207  138.1225  163.6383 H   0  0  0  0  0  0  0  0  0  0  0  0
  145.7152  134.9044  163.5720 H   0  0  0  0  0  0  0  0  0  0  0  0
  144.8223  135.9838  162.5457 H   0  0  0  0  0  0  0  0  0  0  0  0
  143.9480  133.6517  162.4464 H   0  0  0  0  0  0  0  0  0  0  0  0
  144.5099  134.1318  160.8635 H   0  0  0  0  0  0  0  0  0  0  0  0
  147.5239  132.1526  161.1546 H   0  0  0  0  0  0  0  0  0  0  0  0
  146.6587  133.2241  160.0805 H   0  0  0  0  0  0  0  0  0  0  0  0
  148.5982  134.4125  161.1564 H   0  0  0  0  0  0  0  0  0  0  0  0
  148.0207  133.9326  162.7264 H   0  0  0  0  0  0  0  0  0  0  0  0
  152.2725  138.0278  154.9190 H   0  0  0  0  0  0  0  0  0  0  0  0
  149.9325  138.2329  153.9834 H   0  0  0  0  0  0  0  0  0  0  0  0
  150.9839  139.5892  153.7832 H   0  0  0  0  0  0  0  0  0  0  0  0
  1  2  1  0  0  0  0
  1 31  1  0  0  0  0
  1 32  1  0  0  0  0
  1 33  1  0  0  0  0
  2  3  1  0  0  0  0
  3 30  1  0  0  0  0
  3  4  1  0  0  0  0
  3 34  1  0  0  0  0
  4  5  1  0  0  0  0
  4 35  1  0  0  0  0
  4 36  1  0  0  0  0
  5  6  1  0  0  0  0
  5 37  1  0  0  0  0
  5 38  1  0  0  0  0
  6 29  1  0  0  0  0
  6  7  1  0  0  0  0
  6 39  1  0  0  0  0
  7  8  1  0  0  0  0
  8  9  1  0  0  0  0
  8 40  1  0  0  0  0
  8 41  1  0  0  0  0
  9 10  1  0  0  0  0
  9 42  1  0  0  0  0
  9 43  1  0  0  0  0
 10 11  1  0  0  0  0
 10 29  1  0  0  0  0
 11 16  1  0  0  0  0
 11 12  2  0  0  0  0
 12 13  1  0  0  0  0
 13 14  2  0  0  0  0
 13 44  1  0  0  0  0
 14 15  1  0  0  0  0
 15 19  1  0  0  0  0
 15 16  2  0  0  0  0
 16 17  1  0  0  0  0
 17 18  2  0  0  0  0
 18 19  1  0  0  0  0
 18 45  1  0  0  0  0
 19 20  1  0  0  0  0
 20 21  1  0  0  0  0
 20 46  1  0  0  0  0
 20 47  1  0  0  0  0
 21 28  1  0  0  0  0
 21 22  1  0  0  0  0
 21 24  1  0  0  0  0
 22 23  1  0  0  0  0
 22 48  1  0  0  0  0
 22 49  1  0  0  0  0
 23 50  1  0  0  0  0
 24 25  1  0  0  0  0
 24 51  1  0  0  0  0
 24 52  1  0  0  0  0
 25 26  1  0  0  0  0
 25 53  1  0  0  0  0
 25 54  1  0  0  0  0
 26 27  1  0  0  0  0
 27 28  1  0  0  0  0
 27 55  1  0  0  0  0
 27 56  1  0  0  0  0
 28 57  1  0  0  0  0
 28 58  1  0  0  0  0
 29 30  1  0  0  0  0
 29 59  1  0  0  0  0
 30 60  1  0  0  0  0
 30 61  1  0  0  0  0
M  END
> <s_m_source_file>
AV-unprocessed.smi

> <i_m_source_file_index>
177

> <i_lp_mmshare_version>
43012

> <i_f3d_flags>
0

> <s_epik_input>
W0NIM11PW0NASF0oW0NIMl1bQ0gyXTEpW0NIMl1bQ0BIXShbQ0BASF0xMilOKFtDSDJdW0NIMl1PMiljKG5bY0hdbjMpYyhjMzQpbltjSF1uNFtDSDJdQzUoW0NIMl1bT0hdKVtDSDJdW0NIMl1PW0NIMl1bQ0gyXTU=

> <s_epik_cmdline>
J2VwaWtfcHl0aG9uJywgJy1waCcsICc3LjAnLCAnLXRuJywgJzgnLCAnLW1hJywgJzIwMCcsICctbWV0YWxfYmluZGluZycsICctaW1hZScsICc8aW5maWxlLm1hZT4nLCAnLW9tYWUnLCAnPG91dGZpbGUubWFlPic=

> <r_lp_tautomer_probability>
1

> <r_epik_Ionization_Penalty>
0.0065899

> <r_epik_Ionization_Penalty_Charging>
0

> <r_epik_Ionization_Penalty_Neutral>
0.0065899

> <r_epik_State_Penalty>
0.00470042

> <r_epik_Charging_Adjusted_Penalty>
0.00470042

> <i_epik_Tot_Q>
0

> <i_epik_Tot_abs_Q>
0

> <r_epik_Metal_State_Penalty>
-0

> <b_epik_Metal_Only>
0

> <s_lp_Force_Field>
OPLS_2005

> <r_lp_Energy>
52.4416

> <b_lp_Chiralities_Consistent>
1

> <s_lp_Variant>
AV-unprocessed.smi:177-5

> <Gold.Version>
5.8.1

> <Gold.Id.Protein>
6NUR|6NUR_protein|mol2

> <Gold.PLP.Fitness>
46.7254

> <Gold.PLP.PLP>
-42.6064

> <Gold.PLP.part.hbond>
-4.0000

> <Gold.PLP.part.metal>
0.0000

> <Gold.PLP.part.buried>
-6.8349

> <Gold.PLP.part.nonpolar>
-32.6622

> <Gold.PLP.part.repulsive>
0.2317

> <Gold.PLP.ligand.clash>
1.3220

> <Gold.PLP.ligand.torsion>
0.6302

> <Gold.PLP.Chemscore.Hbond>
1.8921

> <Gold.PLP.Chemscore.CHOScore>
0.0000

> <Gold.PLP.Chemscore.Metal>
0.0000

> <Gold.Chemscore.Hbonds>
donor molecule, donor type, donor heavy atom, donor atom, acceptor molecule, acceptor atom, score
      P1  H  6896  6909       L1    17  0.55
      P1  H  6931  6943       L1    23  0.02
      P1  H  6934  6947       L1    23  0.24
      P1  H  7997  8008       L1     7  1.00

> <Gold.PLP.Chemscore.Internal.Correction>
1.0250

> <Gold.Rescore>
     Score         DG    S(hbond)    S(metal)    S(lipo)     H(rot)  DE(clash)    DE(int)     intcor
      8.96     -16.26       1.28        0.00     106.40       2.32       0.29       7.01       ----

> <Gold.Chemscore.Fitness>
8.9569

> <Gold.Chemscore.DG>
-16.2569

> <Gold.Chemscore.ZeroCoef>
-5.4800

> <Gold.Chemscore.Hbond>
1.2754

> <Gold.Chemscore.Metal>
0.0000

> <Gold.Chemscore.Lipo>
106.3960

> <Gold.Chemscore.Internal_Hbond>
0.0000

> <Gold.Chemscore.DEClash>
0.2943

> <Gold.Chemscore.DEInternal>
7.0056

> <Gold.Chemscore.Rot>
2.3169

> <Gold.Chemscore.Internal.Correction>
   9.000000E+99

> <Gold.Chemscore.Hbonds>
donor molecule, donor type, donor heavy atom, donor atom, acceptor molecule, acceptor atom, score
      P1  H  6896  6909       L1    17  0.03
      P1  H  6934  6947       L1    23  0.23
      P1  H  7997  8008       L1     7  0.30

> <Gold.Chemscore.Hbond.Weighted>
-4.2598

> <Gold.Chemscore.Metal.Weighted>
-0.0000

> <Gold.Chemscore.Lipo.Weighted>
-12.4483

> <Gold.Chemscore.Internal_Hbond.Weighted>
0.0000

> <Gold.Chemscore.DEClash.Weighted>
0.2943

> <Gold.Chemscore.DEInternal.Weighted>
7.0056

> <Gold.Chemscore.Rot.Weighted>
5.9313

> <Gold.Chemscore.Internal.Correction.Weighted>
   9.000000E+99

> <Gold.Protein.RotatedTorsions>
[ 6907 6896 6895 6894 ] final   98.70 input  -60.11 | X-H torsion
[ 7974 7965 7964 7962 ] final -176.30 input  175.53 | X-H torsion
[ 8008 7997 7996 7995 ] final  -78.22 input   59.86 | X-H torsion
[ 10167 10162 10161 10158 ] final   45.86 input  -65.29 | X-H torsion
[ 10718 10713 10712 10709 ] final -114.90 input   66.30 | X-H torsion
[ 10763 10752 10751 10750 ] final   83.49 input  -60.55 | X-H torsion
[ 11005 11000 10999 10996 ] final -176.35 input  -57.11 | X-H torsion

> <Gold.Protein.ActiveResidues>
 VAL166  LYS551  ARG553  GLY616  TRP617  ASP618  TYR619  PRO620  LYS621  CYS622 
 ASP623  PHE694  ASN695  SER759  ASP760  ASP761  ALA762  ILE779  LEU786  VAL792 
 PHE793  MET794  SER795  GLU796  ALA797  LYS798  CYS799  TRP800  GLU811  SER814 

> <Gold.Protein.RotatedAtoms>
  152.5405  134.0541  159.8122 H   0  0  0  0  0  0  0  0  0  0  0  0  # atno 6907 bound_to 6896
  151.0678  133.5483  159.2636 H   0  0  0  0  0  0  0  0  0  0  0  0  # atno 6908 bound_to 6896
  151.2357  135.0579  159.9059 H   0  0  0  0  0  0  0  0  0  0  0  0  # atno 6909 bound_to 6896
  144.7127  140.1190  143.6406 H   0  0  0  0  0  0  0  0  0  0  0  0  # atno 7974 bound_to 7965
  154.5669  140.0698  156.8905 H   0  0  0  0  0  0  0  0  0  0  0  0  # atno 8008 bound_to 7997
  155.2706  140.3365  155.4247 H   0  0  0  0  0  0  0  0  0  0  0  0  # atno 8009 bound_to 7997
  156.2087  140.1750  156.7727 H   0  0  0  0  0  0  0  0  0  0  0  0  # atno 8010 bound_to 7997
  140.3198  144.2719  150.6185 H   0  0  0  0  0  0  0  0  0  0  0  0  # atno 10167 bound_to 10162
  156.0860  130.6051  150.8835 H   0  0  0  0  0  0  0  0  0  0  0  0  # atno 10718 bound_to 10713
  153.1296  135.4689  154.9327 H   0  0  0  0  0  0  0  0  0  0  0  0  # atno 10763 bound_to 10752
  154.7652  135.3142  154.8303 H   0  0  0  0  0  0  0  0  0  0  0  0  # atno 10764 bound_to 10752
  153.8849  135.6890  153.4818 H   0  0  0  0  0  0  0  0  0  0  0  0  # atno 10765 bound_to 10752
  140.4531  134.6325  157.4810 H   0  0  0  0  0  0  0  0  0  0  0  0  # atno 11005 bound_to 11000
  145.9387  139.2655  143.1281 LP  0  0  0  0  0  0  0  0  0  0  0  0  # atno 17320 bound_to 7965
  145.9446  140.8954  143.0290 LP  0  0  0  0  0  0  0  0  0  0  0  0  # atno 17321 bound_to 7965
  140.5494  143.2209  151.7953 LP  0  0  0  0  0  0  0  0  0  0  0  0  # atno 17342 bound_to 10162
  139.4876  144.4497  151.9669 LP  0  0  0  0  0  0  0  0  0  0  0  0  # atno 17343 bound_to 10162
  157.5994  131.0942  150.8986 LP  0  0  0  0  0  0  0  0  0  0  0  0  # atno 17370 bound_to 10713
  156.9146  130.5293  149.5280 LP  0  0  0  0  0  0  0  0  0  0  0  0  # atno 17371 bound_to 10713
  139.9994  134.6860  155.9556 LP  0  0  0  0  0  0  0  0  0  0  0  0  # atno 17394 bound_to 11000
  141.1655  133.6537  156.4465 LP  0  0  0  0  0  0  0  0  0  0  0  0  # atno 17395 bound_to 11000

$$$$
