AV-unprocessed.smi:1521|AV-procd|sdf|6131|dock6
  -GOLD-   22720 6273D 1   1.00000     0.00000
 Structure written by MMmdl.
 36 37  0  0  0  0  0  0  0  0  1 V2000
  146.0969  138.9791  154.5826 O   0  0  0  0  0  0  0  0  0  0  0  0
  146.6946  138.0993  153.9636 C   0  0  0  0  0  0  0  0  0  0  0  0
  147.9857  138.1918  153.6152 N   0  0  0  0  0  0  0  0  0  0  0  0
  148.8668  139.3097  153.9373 C   0  0  0  0  0  0  0  0  0  0  0  0
  150.0241  138.8703  154.8504 C   0  0  1  0  0  0  0  0  0  0  0  0
  150.8811  137.7638  154.2031 C   0  0  0  0  0  0  0  0  0  0  0  0
  151.9476  137.4230  155.0796 O   0  0  0  0  0  0  0  0  0  0  0  0
  152.7806  138.5445  155.3402 C   0  0  0  0  0  0  0  0  0  0  0  0
  151.9359  139.6586  155.9792 C   0  0  0  0  0  0  0  0  0  0  0  0
  150.8690  139.9890  155.1006 O   0  0  0  0  0  0  0  0  0  0  0  0
  146.1748  136.9235  153.5656 N   0  0  0  0  0  0  0  0  0  0  0  0
  144.8687  136.4287  153.7214 C   0  0  0  0  0  0  0  0  0  0  0  0
  143.7413  137.1870  153.7011 C   0  0  0  0  0  0  0  0  0  0  0  0
  142.4180  136.6070  153.8578 C   0  0  0  0  0  0  0  0  0  0  0  0
  141.1721  137.4771  153.9120 C   0  0  0  0  0  0  0  0  0  0  0  0
  141.1927  138.3599  152.9145 F   0  0  0  0  0  0  0  0  0  0  0  0
  140.0625  136.7462  153.7975 F   0  0  0  0  0  0  0  0  0  0  0  0
  141.1122  138.1514  155.0602 F   0  0  0  0  0  0  0  0  0  0  0  0
  142.3640  135.2737  154.0336 C   0  0  0  0  0  0  0  0  0  0  0  0
  143.5162  134.4845  154.0347 N   0  0  0  0  0  0  0  0  0  0  0  0
  144.7697  134.9691  153.8879 C   0  0  0  0  0  0  0  0  0  0  0  0
  145.7354  134.2064  153.8999 O   0  0  0  0  0  0  0  0  0  0  0  0
  143.3911  133.4900  154.1578 H   0  0  0  0  0  0  0  0  0  0  0  0
  148.3977  137.4206  153.1107 H   0  0  0  0  0  0  0  0  0  0  0  0
  149.2671  139.6903  152.9974 H   0  0  0  0  0  0  0  0  0  0  0  0
  148.3094  140.1325  154.3887 H   0  0  0  0  0  0  0  0  0  0  0  0
  149.6139  138.5047  155.7939 H   0  0  0  0  0  0  0  0  0  0  0  0
  150.2789  136.8734  154.0212 H   0  0  0  0  0  0  0  0  0  0  0  0
  151.2763  138.0865  153.2384 H   0  0  0  0  0  0  0  0  0  0  0  0
  153.5842  138.2443  156.0129 H   0  0  0  0  0  0  0  0  0  0  0  0
  153.2463  138.8912  154.4163 H   0  0  0  0  0  0  0  0  0  0  0  0
  151.5439  139.3450  156.9480 H   0  0  0  0  0  0  0  0  0  0  0  0
  152.5450  140.5465  156.1502 H   0  0  0  0  0  0  0  0  0  0  0  0
  146.8154  136.2788  153.1261 H   0  0  0  0  0  0  0  0  0  0  0  0
  143.7894  138.2523  153.5457 H   0  0  0  0  0  0  0  0  0  0  0  0
  141.4522  134.7165  154.1896 H   0  0  0  0  0  0  0  0  0  0  0  0
  1  2  2  0  0  0  0
  2  3  1  0  0  0  0
  2 11  1  0  0  0  0
  3  4  1  0  0  0  0
  3 24  1  0  0  0  0
  4  5  1  0  0  0  0
  4 25  1  0  0  0  0
  4 26  1  0  0  0  0
  5 10  1  0  0  0  0
  5  6  1  0  0  0  0
  5 27  1  0  0  0  0
  6  7  1  0  0  0  0
  6 28  1  0  0  0  0
  6 29  1  0  0  0  0
  7  8  1  0  0  0  0
  8  9  1  0  0  0  0
  8 30  1  0  0  0  0
  8 31  1  0  0  0  0
  9 10  1  0  0  0  0
  9 32  1  0  0  0  0
  9 33  1  0  0  0  0
 11 12  1  0  0  0  0
 11 34  1  0  0  0  0
 12 21  1  0  0  0  0
 12 13  2  0  0  0  0
 13 14  1  0  0  0  0
 13 35  1  0  0  0  0
 14 15  1  0  0  0  0
 14 19  2  0  0  0  0
 15 16  1  0  0  0  0
 15 17  1  0  0  0  0
 15 18  1  0  0  0  0
 19 20  1  0  0  0  0
 19 36  1  0  0  0  0
 20 23  1  0  0  0  0
 20 21  1  0  0  0  0
 21 22  2  0  0  0  0
M  END
> <s_m_source_file>
AV-unprocessed.smi

> <i_m_source_file_index>
1521

> <i_lp_mmshare_version>
43012

> <i_f3d_flags>
0

> <s_epik_input>
Tz1jMVtuSF1bY0hdYyhDKEYpKEYpRilbY0hdYzFbTkhdQyg9TylbTkhdW0NIMl1bQ0BASF0yW0NIMl1PW0NIMl1bQ0gyXU8y

> <s_epik_cmdline>
J2VwaWtfcHl0aG9uJywgJy1waCcsICc3LjAnLCAnLXRuJywgJzgnLCAnLW1hJywgJzIwMCcsICctbWV0YWxfYmluZGluZycsICctaW1hZScsICc8aW5maWxlLm1hZT4nLCAnLW9tYWUnLCAnPG91dGZpbGUubWFlPic=

> <r_lp_tautomer_probability>
1

> <r_epik_Ionization_Penalty>
0.00396636

> <r_epik_Ionization_Penalty_Charging>
0.00394789

> <r_epik_Ionization_Penalty_Neutral>
1.84676e-05

> <r_epik_State_Penalty>
-0

> <r_epik_Charging_Adjusted_Penalty>
0.00394789

> <i_epik_Tot_Q>
0

> <i_epik_Tot_abs_Q>
0

> <r_epik_Metal_State_Penalty>
0.372669

> <b_epik_Metal_Only>
0

> <s_lp_Force_Field>
OPLS_2005

> <r_lp_Energy>
19.2224

> <b_lp_Chiralities_Consistent>
1

> <s_lp_Variant>
AV-unprocessed.smi:1521-2

> <Gold.Version>
5.8.1

> <Gold.Id.Protein>
6NUR|6NUR_protein|mol2

> <Gold.PLP.Fitness>
41.2693

> <Gold.PLP.PLP>
-28.5052

> <Gold.PLP.part.hbond>
-4.0000

> <Gold.PLP.part.metal>
0.0000

> <Gold.PLP.part.buried>
-2.6076

> <Gold.PLP.part.nonpolar>
-23.2981

> <Gold.PLP.part.repulsive>
0.3187

> <Gold.PLP.ligand.clash>
0.2740

> <Gold.PLP.ligand.torsion>
0.7355

> <Gold.PLP.Chemscore.Hbond>
3.8406

> <Gold.PLP.Chemscore.CHOScore>
0.9856

> <Gold.PLP.Chemscore.Metal>
0.0000

> <Gold.Chemscore.Hbonds>
donor molecule, donor type, donor heavy atom, donor atom, acceptor molecule, acceptor atom, score
      L1  H     3    24       P1  7948  1.00
      L1  H    20    23       P1 10957  1.00
      P1  H  7989  7998       L1    10  1.00
      P1  H 10752 10763       L1     7  0.65
      L1  C    19    36       P1 11000  0.39

> <Gold.PLP.Chemscore.Internal.Correction>
0.0305

> <Gold.Rescore>
     Score         DG    S(hbond)    S(metal)    S(lipo)     H(rot)  DE(clash)    DE(int)     intcor
     18.39     -19.12       3.26        0.00      53.44       1.37       0.46       0.27       ----

> <Gold.Chemscore.Fitness>
18.3861

> <Gold.Chemscore.DG>
-19.1176

> <Gold.Chemscore.ZeroCoef>
-5.4800

> <Gold.Chemscore.Hbond>
3.2637

> <Gold.Chemscore.Metal>
0.0000

> <Gold.Chemscore.Lipo>
53.4444

> <Gold.Chemscore.Internal_Hbond>
0.0000

> <Gold.Chemscore.DEClash>
0.4605

> <Gold.Chemscore.DEInternal>
0.2710

> <Gold.Chemscore.Rot>
1.3735

> <Gold.Chemscore.Internal.Correction>
   9.000000E+99

> <Gold.Chemscore.Hbonds>
donor molecule, donor type, donor heavy atom, donor atom, acceptor molecule, acceptor atom, score
      L1  H     3    24       P1  7948  1.00
      L1  H    11    34       P1  7948  0.02
      L1  H    20    23       P1 10957  0.98
      P1  H  7989  7998       L1    10  0.59
      P1  H 10752 10763       L1     7  0.48

> <Gold.Chemscore.Hbond.Weighted>
-10.9008

> <Gold.Chemscore.Metal.Weighted>
-0.0000

> <Gold.Chemscore.Lipo.Weighted>
-6.2530

> <Gold.Chemscore.Internal_Hbond.Weighted>
0.0000

> <Gold.Chemscore.DEClash.Weighted>
0.4605

> <Gold.Chemscore.DEInternal.Weighted>
0.2710

> <Gold.Chemscore.Rot.Weighted>
3.5162

> <Gold.Chemscore.Internal.Correction.Weighted>
   9.000000E+99

> <Gold.Protein.RotatedTorsions>
[ 6907 6896 6895 6894 ] final  -87.54 input  -60.11 | X-H torsion
[ 7974 7965 7964 7962 ] final  155.71 input  175.53 | X-H torsion
[ 8008 7997 7996 7995 ] final -127.73 input   59.86 | X-H torsion
[ 10167 10162 10161 10158 ] final   -1.41 input  -65.29 | X-H torsion
[ 10718 10713 10712 10709 ] final  -85.16 input   66.30 | X-H torsion
[ 10763 10752 10751 10750 ] final   52.72 input  -60.55 | X-H torsion
[ 11005 11000 10999 10996 ] final -170.84 input  -57.11 | X-H torsion

> <Gold.Protein.ActiveResidues>
 VAL166  LYS551  ARG553  GLY616  TRP617  ASP618  TYR619  PRO620  LYS621  CYS622 
 ASP623  PHE694  ASN695  SER759  ASP760  ASP761  ALA762  ILE779  LEU786  VAL792 
 PHE793  MET794  SER795  GLU796  ALA797  LYS798  CYS799  TRP800  GLU811  SER814 

> <Gold.Protein.RotatedAtoms>
  150.6866  134.2881  159.4654 H   0  0  0  0  0  0  0  0  0  0  0  0  # atno 6907 bound_to 6896
  152.0789  134.9482  160.0583 H   0  0  0  0  0  0  0  0  0  0  0  0  # atno 6908 bound_to 6896
  152.0842  133.4133  159.4552 H   0  0  0  0  0  0  0  0  0  0  0  0  # atno 6909 bound_to 6896
  144.8008  139.7105  143.6183 H   0  0  0  0  0  0  0  0  0  0  0  0  # atno 7974 bound_to 7965
  155.2510  140.0432  157.2986 H   0  0  0  0  0  0  0  0  0  0  0  0  # atno 8008 bound_to 7997
  154.5769  140.2389  155.8079 H   0  0  0  0  0  0  0  0  0  0  0  0  # atno 8009 bound_to 7997
  156.2164  140.2983  155.9858 H   0  0  0  0  0  0  0  0  0  0  0  0  # atno 8010 bound_to 7997
  140.6809  143.6779  150.8130 H   0  0  0  0  0  0  0  0  0  0  0  0  # atno 10167 bound_to 10162
  155.9999  130.4721  150.4519 H   0  0  0  0  0  0  0  0  0  0  0  0  # atno 10718 bound_to 10713
  152.9790  135.5803  154.4625 H   0  0  0  0  0  0  0  0  0  0  0  0  # atno 10763 bound_to 10752
  154.4199  135.2771  155.1984 H   0  0  0  0  0  0  0  0  0  0  0  0  # atno 10764 bound_to 10752
  154.3738  135.6162  153.5808 H   0  0  0  0  0  0  0  0  0  0  0  0  # atno 10765 bound_to 10752
  140.5149  134.5765  157.5030 H   0  0  0  0  0  0  0  0  0  0  0  0  # atno 11005 bound_to 11000
  146.2288  139.5774  142.9569 LP  0  0  0  0  0  0  0  0  0  0  0  0  # atno 17320 bound_to 7965
  145.5558  141.0409  143.2253 LP  0  0  0  0  0  0  0  0  0  0  0  0  # atno 17321 bound_to 7965
  140.0479  143.5279  152.2687 LP  0  0  0  0  0  0  0  0  0  0  0  0  # atno 17342 bound_to 10162
  139.6130  144.7613  151.2908 LP  0  0  0  0  0  0  0  0  0  0  0  0  # atno 17343 bound_to 10162
  157.2552  131.0555  151.2355 LP  0  0  0  0  0  0  0  0  0  0  0  0  # atno 17370 bound_to 10713
  157.3489  130.7072  149.6428 LP  0  0  0  0  0  0  0  0  0  0  0  0  # atno 17371 bound_to 10713
  139.9638  134.7408  156.0181 LP  0  0  0  0  0  0  0  0  0  0  0  0  # atno 17394 bound_to 11000
  141.1365  133.6574  156.3609 LP  0  0  0  0  0  0  0  0  0  0  0  0  # atno 17395 bound_to 11000

$$$$
