AV-unprocessed.smi:252|AV-procd|sdf|1937|dock3
  -GOLD-   2262021 63D 1   1.00000     0.00000
 Structure written by MMmdl.
 56 59  0  0  0  0  0  0  0  0  1 V2000
  152.3895  144.1568  159.6464 C   0  0  0  0  0  0  0  0  0  0  0  0
  151.5074  144.0662  158.3914 C   0  0  0  0  0  0  0  0  0  0  0  0
  151.3803  142.6435  157.8374 C   0  0  0  0  0  0  0  0  0  0  0  0
  151.9683  141.7028  158.3726 O   0  0  0  0  0  0  0  0  0  0  0  0
  150.6074  142.5038  156.7491 N   0  0  0  0  0  0  0  0  0  0  0  0
  150.3516  141.2473  156.0522 C   0  0  1  0  0  0  0  0  0  0  0  0
  151.6859  140.5990  155.6400 C   0  0  0  0  0  0  0  0  0  0  0  0
  151.4416  139.2316  154.9825 C   0  0  0  0  0  0  0  0  0  0  0  0
  150.6009  138.3215  155.8926 C   0  0  0  0  0  0  0  0  0  0  0  0
  149.3614  138.9901  156.2903 N   0  0  0  0  0  0  0  0  0  0  0  0
  148.3633  138.2282  156.8052 C   0  0  0  0  0  0  0  0  0  0  0  0
  147.1626  138.1609  156.1698 N   0  0  0  0  0  0  0  0  0  0  0  0
  146.1807  137.3998  156.6622 C   0  0  0  0  0  0  0  0  0  0  0  0
  146.1841  136.6380  157.7574 N   0  0  0  0  0  0  0  0  0  0  0  0
  147.3828  136.7067  158.4039 C   0  0  0  0  0  0  0  0  0  0  0  0
  148.5132  137.4736  158.0030 C   0  0  0  0  0  0  0  0  0  0  0  0
  149.5447  137.3098  158.9203 N   0  0  0  0  0  0  0  0  0  0  0  0
  149.0569  136.4836  159.8045 C   0  0  0  0  0  0  0  0  0  0  0  0
  147.7681  136.0620  159.5667 N   0  0  0  0  0  0  0  0  0  0  0  0
  146.9883  135.1419  160.3810 C   0  0  0  0  0  0  0  0  0  0  0  0
  146.2087  135.8419  161.5254 C   0  0  1  0  0  0  0  0  0  0  0  0
  147.1521  136.4745  162.3737 O   0  0  0  0  0  0  0  0  0  0  0  0
  145.2339  136.9096  161.0360 C   0  0  0  0  0  0  0  0  0  0  0  0
  144.1637  136.9163  162.1163 C   0  0  0  0  0  0  0  0  0  0  0  0
  144.0247  135.5387  162.4152 O   0  0  0  0  0  0  0  0  0  0  0  0
  145.3140  134.9302  162.4127 C   0  0  1  0  0  0  0  0  0  0  0  0
  145.1382  133.4743  161.9538 C   0  0  0  0  0  0  0  0  0  0  0  0
  149.5406  140.2856  156.9443 C   0  0  0  0  0  0  0  0  0  0  0  0
  152.4141  145.1784  160.0260 H   0  0  0  0  0  0  0  0  0  0  0  0
  153.4177  143.8616  159.4339 H   0  0  0  0  0  0  0  0  0  0  0  0
  152.0121  143.5172  160.4453 H   0  0  0  0  0  0  0  0  0  0  0  0
  150.5120  144.4473  158.6242 H   0  0  0  0  0  0  0  0  0  0  0  0
  151.9138  144.7075  157.6091 H   0  0  0  0  0  0  0  0  0  0  0  0
  150.1640  143.3299  156.3743 H   0  0  0  0  0  0  0  0  0  0  0  0
  149.7791  141.4568  155.1463 H   0  0  0  0  0  0  0  0  0  0  0  0
  152.2272  141.2503  154.9526 H   0  0  0  0  0  0  0  0  0  0  0  0
  152.3230  140.4699  156.5162 H   0  0  0  0  0  0  0  0  0  0  0  0
  150.9251  139.3712  154.0321 H   0  0  0  0  0  0  0  0  0  0  0  0
  152.3927  138.7515  154.7510 H   0  0  0  0  0  0  0  0  0  0  0  0
  150.3758  137.3926  155.3666 H   0  0  0  0  0  0  0  0  0  0  0  0
  151.1698  138.0583  156.7854 H   0  0  0  0  0  0  0  0  0  0  0  0
  145.2609  137.3995  156.0959 H   0  0  0  0  0  0  0  0  0  0  0  0
  149.6306  136.1540  160.6583 H   0  0  0  0  0  0  0  0  0  0  0  0
  146.3015  134.6195  159.7147 H   0  0  0  0  0  0  0  0  0  0  0  0
  147.6624  134.3858  160.7851 H   0  0  0  0  0  0  0  0  0  0  0  0
  146.9626  136.2315  163.2669 H   0  0  0  0  0  0  0  0  0  0  0  0
  145.6912  137.8872  160.8766 H   0  0  0  0  0  0  0  0  0  0  0  0
  144.7782  136.5983  160.0951 H   0  0  0  0  0  0  0  0  0  0  0  0
  144.5004  137.4562  163.0026 H   0  0  0  0  0  0  0  0  0  0  0  0
  143.2238  137.3530  161.7786 H   0  0  0  0  0  0  0  0  0  0  0  0
  145.6786  134.9235  163.4417 H   0  0  0  0  0  0  0  0  0  0  0  0
  146.0888  132.9411  161.9462 H   0  0  0  0  0  0  0  0  0  0  0  0
  144.7056  133.4179  160.9548 H   0  0  0  0  0  0  0  0  0  0  0  0
  144.4701  132.9381  162.6279 H   0  0  0  0  0  0  0  0  0  0  0  0
  150.0619  140.1249  157.8890 H   0  0  0  0  0  0  0  0  0  0  0  0
  148.5824  140.7392  157.1949 H   0  0  0  0  0  0  0  0  0  0  0  0
  1  2  1  0  0  0  0
  1 29  1  0  0  0  0
  1 30  1  0  0  0  0
  1 31  1  0  0  0  0
  2  3  1  0  0  0  0
  2 32  1  0  0  0  0
  2 33  1  0  0  0  0
  3  4  2  0  0  0  0
  3  5  1  0  0  0  0
  5  6  1  0  0  0  0
  5 34  1  0  0  0  0
  6 28  1  0  0  0  0
  6  7  1  0  0  0  0
  6 35  1  0  0  0  0
  7  8  1  0  0  0  0
  7 36  1  0  0  0  0
  7 37  1  0  0  0  0
  8  9  1  0  0  0  0
  8 38  1  0  0  0  0
  8 39  1  0  0  0  0
  9 10  1  0  0  0  0
  9 40  1  0  0  0  0
  9 41  1  0  0  0  0
 10 11  1  0  0  0  0
 10 28  1  0  0  0  0
 11 16  1  0  0  0  0
 11 12  2  0  0  0  0
 12 13  1  0  0  0  0
 13 14  2  0  0  0  0
 13 42  1  0  0  0  0
 14 15  1  0  0  0  0
 15 19  1  0  0  0  0
 15 16  2  0  0  0  0
 16 17  1  0  0  0  0
 17 18  2  0  0  0  0
 18 19  1  0  0  0  0
 18 43  1  0  0  0  0
 19 20  1  0  0  0  0
 20 21  1  0  0  0  0
 20 44  1  0  0  0  0
 20 45  1  0  0  0  0
 21 26  1  0  0  0  0
 21 22  1  0  0  0  0
 21 23  1  0  0  0  0
 22 46  1  0  0  0  0
 23 24  1  0  0  0  0
 23 47  1  0  0  0  0
 23 48  1  0  0  0  0
 24 25  1  0  0  0  0
 24 49  1  0  0  0  0
 24 50  1  0  0  0  0
 25 26  1  0  0  0  0
 26 27  1  0  0  0  0
 26 51  1  0  0  0  0
 27 52  1  0  0  0  0
 27 53  1  0  0  0  0
 27 54  1  0  0  0  0
 28 55  1  0  0  0  0
 28 56  1  0  0  0  0
M  END
> <s_m_source_file>
AV-unprocessed.smi

> <i_m_source_file_index>
252

> <i_lp_mmshare_version>
43012

> <i_f3d_flags>
0

> <s_epik_input>
W0NIM11bQ0gyXUMoPU8pW05IXVtDQEBIXTFbQ0gyXVtDSDJdW0NIMl1OKFtDSDJdMSljKG5bY0hdbjIpYyhjMjMpbltjSF1uM1tDSDJdW0NAQF00KFtPSF0pW0NIMl1bQ0gyXU9bQ0BIXTRbQ0gzXQ==

> <s_epik_cmdline>
J2VwaWtfcHl0aG9uJywgJy1waCcsICc3LjAnLCAnLXRuJywgJzgnLCAnLW1hJywgJzIwMCcsICctbWV0YWxfYmluZGluZycsICctaW1hZScsICc8aW5maWxlLm1hZT4nLCAnLW9tYWUnLCAnPG91dGZpbGUubWFlPic=

> <r_lp_tautomer_probability>
1

> <r_epik_Ionization_Penalty>
0.00182575

> <r_epik_Ionization_Penalty_Charging>
0

> <r_epik_Ionization_Penalty_Neutral>
0.00182575

> <r_epik_State_Penalty>
0.00104524

> <r_epik_Charging_Adjusted_Penalty>
0.00104524

> <i_epik_Tot_Q>
0

> <i_epik_Tot_abs_Q>
0

> <r_epik_Metal_State_Penalty>
-0

> <b_epik_Metal_Only>
0

> <s_lp_Force_Field>
OPLS_2005

> <r_lp_Energy>
35.3243

> <b_lp_Chiralities_Consistent>
1

> <s_lp_Variant>
AV-unprocessed.smi:252-2

> <Gold.Version>
5.8.1

> <Gold.Id.Protein>
6NUR|6NUR_protein|mol2

> <Gold.PLP.Fitness>
42.2400

> <Gold.PLP.PLP>
-39.0291

> <Gold.PLP.part.hbond>
-1.4936

> <Gold.PLP.part.metal>
0.0000

> <Gold.PLP.part.buried>
-4.0896

> <Gold.PLP.part.nonpolar>
-32.8872

> <Gold.PLP.part.repulsive>
0.1087

> <Gold.PLP.ligand.clash>
0.0000

> <Gold.PLP.ligand.torsion>
0.6673

> <Gold.PLP.Chemscore.Hbond>
1.3588

> <Gold.PLP.Chemscore.CHOScore>
0.0000

> <Gold.PLP.Chemscore.Metal>
0.0000

> <Gold.Chemscore.Hbonds>
donor molecule, donor type, donor heavy atom, donor atom, acceptor molecule, acceptor atom, score
      L1  H     5    34       P1  8028  1.00

> <Gold.PLP.Chemscore.Internal.Correction>
0.4691

> <Gold.Rescore>
     Score         DG    S(hbond)    S(metal)    S(lipo)     H(rot)  DE(clash)    DE(int)     intcor
     13.28     -16.38       1.85        0.00      99.44       2.70       1.49       1.61       ----

> <Gold.Chemscore.Fitness>
13.2791

> <Gold.Chemscore.DG>
-16.3805

> <Gold.Chemscore.ZeroCoef>
-5.4800

> <Gold.Chemscore.Hbond>
1.8527

> <Gold.Chemscore.Metal>
0.0000

> <Gold.Chemscore.Lipo>
99.4435

> <Gold.Chemscore.Internal_Hbond>
0.0000

> <Gold.Chemscore.DEClash>
1.4913

> <Gold.Chemscore.DEInternal>
1.6101

> <Gold.Chemscore.Rot>
2.7041

> <Gold.Chemscore.Internal.Correction>
   9.000000E+99

> <Gold.Chemscore.Hbonds>
donor molecule, donor type, donor heavy atom, donor atom, acceptor molecule, acceptor atom, score
      L1  H     5    34       P1  8028  0.95

> <Gold.Chemscore.Hbond.Weighted>
-6.1881

> <Gold.Chemscore.Metal.Weighted>
-0.0000

> <Gold.Chemscore.Lipo.Weighted>
-11.6349

> <Gold.Chemscore.Internal_Hbond.Weighted>
0.0000

> <Gold.Chemscore.DEClash.Weighted>
1.4913

> <Gold.Chemscore.DEInternal.Weighted>
1.6101

> <Gold.Chemscore.Rot.Weighted>
6.9225

> <Gold.Chemscore.Internal.Correction.Weighted>
   9.000000E+99

> <Gold.Protein.RotatedTorsions>
[ 6907 6896 6895 6894 ] final -176.33 input  -60.11 | X-H torsion
[ 7974 7965 7964 7962 ] final -152.46 input  175.53 | X-H torsion
[ 8008 7997 7996 7995 ] final  -91.43 input   59.86 | X-H torsion
[ 10167 10162 10161 10158 ] final -170.78 input  -65.29 | X-H torsion
[ 10718 10713 10712 10709 ] final   61.98 input   66.30 | X-H torsion
[ 10763 10752 10751 10750 ] final -145.48 input  -60.55 | X-H torsion
[ 11005 11000 10999 10996 ] final  -42.00 input  -57.11 | X-H torsion

> <Gold.Protein.ActiveResidues>
 VAL166  LYS551  ARG553  GLY616  TRP617  ASP618  TYR619  PRO620  LYS621  CYS622 
 ASP623  PHE694  ASN695  SER759  ASP760  ASP761  ALA762  ILE779  LEU786  VAL792 
 PHE793  MET794  SER795  GLU796  ALA797  LYS798  CYS799  TRP800  GLU811  SER814 

> <Gold.Protein.RotatedAtoms>
  151.6030  133.3354  159.3051 H   0  0  0  0  0  0  0  0  0  0  0  0  # atno 6907 bound_to 6896
  150.8197  134.7402  159.6773 H   0  0  0  0  0  0  0  0  0  0  0  0  # atno 6908 bound_to 6896
  152.4291  134.5817  160.0001 H   0  0  0  0  0  0  0  0  0  0  0  0  # atno 6909 bound_to 6896
  144.7793  140.4660  143.5850 H   0  0  0  0  0  0  0  0  0  0  0  0  # atno 7974 bound_to 7965
  154.7107  140.0519  157.0547 H   0  0  0  0  0  0  0  0  0  0  0  0  # atno 8008 bound_to 7997
  155.0559  140.3184  155.4657 H   0  0  0  0  0  0  0  0  0  0  0  0  # atno 8009 bound_to 7997
  156.2788  140.2107  156.5685 H   0  0  0  0  0  0  0  0  0  0  0  0  # atno 8010 bound_to 7997
  139.5841  144.1357  152.1553 H   0  0  0  0  0  0  0  0  0  0  0  0  # atno 10167 bound_to 10162
  157.5867  130.9025  149.9529 H   0  0  0  0  0  0  0  0  0  0  0  0  # atno 10718 bound_to 10713
  154.8381  135.3412  154.6510 H   0  0  0  0  0  0  0  0  0  0  0  0  # atno 10763 bound_to 10752
  153.7124  135.6963  153.5038 H   0  0  0  0  0  0  0  0  0  0  0  0  # atno 10764 bound_to 10752
  153.2442  135.4374  155.0683 H   0  0  0  0  0  0  0  0  0  0  0  0  # atno 10765 bound_to 10752
  141.0285  133.6830  156.2535 H   0  0  0  0  0  0  0  0  0  0  0  0  # atno 11005 bound_to 11000
  145.6095  139.1512  143.3084 LP  0  0  0  0  0  0  0  0  0  0  0  0  # atno 17320 bound_to 7965
  146.1992  140.6212  142.9110 LP  0  0  0  0  0  0  0  0  0  0  0  0  # atno 17321 bound_to 7965
  140.0917  144.5615  150.7050 LP  0  0  0  0  0  0  0  0  0  0  0  0  # atno 17342 bound_to 10162
  140.7115  143.2509  151.4565 LP  0  0  0  0  0  0  0  0  0  0  0  0  # atno 17343 bound_to 10162
  156.0917  130.3663  150.0382 LP  0  0  0  0  0  0  0  0  0  0  0  0  # atno 17370 bound_to 10713
  156.8512  130.9459  151.3625 LP  0  0  0  0  0  0  0  0  0  0  0  0  # atno 17371 bound_to 10713
  140.6448  134.5128  157.5572 LP  0  0  0  0  0  0  0  0  0  0  0  0  # atno 17394 bound_to 11000
  139.9192  134.8183  156.1266 LP  0  0  0  0  0  0  0  0  0  0  0  0  # atno 17395 bound_to 11000

$$$$
