AV-unprocessed.smi:1209|AV-procd|sdf|5076|dock6
  -GOLD-   22720 4123D 1   1.00000     0.00000
 Structure written by MMmdl.
 49 51  0  0  0  0  0  0  0  0  2 V2000
  148.1251  135.7375  160.5331 C   0  0  0  0  0  0  0  0  0  0  0  0
  148.4711  135.5871  159.0914 C   0  0  0  0  0  0  0  0  0  0  0  0
  147.7750  135.8096  157.9373 C   0  0  0  0  0  0  0  0  0  0  0  0
  148.6995  135.4594  156.9150 C   0  0  0  0  0  0  0  0  0  0  0  0
  148.5090  135.5038  155.4236 C   0  0  0  0  0  0  0  0  0  0  0  0
  149.5801  136.2814  154.7490 N   0  3  2  0  0  0  0  0  0  0  0  0
  150.8396  135.5096  154.6012 C   0  0  0  0  0  0  0  0  0  0  0  0
  149.7922  137.6086  155.3830 C   0  0  0  0  0  0  0  0  0  0  0  0
  150.2853  138.6769  154.3812 C   0  0  1  0  0  0  0  0  0  0  0  0
  149.3489  138.7809  153.3280 O   0  0  0  0  0  0  0  0  0  0  0  0
  150.4480  140.0782  155.0027 C   0  0  0  0  0  0  0  0  0  0  0  0
  151.2998  140.0697  156.1777 N   0  0  0  0  0  0  0  0  0  0  0  0
  152.1956  139.1246  156.5222 C   0  0  0  0  0  0  0  0  0  0  0  0
  152.8651  139.3063  157.6566 N   0  0  0  0  0  0  0  0  0  0  0  0
  152.3487  140.5130  158.0969 C   0  0  0  0  0  0  0  0  0  0  0  0
  152.6367  141.2671  159.2553 C   0  0  0  0  0  0  0  0  0  0  0  0
  151.9708  142.4872  159.5102 C   0  0  0  0  0  0  0  0  0  0  0  0
  152.3126  143.2667  160.7680 C   0  0  0  0  0  0  0  0  0  0  0  0
  150.9989  142.9704  158.5978 C   0  0  0  0  0  0  0  0  0  0  0  0
  150.2668  144.2760  158.8526 C   0  0  0  0  0  0  0  0  0  0  0  0
  150.7015  142.2315  157.4343 C   0  0  0  0  0  0  0  0  0  0  0  0
  151.3698  141.0184  157.1924 C   0  0  0  0  0  0  0  0  0  0  0  0
  149.8586  135.0645  157.4153 N   0  0  0  0  0  0  0  0  0  0  0  0
  149.7214  135.1416  158.8057 O   0  0  0  0  0  0  0  0  0  0  0  0
  147.1035  136.0986  160.6536 H   0  0  0  0  0  0  0  0  0  0  0  0
  148.7942  136.4474  161.0196 H   0  0  0  0  0  0  0  0  0  0  0  0
  148.2088  134.7826  161.0520 H   0  0  0  0  0  0  0  0  0  0  0  0
  146.7607  136.1671  157.8400 H   0  0  0  0  0  0  0  0  0  0  0  0
  148.5014  134.4809  155.0442 H   0  0  0  0  0  0  0  0  0  0  0  0
  147.5361  135.9287  155.1722 H   0  0  0  0  0  0  0  0  0  0  0  0
  151.2547  135.2509  155.5763 H   0  0  0  0  0  0  0  0  0  0  0  0
  151.5933  136.0726  154.0531 H   0  0  0  0  0  0  0  0  0  0  0  0
  150.6760  134.5850  154.0477 H   0  0  0  0  0  0  0  0  0  0  0  0
  148.8639  137.9679  155.8294 H   0  0  0  0  0  0  0  0  0  0  0  0
  150.4944  137.4847  156.2078 H   0  0  0  0  0  0  0  0  0  0  0  0
  151.2419  138.3823  153.9511 H   0  0  0  0  0  0  0  0  0  0  0  0
  149.3804  137.9888  152.8127 H   0  0  0  0  0  0  0  0  0  0  0  0
  150.8780  140.7676  154.2747 H   0  0  0  0  0  0  0  0  0  0  0  0
  149.4769  140.4889  155.2824 H   0  0  0  0  0  0  0  0  0  0  0  0
  152.3602  138.2507  155.9087 H   0  0  0  0  0  0  0  0  0  0  0  0
  153.3766  140.8986  159.9507 H   0  0  0  0  0  0  0  0  0  0  0  0
  152.7263  144.2419  160.5105 H   0  0  0  0  0  0  0  0  0  0  0  0
  153.0492  142.7404  161.3758 H   0  0  0  0  0  0  0  0  0  0  0  0
  151.4228  143.4180  161.3794 H   0  0  0  0  0  0  0  0  0  0  0  0
  149.5599  144.4982  158.0527 H   0  0  0  0  0  0  0  0  0  0  0  0
  150.9726  145.1044  158.9152 H   0  0  0  0  0  0  0  0  0  0  0  0
  149.7079  144.2244  159.7871 H   0  0  0  0  0  0  0  0  0  0  0  0
  149.9635  142.5891  156.7318 H   0  0  0  0  0  0  0  0  0  0  0  0
  149.2362  136.4703  153.8177 H   0  0  0  0  0  0  0  0  0  0  0  0
  1  2  1  0  0  0  0
  1 25  1  0  0  0  0
  1 26  1  0  0  0  0
  1 27  1  0  0  0  0
  2 24  1  0  0  0  0
  2  3  2  0  0  0  0
  3  4  1  0  0  0  0
  3 28  1  0  0  0  0
  4  5  1  0  0  0  0
  4 23  2  0  0  0  0
  5  6  1  0  0  0  0
  5 29  1  0  0  0  0
  5 30  1  0  0  0  0
  6  7  1  0  0  0  0
  6  8  1  0  0  0  0
  6 49  1  0  0  0  0
  7 31  1  0  0  0  0
  7 32  1  0  0  0  0
  7 33  1  0  0  0  0
  8  9  1  0  0  0  0
  8 34  1  0  0  0  0
  8 35  1  0  0  0  0
  9 10  1  0  0  0  0
  9 11  1  0  0  0  0
  9 36  1  0  0  0  0
 10 37  1  0  0  0  0
 11 12  1  0  0  0  0
 11 38  1  0  0  0  0
 11 39  1  0  0  0  0
 12 22  1  0  0  0  0
 12 13  1  0  0  0  0
 13 14  2  0  0  0  0
 13 40  1  0  0  0  0
 14 15  1  0  0  0  0
 15 22  2  0  0  0  0
 15 16  1  0  0  0  0
 16 17  2  0  0  0  0
 16 41  1  0  0  0  0
 17 18  1  0  0  0  0
 17 19  1  0  0  0  0
 18 42  1  0  0  0  0
 18 43  1  0  0  0  0
 18 44  1  0  0  0  0
 19 20  1  0  0  0  0
 19 21  2  0  0  0  0
 20 45  1  0  0  0  0
 20 46  1  0  0  0  0
 20 47  1  0  0  0  0
 21 22  1  0  0  0  0
 21 48  1  0  0  0  0
 23 24  1  0  0  0  0
M  CHG  1   6   1
M  END
> <s_m_source_file>
AV-unprocessed.smi

> <i_m_source_file_index>
1209

> <i_lp_mmshare_version>
43012

> <i_f3d_flags>
0

> <s_epik_input>
W0NIM11jMVtjSF1jKG5vMSlbQ0gyXU4oW0NIM10pW0NIMl1bQ0BIXShbT0hdKVtDSDJdbihbY0hdbjIpYyhjMjMpW2NIXWMoW0NIM10pYyhbY0hdMylbQ0gzXQ==

> <s_epik_cmdline>
J2VwaWtfcHl0aG9uJywgJy1waCcsICc3LjAnLCAnLXRuJywgJzgnLCAnLW1hJywgJzIwMCcsICctbWV0YWxfYmluZGluZycsICctaW1hZScsICc8aW5maWxlLm1hZT4nLCAnLW9tYWUnLCAnPG91dGZpbGUubWFlPic=

> <r_epik_Ionization_Penalty>
2.05249

> <r_epik_Ionization_Penalty_Charging>
1.96618

> <r_epik_Ionization_Penalty_Neutral>
0.0863156

> <r_epik_State_Penalty>
2.19215

> <r_epik_Charging_Adjusted_Penalty>
4.15833

> <i_epik_Tot_Q>
1

> <i_epik_Tot_abs_Q>
1

> <r_epik_Metal_State_Penalty>
2.17654

> <b_epik_Metal_Only>
0

> <s_lp_Force_Field>
OPLS_2005

> <r_lp_Energy>
8.03996

> <b_lp_Chiralities_Consistent>
1

> <s_lp_Variant>
AV-unprocessed.smi:1209-8

> <Gold.Version>
5.8.1

> <Gold.Id.Protein>
6NUR|6NUR_protein|mol2

> <Gold.PLP.Fitness>
53.1891

> <Gold.PLP.PLP>
-40.9495

> <Gold.PLP.part.hbond>
-5.0546

> <Gold.PLP.part.metal>
0.0000

> <Gold.PLP.part.buried>
-1.8444

> <Gold.PLP.part.nonpolar>
-32.6638

> <Gold.PLP.part.repulsive>
0.0203

> <Gold.PLP.ligand.clash>
0.0000

> <Gold.PLP.ligand.torsion>
0.7505

> <Gold.PLP.Chemscore.Hbond>
4.5500

> <Gold.PLP.Chemscore.CHOScore>
0.0000

> <Gold.PLP.Chemscore.Metal>
0.0000

> <Gold.Chemscore.Hbonds>
donor molecule, donor type, donor heavy atom, donor atom, acceptor molecule, acceptor atom, score
      L1  H     6    49       P1  7948  2.00
      L1  H    10    37       P1  7948  1.00
      P1  H  6896  6907       L1    24  0.60
      P1  H  7997  8008       L1    14  0.80

> <Gold.PLP.Chemscore.Internal.Correction>
0.0906

> <Gold.Rescore>
     Score         DG    S(hbond)    S(metal)    S(lipo)     H(rot)  DE(clash)    DE(int)     intcor
     18.30     -20.99       3.02        0.00     101.84       2.53       0.32       2.37       ----

> <Gold.Chemscore.Fitness>
18.3010

> <Gold.Chemscore.DG>
-20.9877

> <Gold.Chemscore.ZeroCoef>
-5.4800

> <Gold.Chemscore.Hbond>
3.0172

> <Gold.Chemscore.Metal>
0.0000

> <Gold.Chemscore.Lipo>
101.8414

> <Gold.Chemscore.Internal_Hbond>
0.0000

> <Gold.Chemscore.DEClash>
0.3189

> <Gold.Chemscore.DEInternal>
2.3678

> <Gold.Chemscore.Rot>
2.5332

> <Gold.Chemscore.Internal.Correction>
   9.000000E+99

> <Gold.Chemscore.Hbonds>
donor molecule, donor type, donor heavy atom, donor atom, acceptor molecule, acceptor atom, score
      L1  H     6    49       P1  7948  0.93
      L1  H    10    37       P1  7948  0.87
      P1  H  6896  6907       L1    24  0.47
      P1  H  7997  8008       L1    14  0.05

> <Gold.Chemscore.Hbond.Weighted>
-10.0773

> <Gold.Chemscore.Metal.Weighted>
-0.0000

> <Gold.Chemscore.Lipo.Weighted>
-11.9154

> <Gold.Chemscore.Internal_Hbond.Weighted>
0.0000

> <Gold.Chemscore.DEClash.Weighted>
0.3189

> <Gold.Chemscore.DEInternal.Weighted>
2.3678

> <Gold.Chemscore.Rot.Weighted>
6.4851

> <Gold.Chemscore.Internal.Correction.Weighted>
   9.000000E+99

> <Gold.Protein.RotatedTorsions>
[ 6907 6896 6895 6894 ] final  -86.70 input  -60.11 | X-H torsion
[ 7974 7965 7964 7962 ] final   90.65 input  175.53 | X-H torsion
[ 8008 7997 7996 7995 ] final  -93.96 input   59.86 | X-H torsion
[ 10167 10162 10161 10158 ] final  134.27 input  -65.29 | X-H torsion
[ 10718 10713 10712 10709 ] final   64.04 input   66.30 | X-H torsion
[ 10763 10752 10751 10750 ] final  108.07 input  -60.55 | X-H torsion
[ 11005 11000 10999 10996 ] final   86.00 input  -57.11 | X-H torsion

> <Gold.Protein.ActiveResidues>
 VAL166  LYS551  ARG553  GLY616  TRP617  ASP618  TYR619  PRO620  LYS621  CYS622 
 ASP623  PHE694  ASN695  SER759  ASP760  ASP761  ALA762  ILE779  LEU786  VAL792 
 PHE793  MET794  SER795  GLU796  ALA797  LYS798  CYS799  TRP800  GLU811  SER814 

> <Gold.Protein.RotatedAtoms>
  150.6866  134.3011  159.4706 H   0  0  0  0  0  0  0  0  0  0  0  0  # atno 6907 bound_to 6896
  152.0906  134.9407  160.0581 H   0  0  0  0  0  0  0  0  0  0  0  0  # atno 6908 bound_to 6896
  152.0724  133.4078  159.4502 H   0  0  0  0  0  0  0  0  0  0  0  0  # atno 6909 bound_to 6896
  145.5162  139.2278  143.2697 H   0  0  0  0  0  0  0  0  0  0  0  0  # atno 7974 bound_to 7965
  154.7423  140.0494  157.0822 H   0  0  0  0  0  0  0  0  0  0  0  0  # atno 8008 bound_to 7997
  155.0162  140.3142  155.4791 H   0  0  0  0  0  0  0  0  0  0  0  0  # atno 8009 bound_to 7997
  156.2867  140.2175  156.5278 H   0  0  0  0  0  0  0  0  0  0  0  0  # atno 8010 bound_to 7997
  139.5263  144.6575  151.5115 H   0  0  0  0  0  0  0  0  0  0  0  0  # atno 10167 bound_to 10162
  157.6012  130.9138  149.9793 H   0  0  0  0  0  0  0  0  0  0  0  0  # atno 10718 bound_to 10713
  153.4155  135.3824  155.2078 H   0  0  0  0  0  0  0  0  0  0  0  0  # atno 10763 bound_to 10752
  154.8741  135.3804  154.4448 H   0  0  0  0  0  0  0  0  0  0  0  0  # atno 10764 bound_to 10752
  153.4962  135.7088  153.5919 H   0  0  0  0  0  0  0  0  0  0  0  0  # atno 10765 bound_to 10752
  139.8956  134.8325  156.2659 H   0  0  0  0  0  0  0  0  0  0  0  0  # atno 11005 bound_to 11000
  146.2135  140.5972  142.9049 LP  0  0  0  0  0  0  0  0  0  0  0  0  # atno 17320 bound_to 7965
  144.7700  140.5617  143.6676 LP  0  0  0  0  0  0  0  0  0  0  0  0  # atno 17321 bound_to 7965
  140.6408  143.8892  150.6690 LP  0  0  0  0  0  0  0  0  0  0  0  0  # atno 17342 bound_to 10162
  140.2226  143.3797  152.1630 LP  0  0  0  0  0  0  0  0  0  0  0  0  # atno 17343 bound_to 10162
  156.1086  130.3651  150.0089 LP  0  0  0  0  0  0  0  0  0  0  0  0  # atno 17370 bound_to 10713
  156.8191  130.9352  151.3642 LP  0  0  0  0  0  0  0  0  0  0  0  0  # atno 17371 bound_to 10713
  141.0132  133.7083  156.1145 LP  0  0  0  0  0  0  0  0  0  0  0  0  # atno 17394 bound_to 11000
  140.7338  134.4225  157.5563 LP  0  0  0  0  0  0  0  0  0  0  0  0  # atno 17395 bound_to 11000

$$$$
