AV-unprocessed.smi:2875|AV-procd|sdf|11040|dock7
  -GOLD-   2272015503D 1   1.00000     0.00000
 Structure written by MMmdl.
 40 40  0  0  0  0  0  0  0  0  1 V2000
  152.1005  146.0226  160.4281 C   0  0  0  0  0  0  0  0  0  0  0  0
  151.3756  144.8765  159.7158 C   0  0  0  0  0  0  0  0  0  0  0  0
  152.2006  144.2966  158.5549 C   0  0  0  0  0  0  0  0  0  0  0  0
  151.9642  142.8804  158.3544 N   0  0  0  0  0  0  0  0  0  0  0  0
  151.2934  142.3573  157.2449 C   0  0  0  0  0  0  0  0  0  0  0  0
  150.8401  143.2461  156.2809 N   0  0  0  0  0  0  0  0  0  0  0  0
  151.0786  141.0147  157.1022 C   0  0  0  0  0  0  0  0  0  0  0  0
  150.4373  140.4866  155.9649 N   0  0  0  0  0  0  0  0  0  0  0  0
  149.0100  140.8030  155.7906 C   0  0  0  0  0  0  0  0  0  0  0  0
  148.7140  141.4095  154.4093 C   0  0  0  0  0  0  0  0  0  0  0  0
  147.3146  141.4021  154.1833 O   0  0  0  0  0  0  0  0  0  0  0  0
  146.6185  142.2727  155.0568 C   0  0  0  0  0  0  0  0  0  0  0  0
  151.0779  139.6646  155.0930 C   0  0  0  0  0  0  0  0  0  0  0  0
  152.5251  139.2441  155.3758 C   0  0  0  0  0  0  0  0  0  0  0  0
  150.5329  139.2151  154.0844 O   0  0  0  0  0  0  0  0  0  0  0  0
  151.5866  140.0674  158.1052 C   0  0  0  0  0  0  0  0  0  0  0  0
  151.4609  138.8439  158.0678 O   0  0  0  0  0  0  0  0  0  0  0  0
  152.2706  140.6503  159.1688 N   0  0  0  0  0  0  0  0  0  0  0  0
  152.4926  142.0119  159.3395 C   0  0  0  0  0  0  0  0  0  0  0  0
  153.1300  142.4010  160.3187 O   0  0  0  0  0  0  0  0  0  0  0  0
  152.6438  140.0301  159.8726 H   0  0  0  0  0  0  0  0  0  0  0  0
  151.4936  146.4205  161.2415 H   0  0  0  0  0  0  0  0  0  0  0  0
  152.3131  146.8410  159.7398 H   0  0  0  0  0  0  0  0  0  0  0  0
  153.0467  145.6858  160.8523 H   0  0  0  0  0  0  0  0  0  0  0  0
  151.1515  144.0903  160.4378 H   0  0  0  0  0  0  0  0  0  0  0  0
  150.4155  145.2365  159.3447 H   0  0  0  0  0  0  0  0  0  0  0  0
  152.0036  144.8127  157.6136 H   0  0  0  0  0  0  0  0  0  0  0  0
  153.2702  144.4200  158.7222 H   0  0  0  0  0  0  0  0  0  0  0  0
  150.9841  144.2424  156.3665 H   0  0  0  0  0  0  0  0  0  0  0  0
  150.2860  142.9402  155.4939 H   0  0  0  0  0  0  0  0  0  0  0  0
  148.4119  139.9011  155.9321 H   0  0  0  0  0  0  0  0  0  0  0  0
  148.6725  141.4976  156.5610 H   0  0  0  0  0  0  0  0  0  0  0  0
  149.1110  142.4229  154.3359 H   0  0  0  0  0  0  0  0  0  0  0  0
  149.2045  140.8143  153.6380 H   0  0  0  0  0  0  0  0  0  0  0  0
  145.5507  142.2283  154.8435 H   0  0  0  0  0  0  0  0  0  0  0  0
  146.9463  143.3050  154.9279 H   0  0  0  0  0  0  0  0  0  0  0  0
  146.7650  141.9847  156.0987 H   0  0  0  0  0  0  0  0  0  0  0  0
  153.2084  140.0774  155.2136 H   0  0  0  0  0  0  0  0  0  0  0  0
  152.8252  138.4353  154.7087 H   0  0  0  0  0  0  0  0  0  0  0  0
  152.6412  138.8870  156.3996 H   0  0  0  0  0  0  0  0  0  0  0  0
  1  2  1  0  0  0  0
  1 22  1  0  0  0  0
  1 23  1  0  0  0  0
  1 24  1  0  0  0  0
  2  3  1  0  0  0  0
  2 25  1  0  0  0  0
  2 26  1  0  0  0  0
  3  4  1  0  0  0  0
  3 27  1  0  0  0  0
  3 28  1  0  0  0  0
  4 19  1  0  0  0  0
  4  5  1  0  0  0  0
  5  6  1  0  0  0  0
  5  7  2  0  0  0  0
  6 29  1  0  0  0  0
  6 30  1  0  0  0  0
  7  8  1  0  0  0  0
  7 16  1  0  0  0  0
  8  9  1  0  0  0  0
  8 13  1  0  0  0  0
  9 10  1  0  0  0  0
  9 31  1  0  0  0  0
  9 32  1  0  0  0  0
 10 11  1  0  0  0  0
 10 33  1  0  0  0  0
 10 34  1  0  0  0  0
 11 12  1  0  0  0  0
 12 35  1  0  0  0  0
 12 36  1  0  0  0  0
 12 37  1  0  0  0  0
 13 14  1  0  0  0  0
 13 15  2  0  0  0  0
 14 38  1  0  0  0  0
 14 39  1  0  0  0  0
 14 40  1  0  0  0  0
 16 17  2  0  0  0  0
 16 18  1  0  0  0  0
 18 21  1  0  0  0  0
 18 19  1  0  0  0  0
 19 20  2  0  0  0  0
M  END
> <s_m_source_file>
AV-unprocessed.smi

> <i_m_source_file_index>
2875

> <i_lp_mmshare_version>
43012

> <i_f3d_flags>
0

> <s_epik_input>
W0NIM11bQ0gyXVtDSDJdbjFjKFtOSDJdKWMoYyg9TylbbkhdYzE9TylOKEMoPU8pW0NIM10pW0NIMl1bQ0gyXU9bQ0gzXQ==

> <s_epik_cmdline>
J2VwaWtfcHl0aG9uJywgJy1waCcsICc3LjAnLCAnLXRuJywgJzgnLCAnLW1hJywgJzIwMCcsICctbWV0YWxfYmluZGluZycsICctaW1hZScsICc8aW5maWxlLm1hZT4nLCAnLW9tYWUnLCAnPG91dGZpbGUubWFlPic=

> <r_lp_tautomer_probability>
1

> <r_epik_Ionization_Penalty>
1.36284e-05

> <r_epik_Ionization_Penalty_Charging>
6.32507e-06

> <r_epik_Ionization_Penalty_Neutral>
7.30329e-06

> <r_epik_State_Penalty>
-0

> <r_epik_Charging_Adjusted_Penalty>
6.32507e-06

> <i_epik_Tot_Q>
0

> <i_epik_Tot_abs_Q>
0

> <r_epik_Metal_State_Penalty>
0.00594323

> <b_epik_Metal_Only>
0

> <s_epik_Chemistry_Notes>
This compound has an imine and may undergo hydrolysis.

> <s_lp_Force_Field>
OPLS_2005

> <r_lp_Energy>
24.7155

> <b_lp_Chiralities_Consistent>
1

> <s_lp_Variant>
AV-unprocessed.smi:2875-1

> <Gold.Version>
5.8.1

> <Gold.Id.Protein>
6NUR|6NUR_protein|mol2

> <Gold.PLP.Fitness>
39.2094

> <Gold.PLP.PLP>
-40.1306

> <Gold.PLP.part.hbond>
-1.7982

> <Gold.PLP.part.metal>
0.0000

> <Gold.PLP.part.buried>
-3.5756

> <Gold.PLP.part.nonpolar>
-35.4380

> <Gold.PLP.part.repulsive>
0.6084

> <Gold.PLP.ligand.clash>
0.0000

> <Gold.PLP.ligand.torsion>
1.6170

> <Gold.PLP.Chemscore.Hbond>
0.0000

> <Gold.PLP.Chemscore.CHOScore>
0.0000

> <Gold.PLP.Chemscore.Metal>
0.0000

> <Gold.PLP.Chemscore.Internal.Correction>
2.3129

> <Gold.Rescore>
     Score         DG    S(hbond)    S(metal)    S(lipo)     H(rot)  DE(clash)    DE(int)     intcor
      4.57      -8.28       0.00        0.00      69.29       2.08       1.08       2.63       ----

> <Gold.Chemscore.Fitness>
4.5672

> <Gold.Chemscore.DG>
-8.2804

> <Gold.Chemscore.ZeroCoef>
-5.4800

> <Gold.Chemscore.Hbond>
0.0026

> <Gold.Chemscore.Metal>
0.0000

> <Gold.Chemscore.Lipo>
69.2912

> <Gold.Chemscore.Internal_Hbond>
0.0000

> <Gold.Chemscore.DEClash>
1.0823

> <Gold.Chemscore.DEInternal>
2.6310

> <Gold.Chemscore.Rot>
2.0763

> <Gold.Chemscore.Internal.Correction>
   9.000000E+99

> <Gold.Chemscore.Hbonds>
donor molecule, donor type, donor heavy atom, donor atom, acceptor molecule, acceptor atom, score
      L1  H     6    29       P1  8028  0.01

> <Gold.Chemscore.Hbond.Weighted>
-0.0086

> <Gold.Chemscore.Metal.Weighted>
-0.0000

> <Gold.Chemscore.Lipo.Weighted>
-8.1071

> <Gold.Chemscore.Internal_Hbond.Weighted>
0.0000

> <Gold.Chemscore.DEClash.Weighted>
1.0823

> <Gold.Chemscore.DEInternal.Weighted>
2.6310

> <Gold.Chemscore.Rot.Weighted>
5.3153

> <Gold.Chemscore.Internal.Correction.Weighted>
   9.000000E+99

> <Gold.Protein.RotatedTorsions>
[ 6907 6896 6895 6894 ] final   28.46 input  -60.11 | X-H torsion
[ 7974 7965 7964 7962 ] final  165.15 input  175.53 | X-H torsion
[ 8008 7997 7996 7995 ] final   49.06 input   59.86 | X-H torsion
[ 10167 10162 10161 10158 ] final  -39.25 input  -65.29 | X-H torsion
[ 10718 10713 10712 10709 ] final -120.92 input   66.30 | X-H torsion
[ 10763 10752 10751 10750 ] final   60.27 input  -60.55 | X-H torsion
[ 11005 11000 10999 10996 ] final  -52.46 input  -57.11 | X-H torsion

> <Gold.Protein.ActiveResidues>
 VAL166  LYS551  ARG553  GLY616  TRP617  ASP618  TYR619  PRO620  LYS621  CYS622 
 ASP623  PHE694  ASN695  SER759  ASP760  ASP761  ALA762  ILE779  LEU786  VAL792 
 PHE793  MET794  SER795  GLU796  ALA797  LYS798  CYS799  TRP800  GLU811  SER814 

> <Gold.Protein.RotatedAtoms>
  152.0173  134.9842  160.0569 H   0  0  0  0  0  0  0  0  0  0  0  0  # atno 6907 bound_to 6896
  152.1371  133.4437  159.4757 H   0  0  0  0  0  0  0  0  0  0  0  0  # atno 6908 bound_to 6896
  150.6861  134.2269  159.4462 H   0  0  0  0  0  0  0  0  0  0  0  0  # atno 6909 bound_to 6896
  144.7514  139.8429  143.6364 H   0  0  0  0  0  0  0  0  0  0  0  0  # atno 7974 bound_to 7965
  155.3960  140.3435  155.4254 H   0  0  0  0  0  0  0  0  0  0  0  0  # atno 8008 bound_to 7997
  156.1531  140.1577  156.8770 H   0  0  0  0  0  0  0  0  0  0  0  0  # atno 8009 bound_to 7997
  154.5070  140.0800  156.7895 H   0  0  0  0  0  0  0  0  0  0  0  0  # atno 8010 bound_to 7997
  140.7069  143.3226  151.2756 H   0  0  0  0  0  0  0  0  0  0  0  0  # atno 10167 bound_to 10162
  156.1296  130.6385  150.9600 H   0  0  0  0  0  0  0  0  0  0  0  0  # atno 10718 bound_to 10713
  152.9916  135.5542  154.5846 H   0  0  0  0  0  0  0  0  0  0  0  0  # atno 10763 bound_to 10752
  154.5220  135.2808  155.1256 H   0  0  0  0  0  0  0  0  0  0  0  0  # atno 10764 bound_to 10752
  154.2606  135.6382  153.5326 H   0  0  0  0  0  0  0  0  0  0  0  0  # atno 10765 bound_to 10752
  141.0925  133.6630  156.4028 H   0  0  0  0  0  0  0  0  0  0  0  0  # atno 11005 bound_to 11000
  146.1470  139.4542  143.0073 LP  0  0  0  0  0  0  0  0  0  0  0  0  # atno 17320 bound_to 7965
  145.6929  141.0159  143.1545 LP  0  0  0  0  0  0  0  0  0  0  0  0  # atno 17321 bound_to 7965
  139.6684  144.0063  152.2738 LP  0  0  0  0  0  0  0  0  0  0  0  0  # atno 17342 bound_to 10162
  139.9654  144.6530  150.8040 LP  0  0  0  0  0  0  0  0  0  0  0  0  # atno 17343 bound_to 10162
  157.6475  131.0902  150.8121 LP  0  0  0  0  0  0  0  0  0  0  0  0  # atno 17370 bound_to 10713
  156.8208  130.4983  149.5343 LP  0  0  0  0  0  0  0  0  0  0  0  0  # atno 17371 bound_to 10713
  140.5217  134.6297  157.5320 LP  0  0  0  0  0  0  0  0  0  0  0  0  # atno 17394 bound_to 11000
  139.9754  134.7223  155.9959 LP  0  0  0  0  0  0  0  0  0  0  0  0  # atno 17395 bound_to 11000

$$$$
