AV-unprocessed.smi:1703|AV-procd|sdf|6859|dock7
  -GOLD-   22720 8 43D 1   1.00000     0.00000
 Structure written by MMmdl.
 49 51  0  0  0  0  0  0  0  0  2 V2000
  143.2899  145.1010  156.7536 C   0  0  0  0  0  0  0  0  0  0  0  0
  144.5556  144.9338  157.6015 C   0  0  2  0  0  0  0  0  0  0  0  0
  145.3031  143.6291  157.2709 C   0  0  0  0  0  0  0  0  0  0  0  0
  146.4672  143.4604  158.1698 N   0  3  2  0  0  0  0  0  0  0  0  0
  147.2941  142.2775  157.8224 C   0  0  0  0  0  0  0  0  0  0  0  0
  148.7585  142.4326  158.2871 C   0  0  2  0  0  0  0  0  0  0  0  0
  148.9273  143.7203  158.8445 O   0  0  0  0  0  0  0  0  0  0  0  0
  149.7903  142.2682  157.1536 C   0  0  0  0  0  0  0  0  0  0  0  0
  150.9921  141.5684  157.5887 N   0  0  0  0  0  0  0  0  0  0  0  0
  151.5691  140.4601  157.0569 C   0  0  0  0  0  0  0  0  0  0  0  0
  151.0071  139.7547  155.8608 C   0  0  0  0  0  0  0  0  0  0  0  0
  151.9451  139.6254  154.8142 O   0  0  0  0  0  0  0  0  0  0  0  0
  152.6724  140.0305  157.6698 N   0  0  0  0  0  0  0  0  0  0  0  0
  152.8349  140.9508  158.6863 C   0  0  0  0  0  0  0  0  0  0  0  0
  153.8270  141.0474  159.6880 C   0  0  0  0  0  0  0  0  0  0  0  0
  153.7858  142.0916  160.6349 C   0  0  0  0  0  0  0  0  0  0  0  0
  152.7547  143.0525  160.5937 C   0  0  0  0  0  0  0  0  0  0  0  0
  151.7564  142.9747  159.6036 C   0  0  0  0  0  0  0  0  0  0  0  0
  151.8011  141.9293  158.6619 C   0  0  0  0  0  0  0  0  0  0  0  0
  146.0278  143.4805  159.5866 C   0  0  0  0  0  0  0  0  0  0  0  0
  145.2392  144.7663  159.9018 C   0  0  1  0  0  0  0  0  0  0  0  0
  146.1248  146.0216  159.9951 C   0  0  0  0  0  0  0  0  0  0  0  0
  144.1667  144.9262  158.9728 O   0  0  0  0  0  0  0  0  0  0  0  0
  143.5290  145.1242  155.6901 H   0  0  0  0  0  0  0  0  0  0  0  0
  142.7770  146.0315  156.9984 H   0  0  0  0  0  0  0  0  0  0  0  0
  142.5901  144.2817  156.9216 H   0  0  0  0  0  0  0  0  0  0  0  0
  145.2059  145.7872  157.4081 H   0  0  0  0  0  0  0  0  0  0  0  0
  144.6372  142.7703  157.3717 H   0  0  0  0  0  0  0  0  0  0  0  0
  145.6390  143.6556  156.2335 H   0  0  0  0  0  0  0  0  0  0  0  0
  146.8316  141.3904  158.2570 H   0  0  0  0  0  0  0  0  0  0  0  0
  147.2886  142.1224  156.7423 H   0  0  0  0  0  0  0  0  0  0  0  0
  148.9849  141.7051  159.0655 H   0  0  0  0  0  0  0  0  0  0  0  0
  148.6964  144.3657  158.1933 H   0  0  0  0  0  0  0  0  0  0  0  0
  149.3455  141.7467  156.3068 H   0  0  0  0  0  0  0  0  0  0  0  0
  150.0917  143.2476  156.7791 H   0  0  0  0  0  0  0  0  0  0  0  0
  150.6736  138.7583  156.1533 H   0  0  0  0  0  0  0  0  0  0  0  0
  150.1265  140.2850  155.4989 H   0  0  0  0  0  0  0  0  0  0  0  0
  152.0084  138.7128  154.5772 H   0  0  0  0  0  0  0  0  0  0  0  0
  154.6221  140.3176  159.7270 H   0  0  0  0  0  0  0  0  0  0  0  0
  154.5501  142.1568  161.3954 H   0  0  0  0  0  0  0  0  0  0  0  0
  152.7322  143.8503  161.3216 H   0  0  0  0  0  0  0  0  0  0  0  0
  150.9676  143.7113  159.5685 H   0  0  0  0  0  0  0  0  0  0  0  0
  145.3959  142.6111  159.7754 H   0  0  0  0  0  0  0  0  0  0  0  0
  146.8794  143.3979  160.2613 H   0  0  0  0  0  0  0  0  0  0  0  0
  144.7736  144.6373  160.8794 H   0  0  0  0  0  0  0  0  0  0  0  0
  146.8557  145.9185  160.7974 H   0  0  0  0  0  0  0  0  0  0  0  0
  145.5243  146.9058  160.2095 H   0  0  0  0  0  0  0  0  0  0  0  0
  146.6794  146.2081  159.0761 H   0  0  0  0  0  0  0  0  0  0  0  0
  147.0555  144.2695  158.0275 H   0  0  0  0  0  0  0  0  0  0  0  0
  1  2  1  0  0  0  0
  1 24  1  0  0  0  0
  1 25  1  0  0  0  0
  1 26  1  0  0  0  0
  2 23  1  0  0  0  0
  2  3  1  0  0  0  0
  2 27  1  0  0  0  0
  3  4  1  0  0  0  0
  3 28  1  0  0  0  0
  3 29  1  0  0  0  0
  4  5  1  0  0  0  0
  4 20  1  0  0  0  0
  4 49  1  0  0  0  0
  5  6  1  0  0  0  0
  5 30  1  0  0  0  0
  5 31  1  0  0  0  0
  6  7  1  0  0  0  0
  6  8  1  0  0  0  0
  6 32  1  0  0  0  0
  7 33  1  0  0  0  0
  8  9  1  0  0  0  0
  8 34  1  0  0  0  0
  8 35  1  0  0  0  0
  9 19  1  0  0  0  0
  9 10  1  0  0  0  0
 10 11  1  0  0  0  0
 10 13  2  0  0  0  0
 11 12  1  0  0  0  0
 11 36  1  0  0  0  0
 11 37  1  0  0  0  0
 12 38  1  0  0  0  0
 13 14  1  0  0  0  0
 14 19  2  0  0  0  0
 14 15  1  0  0  0  0
 15 16  2  0  0  0  0
 15 39  1  0  0  0  0
 16 17  1  0  0  0  0
 16 40  1  0  0  0  0
 17 18  2  0  0  0  0
 17 41  1  0  0  0  0
 18 19  1  0  0  0  0
 18 42  1  0  0  0  0
 20 21  1  0  0  0  0
 20 43  1  0  0  0  0
 20 44  1  0  0  0  0
 21 22  1  0  0  0  0
 21 23  1  0  0  0  0
 21 45  1  0  0  0  0
 22 46  1  0  0  0  0
 22 47  1  0  0  0  0
 22 48  1  0  0  0  0
M  CHG  1   4   1
M  END
> <s_m_source_file>
AV-unprocessed.smi

> <i_m_source_file_index>
1703

> <i_lp_mmshare_version>
43012

> <i_f3d_flags>
0

> <s_epik_input>
W0NIM11bQ0BASF0xW0NIMl1OKFtDSDJdW0NASF0oTzEpW0NIM10pW0NIMl1bQ0BIXShbT0hdKVtDSDJdbihjKG4yKVtDSDJdW09IXSljKGMyMylbY0hdW2NIXVtjSF1bY0hdMw==

> <s_epik_cmdline>
J2VwaWtfcHl0aG9uJywgJy1waCcsICc3LjAnLCAnLXRuJywgJzgnLCAnLW1hJywgJzIwMCcsICctbWV0YWxfYmluZGluZycsICctaW1hZScsICc8aW5maWxlLm1hZT4nLCAnLW9tYWUnLCAnPG91dGZpbGUubWFlPic=

> <r_epik_Ionization_Penalty>
0.655661

> <r_epik_Ionization_Penalty_Charging>
0.608065

> <r_epik_Ionization_Penalty_Neutral>
0.0475963

> <r_epik_State_Penalty>
0.695267

> <r_epik_Charging_Adjusted_Penalty>
1.30333

> <i_epik_Tot_Q>
1

> <i_epik_Tot_abs_Q>
1

> <r_epik_Metal_State_Penalty>
0.653591

> <b_epik_Metal_Only>
0

> <s_lp_Force_Field>
OPLS_2005

> <r_lp_Energy>
25.4362

> <b_lp_Chiralities_Consistent>
1

> <s_lp_Variant>
AV-unprocessed.smi:1703-7

> <Gold.Version>
5.8.1

> <Gold.Id.Protein>
6NUR|6NUR_protein|mol2

> <Gold.PLP.Fitness>
49.5915

> <Gold.PLP.PLP>
-37.6786

> <Gold.PLP.part.hbond>
-4.0000

> <Gold.PLP.part.metal>
0.0000

> <Gold.PLP.part.buried>
-3.6200

> <Gold.PLP.part.nonpolar>
-29.6817

> <Gold.PLP.part.repulsive>
0.1078

> <Gold.PLP.ligand.clash>
0.0000

> <Gold.PLP.ligand.torsion>
1.5310

> <Gold.PLP.Chemscore.Hbond>
4.9680

> <Gold.PLP.Chemscore.CHOScore>
0.0000

> <Gold.PLP.Chemscore.Metal>
0.0000

> <Gold.Chemscore.Hbonds>
donor molecule, donor type, donor heavy atom, donor atom, acceptor molecule, acceptor atom, score
      L1  H     4    49       P1  8029  2.00
      L1  H     7    33       P1  8029  1.00
      P1  H  7989  7998       L1    12  0.94
      P1  H  7997  8008       L1    13  0.96

> <Gold.PLP.Chemscore.Internal.Correction>
0.0709

> <Gold.Rescore>
     Score         DG    S(hbond)    S(metal)    S(lipo)     H(rot)  DE(clash)    DE(int)     intcor
     15.21     -19.61       3.04        0.00      98.91       2.96       0.60       3.80       ----

> <Gold.Chemscore.Fitness>
15.2127

> <Gold.Chemscore.DG>
-19.6127

> <Gold.Chemscore.ZeroCoef>
-5.4800

> <Gold.Chemscore.Hbond>
3.0363

> <Gold.Chemscore.Metal>
0.0000

> <Gold.Chemscore.Lipo>
98.9052

> <Gold.Chemscore.Internal_Hbond>
0.0000

> <Gold.Chemscore.DEClash>
0.5998

> <Gold.Chemscore.DEInternal>
3.8002

> <Gold.Chemscore.Rot>
2.9611

> <Gold.Chemscore.Internal.Correction>
   9.000000E+99

> <Gold.Chemscore.Hbonds>
donor molecule, donor type, donor heavy atom, donor atom, acceptor molecule, acceptor atom, score
      L1  H     4    49       P1  8029  0.34
      L1  H     7    33       P1  8029  0.29
      P1  H  7989  7998       L1    12  0.72
      P1  H  7997  8008       L1    13  0.45

> <Gold.Chemscore.Hbond.Weighted>
-10.1411

> <Gold.Chemscore.Metal.Weighted>
-0.0000

> <Gold.Chemscore.Lipo.Weighted>
-11.5719

> <Gold.Chemscore.Internal_Hbond.Weighted>
0.0000

> <Gold.Chemscore.DEClash.Weighted>
0.5998

> <Gold.Chemscore.DEInternal.Weighted>
3.8002

> <Gold.Chemscore.Rot.Weighted>
7.5803

> <Gold.Chemscore.Internal.Correction.Weighted>
   9.000000E+99

> <Gold.Protein.RotatedTorsions>
[ 6907 6896 6895 6894 ] final   64.01 input  -60.11 | X-H torsion
[ 7974 7965 7964 7962 ] final  -95.60 input  175.53 | X-H torsion
[ 8008 7997 7996 7995 ] final  -55.58 input   59.86 | X-H torsion
[ 10167 10162 10161 10158 ] final   67.54 input  -65.29 | X-H torsion
[ 10718 10713 10712 10709 ] final   28.00 input   66.30 | X-H torsion
[ 10763 10752 10751 10750 ] final  -42.20 input  -60.55 | X-H torsion
[ 11005 11000 10999 10996 ] final -126.70 input  -57.11 | X-H torsion

> <Gold.Protein.ActiveResidues>
 VAL166  LYS551  ARG553  GLY616  TRP617  ASP618  TYR619  PRO620  LYS621  CYS622 
 ASP623  PHE694  ASN695  SER759  ASP760  ASP761  ALA762  ILE779  LEU786  VAL792 
 PHE793  MET794  SER795  GLU796  ALA797  LYS798  CYS799  TRP800  GLU811  SER814 

> <Gold.Protein.RotatedAtoms>
  152.4298  134.5799  159.9944 H   0  0  0  0  0  0  0  0  0  0  0  0  # atno 6907 bound_to 6896
  151.5926  133.3359  159.3039 H   0  0  0  0  0  0  0  0  0  0  0  0  # atno 6908 bound_to 6896
  150.8190  134.7424  159.6820 H   0  0  0  0  0  0  0  0  0  0  0  0  # atno 6909 bound_to 6896
  145.3580  140.9487  143.2517 H   0  0  0  0  0  0  0  0  0  0  0  0  # atno 7974 bound_to 7965
  154.4200  140.1149  156.5499 H   0  0  0  0  0  0  0  0  0  0  0  0  # atno 8008 bound_to 7997
  155.6421  140.3496  155.4699 H   0  0  0  0  0  0  0  0  0  0  0  0  # atno 8009 bound_to 7997
  155.9862  140.1170  157.0670 H   0  0  0  0  0  0  0  0  0  0  0  0  # atno 8010 bound_to 7997
  140.0884  144.5010  150.7115 H   0  0  0  0  0  0  0  0  0  0  0  0  # atno 10167 bound_to 10162
  157.2277  130.7009  149.6299 H   0  0  0  0  0  0  0  0  0  0  0  0  # atno 10718 bound_to 10713
  153.9752  135.6723  153.4748 H   0  0  0  0  0  0  0  0  0  0  0  0  # atno 10763 bound_to 10752
  153.0774  135.4941  154.8429 H   0  0  0  0  0  0  0  0  0  0  0  0  # atno 10764 bound_to 10752
  154.7196  135.3114  154.9029 H   0  0  0  0  0  0  0  0  0  0  0  0  # atno 10765 bound_to 10752
  140.9659  134.0872  157.3920 H   0  0  0  0  0  0  0  0  0  0  0  0  # atno 11005 bound_to 11000
  144.8668  139.5096  143.6786 LP  0  0  0  0  0  0  0  0  0  0  0  0  # atno 17320 bound_to 7965
  146.2940  139.7222  142.9140 LP  0  0  0  0  0  0  0  0  0  0  0  0  # atno 17321 bound_to 7965
  140.7041  143.2455  151.4777 LP  0  0  0  0  0  0  0  0  0  0  0  0  # atno 17342 bound_to 10162
  139.5739  144.1865  152.1875 LP  0  0  0  0  0  0  0  0  0  0  0  0  # atno 17343 bound_to 10162
  155.9677  130.4499  150.5677 LP  0  0  0  0  0  0  0  0  0  0  0  0  # atno 17370 bound_to 10713
  157.3511  131.0733  151.1712 LP  0  0  0  0  0  0  0  0  0  0  0  0  # atno 17371 bound_to 10713
  139.8894  135.0105  156.6679 LP  0  0  0  0  0  0  0  0  0  0  0  0  # atno 17394 bound_to 11000
  140.7399  133.8986  155.8271 LP  0  0  0  0  0  0  0  0  0  0  0  0  # atno 17395 bound_to 11000

$$$$
