AV-unprocessed.smi:919|AV-procd|sdf|4164|dock4
  -GOLD-   22720 2 73D 1   1.00000     0.00000
 Structure written by MMmdl.
 43 45  0  0  0  0  0  0  0  0  1 V2000
  147.0495  141.6782  153.8778 C   0  0  0  0  0  0  0  0  0  0  0  0
  148.3272  140.9465  154.1724 C   0  0  0  0  0  0  0  0  0  0  0  0
  149.4699  141.6118  154.1545 N   0  0  0  0  0  0  0  0  0  0  0  0
  150.4624  140.6793  154.4716 O   0  0  0  0  0  0  0  0  0  0  0  0
  149.8704  139.4744  154.6711 C   0  0  0  0  0  0  0  0  0  0  0  0
  150.7647  138.3356  155.0283 C   0  0  0  0  0  0  0  0  0  0  0  0
  148.5181  139.5715  154.4940 C   0  0  0  0  0  0  0  0  0  0  0  0
  147.4830  138.4868  154.6203 C   0  0  0  0  0  0  0  0  0  0  0  0
  146.5193  138.4921  153.4234 C   0  0  0  0  0  0  0  0  0  0  0  0
  146.7188  137.3282  152.5690 N   0  0  0  0  0  0  0  0  0  0  0  0
  145.7513  136.4738  152.1948 C   0  0  0  0  0  0  0  0  0  0  0  0
  144.5785  136.5805  152.5490 O   0  0  0  0  0  0  0  0  0  0  0  0
  146.1602  135.4812  151.3851 N   0  0  0  0  0  0  0  0  0  0  0  0
  145.3568  134.4006  150.8090 C   0  0  2  0  0  0  0  0  0  0  0  0
  144.3341  133.8028  151.8046 C   0  0  0  0  0  0  0  0  0  0  0  0
  144.7245  132.3140  151.8454 C   0  0  1  0  0  0  0  0  0  0  0  0
  144.3828  131.6529  150.4957 C   0  0  0  0  0  0  0  0  0  0  0  0
  145.4515  132.2345  149.5489 C   0  0  0  0  0  0  0  0  0  0  0  0
  146.2406  133.1788  150.4747 C   0  0  2  0  0  0  0  0  0  0  0  0
  146.2434  132.3920  151.7824 C   0  0  0  0  0  0  0  0  0  0  0  0
  146.1953  141.0017  153.8606 H   0  0  0  0  0  0  0  0  0  0  0  0
  147.0962  142.1757  152.9086 H   0  0  0  0  0  0  0  0  0  0  0  0
  146.8520  142.4385  154.6336 H   0  0  0  0  0  0  0  0  0  0  0  0
  150.3487  137.7642  155.8585 H   0  0  0  0  0  0  0  0  0  0  0  0
  151.7531  138.6881  155.3238 H   0  0  0  0  0  0  0  0  0  0  0  0
  150.8849  137.6606  154.1809 H   0  0  0  0  0  0  0  0  0  0  0  0
  147.9573  137.5082  154.6997 H   0  0  0  0  0  0  0  0  0  0  0  0
  146.9164  138.6112  155.5438 H   0  0  0  0  0  0  0  0  0  0  0  0
  145.4840  138.5280  153.7673 H   0  0  0  0  0  0  0  0  0  0  0  0
  146.6770  139.3873  152.8212 H   0  0  0  0  0  0  0  0  0  0  0  0
  147.6549  137.1653  152.2278 H   0  0  0  0  0  0  0  0  0  0  0  0
  147.1363  135.4862  151.1260 H   0  0  0  0  0  0  0  0  0  0  0  0
  144.8653  134.7660  149.9054 H   0  0  0  0  0  0  0  0  0  0  0  0
  144.4317  134.2465  152.7968 H   0  0  0  0  0  0  0  0  0  0  0  0
  143.3043  133.9507  151.4774 H   0  0  0  0  0  0  0  0  0  0  0  0
  144.3254  131.7810  152.7086 H   0  0  0  0  0  0  0  0  0  0  0  0
  144.4767  130.5679  150.5586 H   0  0  0  0  0  0  0  0  0  0  0  0
  143.3679  131.8828  150.1693 H   0  0  0  0  0  0  0  0  0  0  0  0
  146.0950  131.4413  149.1659 H   0  0  0  0  0  0  0  0  0  0  0  0
  145.0161  132.7526  148.6937 H   0  0  0  0  0  0  0  0  0  0  0  0
  147.2277  133.4350  150.0873 H   0  0  0  0  0  0  0  0  0  0  0  0
  146.6841  132.9382  152.6182 H   0  0  0  0  0  0  0  0  0  0  0  0
  146.7247  131.4157  151.7002 H   0  0  0  0  0  0  0  0  0  0  0  0
  1  2  1  0  0  0  0
  1 21  1  0  0  0  0
  1 22  1  0  0  0  0
  1 23  1  0  0  0  0
  2  7  1  0  0  0  0
  2  3  2  0  0  0  0
  3  4  1  0  0  0  0
  4  5  1  0  0  0  0
  5  6  1  0  0  0  0
  5  7  2  0  0  0  0
  6 24  1  0  0  0  0
  6 25  1  0  0  0  0
  6 26  1  0  0  0  0
  7  8  1  0  0  0  0
  8  9  1  0  0  0  0
  8 27  1  0  0  0  0
  8 28  1  0  0  0  0
  9 10  1  0  0  0  0
  9 29  1  0  0  0  0
  9 30  1  0  0  0  0
 10 11  1  0  0  0  0
 10 31  1  0  0  0  0
 11 12  2  0  0  0  0
 11 13  1  0  0  0  0
 13 14  1  0  0  0  0
 13 32  1  0  0  0  0
 14 19  1  0  0  0  0
 14 15  1  0  0  0  0
 14 33  1  0  0  0  0
 15 16  1  0  0  0  0
 15 34  1  0  0  0  0
 15 35  1  0  0  0  0
 16 20  1  0  0  0  0
 16 17  1  0  0  0  0
 16 36  1  0  0  0  0
 17 18  1  0  0  0  0
 17 37  1  0  0  0  0
 17 38  1  0  0  0  0
 18 19  1  0  0  0  0
 18 39  1  0  0  0  0
 18 40  1  0  0  0  0
 19 20  1  0  0  0  0
 19 41  1  0  0  0  0
 20 42  1  0  0  0  0
 20 43  1  0  0  0  0
M  END
> <s_m_source_file>
AV-unprocessed.smi

> <i_m_source_file_index>
919

> <i_lp_mmshare_version>
43012

> <i_f3d_flags>
0

> <s_epik_input>
W0NIM11jMW5vYyhbQ0gzXSljMVtDSDJdW0NIMl1bTkhdQyg9TylbTkhdW0NASF0oW0NIMl1bQ0BASF0yMylbQ0BASF0oW0NIMl0zKVtDSDJdW0NIMl0y

> <s_epik_cmdline>
J2VwaWtfcHl0aG9uJywgJy1waCcsICc3LjAnLCAnLXRuJywgJzgnLCAnLW1hJywgJzIwMCcsICctbWV0YWxfYmluZGluZycsICctaW1hZScsICc8aW5maWxlLm1hZT4nLCAnLW9tYWUnLCAnPG91dGZpbGUubWFlPic=

> <r_lp_tautomer_probability>
1

> <r_epik_Ionization_Penalty>
6.40771e-05

> <r_epik_Ionization_Penalty_Charging>
0

> <r_epik_Ionization_Penalty_Neutral>
6.40771e-05

> <r_epik_State_Penalty>
-0

> <r_epik_Charging_Adjusted_Penalty>
0

> <i_epik_Tot_Q>
0

> <i_epik_Tot_abs_Q>
0

> <r_epik_Metal_State_Penalty>
-0

> <b_epik_Metal_Only>
0

> <s_lp_Force_Field>
OPLS_2005

> <r_lp_Energy>
47.5349

> <b_lp_Chiralities_Consistent>
1

> <s_lp_Variant>
AV-unprocessed.smi:919-1

> <Gold.Version>
5.8.1

> <Gold.Id.Protein>
6NUR|6NUR_protein|mol2

> <Gold.PLP.Fitness>
45.5891

> <Gold.PLP.PLP>
-37.4452

> <Gold.PLP.part.hbond>
-4.5982

> <Gold.PLP.part.metal>
0.0000

> <Gold.PLP.part.buried>
-4.1920

> <Gold.PLP.part.nonpolar>
-28.8783

> <Gold.PLP.part.repulsive>
0.6126

> <Gold.PLP.ligand.clash>
0.0000

> <Gold.PLP.ligand.torsion>
0.8127

> <Gold.PLP.Chemscore.Hbond>
3.2466

> <Gold.PLP.Chemscore.CHOScore>
0.0000

> <Gold.PLP.Chemscore.Metal>
0.0000

> <Gold.Chemscore.Hbonds>
donor molecule, donor type, donor heavy atom, donor atom, acceptor molecule, acceptor atom, score
      L1  H    10    31       P1  7948  1.00
      L1  H    13    32       P1  7948  0.78
      P1  H  7989  7998       L1     4  0.87
      P1  H  8011  8017       L1     3  0.58

> <Gold.PLP.Chemscore.Internal.Correction>
0.0293

> <Gold.Rescore>
     Score         DG    S(hbond)    S(metal)    S(lipo)     H(rot)  DE(clash)    DE(int)     intcor
     18.65     -21.08       2.56        0.00      93.31       1.52       0.39       2.03       ----

> <Gold.Chemscore.Fitness>
18.6525

> <Gold.Chemscore.DG>
-21.0764

> <Gold.Chemscore.ZeroCoef>
-5.4800

> <Gold.Chemscore.Hbond>
2.5629

> <Gold.Chemscore.Metal>
0.0000

> <Gold.Chemscore.Lipo>
93.3119

> <Gold.Chemscore.Internal_Hbond>
0.0000

> <Gold.Chemscore.DEClash>
0.3903

> <Gold.Chemscore.DEInternal>
2.0336

> <Gold.Chemscore.Rot>
1.5161

> <Gold.Chemscore.Internal.Correction>
   9.000000E+99

> <Gold.Chemscore.Hbonds>
donor molecule, donor type, donor heavy atom, donor atom, acceptor molecule, acceptor atom, score
      L1  H    10    31       P1  7948  0.97
      L1  H    13    32       P1  7948  0.62
      P1  H  7989  7998       L1     4  0.48
      P1  H  8011  8017       L1     3  0.34

> <Gold.Chemscore.Hbond.Weighted>
-8.5602

> <Gold.Chemscore.Metal.Weighted>
-0.0000

> <Gold.Chemscore.Lipo.Weighted>
-10.9175

> <Gold.Chemscore.Internal_Hbond.Weighted>
0.0000

> <Gold.Chemscore.DEClash.Weighted>
0.3903

> <Gold.Chemscore.DEInternal.Weighted>
2.0336

> <Gold.Chemscore.Rot.Weighted>
3.8813

> <Gold.Chemscore.Internal.Correction.Weighted>
   9.000000E+99

> <Gold.Protein.RotatedTorsions>
[ 6907 6896 6895 6894 ] final   93.32 input  -60.11 | X-H torsion
[ 7974 7965 7964 7962 ] final  125.84 input  175.53 | X-H torsion
[ 8008 7997 7996 7995 ] final -117.88 input   59.86 | X-H torsion
[ 10167 10162 10161 10158 ] final   83.09 input  -65.29 | X-H torsion
[ 10718 10713 10712 10709 ] final  -96.31 input   66.30 | X-H torsion
[ 10763 10752 10751 10750 ] final  146.25 input  -60.55 | X-H torsion
[ 11005 11000 10999 10996 ] final  -71.28 input  -57.11 | X-H torsion

> <Gold.Protein.ActiveResidues>
 VAL166  LYS551  ARG553  GLY616  TRP617  ASP618  TYR619  PRO620  LYS621  CYS622 
 ASP623  PHE694  ASN695  SER759  ASP760  ASP761  ALA762  ILE779  LEU786  VAL792 
 PHE793  MET794  SER795  GLU796  ALA797  LYS798  CYS799  TRP800  GLU811  SER814 

> <Gold.Protein.RotatedAtoms>
  152.5452  134.1366  159.8461 H   0  0  0  0  0  0  0  0  0  0  0  0  # atno 6907 bound_to 6896
  151.1406  133.4966  159.2604 H   0  0  0  0  0  0  0  0  0  0  0  0  # atno 6908 bound_to 6896
  151.1577  135.0268  159.8751 H   0  0  0  0  0  0  0  0  0  0  0  0  # atno 6909 bound_to 6896
  145.0684  139.3749  143.4970 H   0  0  0  0  0  0  0  0  0  0  0  0  # atno 7974 bound_to 7965
  155.0908  140.0395  157.2668 H   0  0  0  0  0  0  0  0  0  0  0  0  # atno 8008 bound_to 7997
  154.6834  140.2638  155.6860 H   0  0  0  0  0  0  0  0  0  0  0  0  # atno 8009 bound_to 7997
  156.2703  140.2774  156.1386 H   0  0  0  0  0  0  0  0  0  0  0  0  # atno 8010 bound_to 7997
  139.9220  144.6207  150.8431 H   0  0  0  0  0  0  0  0  0  0  0  0  # atno 10167 bound_to 10162
  156.0060  130.5146  150.6207 H   0  0  0  0  0  0  0  0  0  0  0  0  # atno 10718 bound_to 10713
  154.0188  135.2908  155.3383 H   0  0  0  0  0  0  0  0  0  0  0  0  # atno 10763 bound_to 10752
  154.7058  135.5169  153.8597 H   0  0  0  0  0  0  0  0  0  0  0  0  # atno 10764 bound_to 10752
  153.0690  135.6641  154.0412 H   0  0  0  0  0  0  0  0  0  0  0  0  # atno 10765 bound_to 10752
  141.1589  133.6813  156.6882 H   0  0  0  0  0  0  0  0  0  0  0  0  # atno 11005 bound_to 11000
  146.3528  140.0417  142.8642 LP  0  0  0  0  0  0  0  0  0  0  0  0  # atno 17320 bound_to 7965
  145.1322  140.9524  143.4538 LP  0  0  0  0  0  0  0  0  0  0  0  0  # atno 17321 bound_to 7965
  140.7660  143.3290  151.2451 LP  0  0  0  0  0  0  0  0  0  0  0  0  # atno 17342 bound_to 10162
  139.6854  143.9783  152.2831 LP  0  0  0  0  0  0  0  0  0  0  0  0  # atno 17343 bound_to 10162
  157.4023  131.0811  151.1297 LP  0  0  0  0  0  0  0  0  0  0  0  0  # atno 17370 bound_to 10713
  157.1955  130.6371  149.5719 LP  0  0  0  0  0  0  0  0  0  0  0  0  # atno 17371 bound_to 10713
  140.3051  134.8132  157.4130 LP  0  0  0  0  0  0  0  0  0  0  0  0  # atno 17394 bound_to 11000
  140.1228  134.5197  155.8170 LP  0  0  0  0  0  0  0  0  0  0  0  0  # atno 17395 bound_to 11000

$$$$
