AV-unprocessed.smi:3303|AV-procd|sdf|12682|dock1
  -GOLD-   2272019 13D 1   1.00000     0.00000
 Structure written by MMmdl.
 44 45  0  0  0  0  0  0  0  0  2 V2000
  150.8127  139.4254  155.0193 C   0  0  0  0  0  0  0  0  0  0  0  0
  150.7347  140.8186  155.6782 C   0  0  1  0  0  0  0  0  0  0  0  0
  149.6454  141.6890  155.0239 C   0  0  0  0  0  0  0  0  0  0  0  0
  148.2732  141.2163  155.3508 N   0  3  2  0  0  0  0  0  0  0  0  0
  147.2574  141.9790  154.5853 C   0  0  0  0  0  0  0  0  0  0  0  0
  148.0226  141.1791  156.8241 C   0  0  1  0  0  0  0  0  0  0  0  0
  146.6187  140.6483  157.1738 C   0  0  0  0  0  0  0  0  0  0  0  0
  149.0890  140.3186  157.5344 C   0  0  0  0  0  0  0  0  0  0  0  0
  150.5138  140.7936  157.2101 C   0  0  1  0  0  0  0  0  0  0  0  0
  151.4700  139.9469  157.9159 N   0  0  0  0  0  0  0  0  0  0  0  0
  151.7815  140.4632  159.2412 C   0  0  0  0  0  0  0  0  0  0  0  0
  152.9675  141.4329  159.1529 C   0  0  0  0  0  0  0  0  0  0  0  0
  152.5666  142.8525  159.5065 C   0  0  0  0  0  0  0  0  0  0  0  0
  152.6095  143.8773  158.5373 C   0  0  0  0  0  0  0  0  0  0  0  0
  152.2170  145.1758  158.9163 C   0  0  0  0  0  0  0  0  0  0  0  0
  151.7978  145.3982  160.2420 C   0  0  0  0  0  0  0  0  0  0  0  0
  151.7898  144.3074  161.1339 C   0  0  0  0  0  0  0  0  0  0  0  0
  152.1641  143.0585  160.7810 N   0  0  0  0  0  0  0  0  0  0  0  0
  149.8911  138.8579  155.1468 H   0  0  0  0  0  0  0  0  0  0  0  0
  151.6277  138.8316  155.4340 H   0  0  0  0  0  0  0  0  0  0  0  0
  150.9955  139.5132  153.9482 H   0  0  0  0  0  0  0  0  0  0  0  0
  151.6854  141.3127  155.4771 H   0  0  0  0  0  0  0  0  0  0  0  0
  149.7525  142.7236  155.3544 H   0  0  0  0  0  0  0  0  0  0  0  0
  149.7879  141.6947  153.9421 H   0  0  0  0  0  0  0  0  0  0  0  0
  147.1736  143.0011  154.9570 H   0  0  0  0  0  0  0  0  0  0  0  0
  146.2767  141.5076  154.6383 H   0  0  0  0  0  0  0  0  0  0  0  0
  147.5231  142.0247  153.5286 H   0  0  0  0  0  0  0  0  0  0  0  0
  148.1007  142.1997  157.2028 H   0  0  0  0  0  0  0  0  0  0  0  0
  146.5001  140.5457  158.2530 H   0  0  0  0  0  0  0  0  0  0  0  0
  146.4411  139.6686  156.7290 H   0  0  0  0  0  0  0  0  0  0  0  0
  145.8295  141.3213  156.8394 H   0  0  0  0  0  0  0  0  0  0  0  0
  148.9300  140.3616  158.6130 H   0  0  0  0  0  0  0  0  0  0  0  0
  148.9662  139.2715  157.2539 H   0  0  0  0  0  0  0  0  0  0  0  0
  150.6141  141.8094  157.5964 H   0  0  0  0  0  0  0  0  0  0  0  0
  151.0814  139.0195  158.0156 H   0  0  0  0  0  0  0  0  0  0  0  0
  150.9180  140.9804  159.6591 H   0  0  0  0  0  0  0  0  0  0  0  0
  152.0273  139.6371  159.9095 H   0  0  0  0  0  0  0  0  0  0  0  0
  153.7659  141.1149  159.8253 H   0  0  0  0  0  0  0  0  0  0  0  0
  153.3890  141.4195  158.1466 H   0  0  0  0  0  0  0  0  0  0  0  0
  152.9328  143.6753  157.5265 H   0  0  0  0  0  0  0  0  0  0  0  0
  152.2356  145.9861  158.2028 H   0  0  0  0  0  0  0  0  0  0  0  0
  151.4886  146.3802  160.5679 H   0  0  0  0  0  0  0  0  0  0  0  0
  151.4736  144.4412  162.1578 H   0  0  0  0  0  0  0  0  0  0  0  0
  148.2188  140.2619  155.0247 H   0  0  0  0  0  0  0  0  0  0  0  0
  1  2  1  0  0  0  0
  1 19  1  0  0  0  0
  1 20  1  0  0  0  0
  1 21  1  0  0  0  0
  2  9  1  0  0  0  0
  2  3  1  0  0  0  0
  2 22  1  0  0  0  0
  3  4  1  0  0  0  0
  3 23  1  0  0  0  0
  3 24  1  0  0  0  0
  4  5  1  0  0  0  0
  4  6  1  0  0  0  0
  4 44  1  0  0  0  0
  5 25  1  0  0  0  0
  5 26  1  0  0  0  0
  5 27  1  0  0  0  0
  6  7  1  0  0  0  0
  6  8  1  0  0  0  0
  6 28  1  0  0  0  0
  7 29  1  0  0  0  0
  7 30  1  0  0  0  0
  7 31  1  0  0  0  0
  8  9  1  0  0  0  0
  8 32  1  0  0  0  0
  8 33  1  0  0  0  0
  9 10  1  0  0  0  0
  9 34  1  0  0  0  0
 10 11  1  0  0  0  0
 10 35  1  0  0  0  0
 11 12  1  0  0  0  0
 11 36  1  0  0  0  0
 11 37  1  0  0  0  0
 12 13  1  0  0  0  0
 12 38  1  0  0  0  0
 12 39  1  0  0  0  0
 13 18  1  0  0  0  0
 13 14  2  0  0  0  0
 14 15  1  0  0  0  0
 14 40  1  0  0  0  0
 15 16  2  0  0  0  0
 15 41  1  0  0  0  0
 16 17  1  0  0  0  0
 16 42  1  0  0  0  0
 17 18  2  0  0  0  0
 17 43  1  0  0  0  0
M  CHG  1   4   1
M  END
> <s_m_source_file>
AV-unprocessed.smi

> <i_m_source_file_index>
3303

> <i_lp_mmshare_version>
43012

> <i_f3d_flags>
0

> <s_epik_input>
W0NIM11bQ0BASF0xW0NIMl1OKFtDSDNdKVtDQEBIXShbQ0gzXSlbQ0gyXVtDQEhdMVtOSF1bQ0gyXVtDSDJdYzJbY0hdW2NIXVtjSF1bY0hdbjI=

> <s_epik_cmdline>
J2VwaWtfcHl0aG9uJywgJy1waCcsICc3LjAnLCAnLXRuJywgJzgnLCAnLW1hJywgJzIwMCcsICctbWV0YWxfYmluZGluZycsICctaW1hZScsICc8aW5maWxlLm1hZT4nLCAnLW9tYWUnLCAnPG91dGZpbGUubWFlPic=

> <r_epik_Ionization_Penalty>
2.31085

> <r_epik_Ionization_Penalty_Charging>
0.000313057

> <r_epik_Ionization_Penalty_Neutral>
2.31054

> <r_epik_State_Penalty>
2.4087

> <r_epik_Charging_Adjusted_Penalty>
2.40902

> <i_epik_Tot_Q>
1

> <i_epik_Tot_abs_Q>
1

> <r_epik_Metal_State_Penalty>
2.30979

> <b_epik_Metal_Only>
0

> <s_lp_Force_Field>
OPLS_2005

> <r_lp_Energy>
24.7509

> <b_lp_Chiralities_Consistent>
1

> <s_lp_Variant>
AV-unprocessed.smi:3303-26

> <Gold.Version>
5.8.1

> <Gold.Id.Protein>
6NUR|6NUR_protein|mol2

> <Gold.PLP.Fitness>
39.5138

> <Gold.PLP.PLP>
-41.4108

> <Gold.PLP.part.hbond>
0.0000

> <Gold.PLP.part.metal>
0.0000

> <Gold.PLP.part.buried>
-4.5318

> <Gold.PLP.part.nonpolar>
-36.5271

> <Gold.PLP.part.repulsive>
0.1182

> <Gold.PLP.ligand.clash>
0.0000

> <Gold.PLP.ligand.torsion>
0.9704

> <Gold.PLP.Chemscore.Hbond>
0.0000

> <Gold.PLP.Chemscore.CHOScore>
0.0000

> <Gold.PLP.Chemscore.Metal>
0.0000

> <Gold.PLP.Chemscore.Internal.Correction>
0.0437

> <Gold.Rescore>
     Score         DG    S(hbond)    S(metal)    S(lipo)     H(rot)  DE(clash)    DE(int)     intcor
     14.81     -15.94       0.00        0.00     118.45       1.33       0.16       0.97       ----

> <Gold.Chemscore.Fitness>
14.8076

> <Gold.Chemscore.DG>
-15.9412

> <Gold.Chemscore.ZeroCoef>
-5.4800

> <Gold.Chemscore.Hbond>
0.0000

> <Gold.Chemscore.Metal>
0.0000

> <Gold.Chemscore.Lipo>
118.4517

> <Gold.Chemscore.Internal_Hbond>
0.0000

> <Gold.Chemscore.DEClash>
0.1603

> <Gold.Chemscore.DEInternal>
0.9733

> <Gold.Chemscore.Rot>
1.3272

> <Gold.Chemscore.Internal.Correction>
   9.000000E+99

> <Gold.Chemscore.Hbond.Weighted>
-0.0000

> <Gold.Chemscore.Metal.Weighted>
-0.0000

> <Gold.Chemscore.Lipo.Weighted>
-13.8589

> <Gold.Chemscore.Internal_Hbond.Weighted>
0.0000

> <Gold.Chemscore.DEClash.Weighted>
0.1603

> <Gold.Chemscore.DEInternal.Weighted>
0.9733

> <Gold.Chemscore.Rot.Weighted>
3.3976

> <Gold.Chemscore.Internal.Correction.Weighted>
   9.000000E+99

> <Gold.Protein.RotatedTorsions>
[ 6907 6896 6895 6894 ] final   43.82 input  -60.11 | X-H torsion
[ 7974 7965 7964 7962 ] final   49.68 input  175.53 | X-H torsion
[ 8008 7997 7996 7995 ] final  137.64 input   59.86 | X-H torsion
[ 10167 10162 10161 10158 ] final  -65.62 input  -65.29 | X-H torsion
[ 10718 10713 10712 10709 ] final -172.15 input   66.30 | X-H torsion
[ 10763 10752 10751 10750 ] final  -77.04 input  -60.55 | X-H torsion
[ 11005 11000 10999 10996 ] final  152.76 input  -57.11 | X-H torsion

> <Gold.Protein.ActiveResidues>
 VAL166  LYS551  ARG553  GLY616  TRP617  ASP618  TYR619  PRO620  LYS621  CYS622 
 ASP623  PHE694  ASN695  SER759  ASP760  ASP761  ALA762  ILE779  LEU786  VAL792 
 PHE793  MET794  SER795  GLU796  ALA797  LYS798  CYS799  TRP800  GLU811  SER814 

> <Gold.Protein.RotatedAtoms>
  152.2250  134.8376  160.0480 H   0  0  0  0  0  0  0  0  0  0  0  0  # atno 6907 bound_to 6896
  151.9146  133.3565  159.3884 H   0  0  0  0  0  0  0  0  0  0  0  0  # atno 6908 bound_to 6896
  150.7010  134.4622  159.5430 H   0  0  0  0  0  0  0  0  0  0  0  0  # atno 6909 bound_to 6896
  146.0085  139.4517  142.9971 H   0  0  0  0  0  0  0  0  0  0  0  0  # atno 7974 bound_to 7965
  156.3001  140.2414  156.3943 H   0  0  0  0  0  0  0  0  0  0  0  0  # atno 8008 bound_to 7997
  154.8585  140.0421  157.1670 H   0  0  0  0  0  0  0  0  0  0  0  0  # atno 8009 bound_to 7997
  154.8921  140.2965  155.5368 H   0  0  0  0  0  0  0  0  0  0  0  0  # atno 8010 bound_to 7997
  140.5717  143.2318  151.6525 H   0  0  0  0  0  0  0  0  0  0  0  0  # atno 10167 bound_to 10162
  156.7513  130.9379  151.3114 H   0  0  0  0  0  0  0  0  0  0  0  0  # atno 10718 bound_to 10713
  154.5077  135.5777  153.6580 H   0  0  0  0  0  0  0  0  0  0  0  0  # atno 10763 bound_to 10752
  152.9891  135.6151  154.2919 H   0  0  0  0  0  0  0  0  0  0  0  0  # atno 10764 bound_to 10752
  154.2831  135.2850  155.2667 H   0  0  0  0  0  0  0  0  0  0  0  0  # atno 10765 bound_to 10752
  140.1337  134.8785  157.2238 H   0  0  0  0  0  0  0  0  0  0  0  0  # atno 11005 bound_to 11000
  145.7378  141.0019  143.1317 LP  0  0  0  0  0  0  0  0  0  0  0  0  # atno 17320 bound_to 7965
  144.6944  139.9062  143.7461 LP  0  0  0  0  0  0  0  0  0  0  0  0  # atno 17321 bound_to 7965
  139.5121  144.3488  152.0672 LP  0  0  0  0  0  0  0  0  0  0  0  0  # atno 17342 bound_to 10162
  140.2626  144.4050  150.6180 LP  0  0  0  0  0  0  0  0  0  0  0  0  # atno 17343 bound_to 10162
  157.6776  130.9109  150.0187 LP  0  0  0  0  0  0  0  0  0  0  0  0  # atno 17370 bound_to 10713
  156.1399  130.3642  149.9598 LP  0  0  0  0  0  0  0  0  0  0  0  0  # atno 17371 bound_to 10713
  140.2810  134.3350  155.7343 LP  0  0  0  0  0  0  0  0  0  0  0  0  # atno 17394 bound_to 11000
  141.2174  133.7478  156.9363 LP  0  0  0  0  0  0  0  0  0  0  0  0  # atno 17395 bound_to 11000

$$$$
