AV-unprocessed.smi:1464|AV-procd|sdf|5936|dock6
  -GOLD-   22720 6 13D 1   1.00000     0.00000
 Structure written by MMmdl.
 40 41  0  0  0  0  0  0  0  0  2 V2000
  151.9639  145.8549  160.0846 C   0  0  0  0  0  0  0  0  0  0  0  0
  152.3561  144.4246  159.6778 C   0  0  1  0  0  0  0  0  0  0  0  0
  152.3897  143.4740  160.8918 C   0  0  0  0  0  0  0  0  0  0  0  0
  152.8796  142.0720  160.4964 C   0  0  0  0  0  0  0  0  0  0  0  0
  152.0462  141.4870  159.3465 C   0  0  0  0  0  0  0  0  0  0  0  0
  152.0219  142.4383  158.1346 C   0  0  1  0  0  0  0  0  0  0  0  0
  151.2524  141.8368  157.0479 N   0  0  0  0  0  0  0  0  0  0  0  0
  151.4693  140.6211  156.5227 C   0  0  0  0  0  0  0  0  0  0  0  0
  152.3394  139.8534  156.9363 O   0  0  0  0  0  0  0  0  0  0  0  0
  150.5490  140.2158  155.3610 C   0  0  0  0  0  0  0  0  0  0  0  0
  149.1462  140.6087  155.5590 N   0  0  0  0  0  0  0  0  0  0  0  0
  148.5464  140.0714  156.7774 N   0  5  0  0  0  0  0  0  0  0  0  0
  147.2423  140.3427  157.0492 C   0  0  0  0  0  0  0  0  0  0  0  0
  146.6639  139.9074  158.0423 O   0  0  0  0  0  0  0  0  0  0  0  0
  146.5118  141.1902  156.1215 C   0  0  0  0  0  0  0  0  0  0  0  0
  147.1007  141.7009  155.0221 C   0  0  0  0  0  0  0  0  0  0  0  0
  148.4939  141.4314  154.6879 C   0  0  0  0  0  0  0  0  0  0  0  0
  149.0420  141.9055  153.6921 O   0  0  0  0  0  0  0  0  0  0  0  0
  151.4945  143.8483  158.5224 C   0  0  1  0  0  0  0  0  0  0  0  0
  149.9749  143.8726  158.8106 C   0  0  0  0  0  0  0  0  0  0  0  0
  150.9900  145.8853  160.5730 H   0  0  0  0  0  0  0  0  0  0  0  0
  151.9270  146.5147  159.2174 H   0  0  0  0  0  0  0  0  0  0  0  0
  152.6892  146.2721  160.7835 H   0  0  0  0  0  0  0  0  0  0  0  0
  153.3780  144.4905  159.3003 H   0  0  0  0  0  0  0  0  0  0  0  0
  153.0461  143.8797  161.6623 H   0  0  0  0  0  0  0  0  0  0  0  0
  151.3995  143.4044  161.3427 H   0  0  0  0  0  0  0  0  0  0  0  0
  153.9263  142.1249  160.1942 H   0  0  0  0  0  0  0  0  0  0  0  0
  152.8416  141.4073  161.3599 H   0  0  0  0  0  0  0  0  0  0  0  0
  152.4616  140.5219  159.0540 H   0  0  0  0  0  0  0  0  0  0  0  0
  151.0313  141.2891  159.6932 H   0  0  0  0  0  0  0  0  0  0  0  0
  153.0528  142.5434  157.7902 H   0  0  0  0  0  0  0  0  0  0  0  0
  150.5130  142.3967  156.6493 H   0  0  0  0  0  0  0  0  0  0  0  0
  150.9489  140.6587  154.4473 H   0  0  0  0  0  0  0  0  0  0  0  0
  150.5994  139.1357  155.2103 H   0  0  0  0  0  0  0  0  0  0  0  0
  145.4751  141.4187  156.3198 H   0  0  0  0  0  0  0  0  0  0  0  0
  146.5208  142.3287  154.3621 H   0  0  0  0  0  0  0  0  0  0  0  0
  151.6489  144.4983  157.6597 H   0  0  0  0  0  0  0  0  0  0  0  0
  149.7117  143.2668  159.6767 H   0  0  0  0  0  0  0  0  0  0  0  0
  149.4006  143.4998  157.9627 H   0  0  0  0  0  0  0  0  0  0  0  0
  149.6193  144.8854  158.9959 H   0  0  0  0  0  0  0  0  0  0  0  0
  1  2  1  0  0  0  0
  1 21  1  0  0  0  0
  1 22  1  0  0  0  0
  1 23  1  0  0  0  0
  2 19  1  0  0  0  0
  2  3  1  0  0  0  0
  2 24  1  0  0  0  0
  3  4  1  0  0  0  0
  3 25  1  0  0  0  0
  3 26  1  0  0  0  0
  4  5  1  0  0  0  0
  4 27  1  0  0  0  0
  4 28  1  0  0  0  0
  5  6  1  0  0  0  0
  5 29  1  0  0  0  0
  5 30  1  0  0  0  0
  6  7  1  0  0  0  0
  6 19  1  0  0  0  0
  6 31  1  0  0  0  0
  7  8  1  0  0  0  0
  7 32  1  0  0  0  0
  8  9  2  0  0  0  0
  8 10  1  0  0  0  0
 10 33  1  0  0  0  0
 10 34  1  0  0  0  0
 10 11  1  0  0  0  0
 11 12  1  0  0  0  0
 11 17  1  0  0  0  0
 12 13  1  0  0  0  0
 13 14  2  0  0  0  0
 13 15  1  0  0  0  0
 15 35  1  0  0  0  0
 15 16  2  0  0  0  0
 16 36  1  0  0  0  0
 16 17  1  0  0  0  0
 17 18  2  0  0  0  0
 19 20  1  0  0  0  0
 19 37  1  0  0  0  0
 20 38  1  0  0  0  0
 20 39  1  0  0  0  0
 20 40  1  0  0  0  0
M  CHG  1  12  -1
M  END
> <s_m_source_file>
AV-unprocessed.smi

> <i_m_source_file_index>
1464

> <i_lp_mmshare_version>
43012

> <i_f3d_flags>
0

> <s_epik_input>
W0NIM11bQ0BASF0xW0NIMl1bQ0gyXVtDSDJdW0NASF0oW0NASF0xW0NIM10pW05IXUMoPU8pW0NIMl1uMltuSF1jKD1PKVtjSF1bY0hdYzI9Tw==

> <s_epik_cmdline>
J2VwaWtfcHl0aG9uJywgJy1waCcsICc3LjAnLCAnLXRuJywgJzgnLCAnLW1hJywgJzIwMCcsICctbWV0YWxfYmluZGluZycsICctaW1hZScsICc8aW5maWxlLm1hZT4nLCAnLW9tYWUnLCAnPG91dGZpbGUubWFlPic=

> <r_lp_tautomer_probability>
1

> <r_epik_Ionization_Penalty>
0.101366

> <r_epik_Ionization_Penalty_Charging>
0.101366

> <r_epik_Ionization_Penalty_Neutral>
1.90469e-08

> <r_epik_State_Penalty>
0.035861

> <r_epik_Charging_Adjusted_Penalty>
0.137227

> <i_epik_Tot_Q>
-1

> <i_epik_Tot_abs_Q>
1

> <r_epik_Metal_State_Penalty>
0.035861

> <b_epik_Metal_Only>
0

> <s_lp_Force_Field>
OPLS_2005

> <r_lp_Energy>
30.1614

> <b_lp_Chiralities_Consistent>
1

> <s_lp_Variant>
AV-unprocessed.smi:1464-2

> <Gold.Version>
5.8.1

> <Gold.Id.Protein>
6NUR|6NUR_protein|mol2

> <Gold.PLP.Fitness>
44.5705

> <Gold.PLP.PLP>
-40.1528

> <Gold.PLP.part.hbond>
-3.9133

> <Gold.PLP.part.metal>
0.0000

> <Gold.PLP.part.buried>
-3.7736

> <Gold.PLP.part.nonpolar>
-31.4850

> <Gold.PLP.part.repulsive>
0.4327

> <Gold.PLP.ligand.clash>
0.0000

> <Gold.PLP.ligand.torsion>
0.2827

> <Gold.PLP.Chemscore.Hbond>
1.6560

> <Gold.PLP.Chemscore.CHOScore>
0.0000

> <Gold.PLP.Chemscore.Metal>
0.0000

> <Gold.Chemscore.Hbonds>
donor molecule, donor type, donor heavy atom, donor atom, acceptor molecule, acceptor atom, score
      P1  H  7997  8010       L1     9  0.74
      P1  H  8011  8017       L1    18  0.54

> <Gold.PLP.Chemscore.Internal.Correction>
0.0151

> <Gold.Rescore>
     Score         DG    S(hbond)    S(metal)    S(lipo)     H(rot)  DE(clash)    DE(int)     intcor
     16.37     -18.28       1.62        0.00      99.18       1.64       0.69       1.22       ----

> <Gold.Chemscore.Fitness>
16.3659

> <Gold.Chemscore.DG>
-18.2786

> <Gold.Chemscore.ZeroCoef>
-5.4800

> <Gold.Chemscore.Hbond>
1.6175

> <Gold.Chemscore.Metal>
0.0000

> <Gold.Chemscore.Lipo>
99.1820

> <Gold.Chemscore.Internal_Hbond>
0.0000

> <Gold.Chemscore.DEClash>
0.6912

> <Gold.Chemscore.DEInternal>
1.2215

> <Gold.Chemscore.Rot>
1.6438

> <Gold.Chemscore.Internal.Correction>
   9.000000E+99

> <Gold.Chemscore.Hbonds>
donor molecule, donor type, donor heavy atom, donor atom, acceptor molecule, acceptor atom, score
      P1  H  7997  8010       L1     9  0.71
      P1  H  8011  8017       L1    18  0.54

> <Gold.Chemscore.Hbond.Weighted>
-5.4023

> <Gold.Chemscore.Metal.Weighted>
-0.0000

> <Gold.Chemscore.Lipo.Weighted>
-11.6043

> <Gold.Chemscore.Internal_Hbond.Weighted>
0.0000

> <Gold.Chemscore.DEClash.Weighted>
0.6912

> <Gold.Chemscore.DEInternal.Weighted>
1.2215

> <Gold.Chemscore.Rot.Weighted>
4.2080

> <Gold.Chemscore.Internal.Correction.Weighted>
   9.000000E+99

> <Gold.Protein.RotatedTorsions>
[ 6907 6896 6895 6894 ] final   47.93 input  -60.11 | X-H torsion
[ 7974 7965 7964 7962 ] final  144.92 input  175.53 | X-H torsion
[ 8008 7997 7996 7995 ] final   46.98 input   59.86 | X-H torsion
[ 10167 10162 10161 10158 ] final -110.63 input  -65.29 | X-H torsion
[ 10718 10713 10712 10709 ] final  100.93 input   66.30 | X-H torsion
[ 10763 10752 10751 10750 ] final -122.91 input  -60.55 | X-H torsion
[ 11005 11000 10999 10996 ] final -136.40 input  -57.11 | X-H torsion

> <Gold.Protein.ActiveResidues>
 VAL166  LYS551  ARG553  GLY616  TRP617  ASP618  TYR619  PRO620  LYS621  CYS622 
 ASP623  PHE694  ASN695  SER759  ASP760  ASP761  ALA762  ILE779  LEU786  VAL792 
 PHE793  MET794  SER795  GLU796  ALA797  LYS798  CYS799  TRP800  GLU811  SER814 

> <Gold.Protein.RotatedAtoms>
  152.2737  134.7905  160.0409 H   0  0  0  0  0  0  0  0  0  0  0  0  # atno 6907 bound_to 6896
  151.8509  133.3434  159.3681 H   0  0  0  0  0  0  0  0  0  0  0  0  # atno 6908 bound_to 6896
  150.7162  134.5228  159.5706 H   0  0  0  0  0  0  0  0  0  0  0  0  # atno 6909 bound_to 6896
  144.8796  139.5720  143.5849 H   0  0  0  0  0  0  0  0  0  0  0  0  # atno 7974 bound_to 7965
  155.3614  140.3419  155.4241 H   0  0  0  0  0  0  0  0  0  0  0  0  # atno 8008 bound_to 7997
  156.1711  140.1632  156.8479 H   0  0  0  0  0  0  0  0  0  0  0  0  # atno 8009 bound_to 7997
  154.5234  140.0761  156.8197 H   0  0  0  0  0  0  0  0  0  0  0  0  # atno 8010 bound_to 7997
  140.1423  143.4268  152.1553 H   0  0  0  0  0  0  0  0  0  0  0  0  # atno 10167 bound_to 10162
  157.6842  131.0712  150.5175 H   0  0  0  0  0  0  0  0  0  0  0  0  # atno 10718 bound_to 10713
  154.8698  135.4116  154.2858 H   0  0  0  0  0  0  0  0  0  0  0  0  # atno 10763 bound_to 10752
  153.3743  135.7009  153.6619 H   0  0  0  0  0  0  0  0  0  0  0  0  # atno 10764 bound_to 10752
  153.5468  135.3637  155.2714 H   0  0  0  0  0  0  0  0  0  0  0  0  # atno 10765 bound_to 10752
  140.8808  134.1934  157.4592 H   0  0  0  0  0  0  0  0  0  0  0  0  # atno 11005 bound_to 11000
  146.2985  139.7353  142.9108 LP  0  0  0  0  0  0  0  0  0  0  0  0  # atno 17320 bound_to 7965
  145.3979  141.0381  143.3087 LP  0  0  0  0  0  0  0  0  0  0  0  0  # atno 17321 bound_to 7965
  139.5466  144.7303  151.4565 LP  0  0  0  0  0  0  0  0  0  0  0  0  # atno 17342 bound_to 10162
  140.6753  143.8204  150.7050 LP  0  0  0  0  0  0  0  0  0  0  0  0  # atno 17343 bound_to 10162
  156.5490  130.4227  149.6117 LP  0  0  0  0  0  0  0  0  0  0  0  0  # atno 17370 bound_to 10713
  156.2919  130.7129  151.1980 LP  0  0  0  0  0  0  0  0  0  0  0  0  # atno 17371 bound_to 10713
  139.8719  134.9816  156.5124 LP  0  0  0  0  0  0  0  0  0  0  0  0  # atno 17394 bound_to 11000
  140.8463  133.8166  155.9124 LP  0  0  0  0  0  0  0  0  0  0  0  0  # atno 17395 bound_to 11000

$$$$
