#       Name:                AV-unprocessed.smi:2206
#       Creating user name   scv26
#       Creation time:       Fri Mar 27 12:16:04 2020


#       File generated by GOLD software.
#

@<TRIPOS>MOLECULE
AV-unprocessed.smi:2206
    33    34     1
SMALL
NO_CHARGES


@<TRIPOS>ATOM
      1 ****         6.9165  -3.7865  -1.4836 O.co2          1 S1                 0.0000
      2 ****         7.0071  -3.9397  -0.2453 C.2            1 S1                 0.0000
      3 ****         7.1236  -5.0356   0.3461 O.co2          1 S1                -1.0000
      4 ****         6.9780  -2.6785   0.6202 C.3            1 S1                 0.0000
      5 ****         5.5569  -2.4364   1.0397 C.2            1 S1                 0.0000
      6 ****         4.9576  -2.8417   2.2080 C.2            1 S1                 0.0000
      7 ****         3.2880  -2.3463   2.2942 S.3            1 S1                 0.0000
      8 ****         3.4626  -1.6093   0.7089 C.2            1 S1                 0.0000
      9 ****         2.3823  -0.9331   0.0721 N.am           1 S1                 0.0000
     10 ****         2.2276  -0.5233  -1.2054 C.2            1 S1                 0.0000
     11 ****         3.1125  -0.7013  -2.0413 O.2            1 S1                 0.0000
     12 ****         1.0697   0.0957  -1.4871 N.am           1 S1                 0.0000
     13 ****         0.6839   0.6225  -2.7545 C.3            1 S1                 0.0000
     14 ****        -0.2102   1.8438  -2.7601 C.3            1 S1                 0.0000
     15 ****        -0.7735   0.5040  -3.1444 C.3            1 S1                 0.0000
     16 ****         4.6972  -1.7153   0.2051 N.2            1 S1                 0.0000
     17 ****         7.6265  -2.8121   1.4869 H              1 S1                 0.0000
     18 ****         7.3724  -1.8327   0.0554 H              1 S1                 0.0000
     19 ****         5.3978  -3.4047   3.0174 H              1 S1                 0.0000
     20 ****         1.6085  -0.7144   0.6822 H              1 S1                 0.0000
     21 ****         0.4036   0.1997  -0.7341 H              1 S1                 0.0000
     22 ****         1.4067   0.5556  -3.5663 H              1 S1                 0.0000
     23 ****        -0.5150   2.2575  -1.8002 H              1 S1                 0.0000
     24 ****        -0.0609   2.5720  -3.5546 H              1 S1                 0.0000
     25 ****        -0.9999   0.3369  -4.1954 H              1 S1                 0.0000
     26 ****        -1.4516   0.0249  -2.4401 H              1 S1                 0.0000
     27 ****         6.9346  -4.5825  -2.0886 LP             1 S1                 0.0000
     28 ****         6.8260  -2.8679  -1.8684 LP             1 S1                 0.0000
     29 ****         7.1508  -5.8865  -0.1785 LP             1 S1                 0.0000
     30 ****         7.1895  -5.0609   1.3436 LP             1 S1                 0.0000
     31 ****         3.9637  -1.1561  -1.7793 LP             1 S1                 0.0000
     32 ****         2.9807  -0.3912  -2.9828 LP             1 S1                 0.0000
     33 ****         4.9748  -1.3223  -0.6716 LP             1 S1                 0.0000
@<TRIPOS>BOND
    1    1    2 ar    
    2    2    3 ar    
    3    2    4 1     
    4    4    5 1     
    5    4   17 1     
    6    4   18 1     
    7    5   16 1     
    8    5    6 2     
    9    6    7 1     
   10    6   19 1     
   11    7    8 1     
   12    8    9 1     
   13    8   16 2     
   14    9   10 am    
   15    9   20 1     
   16   10   11 2     
   17   10   12 am    
   18   12   13 1     
   19   12   21 1     
   20   13   15 1     
   21   13   14 1     
   22   13   22 1     
   23   14   15 1     
   24   14   23 1     
   25   14   24 1     
   26   15   25 1     
   27   15   26 1     
   28    1   27 1     
   29    1   28 1     
   30    3   29 1     
   31    3   30 1     
   32   11   31 1     
   33   11   32 1     
   34   16   33 1     
@<TRIPOS>SUBSTRUCTURE
      1 S1             1
@<TRIPOS>SET
LONE_PAIRS      STATIC     ATOMS    <user>   **** ""
7 27 28 29 30 31 32 33
DONOR_HYDROGENS      STATIC     ATOMS    <user>   **** ""
2 20 21
ATOM$BLUE        STATIC     ATOMS    COLORGROUP SYSTEM
7 27 28 29 30 31 32 33
ATOM$RED        STATIC     ATOMS    COLORGROUP SYSTEM
2 20 21
