#       Name:                AV-unprocessed.smi:40
#       Creating user name   scv26
#       Creation time:       Thu Mar 26 16:21:24 2020


#       File generated by GOLD software.
#

@<TRIPOS>MOLECULE
AV-unprocessed.smi:40
    58    59     1
SMALL
NO_CHARGES


@<TRIPOS>ATOM
      1 ****        -4.7396   1.1842   1.2795 C.3            1 S1                 0.0000
      2 ****        -3.2464   0.8596   1.1432 C.3            1 S1                 0.0000
      3 ****        -2.9461  -0.6448   1.0419 C.3            1 S1                 0.0000
      4 ****        -3.4137  -1.2859  -0.2777 C.3            1 S1                 0.0000
      5 ****        -3.0527  -2.7742  -0.3806 C.3            1 S1                 0.0000
      6 ****        -1.6423  -2.9045  -0.3990 O.3            1 S1                 0.0000
      7 ****        -1.0633  -4.1141  -0.5188 C.2            1 S1                 0.0000
      8 ****        -1.6800  -5.1714  -0.6457 O.2            1 S1                 0.0000
      9 ****         0.3788  -3.9964  -0.4371 N.am           1 S1                 0.0000
     10 ****         1.2565  -5.0194  -0.5202 C.2            1 S1                 0.0000
     11 ****         2.1702  -4.9702  -1.4719 N.2            1 S1                 0.0000
     12 ****         3.0927  -5.9594  -1.6876 C.2            1 S1                 0.0000
     13 ****         3.8987  -5.8762  -2.6132 O.2            1 S1                 0.0000
     14 ****         3.0634  -7.0779  -0.8209 N.am           1 S1                 0.0000
     15 ****         4.0378  -8.2135  -1.0418 C.3            1 S1                 0.0000
     16 ****         4.3964  -8.7418   0.2005 O.3            1 S1                 0.0000
     17 ****         4.3720 -10.1629   0.1392 C.3            1 S1                 0.0000
     18 ****         4.2126 -10.7800   1.5368 C.3            1 S1                 0.0000
     19 ****         3.2745 -10.4877  -0.8823 C.3            1 S1                 0.0000
     20 ****         1.9958 -10.4940  -0.2695 O.3            1 S1                 0.0000
     21 ****         3.4408  -9.3565  -1.8935 C.3            1 S1                 0.0000
     22 ****         2.2473  -9.0489  -2.5961 O.3            1 S1                 0.0000
     23 ****         2.1248  -7.1347   0.1982 C.2            1 S1                 0.0000
     24 ****         1.2194  -6.1523   0.3867 C.2            1 S1                 0.0000
     25 ****         0.3235  -6.2328   1.3860 F              1 S1                 0.0000
     26 ****         4.9296  -7.7760  -1.4926 H              1 S1                 0.0000
     27 ****         5.3300 -10.4804  -0.2765 H              1 S1                 0.0000
     28 ****         3.4304 -11.4633  -1.3437 H              1 S1                 0.0000
     29 ****         4.2028  -9.6412  -2.6201 H              1 S1                 0.0000
     30 ****        -4.8904   2.2557   1.4130 H              1 S1                 0.0000
     31 ****        -5.1756   0.6783   2.1414 H              1 S1                 0.0000
     32 ****        -5.2987   0.8834   0.3938 H              1 S1                 0.0000
     33 ****        -2.8320   1.3796   0.2789 H              1 S1                 0.0000
     34 ****        -2.7253   1.2605   2.0132 H              1 S1                 0.0000
     35 ****        -1.8683  -0.7803   1.1408 H              1 S1                 0.0000
     36 ****        -3.3942  -1.1678   1.8875 H              1 S1                 0.0000
     37 ****        -4.4948  -1.1860  -0.3709 H              1 S1                 0.0000
     38 ****        -2.9815  -0.7497  -1.1234 H              1 S1                 0.0000
     39 ****        -3.4702  -3.3281   0.4613 H              1 S1                 0.0000
     40 ****        -3.4715  -3.1971  -1.2947 H              1 S1                 0.0000
     41 ****         0.7332  -3.0520  -0.4024 H              1 S1                 0.0000
     42 ****         4.1543 -11.8670   1.4808 H              1 S1                 0.0000
     43 ****         3.3141 -10.4185   2.0372 H              1 S1                 0.0000
     44 ****         5.0628 -10.5248   2.1697 H              1 S1                 0.0000
     45 ****         1.9742 -11.1864   0.3730 H              1 S1                 0.0000
     46 ****         2.4089  -8.2951  -3.1431 H              1 S1                 0.0000
     47 ****         2.0999  -7.9826   0.8663 H              1 S1                 0.0000
     48 ****        -2.6798  -5.1679  -0.6650 LP             1 S1                 0.0000
     49 ****        -1.1813  -6.0342  -0.7294 LP             1 S1                 0.0000
     50 ****         2.1899  -4.1673  -2.0676 LP             1 S1                 0.0000
     51 ****         3.8851  -5.0799  -3.2180 LP             1 S1                 0.0000
     52 ****         4.5676  -6.6048  -2.7608 LP             1 S1                 0.0000
     53 ****         3.7495  -8.4274   0.8952 LP             1 S1                 0.0000
     54 ****         5.3176  -8.4346   0.4395 LP             1 S1                 0.0000
     55 ****         1.2913 -10.6535  -0.9610 LP             1 S1                 0.0000
     56 ****         1.8315  -9.6145   0.1770 LP             1 S1                 0.0000
     57 ****         1.5158  -8.8437  -1.9458 LP             1 S1                 0.0000
     58 ****         1.9796  -9.8272  -3.1642 LP             1 S1                 0.0000
@<TRIPOS>BOND
    1    1    2 1     
    2    1   30 1     
    3    1   31 1     
    4    1   32 1     
    5    2    3 1     
    6    2   33 1     
    7    2   34 1     
    8    3    4 1     
    9    3   35 1     
   10    3   36 1     
   11    4    5 1     
   12    4   37 1     
   13    4   38 1     
   14    5    6 1     
   15    5   39 1     
   16    5   40 1     
   17    6    7 1     
   18    7    8 2     
   19    7    9 am    
   20    9   10 1     
   21    9   41 1     
   22   10   24 1     
   23   10   11 2     
   24   11   12 1     
   25   12   13 2     
   26   12   14 am    
   27   14   15 1     
   28   14   23 1     
   29   15   26 1     
   30   15   21 1     
   31   15   16 1     
   32   16   17 1     
   33   17   27 1     
   34   17   18 1     
   35   17   19 1     
   36   18   42 1     
   37   18   43 1     
   38   18   44 1     
   39   19   28 1     
   40   19   20 1     
   41   19   21 1     
   42   20   45 1     
   43   21   29 1     
   44   21   22 1     
   45   22   46 1     
   46   23   24 2     
   47   23   47 1     
   48   24   25 1     
   49    8   48 1     
   50    8   49 1     
   51   11   50 1     
   52   13   51 1     
   53   13   52 1     
   54   16   53 1     
   55   16   54 1     
   56   20   55 1     
   57   20   56 1     
   58   22   57 1     
   59   22   58 1     
@<TRIPOS>SUBSTRUCTURE
      1 S1             1
@<TRIPOS>SET
LONE_PAIRS      STATIC     ATOMS    <user>   **** ""
11 48 49 50 51 52 53 54 55 56 57 58
DONOR_HYDROGENS      STATIC     ATOMS    <user>   **** ""
3 41 45 46
ATOM$BLUE        STATIC     ATOMS    COLORGROUP SYSTEM
11 48 49 50 51 52 53 54 55 56 57 58
ATOM$RED        STATIC     ATOMS    COLORGROUP SYSTEM
3 41 45 46
