AV-unprocessed.smi:2409|AV-procd|sdf|9524|dock1
  -GOLD-   2272013153D 1   1.00000     0.00000
 Structure written by MMmdl.
 35 36  0  0  0  0  0  0  0  0  1 V2000
  152.4114  143.8189  158.8588 C   0  0  0  0  0  0  0  0  0  0  0  0
  151.2725  142.9880  158.7126 O   0  0  0  0  0  0  0  0  0  0  0  0
  151.4669  141.9510  157.8702 C   0  0  0  0  0  0  0  0  0  0  0  0
  150.8468  141.5871  156.7072 C   0  0  0  0  0  0  0  0  0  0  0  0
  149.7752  142.2042  156.0135 N   0  0  0  0  0  0  0  0  0  0  0  0
  148.7240  141.6019  155.4274 C   0  0  0  0  0  0  0  0  0  0  0  0
  148.5516  140.3855  155.3952 O   0  0  0  0  0  0  0  0  0  0  0  0
  147.8467  142.4453  154.8549 N   0  0  0  0  0  0  0  0  0  0  0  0
  146.6366  142.1227  154.1573 C   0  0  2  0  0  0  0  0  0  0  0  0
  145.8917  143.2671  153.5044 C   0  0  0  0  0  0  0  0  0  0  0  0
  145.3114  142.5996  154.7232 C   0  0  2  0  0  0  0  0  0  0  0  0
  145.2187  143.3435  156.0410 C   0  0  0  0  0  0  0  0  0  0  0  0
  151.4662  140.3652  156.3253 C   0  0  0  0  0  0  0  0  0  0  0  0
  151.1759  139.4808  155.1470 C   0  0  0  0  0  0  0  0  0  0  0  0
  152.4333  140.0324  157.1732 N   0  0  0  0  0  0  0  0  0  0  0  0
  152.4417  141.0068  158.1156 N   0  0  0  0  0  0  0  0  0  0  0  0
  153.3846  140.9362  159.2128 C   0  0  0  0  0  0  0  0  0  0  0  0
  152.1814  144.6364  159.5418 H   0  0  0  0  0  0  0  0  0  0  0  0
  152.7043  144.2519  157.9013 H   0  0  0  0  0  0  0  0  0  0  0  0
  153.2608  143.2701  159.2668 H   0  0  0  0  0  0  0  0  0  0  0  0
  149.7537  143.2128  156.0444 H   0  0  0  0  0  0  0  0  0  0  0  0
  148.0820  143.4268  154.8896 H   0  0  0  0  0  0  0  0  0  0  0  0
  146.6135  141.1897  153.5960 H   0  0  0  0  0  0  0  0  0  0  0  0
  146.2980  144.2703  153.6206 H   0  0  0  0  0  0  0  0  0  0  0  0
  145.4086  143.0713  152.5492 H   0  0  0  0  0  0  0  0  0  0  0  0
  144.4673  141.9352  154.5475 H   0  0  0  0  0  0  0  0  0  0  0  0
  146.0287  144.0663  156.1442 H   0  0  0  0  0  0  0  0  0  0  0  0
  145.2720  142.6394  156.8716 H   0  0  0  0  0  0  0  0  0  0  0  0
  144.2712  143.8795  156.0997 H   0  0  0  0  0  0  0  0  0  0  0  0
  150.5008  139.9654  154.4418 H   0  0  0  0  0  0  0  0  0  0  0  0
  150.7092  138.5485  155.4650 H   0  0  0  0  0  0  0  0  0  0  0  0
  152.0898  139.2301  154.6081 H   0  0  0  0  0  0  0  0  0  0  0  0
  153.6467  141.9418  159.5428 H   0  0  0  0  0  0  0  0  0  0  0  0
  154.2937  140.4219  158.8984 H   0  0  0  0  0  0  0  0  0  0  0  0
  152.9356  140.3941  160.0452 H   0  0  0  0  0  0  0  0  0  0  0  0
  1  2  1  0  0  0  0
  1 18  1  0  0  0  0
  1 19  1  0  0  0  0
  1 20  1  0  0  0  0
  2  3  1  0  0  0  0
  3 16  1  0  0  0  0
  3  4  2  0  0  0  0
  4  5  1  0  0  0  0
  4 13  1  0  0  0  0
  5  6  1  0  0  0  0
  5 21  1  0  0  0  0
  6  7  2  0  0  0  0
  6  8  1  0  0  0  0
  8  9  1  0  0  0  0
  8 22  1  0  0  0  0
  9 11  1  0  0  0  0
  9 10  1  0  0  0  0
  9 23  1  0  0  0  0
 10 11  1  0  0  0  0
 10 24  1  0  0  0  0
 10 25  1  0  0  0  0
 11 12  1  0  0  0  0
 11 26  1  0  0  0  0
 12 27  1  0  0  0  0
 12 28  1  0  0  0  0
 12 29  1  0  0  0  0
 13 14  1  0  0  0  0
 13 15  2  0  0  0  0
 14 30  1  0  0  0  0
 14 31  1  0  0  0  0
 14 32  1  0  0  0  0
 15 16  1  0  0  0  0
 16 17  1  0  0  0  0
 17 33  1  0  0  0  0
 17 34  1  0  0  0  0
 17 35  1  0  0  0  0
M  END
> <s_m_source_file>
AV-unprocessed.smi

> <i_m_source_file_index>
2409

> <i_lp_mmshare_version>
43012

> <i_f3d_flags>
0

> <s_epik_input>
W0NIM11uMW5jKFtDSDNdKWMoYzFPW0NIM10pW05IXUMoPU8pW05IXVtDQEBIXTJbQ0gyXVtDQEhdMltDSDNd

> <s_epik_cmdline>
J2VwaWtfcHl0aG9uJywgJy1waCcsICc3LjAnLCAnLXRuJywgJzgnLCAnLW1hJywgJzIwMCcsICctbWV0YWxfYmluZGluZycsICctaW1hZScsICc8aW5maWxlLm1hZT4nLCAnLW9tYWUnLCAnPG91dGZpbGUubWFlPic=

> <r_lp_tautomer_probability>
1

> <r_epik_Ionization_Penalty>
0.000417804

> <r_epik_Ionization_Penalty_Charging>
0

> <r_epik_Ionization_Penalty_Neutral>
0.000417804

> <r_epik_State_Penalty>
-0

> <r_epik_Charging_Adjusted_Penalty>
0

> <i_epik_Tot_Q>
0

> <i_epik_Tot_abs_Q>
0

> <r_epik_Metal_State_Penalty>
-0

> <b_epik_Metal_Only>
0

> <s_lp_Force_Field>
OPLS_2005

> <r_lp_Energy>
35.5407

> <b_lp_Chiralities_Consistent>
1

> <s_lp_Variant>
AV-unprocessed.smi:2409-3

> <Gold.Version>
5.8.1

> <Gold.Id.Protein>
6NUR|6NUR_protein|mol2

> <Gold.PLP.Fitness>
41.6345

> <Gold.PLP.PLP>
-33.3229

> <Gold.PLP.part.hbond>
-3.0000

> <Gold.PLP.part.metal>
0.0000

> <Gold.PLP.part.buried>
-4.1819

> <Gold.PLP.part.nonpolar>
-25.8768

> <Gold.PLP.part.repulsive>
0.3913

> <Gold.PLP.ligand.clash>
0.0000

> <Gold.PLP.ligand.torsion>
0.3304

> <Gold.PLP.Chemscore.Hbond>
2.9760

> <Gold.PLP.Chemscore.CHOScore>
0.0000

> <Gold.PLP.Chemscore.Metal>
0.0000

> <Gold.Chemscore.Hbonds>
donor molecule, donor type, donor heavy atom, donor atom, acceptor molecule, acceptor atom, score
      L1  H     5    21       P1  8028  0.98
      L1  H     8    22       P1  8028  1.00
      P1  H  7997  8008       L1    15  1.00

> <Gold.PLP.Chemscore.Internal.Correction>
0.0444

> <Gold.Rescore>
     Score         DG    S(hbond)    S(metal)    S(lipo)     H(rot)  DE(clash)    DE(int)     intcor
     16.37     -17.54       2.31        0.00      64.06       1.23       0.06       1.11       ----

> <Gold.Chemscore.Fitness>
16.3722

> <Gold.Chemscore.DG>
-17.5428

> <Gold.Chemscore.ZeroCoef>
-5.4800

> <Gold.Chemscore.Hbond>
2.3098

> <Gold.Chemscore.Metal>
0.0000

> <Gold.Chemscore.Lipo>
64.0584

> <Gold.Chemscore.Internal_Hbond>
0.0000

> <Gold.Chemscore.DEClash>
0.0561

> <Gold.Chemscore.DEInternal>
1.1145

> <Gold.Chemscore.Rot>
1.2292

> <Gold.Chemscore.Internal.Correction>
   9.000000E+99

> <Gold.Chemscore.Hbonds>
donor molecule, donor type, donor heavy atom, donor atom, acceptor molecule, acceptor atom, score
      L1  H     5    21       P1  8028  0.92
      L1  H     8    22       P1  8028  0.81
      P1  H  7997  8008       L1    15  0.26

> <Gold.Chemscore.Hbond.Weighted>
-7.7146

> <Gold.Chemscore.Metal.Weighted>
-0.0000

> <Gold.Chemscore.Lipo.Weighted>
-7.4948

> <Gold.Chemscore.Internal_Hbond.Weighted>
0.0000

> <Gold.Chemscore.DEClash.Weighted>
0.0561

> <Gold.Chemscore.DEInternal.Weighted>
1.1145

> <Gold.Chemscore.Rot.Weighted>
3.1467

> <Gold.Chemscore.Internal.Correction.Weighted>
   9.000000E+99

> <Gold.Protein.RotatedTorsions>
[ 6907 6896 6895 6894 ] final  144.68 input  -60.11 | X-H torsion
[ 7974 7965 7964 7962 ] final -133.42 input  175.53 | X-H torsion
[ 8008 7997 7996 7995 ] final  -49.84 input   59.86 | X-H torsion
[ 10167 10162 10161 10158 ] final   31.89 input  -65.29 | X-H torsion
[ 10718 10713 10712 10709 ] final   34.25 input   66.30 | X-H torsion
[ 10763 10752 10751 10750 ] final  -19.93 input  -60.55 | X-H torsion
[ 11005 11000 10999 10996 ] final -110.82 input  -57.11 | X-H torsion

> <Gold.Protein.ActiveResidues>
 VAL166  LYS551  ARG553  GLY616  TRP617  ASP618  TYR619  PRO620  LYS621  CYS622 
 ASP623  PHE694  ASN695  SER759  ASP760  ASP761  ALA762  ILE779  LEU786  VAL792 
 PHE793  MET794  SER795  GLU796  ALA797  LYS798  CYS799  TRP800  GLU811  SER814 

> <Gold.Protein.RotatedAtoms>
  152.1906  133.4770  159.5005 H   0  0  0  0  0  0  0  0  0  0  0  0  # atno 6907 bound_to 6896
  150.6950  134.1717  159.4224 H   0  0  0  0  0  0  0  0  0  0  0  0  # atno 6908 bound_to 6896
  151.9632  135.0113  160.0599 H   0  0  0  0  0  0  0  0  0  0  0  0  # atno 6909 bound_to 6896
  144.9195  140.6996  143.4974 H   0  0  0  0  0  0  0  0  0  0  0  0  # atno 7974 bound_to 7965
  154.4051  140.1287  156.4568 H   0  0  0  0  0  0  0  0  0  0  0  0  # atno 8008 bound_to 7997
  155.7312  140.3491  155.5040 H   0  0  0  0  0  0  0  0  0  0  0  0  # atno 8009 bound_to 7997
  155.9125  140.1038  157.1258 H   0  0  0  0  0  0  0  0  0  0  0  0  # atno 8010 bound_to 7997
  140.4548  144.0994  150.6199 H   0  0  0  0  0  0  0  0  0  0  0  0  # atno 10167 bound_to 10162
  157.3080  130.7385  149.6707 H   0  0  0  0  0  0  0  0  0  0  0  0  # atno 10718 bound_to 10713
  153.6125  135.6995  153.5341 H   0  0  0  0  0  0  0  0  0  0  0  0  # atno 10763 bound_to 10752
  153.3004  135.4130  155.1247 H   0  0  0  0  0  0  0  0  0  0  0  0  # atno 10764 bound_to 10752
  154.8560  135.3647  154.5664 H   0  0  0  0  0  0  0  0  0  0  0  0  # atno 10765 bound_to 10752
  141.0770  133.9285  157.2369 H   0  0  0  0  0  0  0  0  0  0  0  0  # atno 11005 bound_to 11000
  145.3320  139.1757  143.4532 LP  0  0  0  0  0  0  0  0  0  0  0  0  # atno 17320 bound_to 7965
  146.3198  140.3350  142.8643 LP  0  0  0  0  0  0  0  0  0  0  0  0  # atno 17321 bound_to 7965
  140.4164  143.2632  151.9770 LP  0  0  0  0  0  0  0  0  0  0  0  0  # atno 17342 bound_to 10162
  139.4800  144.5870  151.7836 LP  0  0  0  0  0  0  0  0  0  0  0  0  # atno 17343 bound_to 10162
  155.9676  130.4260  150.4678 LP  0  0  0  0  0  0  0  0  0  0  0  0  # atno 17370 bound_to 10713
  157.2671  131.0579  151.2283 LP  0  0  0  0  0  0  0  0  0  0  0  0  # atno 17371 bound_to 10713
  139.9582  135.0160  156.9188 LP  0  0  0  0  0  0  0  0  0  0  0  0  # atno 17394 bound_to 11000
  140.5552  134.0588  155.7381 LP  0  0  0  0  0  0  0  0  0  0  0  0  # atno 17395 bound_to 11000

$$$$
