AV-unprocessed.smi:250|AV-procd|sdf|1932|dock8
  -GOLD-   2262021 53D 1   1.00000     0.00000
 Structure written by MMmdl.
 56 60  0  0  0  0  0  0  0  0  1 V2000
  152.4556  143.9244  161.0913 C   0  0  0  0  0  0  0  0  0  0  0  0
  151.8534  143.8492  159.7666 N   0  0  0  0  0  0  0  0  0  0  0  0
  151.2610  144.8475  159.0779 C   0  0  0  0  0  0  0  0  0  0  0  0
  151.1525  146.0180  159.4380 O   0  0  0  0  0  0  0  0  0  0  0  0
  150.8002  144.3459  157.9188 N   0  0  0  0  0  0  0  0  0  0  0  0
  151.3305  143.0183  157.7100 C   0  0  2  0  0  0  0  0  0  0  0  0
  150.5270  141.9436  156.9816 C   0  0  0  0  0  0  0  0  0  0  0  0
  151.3145  140.6994  157.0248 N   0  0  0  0  0  0  0  0  0  0  0  0
  150.8989  139.7303  156.1688 C   0  0  0  0  0  0  0  0  0  0  0  0
  150.1213  140.0620  155.1031 N   0  0  0  0  0  0  0  0  0  0  0  0
  149.7109  139.1232  154.2458 C   0  0  0  0  0  0  0  0  0  0  0  0
  149.9568  137.8126  154.2644 N   0  0  0  0  0  0  0  0  0  0  0  0
  150.7307  137.4692  155.3332 C   0  0  0  0  0  0  0  0  0  0  0  0
  151.2361  138.3553  156.3273 C   0  0  0  0  0  0  0  0  0  0  0  0
  151.9594  137.6369  157.2722 N   0  0  0  0  0  0  0  0  0  0  0  0
  151.8944  136.4023  156.8551 C   0  0  0  0  0  0  0  0  0  0  0  0
  151.1906  136.2123  155.6873 N   0  0  0  0  0  0  0  0  0  0  0  0
  150.9601  134.9464  155.0049 C   0  0  0  0  0  0  0  0  0  0  0  0
  149.5650  134.3041  155.2673 C   0  0  0  0  0  0  0  0  0  0  0  0
  149.3747  133.9859  156.7784 C   0  0  0  0  0  0  0  0  0  0  0  0
  150.4474  133.2313  157.3061 O   0  0  0  0  0  0  0  0  0  0  0  0
  148.4754  135.2799  154.7557 C   0  0  0  0  0  0  0  0  0  0  0  0
  147.0767  134.6406  154.6897 C   0  0  0  0  0  0  0  0  0  0  0  0
  147.1144  133.4771  153.8739 O   0  0  0  0  0  0  0  0  0  0  0  0
  147.9798  132.4725  154.3862 C   0  0  0  0  0  0  0  0  0  0  0  0
  149.4259  132.9988  154.4436 C   0  0  0  0  0  0  0  0  0  0  0  0
  151.8483  140.2647  158.3343 C   0  0  0  0  0  0  0  0  0  0  0  0
  152.5274  141.4116  159.1312 C   0  0  0  0  0  0  0  0  0  0  0  0
  151.5421  142.5805  159.1390 C   0  0  1  0  0  0  0  0  0  0  0  0
  152.2865  143.1493  157.1961 H   0  0  0  0  0  0  0  0  0  0  0  0
  150.6016  142.2427  159.5827 H   0  0  0  0  0  0  0  0  0  0  0  0
  152.5164  144.9507  161.4557 H   0  0  0  0  0  0  0  0  0  0  0  0
  153.4659  143.5160  161.0673 H   0  0  0  0  0  0  0  0  0  0  0  0
  151.8694  143.3449  161.8047 H   0  0  0  0  0  0  0  0  0  0  0  0
  150.3335  144.8818  157.2015 H   0  0  0  0  0  0  0  0  0  0  0  0
  149.5613  141.7835  157.4631 H   0  0  0  0  0  0  0  0  0  0  0  0
  150.3284  142.2660  155.9608 H   0  0  0  0  0  0  0  0  0  0  0  0
  149.0994  139.4724  153.4267 H   0  0  0  0  0  0  0  0  0  0  0  0
  152.3658  135.5904  157.3897 H   0  0  0  0  0  0  0  0  0  0  0  0
  151.1048  135.1118  153.9365 H   0  0  0  0  0  0  0  0  0  0  0  0
  151.7528  134.2582  155.3015 H   0  0  0  0  0  0  0  0  0  0  0  0
  149.2907  134.8937  157.3733 H   0  0  0  0  0  0  0  0  0  0  0  0
  148.4496  133.4349  156.9468 H   0  0  0  0  0  0  0  0  0  0  0  0
  151.0058  132.9631  156.5922 H   0  0  0  0  0  0  0  0  0  0  0  0
  148.4421  136.1798  155.3706 H   0  0  0  0  0  0  0  0  0  0  0  0
  148.7355  135.6178  153.7516 H   0  0  0  0  0  0  0  0  0  0  0  0
  146.6981  134.3957  155.6825 H   0  0  0  0  0  0  0  0  0  0  0  0
  146.3692  135.3459  154.2538 H   0  0  0  0  0  0  0  0  0  0  0  0
  147.6330  132.1393  155.3645 H   0  0  0  0  0  0  0  0  0  0  0  0
  147.9292  131.6046  153.7286 H   0  0  0  0  0  0  0  0  0  0  0  0
  149.7571  133.1792  153.4202 H   0  0  0  0  0  0  0  0  0  0  0  0
  150.0788  132.2208  154.8409 H   0  0  0  0  0  0  0  0  0  0  0  0
  151.0276  139.8569  158.9265 H   0  0  0  0  0  0  0  0  0  0  0  0
  152.5651  139.4556  158.1882 H   0  0  0  0  0  0  0  0  0  0  0  0
  152.7564  141.0845  160.1458 H   0  0  0  0  0  0  0  0  0  0  0  0
  153.4705  141.7001  158.6654 H   0  0  0  0  0  0  0  0  0  0  0  0
  1  2  1  0  0  0  0
  1 32  1  0  0  0  0
  1 33  1  0  0  0  0
  1 34  1  0  0  0  0
  2 29  1  0  0  0  0
  2  3  1  0  0  0  0
  3  4  2  0  0  0  0
  3  5  1  0  0  0  0
  5  6  1  0  0  0  0
  5 35  1  0  0  0  0
  6 30  1  0  0  0  0
  6 29  1  0  0  0  0
  6  7  1  0  0  0  0
  7  8  1  0  0  0  0
  7 36  1  0  0  0  0
  7 37  1  0  0  0  0
  8  9  1  0  0  0  0
  8 27  1  0  0  0  0
  9 14  1  0  0  0  0
  9 10  2  0  0  0  0
 10 11  1  0  0  0  0
 11 12  2  0  0  0  0
 11 38  1  0  0  0  0
 12 13  1  0  0  0  0
 13 17  1  0  0  0  0
 13 14  2  0  0  0  0
 14 15  1  0  0  0  0
 15 16  2  0  0  0  0
 16 17  1  0  0  0  0
 16 39  1  0  0  0  0
 17 18  1  0  0  0  0
 18 19  1  0  0  0  0
 18 40  1  0  0  0  0
 18 41  1  0  0  0  0
 19 26  1  0  0  0  0
 19 20  1  0  0  0  0
 19 22  1  0  0  0  0
 20 21  1  0  0  0  0
 20 42  1  0  0  0  0
 20 43  1  0  0  0  0
 21 44  1  0  0  0  0
 22 23  1  0  0  0  0
 22 45  1  0  0  0  0
 22 46  1  0  0  0  0
 23 24  1  0  0  0  0
 23 47  1  0  0  0  0
 23 48  1  0  0  0  0
 24 25  1  0  0  0  0
 25 26  1  0  0  0  0
 25 49  1  0  0  0  0
 25 50  1  0  0  0  0
 26 51  1  0  0  0  0
 26 52  1  0  0  0  0
 27 28  1  0  0  0  0
 27 53  1  0  0  0  0
 27 54  1  0  0  0  0
 28 29  1  0  0  0  0
 28 55  1  0  0  0  0
 28 56  1  0  0  0  0
 29 31  1  0  0  0  0
M  END
> <s_m_source_file>
AV-unprocessed.smi

> <i_m_source_file_index>
250

> <i_lp_mmshare_version>
43012

> <i_f3d_flags>
0

> <s_epik_input>
Tz1DKFtOSF0xKU4oW0NIM10pW0NASF0oW0NASF0xMilbQ0gyXVtDSDJdTihbQ0gyXTIpYyhuW2NIXW4zKWMoYzM0KW5bY0hdbjRbQ0gyXUM1KFtDSDJdW09IXSlbQ0gyXVtDSDJdT1tDSDJdW0NIMl01

> <s_epik_cmdline>
J2VwaWtfcHl0aG9uJywgJy1waCcsICc3LjAnLCAnLXRuJywgJzgnLCAnLW1hJywgJzIwMCcsICctbWV0YWxfYmluZGluZycsICctaW1hZScsICc8aW5maWxlLm1hZT4nLCAnLW9tYWUnLCAnPG91dGZpbGUubWFlPic=

> <r_lp_tautomer_probability>
1

> <r_epik_Ionization_Penalty>
0.00229024

> <r_epik_Ionization_Penalty_Charging>
0

> <r_epik_Ionization_Penalty_Neutral>
0.00229024

> <r_epik_State_Penalty>
0.0013961

> <r_epik_Charging_Adjusted_Penalty>
0.0013961

> <i_epik_Tot_Q>
0

> <i_epik_Tot_abs_Q>
0

> <r_epik_Metal_State_Penalty>
-0

> <b_epik_Metal_Only>
0

> <s_lp_Force_Field>
OPLS_2005

> <r_lp_Energy>
71.8921

> <b_lp_Chiralities_Consistent>
1

> <s_lp_Variant>
AV-unprocessed.smi:250-3

> <Gold.Version>
5.8.1

> <Gold.Id.Protein>
6NUR|6NUR_protein|mol2

> <Gold.PLP.Fitness>
48.6261

> <Gold.PLP.PLP>
-40.9654

> <Gold.PLP.part.hbond>
-4.1690

> <Gold.PLP.part.metal>
0.0000

> <Gold.PLP.part.buried>
-4.2658

> <Gold.PLP.part.nonpolar>
-34.2231

> <Gold.PLP.part.repulsive>
1.3273

> <Gold.PLP.ligand.clash>
0.0000

> <Gold.PLP.ligand.torsion>
0.4661

> <Gold.PLP.Chemscore.Hbond>
1.7635

> <Gold.PLP.Chemscore.CHOScore>
1.0000

> <Gold.PLP.Chemscore.Metal>
0.0000

> <Gold.Chemscore.Hbonds>
donor molecule, donor type, donor heavy atom, donor atom, acceptor molecule, acceptor atom, score
      L1  H     5    35       P1  8028  0.79
      P1  H  6896  6909       L1    21  1.00
      P1  H  7989  7998       L1    10  0.11
      L1  C    11    38       P1  7957  1.00

> <Gold.PLP.Chemscore.Internal.Correction>
0.3024

> <Gold.Rescore>
     Score         DG    S(hbond)    S(metal)    S(lipo)     H(rot)  DE(clash)    DE(int)     intcor
      9.77     -12.80       0.95        0.00      84.05       2.22       0.06       2.96       ----

> <Gold.Chemscore.Fitness>
9.7716

> <Gold.Chemscore.DG>
-12.7961

> <Gold.Chemscore.ZeroCoef>
-5.4800

> <Gold.Chemscore.Hbond>
0.9456

> <Gold.Chemscore.Metal>
0.0000

> <Gold.Chemscore.Lipo>
84.0458

> <Gold.Chemscore.Internal_Hbond>
0.0000

> <Gold.Chemscore.DEClash>
0.0621

> <Gold.Chemscore.DEInternal>
2.9624

> <Gold.Chemscore.Rot>
2.2170

> <Gold.Chemscore.Internal.Correction>
   9.000000E+99

> <Gold.Chemscore.Hbonds>
donor molecule, donor type, donor heavy atom, donor atom, acceptor molecule, acceptor atom, score
      L1  H     5    35       P1  8028  0.22
      P1  H  6896  6909       L1    21  0.89

> <Gold.Chemscore.Hbond.Weighted>
-3.1584

> <Gold.Chemscore.Metal.Weighted>
-0.0000

> <Gold.Chemscore.Lipo.Weighted>
-9.8334

> <Gold.Chemscore.Internal_Hbond.Weighted>
0.0000

> <Gold.Chemscore.DEClash.Weighted>
0.0621

> <Gold.Chemscore.DEInternal.Weighted>
2.9624

> <Gold.Chemscore.Rot.Weighted>
5.6756

> <Gold.Chemscore.Internal.Correction.Weighted>
   9.000000E+99

> <Gold.Protein.RotatedTorsions>
[ 6907 6896 6895 6894 ] final  -21.91 input  -60.11 | X-H torsion
[ 7974 7965 7964 7962 ] final  -80.33 input  175.53 | X-H torsion
[ 8008 7997 7996 7995 ] final -172.13 input   59.86 | X-H torsion
[ 10167 10162 10161 10158 ] final -149.89 input  -65.29 | X-H torsion
[ 10718 10713 10712 10709 ] final  117.18 input   66.30 | X-H torsion
[ 10763 10752 10751 10750 ] final   79.77 input  -60.55 | X-H torsion
[ 11005 11000 10999 10996 ] final   29.82 input  -57.11 | X-H torsion

> <Gold.Protein.ActiveResidues>
 VAL166  LYS551  ARG553  GLY616  TRP617  ASP618  TYR619  PRO620  LYS621  CYS622 
 ASP623  PHE694  ASN695  SER759  ASP760  ASP761  ALA762  ILE779  LEU786  VAL792 
 PHE793  MET794  SER795  GLU796  ALA797  LYS798  CYS799  TRP800  GLU811  SER814 

> <Gold.Protein.RotatedAtoms>
  151.2263  135.0538  159.8969 H   0  0  0  0  0  0  0  0  0  0  0  0  # atno 6907 bound_to 6896
  152.5410  134.0585  159.8152 H   0  0  0  0  0  0  0  0  0  0  0  0  # atno 6908 bound_to 6896
  151.0759  133.5380  159.2655 H   0  0  0  0  0  0  0  0  0  0  0  0  # atno 6909 bound_to 6896
  145.5614  140.9481  143.1445 H   0  0  0  0  0  0  0  0  0  0  0  0  # atno 7974 bound_to 7965
  155.9406  140.1108  157.1058 H   0  0  0  0  0  0  0  0  0  0  0  0  # atno 8008 bound_to 7997
  154.4088  140.1220  156.4988 H   0  0  0  0  0  0  0  0  0  0  0  0  # atno 8009 bound_to 7997
  155.6966  140.3472  155.4918 H   0  0  0  0  0  0  0  0  0  0  0  0  # atno 8010 bound_to 7997
  139.7402  143.8673  152.2560 H   0  0  0  0  0  0  0  0  0  0  0  0  # atno 10167 bound_to 10162
  157.6113  131.1034  150.7578 H   0  0  0  0  0  0  0  0  0  0  0  0  # atno 10718 bound_to 10713
  153.0979  135.4827  154.8813 H   0  0  0  0  0  0  0  0  0  0  0  0  # atno 10763 bound_to 10752
  154.7345  135.3068  154.8837 H   0  0  0  0  0  0  0  0  0  0  0  0  # atno 10764 bound_to 10752
  153.9462  135.6828  153.4797 H   0  0  0  0  0  0  0  0  0  0  0  0  # atno 10765 bound_to 10752
  140.3009  134.2757  155.7754 H   0  0  0  0  0  0  0  0  0  0  0  0  # atno 11005 bound_to 11000
  144.7481  139.7266  143.7284 LP  0  0  0  0  0  0  0  0  0  0  0  0  # atno 17320 bound_to 7965
  146.1848  139.5058  142.9843 LP  0  0  0  0  0  0  0  0  0  0  0  0  # atno 17321 bound_to 7965
  139.8622  144.7111  150.9086 LP  0  0  0  0  0  0  0  0  0  0  0  0  # atno 17342 bound_to 10162
  140.7785  143.3808  151.1480 LP  0  0  0  0  0  0  0  0  0  0  0  0  # atno 17343 bound_to 10162
  156.7955  130.4904  149.5378 LP  0  0  0  0  0  0  0  0  0  0  0  0  # atno 17370 bound_to 10713
  156.1217  130.6115  151.0203 LP  0  0  0  0  0  0  0  0  0  0  0  0  # atno 17371 bound_to 10713
  141.2128  133.7645  156.9766 LP  0  0  0  0  0  0  0  0  0  0  0  0  # atno 17394 bound_to 11000
  140.1110  134.9477  157.2065 LP  0  0  0  0  0  0  0  0  0  0  0  0  # atno 17395 bound_to 11000

$$$$
