AV-unprocessed.smi:1283|AV-procd|sdf|5362|dock3
  -GOLD-   22720 4503D 1   1.00000     0.00000
 Structure written by MMmdl.
 30 31  0  0  0  0  0  0  0  0  1 V2000
  154.6510  136.1456  162.6895 C   0  0  0  0  0  0  0  0  0  0  0  0
  154.2878  137.3285  161.9076 N   0  0  0  0  0  0  0  0  0  0  0  0
  154.4755  138.5116  162.5913 N   0  0  0  0  0  0  0  0  0  0  0  0
  154.1905  139.6295  162.0180 C   0  0  0  0  0  0  0  0  0  0  0  0
  153.6722  139.7090  160.6617 C   0  0  0  0  0  0  0  0  0  0  0  0
  153.3638  140.9162  160.0498 N   0  0  0  0  0  0  0  0  0  0  0  0
  153.4867  142.2572  160.5996 C   0  0  0  0  0  0  0  0  0  0  0  0
  152.3636  143.1889  160.1175 C   0  0  1  0  0  0  0  0  0  0  0  0
  152.1134  144.4297  160.9778 C   0  0  0  0  0  0  0  0  0  0  0  0
  151.4730  145.3615  159.9737 C   0  0  0  0  0  0  0  0  0  0  0  0
  152.2680  145.0478  158.7088 C   0  0  0  0  0  0  0  0  0  0  0  0
  152.6187  143.6692  158.7997 O   0  0  0  0  0  0  0  0  0  0  0  0
  153.4991  138.5290  160.0084 C   0  0  0  0  0  0  0  0  0  0  0  0
  152.8905  138.5113  158.3864 Cl  0  0  0  0  0  0  0  0  0  0  0  0
  153.8141  137.2337  160.6295 C   0  0  0  0  0  0  0  0  0  0  0  0
  153.6661  136.1552  160.0534 O   0  0  0  0  0  0  0  0  0  0  0  0
  154.5061  135.2015  162.1632 H   0  0  0  0  0  0  0  0  0  0  0  0
  154.0545  136.1028  163.6017 H   0  0  0  0  0  0  0  0  0  0  0  0
  155.7010  136.1975  162.9796 H   0  0  0  0  0  0  0  0  0  0  0  0
  154.3273  140.5791  162.5348 H   0  0  0  0  0  0  0  0  0  0  0  0
  153.0110  140.8752  159.1039 H   0  0  0  0  0  0  0  0  0  0  0  0
  153.4726  142.1960  161.6880 H   0  0  0  0  0  0  0  0  0  0  0  0
  154.4542  142.6709  160.3134 H   0  0  0  0  0  0  0  0  0  0  0  0
  151.4352  142.6183  160.0654 H   0  0  0  0  0  0  0  0  0  0  0  0
  151.4791  144.2279  161.8413 H   0  0  0  0  0  0  0  0  0  0  0  0
  153.0481  144.8632  161.3355 H   0  0  0  0  0  0  0  0  0  0  0  0
  150.4235  145.0986  159.8336 H   0  0  0  0  0  0  0  0  0  0  0  0
  151.5282  146.4111  160.2637 H   0  0  0  0  0  0  0  0  0  0  0  0
  151.7045  145.2581  157.7996 H   0  0  0  0  0  0  0  0  0  0  0  0
  153.1858  145.6365  158.6826 H   0  0  0  0  0  0  0  0  0  0  0  0
  1  2  1  0  0  0  0
  1 17  1  0  0  0  0
  1 18  1  0  0  0  0
  1 19  1  0  0  0  0
  2 15  1  0  0  0  0
  2  3  1  0  0  0  0
  3  4  2  0  0  0  0
  4  5  1  0  0  0  0
  4 20  1  0  0  0  0
  5  6  1  0  0  0  0
  5 13  2  0  0  0  0
  6  7  1  0  0  0  0
  6 21  1  0  0  0  0
  7  8  1  0  0  0  0
  7 22  1  0  0  0  0
  7 23  1  0  0  0  0
  8 12  1  0  0  0  0
  8  9  1  0  0  0  0
  8 24  1  0  0  0  0
  9 10  1  0  0  0  0
  9 25  1  0  0  0  0
  9 26  1  0  0  0  0
 10 11  1  0  0  0  0
 10 27  1  0  0  0  0
 10 28  1  0  0  0  0
 11 12  1  0  0  0  0
 11 29  1  0  0  0  0
 11 30  1  0  0  0  0
 13 14  1  0  0  0  0
 13 15  1  0  0  0  0
 15 16  2  0  0  0  0
M  END
> <s_m_source_file>
AV-unprocessed.smi

> <i_m_source_file_index>
1283

> <i_lp_mmshare_version>
43012

> <i_f3d_flags>
0

> <s_epik_input>
W0NIM11uMW5bY0hdYyhjKENsKWMxPU8pW05IXVtDSDJdW0NAQEhdMltDSDJdW0NIMl1bQ0gyXU8y

> <s_epik_cmdline>
J2VwaWtfcHl0aG9uJywgJy1waCcsICc3LjAnLCAnLXRuJywgJzgnLCAnLW1hJywgJzIwMCcsICctbWV0YWxfYmluZGluZycsICctaW1hZScsICc8aW5maWxlLm1hZT4nLCAnLW9tYWUnLCAnPG91dGZpbGUubWFlPic=

> <r_lp_tautomer_probability>
1

> <r_epik_Ionization_Penalty>
2.40876e-05

> <r_epik_Ionization_Penalty_Charging>
4.17655e-09

> <r_epik_Ionization_Penalty_Neutral>
2.40834e-05

> <r_epik_State_Penalty>
-0

> <r_epik_Charging_Adjusted_Penalty>
4.17655e-09

> <i_epik_Tot_Q>
0

> <i_epik_Tot_abs_Q>
0

> <r_epik_Metal_State_Penalty>
-0

> <b_epik_Metal_Only>
0

> <s_lp_Force_Field>
OPLS_2005

> <r_lp_Energy>
41.0811

> <b_lp_Chiralities_Consistent>
1

> <s_lp_Variant>
AV-unprocessed.smi:1283-2

> <Gold.Version>
5.8.1

> <Gold.Id.Protein>
6NUR|6NUR_protein|mol2

> <Gold.PLP.Fitness>
37.7787

> <Gold.PLP.PLP>
-35.4929

> <Gold.PLP.part.hbond>
-1.0000

> <Gold.PLP.part.metal>
0.0000

> <Gold.PLP.part.buried>
-6.0597

> <Gold.PLP.part.nonpolar>
-28.4269

> <Gold.PLP.part.repulsive>
0.0852

> <Gold.PLP.ligand.clash>
0.0000

> <Gold.PLP.ligand.torsion>
0.3574

> <Gold.PLP.Chemscore.Hbond>
1.0000

> <Gold.PLP.Chemscore.CHOScore>
0.0000

> <Gold.PLP.Chemscore.Metal>
0.0000

> <Gold.Chemscore.Hbonds>
donor molecule, donor type, donor heavy atom, donor atom, acceptor molecule, acceptor atom, score
      P1  H  6896  6908       L1    16  1.00

> <Gold.PLP.Chemscore.Internal.Correction>
0.0004

> <Gold.Rescore>
     Score         DG    S(hbond)    S(metal)    S(lipo)     H(rot)  DE(clash)    DE(int)     intcor
     16.24     -16.65       0.99        0.00      93.88       1.22       0.03       0.38       ----

> <Gold.Chemscore.Fitness>
16.2366

> <Gold.Chemscore.DG>
-16.6493

> <Gold.Chemscore.ZeroCoef>
-5.4800

> <Gold.Chemscore.Hbond>
0.9913

> <Gold.Chemscore.Metal>
0.0000

> <Gold.Chemscore.Lipo>
93.8785

> <Gold.Chemscore.Internal_Hbond>
0.0000

> <Gold.Chemscore.DEClash>
0.0321

> <Gold.Chemscore.DEInternal>
0.3805

> <Gold.Chemscore.Rot>
1.2208

> <Gold.Chemscore.Internal.Correction>
   9.000000E+99

> <Gold.Chemscore.Hbonds>
donor molecule, donor type, donor heavy atom, donor atom, acceptor molecule, acceptor atom, score
      P1  H  6896  6908       L1    16  0.95

> <Gold.Chemscore.Hbond.Weighted>
-3.3108

> <Gold.Chemscore.Metal.Weighted>
-0.0000

> <Gold.Chemscore.Lipo.Weighted>
-10.9838

> <Gold.Chemscore.Internal_Hbond.Weighted>
0.0000

> <Gold.Chemscore.DEClash.Weighted>
0.0321

> <Gold.Chemscore.DEInternal.Weighted>
0.3805

> <Gold.Chemscore.Rot.Weighted>
3.1253

> <Gold.Chemscore.Internal.Correction.Weighted>
   9.000000E+99

> <Gold.Protein.RotatedTorsions>
[ 6907 6896 6895 6894 ] final  -52.65 input  -60.11 | X-H torsion
[ 7974 7965 7964 7962 ] final -170.27 input  175.53 | X-H torsion
[ 8008 7997 7996 7995 ] final  -73.39 input   59.86 | X-H torsion
[ 10167 10162 10161 10158 ] final  168.31 input  -65.29 | X-H torsion
[ 10718 10713 10712 10709 ] final   -5.55 input   66.30 | X-H torsion
[ 10763 10752 10751 10750 ] final    5.27 input  -60.55 | X-H torsion
[ 11005 11000 10999 10996 ] final  -28.14 input  -57.11 | X-H torsion

> <Gold.Protein.ActiveResidues>
 VAL166  LYS551  ARG553  GLY616  TRP617  ASP618  TYR619  PRO620  LYS621  CYS622 
 ASP623  PHE694  ASN695  SER759  ASP760  ASP761  ALA762  ILE779  LEU786  VAL792 
 PHE793  MET794  SER795  GLU796  ALA797  LYS798  CYS799  TRP800  GLU811  SER814 

> <Gold.Protein.RotatedAtoms>
  150.8498  134.7819  159.6999 H   0  0  0  0  0  0  0  0  0  0  0  0  # atno 6907 bound_to 6896
  152.4566  134.5275  159.9811 H   0  0  0  0  0  0  0  0  0  0  0  0  # atno 6908 bound_to 6896
  151.5399  133.3396  159.2969 H   0  0  0  0  0  0  0  0  0  0  0  0  # atno 6909 bound_to 6896
  144.7172  140.2097  143.6329 H   0  0  0  0  0  0  0  0  0  0  0  0  # atno 7974 bound_to 7965
  154.5244  140.0780  156.8231 H   0  0  0  0  0  0  0  0  0  0  0  0  # atno 8008 bound_to 7997
  155.3507  140.3412  155.4221 H   0  0  0  0  0  0  0  0  0  0  0  0  # atno 8009 bound_to 7997
  156.1715  140.1621  156.8425 H   0  0  0  0  0  0  0  0  0  0  0  0  # atno 8010 bound_to 7997
  139.4965  144.3828  151.9603 H   0  0  0  0  0  0  0  0  0  0  0  0  # atno 10167 bound_to 10162
  156.7449  130.5221  149.5816 H   0  0  0  0  0  0  0  0  0  0  0  0  # atno 10718 bound_to 10713
  153.2613  135.6923  153.7575 H   0  0  0  0  0  0  0  0  0  0  0  0  # atno 10763 bound_to 10752
  153.6633  135.3356  155.3134 H   0  0  0  0  0  0  0  0  0  0  0  0  # atno 10764 bound_to 10752
  154.8431  135.4482  154.1604 H   0  0  0  0  0  0  0  0  0  0  0  0  # atno 10765 bound_to 10752
  140.9182  133.7416  156.0764 H   0  0  0  0  0  0  0  0  0  0  0  0  # atno 11005 bound_to 11000
  145.8603  139.2219  143.1720 LP  0  0  0  0  0  0  0  0  0  0  0  0  # atno 17320 bound_to 7965
  146.0180  140.8375  142.9938 LP  0  0  0  0  0  0  0  0  0  0  0  0  # atno 17321 bound_to 7965
  140.3265  144.3366  150.5997 LP  0  0  0  0  0  0  0  0  0  0  0  0  # atno 17342 bound_to 10162
  140.5680  143.2184  151.7649 LP  0  0  0  0  0  0  0  0  0  0  0  0  # atno 17343 bound_to 10162
  156.1439  130.6264  151.0505 LP  0  0  0  0  0  0  0  0  0  0  0  0  # atno 17370 bound_to 10713
  157.6802  131.0840  150.7389 LP  0  0  0  0  0  0  0  0  0  0  0  0  # atno 17371 bound_to 10713
  140.8023  134.3495  157.5436 LP  0  0  0  0  0  0  0  0  0  0  0  0  # atno 17394 bound_to 11000
  139.8770  134.9205  156.3252 LP  0  0  0  0  0  0  0  0  0  0  0  0  # atno 17395 bound_to 11000

$$$$
