#       Name:                AV-unprocessed.smi:33
#       Creating user name   scv26
#       Creation time:       Thu Mar 26 15:50:22 2020


#       File generated by GOLD software.
#

@<TRIPOS>MOLECULE
AV-unprocessed.smi:33
    80    85     1
SMALL
NO_CHARGES


@<TRIPOS>ATOM
      1 ****        -4.0676   1.9176  -2.8115 O.2            1 S1                 0.0000
      2 ****        -4.3806   2.3986  -1.7204 C.2            1 S1                 0.0000
      3 ****        -4.8994   1.6768  -0.7078 O.3            1 S1                 0.0000
      4 ****        -5.1049   0.2819  -0.8615 C.3            1 S1                 0.0000
      5 ****        -5.3583  -0.3516   0.5137 C.3            1 S1                 0.0000
      6 ****        -4.1669  -0.2856   1.3063 O.3            1 S1                 0.0000
      7 ****        -3.6459  -1.5638   1.5239 C.3            1 S1                 0.0000
      8 ****        -2.1618  -1.5275   1.3418 N.pl3          1 S1                 0.0000
      9 ****        -1.2303  -2.2771   2.0254 C.2            1 S1                 0.0000
     10 ****         0.0128  -2.0830   1.6786 N.2            1 S1                 0.0000
     11 ****        -0.0652  -1.1191   0.6826 C.ar           1 S1                 0.0000
     12 ****         0.8978  -0.4549  -0.1244 C.ar           1 S1                 0.0000
     13 ****         2.2267  -0.6982  -0.0309 N.am           1 S1                 0.0000
     14 ****         2.8718  -1.3744  -1.1667 C.2            1 S1                 0.0000
     15 ****         2.1934  -2.0735  -1.9222 O.2            1 S1                 0.0000
     16 ****         4.3562  -1.2694  -1.3767 C.ar           1 S1                 0.0000
     17 ****         5.1145  -2.4302  -1.6447 C.ar           1 S1                 0.0000
     18 ****         6.5043  -2.3386  -1.8533 C.ar           1 S1                 0.0000
     19 ****         7.1420  -1.0841  -1.8137 C.ar           1 S1                 0.0000
     20 ****         6.3877   0.0805  -1.5761 C.ar           1 S1                 0.0000
     21 ****         4.9978  -0.0101  -1.3669 C.ar           1 S1                 0.0000
     22 ****         2.8979  -0.2728   1.2060 C.2            1 S1                 0.0000
     23 ****         2.4296   0.6597   1.8617 O.2            1 S1                 0.0000
     24 ****         4.1708  -0.9367   1.6496 C.ar           1 S1                 0.0000
     25 ****         5.2641  -0.1541   2.0818 C.ar           1 S1                 0.0000
     26 ****         6.4532  -0.7726   2.5143 C.ar           1 S1                 0.0000
     27 ****         6.5505  -2.1770   2.5345 C.ar           1 S1                 0.0000
     28 ****         5.4543  -2.9636   2.1323 C.ar           1 S1                 0.0000
     29 ****         4.2650  -2.3459   1.6998 C.ar           1 S1                 0.0000
     30 ****         0.4535   0.4560  -1.0287 N.ar           1 S1                 0.0000
     31 ****        -0.8558   0.6992  -1.1353 C.ar           1 S1                 0.0000
     32 ****        -1.8634   0.1526  -0.4517 N.ar           1 S1                 0.0000
     33 ****        -1.4239  -0.7619   0.4597 C.ar           1 S1                 0.0000
     34 ****        -4.3001  -2.4821   0.4964 C.3            1 S1                 0.0000
     35 ****        -4.4004  -3.8291   0.9134 O.3            1 S1                 0.0000
     36 ****        -5.6765  -1.8450   0.4072 C.3            1 S1                 0.0000
     37 ****        -6.4259  -2.1778   1.4623 F              1 S1                 0.0000
     38 ****        -4.2220   3.8423  -1.3827 C.ar           1 S1                 0.0000
     39 ****        -3.7143   4.7299  -2.3600 C.ar           1 S1                 0.0000
     40 ****        -3.5540   6.0991  -2.0714 C.ar           1 S1                 0.0000
     41 ****        -3.8988   6.5973  -0.8016 C.ar           1 S1                 0.0000
     42 ****        -4.4039   5.7243   0.1796 C.ar           1 S1                 0.0000
     43 ****        -4.5650   4.3546  -0.1071 C.ar           1 S1                 0.0000
     44 ****        -5.9703   0.1287  -1.5071 H              1 S1                 0.0000
     45 ****        -4.2546  -0.1934  -1.3500 H              1 S1                 0.0000
     46 ****        -6.1693   0.1810   1.0123 H              1 S1                 0.0000
     47 ****        -3.8130  -1.8664   2.5589 H              1 S1                 0.0000
     48 ****        -1.5063  -2.9854   2.7930 H              1 S1                 0.0000
     49 ****         4.6363  -3.3987  -1.6762 H              1 S1                 0.0000
     50 ****         7.0811  -3.2316  -2.0437 H              1 S1                 0.0000
     51 ****         8.2081  -1.0145  -1.9723 H              1 S1                 0.0000
     52 ****         6.8747   1.0441  -1.5547 H              1 S1                 0.0000
     53 ****         4.4287   0.8912  -1.1900 H              1 S1                 0.0000
     54 ****         5.2003   0.9245   2.0717 H              1 S1                 0.0000
     55 ****         7.2903  -0.1691   2.8324 H              1 S1                 0.0000
     56 ****         7.4627  -2.6507   2.8661 H              1 S1                 0.0000
     57 ****         5.5244  -4.0412   2.1572 H              1 S1                 0.0000
     58 ****         3.4282  -2.9598   1.3989 H              1 S1                 0.0000
     59 ****        -1.1379   1.4351  -1.8742 H              1 S1                 0.0000
     60 ****        -3.7776  -2.4059  -0.4587 H              1 S1                 0.0000
     61 ****        -3.5278  -4.1830   0.9945 H              1 S1                 0.0000
     62 ****        -6.2307  -2.1186  -0.4913 H              1 S1                 0.0000
     63 ****        -3.4430   4.3708  -3.3424 H              1 S1                 0.0000
     64 ****        -3.1663   6.7674  -2.8261 H              1 S1                 0.0000
     65 ****        -3.7760   7.6473  -0.5806 H              1 S1                 0.0000
     66 ****        -4.6688   6.1055   1.1550 H              1 S1                 0.0000
     67 ****        -4.9550   3.7122   0.6689 H              1 S1                 0.0000
     68 ****        -4.1948   0.9405  -2.9822 LP             1 S1                 0.0000
     69 ****        -3.6864   2.5045  -3.5258 LP             1 S1                 0.0000
     70 ****        -4.3819   0.1354   2.1875 LP             1 S1                 0.0000
     71 ****        -3.4856   0.2695   0.8291 LP             1 S1                 0.0000
     72 ****         0.8312  -2.5257   2.0451 LP             1 S1                 0.0000
     73 ****         1.2121  -2.1775  -1.7606 LP             1 S1                 0.0000
     74 ****         2.6245  -2.5366  -2.6966 LP             1 S1                 0.0000
     75 ****         1.5987   1.1214   1.5514 LP             1 S1                 0.0000
     76 ****         2.8806   0.9547   2.7041 LP             1 S1                 0.0000
     77 ****         1.1037   0.9425  -1.6122 LP             1 S1                 0.0000
     78 ****        -2.8257   0.3858  -0.5911 LP             1 S1                 0.0000
     79 ****        -4.9161  -4.3544   0.2366 LP             1 S1                 0.0000
     80 ****        -4.8667  -3.8751   1.7969 LP             1 S1                 0.0000
@<TRIPOS>BOND
    1    1    2 2     
    2    2    3 1     
    3    2   38 1     
    4    3    4 1     
    5    4    5 1     
    6    4   44 1     
    7    4   45 1     
    8    5   36 1     
    9    5    6 1     
   10    5   46 1     
   11    6    7 1     
   12    7    8 1     
   13    7   34 1     
   14    7   47 1     
   15    8   33 1     
   16    8    9 1     
   17    9   10 2     
   18    9   48 1     
   19   10   11 1     
   20   11   33 ar    
   21   11   12 ar    
   22   12   13 1     
   23   12   30 ar    
   24   13   14 am    
   25   13   22 am    
   26   14   15 2     
   27   14   16 1     
   28   16   21 ar    
   29   16   17 ar    
   30   17   18 ar    
   31   17   49 1     
   32   18   19 ar    
   33   18   50 1     
   34   19   20 ar    
   35   19   51 1     
   36   20   21 ar    
   37   20   52 1     
   38   21   53 1     
   39   22   23 2     
   40   22   24 1     
   41   24   29 ar    
   42   24   25 ar    
   43   25   26 ar    
   44   25   54 1     
   45   26   27 ar    
   46   26   55 1     
   47   27   28 ar    
   48   27   56 1     
   49   28   29 ar    
   50   28   57 1     
   51   29   58 1     
   52   30   31 ar    
   53   31   32 ar    
   54   31   59 1     
   55   32   33 ar    
   56   34   35 1     
   57   34   36 1     
   58   34   60 1     
   59   35   61 1     
   60   36   37 1     
   61   36   62 1     
   62   38   43 ar    
   63   38   39 ar    
   64   39   40 ar    
   65   39   63 1     
   66   40   41 ar    
   67   40   64 1     
   68   41   42 ar    
   69   41   65 1     
   70   42   43 ar    
   71   42   66 1     
   72   43   67 1     
   73    1   68 1     
   74    1   69 1     
   75    6   70 1     
   76    6   71 1     
   77   10   72 1     
   78   15   73 1     
   79   15   74 1     
   80   23   75 1     
   81   23   76 1     
   82   30   77 1     
   83   32   78 1     
   84   35   79 1     
   85   35   80 1     
@<TRIPOS>SUBSTRUCTURE
      1 S1             1
@<TRIPOS>SET
LONE_PAIRS      STATIC     ATOMS    <user>   **** ""
13 68 69 70 71 72 73 74 75 76 77 78 79 80
DONOR_HYDROGENS      STATIC     ATOMS    <user>   **** ""
1 61
ATOM$BLUE        STATIC     ATOMS    COLORGROUP SYSTEM
13 68 69 70 71 72 73 74 75 76 77 78 79 80
ATOM$RED        STATIC     ATOMS    COLORGROUP SYSTEM
1 61
