AV-unprocessed.smi:3270|AV-procd|sdf|12515|dock5
  -GOLD-   2272018423D 1   1.00000     0.00000
 Structure written by MMmdl.
 39 40  0  0  0  0  0  0  0  0  2 V2000
  152.3828  142.7416  162.1377 C   0  0  0  0  0  0  0  0  0  0  0  0
  153.1622  143.0927  160.8539 C   0  0  1  0  0  0  0  0  0  0  0  0
  153.9005  141.8843  160.2544 C   0  0  0  0  0  0  0  0  0  0  0  0
  153.5751  141.4254  159.1587 O   0  0  0  0  0  0  0  0  0  0  0  0
  154.8997  141.3717  160.9907 N   0  0  0  0  0  0  0  0  0  0  0  0
  155.7341  140.2437  160.5942 C   0  0  0  0  0  0  0  0  0  0  0  0
  154.9899  138.9040  160.7557 C   0  0  0  0  0  0  0  0  0  0  0  0
  154.8232  138.5157  162.1785 N   0  3  0  0  0  0  0  0  0  0  0  0
  154.4858  137.0805  162.3350 C   0  0  0  0  0  0  0  0  0  0  0  0
  154.2776  136.7323  163.8187 C   0  0  0  0  0  0  0  0  0  0  0  0
  155.4459  137.0691  164.5557 O   0  0  0  0  0  0  0  0  0  0  0  0
  155.7321  138.4604  164.4902 C   0  0  0  0  0  0  0  0  0  0  0  0
  155.9879  138.8682  163.0291 C   0  0  0  0  0  0  0  0  0  0  0  0
  152.3092  143.7191  159.8503 N   0  0  0  0  0  0  0  0  0  0  0  0
  152.6858  144.2771  158.6451 C   0  0  0  0  0  0  0  0  0  0  0  0
  151.5519  144.7126  158.0215 C   0  0  0  0  0  0  0  0  0  0  0  0
  150.5129  144.3647  158.9285 C   0  0  0  0  0  0  0  0  0  0  0  0
  150.9667  143.7649  160.0167 N   0  0  0  0  0  0  0  0  0  0  0  0
  153.0452  142.3275  162.8988 H   0  0  0  0  0  0  0  0  0  0  0  0
  151.5944  142.0106  161.9530 H   0  0  0  0  0  0  0  0  0  0  0  0
  151.9146  143.6302  162.5621 H   0  0  0  0  0  0  0  0  0  0  0  0
  153.9214  143.8257  161.1321 H   0  0  0  0  0  0  0  0  0  0  0  0
  155.1069  141.8066  161.8782 H   0  0  0  0  0  0  0  0  0  0  0  0
  156.0702  140.3944  159.5678 H   0  0  0  0  0  0  0  0  0  0  0  0
  156.6287  140.2491  161.2174 H   0  0  0  0  0  0  0  0  0  0  0  0
  154.0056  139.0071  160.2962 H   0  0  0  0  0  0  0  0  0  0  0  0
  155.4980  138.1023  160.2172 H   0  0  0  0  0  0  0  0  0  0  0  0
  153.5783  136.8494  161.7757 H   0  0  0  0  0  0  0  0  0  0  0  0
  155.2862  136.4680  161.9162 H   0  0  0  0  0  0  0  0  0  0  0  0
  153.4114  137.2571  164.2251 H   0  0  0  0  0  0  0  0  0  0  0  0
  154.0847  135.6652  163.9306 H   0  0  0  0  0  0  0  0  0  0  0  0
  154.9082  139.0348  164.9173 H   0  0  0  0  0  0  0  0  0  0  0  0
  156.6132  138.6685  165.0979 H   0  0  0  0  0  0  0  0  0  0  0  0
  156.8810  138.3649  162.6548 H   0  0  0  0  0  0  0  0  0  0  0  0
  156.1844  139.9389  162.9863 H   0  0  0  0  0  0  0  0  0  0  0  0
  153.7195  144.3182  158.3344 H   0  0  0  0  0  0  0  0  0  0  0  0
  151.4754  145.2021  157.0620 H   0  0  0  0  0  0  0  0  0  0  0  0
  149.4496  144.5251  158.8276 H   0  0  0  0  0  0  0  0  0  0  0  0
  154.0300  139.0331  162.5303 H   0  0  0  0  0  0  0  0  0  0  0  0
  1  2  1  0  0  0  0
  1 19  1  0  0  0  0
  1 20  1  0  0  0  0
  1 21  1  0  0  0  0
  2  3  1  0  0  0  0
  2 14  1  0  0  0  0
  2 22  1  0  0  0  0
  3  4  2  0  0  0  0
  3  5  1  0  0  0  0
  5  6  1  0  0  0  0
  5 23  1  0  0  0  0
  6  7  1  0  0  0  0
  6 24  1  0  0  0  0
  6 25  1  0  0  0  0
  7  8  1  0  0  0  0
  7 26  1  0  0  0  0
  7 27  1  0  0  0  0
  8 13  1  0  0  0  0
  8  9  1  0  0  0  0
  8 39  1  0  0  0  0
  9 10  1  0  0  0  0
  9 28  1  0  0  0  0
  9 29  1  0  0  0  0
 10 11  1  0  0  0  0
 10 30  1  0  0  0  0
 10 31  1  0  0  0  0
 11 12  1  0  0  0  0
 12 13  1  0  0  0  0
 12 32  1  0  0  0  0
 12 33  1  0  0  0  0
 13 34  1  0  0  0  0
 13 35  1  0  0  0  0
 14 18  1  0  0  0  0
 14 15  1  0  0  0  0
 15 16  2  0  0  0  0
 15 36  1  0  0  0  0
 16 17  1  0  0  0  0
 16 37  1  0  0  0  0
 17 18  2  0  0  0  0
 17 38  1  0  0  0  0
M  CHG  1   8   1
M  END
> <s_m_source_file>
AV-unprocessed.smi

> <i_m_source_file_index>
3270

> <i_lp_mmshare_version>
43012

> <i_f3d_flags>
0

> <s_epik_input>
bjFbY0hdW2NIXVtjSF1uMVtDQEhdKFtDSDNdKUMoPU8pW05IXVtDSDJdW0NIMl1OMltDSDJdW0NIMl1PW0NIMl1bQ0gyXTI=

> <s_epik_cmdline>
J2VwaWtfcHl0aG9uJywgJy1waCcsICc3LjAnLCAnLXRuJywgJzgnLCAnLW1hJywgJzIwMCcsICctbWV0YWxfYmluZGluZycsICctaW1hZScsICc8aW5maWxlLm1hZT4nLCAnLW9tYWUnLCAnPG91dGZpbGUubWFlPic=

> <r_lp_tautomer_probability>
1

> <r_epik_Ionization_Penalty>
0.73255

> <r_epik_Ionization_Penalty_Charging>
0.732531

> <r_epik_Ionization_Penalty_Neutral>
1.96965e-05

> <r_epik_State_Penalty>
0.757939

> <r_epik_Charging_Adjusted_Penalty>
1.49047

> <i_epik_Tot_Q>
1

> <i_epik_Tot_abs_Q>
1

> <r_epik_Metal_State_Penalty>
0.757952

> <b_epik_Metal_Only>
0

> <s_lp_Force_Field>
OPLS_2005

> <r_lp_Energy>
19.4088

> <b_lp_Chiralities_Consistent>
1

> <s_lp_Variant>
AV-unprocessed.smi:3270-4

> <Gold.Version>
5.8.1

> <Gold.Id.Protein>
6NUR|6NUR_protein|mol2

> <Gold.PLP.Fitness>
43.8465

> <Gold.PLP.PLP>
-42.4168

> <Gold.PLP.part.hbond>
-0.7698

> <Gold.PLP.part.metal>
0.0000

> <Gold.PLP.part.buried>
-5.3034

> <Gold.PLP.part.nonpolar>
-36.2592

> <Gold.PLP.part.repulsive>
0.1956

> <Gold.PLP.ligand.clash>
0.0000

> <Gold.PLP.ligand.torsion>
0.5627

> <Gold.PLP.Chemscore.Hbond>
0.0000

> <Gold.PLP.Chemscore.CHOScore>
0.8141

> <Gold.PLP.Chemscore.Metal>
0.0000

> <Gold.Chemscore.Hbonds>
donor molecule, donor type, donor heavy atom, donor atom, acceptor molecule, acceptor atom, score
      L1  C    17    38       P1  8029  0.79

> <Gold.PLP.Chemscore.Internal.Correction>
0.1127

> <Gold.Rescore>
     Score         DG    S(hbond)    S(metal)    S(lipo)     H(rot)  DE(clash)    DE(int)     intcor
     12.13     -12.91       0.00        0.00     105.30       1.91       0.06       0.72       ----

> <Gold.Chemscore.Fitness>
12.1274

> <Gold.Chemscore.DG>
-12.9080

> <Gold.Chemscore.ZeroCoef>
-5.4800

> <Gold.Chemscore.Hbond>
0.0000

> <Gold.Chemscore.Metal>
0.0000

> <Gold.Chemscore.Lipo>
105.2985

> <Gold.Chemscore.Internal_Hbond>
0.0000

> <Gold.Chemscore.DEClash>
0.0613

> <Gold.Chemscore.DEInternal>
0.7194

> <Gold.Chemscore.Rot>
1.9109

> <Gold.Chemscore.Internal.Correction>
   9.000000E+99

> <Gold.Chemscore.Hbond.Weighted>
-0.0000

> <Gold.Chemscore.Metal.Weighted>
-0.0000

> <Gold.Chemscore.Lipo.Weighted>
-12.3199

> <Gold.Chemscore.Internal_Hbond.Weighted>
0.0000

> <Gold.Chemscore.DEClash.Weighted>
0.0613

> <Gold.Chemscore.DEInternal.Weighted>
0.7194

> <Gold.Chemscore.Rot.Weighted>
4.8919

> <Gold.Chemscore.Internal.Correction.Weighted>
   9.000000E+99

> <Gold.Protein.RotatedTorsions>
[ 6907 6896 6895 6894 ] final  142.24 input  -60.11 | X-H torsion
[ 7974 7965 7964 7962 ] final  161.56 input  175.53 | X-H torsion
[ 8008 7997 7996 7995 ] final  139.99 input   59.86 | X-H torsion
[ 10167 10162 10161 10158 ] final  -43.50 input  -65.29 | X-H torsion
[ 10718 10713 10712 10709 ] final -158.96 input   66.30 | X-H torsion
[ 10763 10752 10751 10750 ] final   23.22 input  -60.55 | X-H torsion
[ 11005 11000 10999 10996 ] final  -36.67 input  -57.11 | X-H torsion

> <Gold.Protein.ActiveResidues>
 VAL166  LYS551  ARG553  GLY616  TRP617  ASP618  TYR619  PRO620  LYS621  CYS622 
 ASP623  PHE694  ASN695  SER759  ASP760  ASP761  ALA762  ILE779  LEU786  VAL792 
 PHE793  MET794  SER795  GLU796  ALA797  LYS798  CYS799  TRP800  GLU811  SER814 

> <Gold.Protein.RotatedAtoms>
  152.2212  133.4985  159.5163 H   0  0  0  0  0  0  0  0  0  0  0  0  # atno 6907 bound_to 6896
  150.7013  134.1340  159.4089 H   0  0  0  0  0  0  0  0  0  0  0  0  # atno 6908 bound_to 6896
  151.9261  135.0277  160.0576 H   0  0  0  0  0  0  0  0  0  0  0  0  # atno 6909 bound_to 6896
  144.7680  139.7915  143.6308 H   0  0  0  0  0  0  0  0  0  0  0  0  # atno 7974 bound_to 7965
  156.2984  140.2353  156.4328 H   0  0  0  0  0  0  0  0  0  0  0  0  # atno 8008 bound_to 7997
  154.8255  140.0435  157.1461 H   0  0  0  0  0  0  0  0  0  0  0  0  # atno 8009 bound_to 7997
  154.9266  140.3011  155.5192 H   0  0  0  0  0  0  0  0  0  0  0  0  # atno 8010 bound_to 7997
  140.6932  143.2980  151.3360 H   0  0  0  0  0  0  0  0  0  0  0  0  # atno 10167 bound_to 10162
  156.5615  130.8649  151.2811 H   0  0  0  0  0  0  0  0  0  0  0  0  # atno 10718 bound_to 10713
  153.0855  135.6631  153.9958 H   0  0  0  0  0  0  0  0  0  0  0  0  # atno 10763 bound_to 10752
  153.9568  135.2978  155.3437 H   0  0  0  0  0  0  0  0  0  0  0  0  # atno 10764 bound_to 10752
  154.7262  135.5143  153.8963 H   0  0  0  0  0  0  0  0  0  0  0  0  # atno 10765 bound_to 10752
  140.9893  133.7014  156.1821 H   0  0  0  0  0  0  0  0  0  0  0  0  # atno 11005 bound_to 11000
  146.1803  139.4993  142.9870 LP  0  0  0  0  0  0  0  0  0  0  0  0  # atno 17320 bound_to 7965
  145.6411  141.0284  143.1811 LP  0  0  0  0  0  0  0  0  0  0  0  0  # atno 17321 bound_to 7965
  139.6356  144.0636  152.2513 LP  0  0  0  0  0  0  0  0  0  0  0  0  # atno 17342 bound_to 10162
  140.0125  144.6213  150.7635 LP  0  0  0  0  0  0  0  0  0  0  0  0  # atno 17343 bound_to 10162
  157.7367  130.9784  150.2154 LP  0  0  0  0  0  0  0  0  0  0  0  0  # atno 17370 bound_to 10713
  156.2795  130.3731  149.7950 LP  0  0  0  0  0  0  0  0  0  0  0  0  # atno 17371 bound_to 10713
  140.7066  134.4507  157.5584 LP  0  0  0  0  0  0  0  0  0  0  0  0  # atno 17394 bound_to 11000
  139.8985  134.8613  156.2001 LP  0  0  0  0  0  0  0  0  0  0  0  0  # atno 17395 bound_to 11000

$$$$
