AV-unprocessed.smi:2027|AV-procd|sdf|8211|dock1
  -GOLD-   2272010473D 1   1.00000     0.00000
 Structure written by MMmdl.
 50 52  0  0  0  0  0  0  0  0  2 V2000
  153.2267  142.7654  160.4045 C   0  0  0  0  0  0  0  0  0  0  0  0
  152.3195  142.3426  159.2624 C   0  0  0  0  0  0  0  0  0  0  0  0
  151.8880  140.9988  159.1892 C   0  0  0  0  0  0  0  0  0  0  0  0
  151.0443  140.5651  158.1435 C   0  0  0  0  0  0  0  0  0  0  0  0
  150.5118  139.3153  157.8771 N   0  0  0  0  0  0  0  0  0  0  0  0
  149.8145  139.5507  156.7696 C   0  0  0  0  0  0  0  0  0  0  0  0
  149.8341  140.8069  156.2840 N   0  0  0  0  0  0  0  0  0  0  0  0
  149.1578  141.2954  155.0956 C   0  0  0  0  0  0  0  0  0  0  0  0
  148.4179  140.1772  154.3363 C   0  0  2  0  0  0  0  0  0  0  0  0
  149.3219  139.5158  153.4710 O   0  0  0  0  0  0  0  0  0  0  0  0
  147.2577  140.7345  153.4907 C   0  0  0  0  0  0  0  0  0  0  0  0
  146.4435  139.6492  152.8814 N   0  3  1  0  0  0  0  0  0  0  0  0
  146.8391  139.3542  151.4846 C   0  0  0  0  0  0  0  0  0  0  0  0
  146.3746  138.4203  153.7110 C   0  0  0  0  0  0  0  0  0  0  0  0
  145.5380  137.3580  153.0480 C   0  0  0  0  0  0  0  0  0  0  0  0
  144.1403  137.3933  152.7755 C   0  0  0  0  0  0  0  0  0  0  0  0
  143.7021  136.2913  152.1902 N   0  0  0  0  0  0  0  0  0  0  0  0
  144.8004  135.5198  152.0596 N   0  0  0  0  0  0  0  0  0  0  0  0
  144.6866  134.2155  151.4425 C   0  0  0  0  0  0  0  0  0  0  0  0
  145.9230  136.1376  152.5669 C   0  0  0  0  0  0  0  0  0  0  0  0
  150.6393  141.5203  157.1659 C   0  0  0  0  0  0  0  0  0  0  0  0
  151.0624  142.8598  157.2275 C   0  0  0  0  0  0  0  0  0  0  0  0
  151.9081  143.2757  158.2769 C   0  0  0  0  0  0  0  0  0  0  0  0
  152.3635  144.7234  158.3308 C   0  0  0  0  0  0  0  0  0  0  0  0
  153.3761  141.9529  161.1162 H   0  0  0  0  0  0  0  0  0  0  0  0
  152.7953  143.6072  160.9466 H   0  0  0  0  0  0  0  0  0  0  0  0
  154.2041  143.0625  160.0237 H   0  0  0  0  0  0  0  0  0  0  0  0
  152.2034  140.2873  159.9382 H   0  0  0  0  0  0  0  0  0  0  0  0
  149.2585  138.7637  156.2811 H   0  0  0  0  0  0  0  0  0  0  0  0
  148.4549  142.0731  155.3982 H   0  0  0  0  0  0  0  0  0  0  0  0
  149.8938  141.7770  154.4502 H   0  0  0  0  0  0  0  0  0  0  0  0
  148.0444  139.4511  155.0587 H   0  0  0  0  0  0  0  0  0  0  0  0
  149.2895  139.9350  152.6237 H   0  0  0  0  0  0  0  0  0  0  0  0
  146.6136  141.3749  154.0954 H   0  0  0  0  0  0  0  0  0  0  0  0
  147.6782  141.3830  152.7217 H   0  0  0  0  0  0  0  0  0  0  0  0
  147.8455  138.9355  151.4442 H   0  0  0  0  0  0  0  0  0  0  0  0
  146.8190  140.2525  150.8683 H   0  0  0  0  0  0  0  0  0  0  0  0
  146.1535  138.6358  151.0335 H   0  0  0  0  0  0  0  0  0  0  0  0
  147.3842  138.0390  153.8698 H   0  0  0  0  0  0  0  0  0  0  0  0
  145.9918  138.6753  154.7005 H   0  0  0  0  0  0  0  0  0  0  0  0
  143.4337  138.1810  152.9918 H   0  0  0  0  0  0  0  0  0  0  0  0
  145.6659  133.7384  151.3918 H   0  0  0  0  0  0  0  0  0  0  0  0
  144.2899  134.3181  150.4315 H   0  0  0  0  0  0  0  0  0  0  0  0
  144.0154  133.5872  152.0288 H   0  0  0  0  0  0  0  0  0  0  0  0
  146.8927  135.6617  152.5465 H   0  0  0  0  0  0  0  0  0  0  0  0
  150.7412  143.5608  156.4712 H   0  0  0  0  0  0  0  0  0  0  0  0
  152.0274  145.2789  157.4547 H   0  0  0  0  0  0  0  0  0  0  0  0
  153.4515  144.7837  158.3653 H   0  0  0  0  0  0  0  0  0  0  0  0
  151.9604  145.2161  159.2159 H   0  0  0  0  0  0  0  0  0  0  0  0
  145.4970  140.0012  152.8424 H   0  0  0  0  0  0  0  0  0  0  0  0
  1  2  1  0  0  0  0
  1 25  1  0  0  0  0
  1 26  1  0  0  0  0
  1 27  1  0  0  0  0
  2 23  1  0  0  0  0
  2  3  2  0  0  0  0
  3  4  1  0  0  0  0
  3 28  1  0  0  0  0
  4 21  2  0  0  0  0
  4  5  1  0  0  0  0
  5  6  2  0  0  0  0
  6  7  1  0  0  0  0
  6 29  1  0  0  0  0
  7  8  1  0  0  0  0
  7 21  1  0  0  0  0
  8  9  1  0  0  0  0
  8 30  1  0  0  0  0
  8 31  1  0  0  0  0
  9 10  1  0  0  0  0
  9 11  1  0  0  0  0
  9 32  1  0  0  0  0
 10 33  1  0  0  0  0
 11 12  1  0  0  0  0
 11 34  1  0  0  0  0
 11 35  1  0  0  0  0
 12 13  1  0  0  0  0
 12 14  1  0  0  0  0
 12 50  1  0  0  0  0
 13 36  1  0  0  0  0
 13 37  1  0  0  0  0
 13 38  1  0  0  0  0
 14 15  1  0  0  0  0
 14 39  1  0  0  0  0
 14 40  1  0  0  0  0
 15 20  2  0  0  0  0
 15 16  1  0  0  0  0
 16 17  2  0  0  0  0
 16 41  1  0  0  0  0
 17 18  1  0  0  0  0
 18 19  1  0  0  0  0
 18 20  1  0  0  0  0
 19 42  1  0  0  0  0
 19 43  1  0  0  0  0
 19 44  1  0  0  0  0
 20 45  1  0  0  0  0
 21 22  1  0  0  0  0
 22 23  2  0  0  0  0
 22 46  1  0  0  0  0
 23 24  1  0  0  0  0
 24 47  1  0  0  0  0
 24 48  1  0  0  0  0
 24 49  1  0  0  0  0
M  CHG  1  12   1
M  END
> <s_m_source_file>
AV-unprocessed.smi

> <i_m_source_file_index>
2027

> <i_lp_mmshare_version>
43012

> <i_f3d_flags>
0

> <s_epik_input>
W0NIM11jKFtjSF0xKWMoW0NIM10pW2NIXWMoYzEyKW4oW2NIXW4yKVtDSDJdW0NASF0oW09IXSlbQ0gyXU4oW0NIM10pW0NIMl1jM1tjSF1ubihbQ0gzXSlbY0hdMw==

> <s_epik_cmdline>
J2VwaWtfcHl0aG9uJywgJy1waCcsICc3LjAnLCAnLXRuJywgJzgnLCAnLW1hJywgJzIwMCcsICctbWV0YWxfYmluZGluZycsICctaW1hZScsICc8aW5maWxlLm1hZT4nLCAnLW9tYWUnLCAnPG91dGZpbGUubWFlPic=

> <r_lp_tautomer_probability>
1

> <r_epik_Ionization_Penalty>
0.646578

> <r_epik_Ionization_Penalty_Charging>
0.559419

> <r_epik_Ionization_Penalty_Neutral>
0.087159

> <r_epik_State_Penalty>
0.661677

> <r_epik_Charging_Adjusted_Penalty>
1.2211

> <i_epik_Tot_Q>
1

> <i_epik_Tot_abs_Q>
1

> <r_epik_Metal_State_Penalty>
0.649174

> <b_epik_Metal_Only>
0

> <s_lp_Force_Field>
OPLS_2005

> <r_lp_Energy>
8.87495

> <b_lp_Chiralities_Consistent>
1

> <s_lp_Variant>
AV-unprocessed.smi:2027-3

> <Gold.Version>
5.8.1

> <Gold.Id.Protein>
6NUR|6NUR_protein|mol2

> <Gold.PLP.Fitness>
59.6857

> <Gold.PLP.PLP>
-45.7139

> <Gold.PLP.part.hbond>
-1.6523

> <Gold.PLP.part.metal>
0.0000

> <Gold.PLP.part.buried>
-3.0941

> <Gold.PLP.part.nonpolar>
-41.6580

> <Gold.PLP.part.repulsive>
0.1874

> <Gold.PLP.ligand.clash>
0.0000

> <Gold.PLP.ligand.torsion>
0.7718

> <Gold.PLP.Chemscore.Hbond>
3.0000

> <Gold.PLP.Chemscore.CHOScore>
1.9367

> <Gold.PLP.Chemscore.Metal>
0.0000

> <Gold.Chemscore.Hbonds>
donor molecule, donor type, donor heavy atom, donor atom, acceptor molecule, acceptor atom, score
      L1  H    10    33       P1  7957  0.93
      L1  H    12    50       P1 10175  2.00
      L1  C    16    41       P1 10175  0.95
      L1  C    20    45       P1  7948  1.00

> <Gold.PLP.Chemscore.Internal.Correction>
0.7054

> <Gold.Rescore>
     Score         DG    S(hbond)    S(metal)    S(lipo)     H(rot)  DE(clash)    DE(int)     intcor
     19.57     -20.33       1.95        0.00     126.11       2.50       0.09       0.67       ----

> <Gold.Chemscore.Fitness>
19.5678

> <Gold.Chemscore.DG>
-20.3299

> <Gold.Chemscore.ZeroCoef>
-5.4800

> <Gold.Chemscore.Hbond>
1.9481

> <Gold.Chemscore.Metal>
0.0000

> <Gold.Chemscore.Lipo>
126.1128

> <Gold.Chemscore.Internal_Hbond>
0.0000

> <Gold.Chemscore.DEClash>
0.0912

> <Gold.Chemscore.DEInternal>
0.6709

> <Gold.Chemscore.Rot>
2.5047

> <Gold.Chemscore.Internal.Correction>
   9.000000E+99

> <Gold.Chemscore.Hbonds>
donor molecule, donor type, donor heavy atom, donor atom, acceptor molecule, acceptor atom, score
      L1  H    10    33       P1  7957  0.86
      L1  H    12    50       P1 10175  0.99

> <Gold.Chemscore.Hbond.Weighted>
-6.5067

> <Gold.Chemscore.Metal.Weighted>
-0.0000

> <Gold.Chemscore.Lipo.Weighted>
-14.7552

> <Gold.Chemscore.Internal_Hbond.Weighted>
0.0000

> <Gold.Chemscore.DEClash.Weighted>
0.0912

> <Gold.Chemscore.DEInternal.Weighted>
0.6709

> <Gold.Chemscore.Rot.Weighted>
6.4120

> <Gold.Chemscore.Internal.Correction.Weighted>
   9.000000E+99

> <Gold.Protein.RotatedTorsions>
[ 6907 6896 6895 6894 ] final  -10.07 input  -60.11 | X-H torsion
[ 7974 7965 7964 7962 ] final   -3.50 input  175.53 | X-H torsion
[ 8008 7997 7996 7995 ] final   86.16 input   59.86 | X-H torsion
[ 10167 10162 10161 10158 ] final -179.31 input  -65.29 | X-H torsion
[ 10718 10713 10712 10709 ] final  171.53 input   66.30 | X-H torsion
[ 10763 10752 10751 10750 ] final  -78.27 input  -60.55 | X-H torsion
[ 11005 11000 10999 10996 ] final  -23.50 input  -57.11 | X-H torsion

> <Gold.Protein.ActiveResidues>
 VAL166  LYS551  ARG553  GLY616  TRP617  ASP618  TYR619  PRO620  LYS621  CYS622 
 ASP623  PHE694  ASN695  SER759  ASP760  ASP761  ALA762  ILE779  LEU786  VAL792 
 PHE793  MET794  SER795  GLU796  ALA797  LYS798  CYS799  TRP800  GLU811  SER814 

> <Gold.Protein.RotatedAtoms>
  151.4078  135.0980  159.9575 H   0  0  0  0  0  0  0  0  0  0  0  0  # atno 6907 bound_to 6896
  152.5030  133.8826  159.7364 H   0  0  0  0  0  0  0  0  0  0  0  0  # atno 6908 bound_to 6896
  150.9314  133.6705  159.2838 H   0  0  0  0  0  0  0  0  0  0  0  0  # atno 6909 bound_to 6896
  146.2388  140.1731  142.8332 H   0  0  0  0  0  0  0  0  0  0  0  0  # atno 7974 bound_to 7965
  155.9592  140.3395  155.6475 H   0  0  0  0  0  0  0  0  0  0  0  0  # atno 8008 bound_to 7997
  155.6820  140.0739  157.2499 H   0  0  0  0  0  0  0  0  0  0  0  0  # atno 8009 bound_to 7997
  154.4139  140.1672  156.1980 H   0  0  0  0  0  0  0  0  0  0  0  0  # atno 8010 bound_to 7997
  139.5392  144.2411  152.0860 H   0  0  0  0  0  0  0  0  0  0  0  0  # atno 10167 bound_to 10162
  156.9921  131.0151  151.2854 H   0  0  0  0  0  0  0  0  0  0  0  0  # atno 10718 bound_to 10713
  154.5237  135.5735  153.6701 H   0  0  0  0  0  0  0  0  0  0  0  0  # atno 10763 bound_to 10752
  152.9923  135.6188  154.2721 H   0  0  0  0  0  0  0  0  0  0  0  0  # atno 10764 bound_to 10752
  154.2643  135.2855  155.2744 H   0  0  0  0  0  0  0  0  0  0  0  0  # atno 10765 bound_to 10752
  140.8758  133.7688  156.0241 H   0  0  0  0  0  0  0  0  0  0  0  0  # atno 11005 bound_to 11000
  144.9995  140.8619  143.5290 LP  0  0  0  0  0  0  0  0  0  0  0  0  # atno 17320 bound_to 7965
  145.1748  139.2384  143.5323 LP  0  0  0  0  0  0  0  0  0  0  0  0  # atno 17321 bound_to 7965
  140.1886  144.4774  150.6490 LP  0  0  0  0  0  0  0  0  0  0  0  0  # atno 17342 bound_to 10162
  140.6614  143.2253  151.5847 LP  0  0  0  0  0  0  0  0  0  0  0  0  # atno 17343 bound_to 10162
  157.5451  130.8145  149.8076 LP  0  0  0  0  0  0  0  0  0  0  0  0  # atno 17370 bound_to 10713
  156.0203  130.3798  150.1983 LP  0  0  0  0  0  0  0  0  0  0  0  0  # atno 17371 bound_to 10713
  140.8520  134.2943  157.5271 LP  0  0  0  0  0  0  0  0  0  0  0  0  # atno 17394 bound_to 11000
  139.8715  134.9473  156.3962 LP  0  0  0  0  0  0  0  0  0  0  0  0  # atno 17395 bound_to 11000

$$$$
