#       Name:                AV-unprocessed.smi:2822
#       Creating user name   scv26
#       Creation time:       Fri Mar 27 15:32:12 2020


#       File generated by GOLD software.
#

@<TRIPOS>MOLECULE
AV-unprocessed.smi:2822
    43    45     1
SMALL
NO_CHARGES


@<TRIPOS>ATOM
      1 ****        -5.2684   1.2111   0.4416 Cl             1 S1                 0.0000
      2 ****        -4.3768   2.6928   0.4268 C.ar           1 S1                 0.0000
      3 ****        -5.0659   3.9219   0.3766 C.ar           1 S1                 0.0000
      4 ****        -4.4482   5.1218   0.3618 N.ar           1 S1                 0.0000
      5 ****        -3.0995   5.1333   0.3968 C.ar           1 S1                 0.0000
      6 ****        -2.3141   3.9644   0.4471 C.ar           1 S1                 0.0000
      7 ****        -2.9632   2.7070   0.4629 C.ar           1 S1                 0.0000
      8 ****        -2.2588   1.4944   0.5155 N.pl3          1 S1                 0.0000
      9 ****        -0.8119   1.4624   0.3667 C.3            1 S1                 0.0000
     10 ****        -0.2737   0.0253   0.3789 C.3            1 S1                 0.0000
     11 ****         1.2652  -0.0026   0.4340 C.3            1 S1                 0.0000
     12 ****         1.7901  -1.3605   0.3618 N.3            1 S1                 0.0000
     13 ****         3.2515  -1.3681   0.4033 C.3            1 S1                 0.0000
     14 ****         3.8317  -2.7909   0.3636 C.3            1 S1                 0.0000
     15 ****         3.3313  -3.5358  -0.8820 C.3            1 S1                 0.0000
     16 ****         1.7974  -3.4782  -0.9505 C.3            1 S1                 0.0000
     17 ****         1.2942  -2.0234  -0.8480 C.3            1 S1                 0.0000
     18 ****        -0.2459  -1.9732  -0.9092 C.3            1 S1                 0.0000
     19 ****        -0.6905  -0.6233  -0.8202 O.3            1 S1                 0.0000
     20 ****        -6.1454   3.9430   0.3473 H              1 S1                 0.0000
     21 ****        -2.6297   6.1057   0.3853 H              1 S1                 0.0000
     22 ****        -1.2385   4.0528   0.4743 H              1 S1                 0.0000
     23 ****        -2.7683   0.6249   0.4456 H              1 S1                 0.0000
     24 ****        -0.5222   1.9643  -0.5574 H              1 S1                 0.0000
     25 ****        -0.3690   2.0197   1.1929 H              1 S1                 0.0000
     26 ****        -0.6760  -0.5080   1.2427 H              1 S1                 0.0000
     27 ****         1.6674   0.5923  -0.3877 H              1 S1                 0.0000
     28 ****         1.6035   0.4718   1.3561 H              1 S1                 0.0000
     29 ****         3.6487  -0.7921  -0.4341 H              1 S1                 0.0000
     30 ****         3.5946  -0.8693   1.3105 H              1 S1                 0.0000
     31 ****         4.9213  -2.7537   0.3675 H              1 S1                 0.0000
     32 ****         3.5338  -3.3332   1.2619 H              1 S1                 0.0000
     33 ****         3.7551  -3.0781  -1.7768 H              1 S1                 0.0000
     34 ****         3.6724  -4.5713  -0.8682 H              1 S1                 0.0000
     35 ****         1.4533  -3.9328  -1.8802 H              1 S1                 0.0000
     36 ****         1.3749  -4.0725  -0.1390 H              1 S1                 0.0000
     37 ****         1.6717  -1.4816  -1.7169 H              1 S1                 0.0000
     38 ****        -0.6040  -2.3981  -1.8471 H              1 S1                 0.0000
     39 ****        -0.6889  -2.5603  -0.1028 H              1 S1                 0.0000
     40 ****        -4.9720   5.9728   0.3261 LP             1 S1                 0.0000
     41 ****         1.4680  -1.8677   1.1611 LP             1 S1                 0.0000
     42 ****        -0.3246  -0.1158  -1.6003 LP             1 S1                 0.0000
     43 ****        -1.6898  -0.6145  -0.8559 LP             1 S1                 0.0000
@<TRIPOS>BOND
    1    1    2 1     
    2    2    7 ar    
    3    2    3 ar    
    4    3    4 ar    
    5    3   20 1     
    6    4    5 ar    
    7    5    6 ar    
    8    5   21 1     
    9    6    7 ar    
   10    6   22 1     
   11    7    8 1     
   12    8    9 1     
   13    8   23 1     
   14    9   10 1     
   15    9   24 1     
   16    9   25 1     
   17   10   19 1     
   18   10   11 1     
   19   10   26 1     
   20   11   12 1     
   21   11   27 1     
   22   11   28 1     
   23   12   17 1     
   24   12   13 1     
   25   13   14 1     
   26   13   29 1     
   27   13   30 1     
   28   14   15 1     
   29   14   31 1     
   30   14   32 1     
   31   15   16 1     
   32   15   33 1     
   33   15   34 1     
   34   16   17 1     
   35   16   35 1     
   36   16   36 1     
   37   17   18 1     
   38   17   37 1     
   39   18   19 1     
   40   18   38 1     
   41   18   39 1     
   42    4   40 1     
   43   12   41 1     
   44   19   42 1     
   45   19   43 1     
@<TRIPOS>SUBSTRUCTURE
      1 S1             1
@<TRIPOS>SET
LONE_PAIRS      STATIC     ATOMS    <user>   **** ""
4 40 41 42 43
DONOR_HYDROGENS      STATIC     ATOMS    <user>   **** ""
1 23
ATOM$BLUE        STATIC     ATOMS    COLORGROUP SYSTEM
4 40 41 42 43
ATOM$RED        STATIC     ATOMS    COLORGROUP SYSTEM
1 23
