AV-unprocessed.smi:49|AV-procd|sdf|477|dock2
  -GOLD-   2262016343D 1   1.00000     0.00000
 Structure written by MMmdl.
 27 28  0  0  0  0  0  0  0  0  1 V2000
  138.7982  136.8471  154.2167 C   0  0  0  0  0  0  0  0  0  0  0  0
  140.1283  137.2757  153.5870 C   0  0  0  0  0  0  0  0  0  0  0  0
  141.1149  136.1565  153.5333 C   0  0  0  0  0  0  0  0  0  0  0  0
  142.3146  136.2601  152.8861 N   0  0  0  0  0  0  0  0  0  0  0  0
  142.7931  135.0335  153.0763 C   0  0  0  0  0  0  0  0  0  0  0  0
  144.1205  134.5293  152.6004 C   0  0  2  0  0  0  0  0  0  0  0  0
  144.2545  134.5497  151.0712 C   0  0  0  0  0  0  0  0  0  0  0  0
  145.2215  133.4050  150.8052 C   0  0  2  0  0  0  0  0  0  0  0  0
  145.1311  132.9004  149.4899 O   0  0  0  0  0  0  0  0  0  0  0  0
  144.7938  132.3802  151.8512 C   0  0  0  0  0  0  0  0  0  0  0  0
  144.4073  133.1546  153.0281 N   0  0  0  0  0  0  0  0  0  0  0  0
  141.9531  134.2637  153.7717 N   0  0  0  0  0  0  0  0  0  0  0  0
  140.8429  134.9695  154.0735 N   0  0  0  0  0  0  0  0  0  0  0  0
  144.8942  135.1776  153.0140 H   0  0  0  0  0  0  0  0  0  0  0  0
  146.2450  133.7294  150.9992 H   0  0  0  0  0  0  0  0  0  0  0  0
  142.0837  133.2995  154.0418 H   0  0  0  0  0  0  0  0  0  0  0  0
  138.0955  137.6801  154.2443 H   0  0  0  0  0  0  0  0  0  0  0  0
  138.9415  136.4974  155.2394 H   0  0  0  0  0  0  0  0  0  0  0  0
  138.3359  136.0399  153.6475 H   0  0  0  0  0  0  0  0  0  0  0  0
  139.9558  137.6468  152.5761 H   0  0  0  0  0  0  0  0  0  0  0  0
  140.5555  138.1054  154.1518 H   0  0  0  0  0  0  0  0  0  0  0  0
  143.2924  134.3248  150.6071 H   0  0  0  0  0  0  0  0  0  0  0  0
  144.5966  135.5099  150.6841 H   0  0  0  0  0  0  0  0  0  0  0  0
  145.3574  133.5912  148.8862 H   0  0  0  0  0  0  0  0  0  0  0  0
  143.9282  131.8243  151.4881 H   0  0  0  0  0  0  0  0  0  0  0  0
  145.5788  131.6581  152.0770 H   0  0  0  0  0  0  0  0  0  0  0  0
  145.1912  133.1753  153.6723 H   0  0  0  0  0  0  0  0  0  0  0  0
  1  2  1  0  0  0  0
  1 17  1  0  0  0  0
  1 18  1  0  0  0  0
  1 19  1  0  0  0  0
  2 20  1  0  0  0  0
  2 21  1  0  0  0  0
  2  3  1  0  0  0  0
  3  4  1  0  0  0  0
  3 13  2  0  0  0  0
  4  5  2  0  0  0  0
  5  6  1  0  0  0  0
  5 12  1  0  0  0  0
  6 14  1  0  0  0  0
  6 11  1  0  0  0  0
  6  7  1  0  0  0  0
  7  8  1  0  0  0  0
  7 22  1  0  0  0  0
  7 23  1  0  0  0  0
  8 15  1  0  0  0  0
  8  9  1  0  0  0  0
  8 10  1  0  0  0  0
  9 24  1  0  0  0  0
 10 11  1  0  0  0  0
 10 25  1  0  0  0  0
 10 26  1  0  0  0  0
 11 27  1  0  0  0  0
 12 13  1  0  0  0  0
 12 16  1  0  0  0  0
M  END
> <s_m_source_file>
AV-unprocessed.smi

> <i_m_source_file_index>
49

> <i_lp_mmshare_version>
43012

> <i_f3d_flags>
0

> <s_epik_input>
W0NIM11bQ0gyXWMxbmMobltuSF0xKVtDQEBIXTJbQ0gyXVtDQEBIXShbT0hdKVtDSDJdW05IXTI=

> <s_epik_cmdline>
J2VwaWtfcHl0aG9uJywgJy1waCcsICc3LjAnLCAnLXRuJywgJzgnLCAnLW1hJywgJzIwMCcsICctbWV0YWxfYmluZGluZycsICctaW1hZScsICc8aW5maWxlLm1hZT4nLCAnLW9tYWUnLCAnPG91dGZpbGUubWFlPic=

> <r_epik_Ionization_Penalty>
1.31544

> <r_epik_Ionization_Penalty_Charging>
0

> <r_epik_Ionization_Penalty_Neutral>
1.31544

> <r_epik_State_Penalty>
2.06074

> <r_epik_Charging_Adjusted_Penalty>
2.06074

> <i_epik_Tot_Q>
0

> <i_epik_Tot_abs_Q>
0

> <r_epik_Metal_State_Penalty>
2.32913

> <b_epik_Metal_Only>
0

> <s_lp_Force_Field>
OPLS_2005

> <r_lp_Energy>
18.1318

> <b_lp_Chiralities_Consistent>
1

> <s_lp_Variant>
AV-unprocessed.smi:49-15

> <Gold.Version>
5.8.1

> <Gold.Id.Protein>
6NUR|6NUR_protein|mol2

> <Gold.PLP.Fitness>
34.1864

> <Gold.PLP.PLP>
-25.2731

> <Gold.PLP.part.hbond>
-4.7421

> <Gold.PLP.part.metal>
0.0000

> <Gold.PLP.part.buried>
-5.3015

> <Gold.PLP.part.nonpolar>
-14.6700

> <Gold.PLP.part.repulsive>
0.4474

> <Gold.PLP.ligand.clash>
0.0000

> <Gold.PLP.ligand.torsion>
0.0467

> <Gold.PLP.Chemscore.Hbond>
3.0000

> <Gold.PLP.Chemscore.CHOScore>
0.0000

> <Gold.PLP.Chemscore.Metal>
0.0000

> <Gold.Chemscore.Hbonds>
donor molecule, donor type, donor heavy atom, donor atom, acceptor molecule, acceptor atom, score
      L1  H     9    24       P1  7921  1.00
      L1  H    12    16       P1 10957  1.00
      P1  H 11000 11005       L1    13  1.00

> <Gold.PLP.Chemscore.Internal.Correction>
0.0068

> <Gold.Rescore>
     Score         DG    S(hbond)    S(metal)    S(lipo)     H(rot)  DE(clash)    DE(int)     intcor
     14.28     -14.34       2.80        0.00      36.39       1.86       0.00       0.06       ----

> <Gold.Chemscore.Fitness>
14.2795

> <Gold.Chemscore.DG>
-14.3423

> <Gold.Chemscore.ZeroCoef>
-5.4800

> <Gold.Chemscore.Hbond>
2.8009

> <Gold.Chemscore.Metal>
0.0000

> <Gold.Chemscore.Lipo>
36.3921

> <Gold.Chemscore.Internal_Hbond>
0.0000

> <Gold.Chemscore.DEClash>
0.0009

> <Gold.Chemscore.DEInternal>
0.0619

> <Gold.Chemscore.Rot>
1.8558

> <Gold.Chemscore.Internal.Correction>
   9.000000E+99

> <Gold.Chemscore.Hbonds>
donor molecule, donor type, donor heavy atom, donor atom, acceptor molecule, acceptor atom, score
      L1  H     9    24       P1  7921  0.55
      L1  H    12    16       P1 10957  1.00
      P1  H 11000 11005       L1    13  0.45

> <Gold.Chemscore.Hbond.Weighted>
-9.3551

> <Gold.Chemscore.Metal.Weighted>
-0.0000

> <Gold.Chemscore.Lipo.Weighted>
-4.2579

> <Gold.Chemscore.Internal_Hbond.Weighted>
0.0000

> <Gold.Chemscore.DEClash.Weighted>
0.0009

> <Gold.Chemscore.DEInternal.Weighted>
0.0619

> <Gold.Chemscore.Rot.Weighted>
4.7507

> <Gold.Chemscore.Internal.Correction.Weighted>
   9.000000E+99

> <Gold.Protein.RotatedTorsions>
[ 6907 6896 6895 6894 ] final  -28.82 input  -60.11 | X-H torsion
[ 7974 7965 7964 7962 ] final   48.24 input  175.53 | X-H torsion
[ 8008 7997 7996 7995 ] final   70.73 input   59.86 | X-H torsion
[ 10167 10162 10161 10158 ] final -174.69 input  -65.29 | X-H torsion
[ 10718 10713 10712 10709 ] final -126.86 input   66.30 | X-H torsion
[ 10763 10752 10751 10750 ] final  -56.98 input  -60.55 | X-H torsion
[ 11005 11000 10999 10996 ] final   30.60 input  -57.11 | X-H torsion

> <Gold.Protein.ActiveResidues>
 VAL166  LYS551  ARG553  GLY616  TRP617  ASP618  TYR619  PRO620  LYS621  CYS622 
 ASP623  PHE694  ASN695  SER759  ASP760  ASP761  ALA762  ILE779  LEU786  VAL792 
 PHE793  MET794  SER795  GLU796  ALA797  LYS798  CYS799  TRP800  GLU811  SER814 

> <Gold.Protein.RotatedAtoms>
  151.1276  135.0113  159.8567 H   0  0  0  0  0  0  0  0  0  0  0  0  # atno 6907 bound_to 6896
  152.5450  134.1648  159.8583 H   0  0  0  0  0  0  0  0  0  0  0  0  # atno 6908 bound_to 6896
  151.1712  133.4738  159.2627 H   0  0  0  0  0  0  0  0  0  0  0  0  # atno 6909 bound_to 6896
  146.0223  139.4665  142.9889 H   0  0  0  0  0  0  0  0  0  0  0  0  # atno 7974 bound_to 7965
  155.7432  140.3490  155.5114 H   0  0  0  0  0  0  0  0  0  0  0  0  # atno 8008 bound_to 7997
  155.9075  140.1044  157.1326 H   0  0  0  0  0  0  0  0  0  0  0  0  # atno 8009 bound_to 7997
  154.4051  140.1274  156.4501 H   0  0  0  0  0  0  0  0  0  0  0  0  # atno 8010 bound_to 7997
  139.5620  144.1846  152.1254 H   0  0  0  0  0  0  0  0  0  0  0  0  # atno 10167 bound_to 10162
  156.1804  130.6728  151.0297 H   0  0  0  0  0  0  0  0  0  0  0  0  # atno 10718 bound_to 10713
  154.2152  135.6387  153.5127 H   0  0  0  0  0  0  0  0  0  0  0  0  # atno 10763 bound_to 10752
  152.9981  135.5483  154.6173 H   0  0  0  0  0  0  0  0  0  0  0  0  # atno 10764 bound_to 10752
  154.5619  135.2909  155.0884 H   0  0  0  0  0  0  0  0  0  0  0  0  # atno 10765 bound_to 10752
  140.2926  134.2847  155.7772 H   0  0  0  0  0  0  0  0  0  0  0  0  # atno 11005 bound_to 11000
  145.7174  141.0086  143.1421 LP  0  0  0  0  0  0  0  0  0  0  0  0  # atno 17320 bound_to 7965
  144.6995  139.8829  143.7448 LP  0  0  0  0  0  0  0  0  0  0  0  0  # atno 17321 bound_to 7965
  140.1361  144.5244  150.6772 LP  0  0  0  0  0  0  0  0  0  0  0  0  # atno 17342 bound_to 10162
  140.6901  143.2371  151.5154 LP  0  0  0  0  0  0  0  0  0  0  0  0  # atno 17343 bound_to 10162
  157.6864  131.0823  150.7230 LP  0  0  0  0  0  0  0  0  0  0  0  0  # atno 17370 bound_to 10713
  156.7287  130.4703  149.5505 LP  0  0  0  0  0  0  0  0  0  0  0  0  # atno 17371 bound_to 10713
  141.2143  133.7595  156.9648 LP  0  0  0  0  0  0  0  0  0  0  0  0  # atno 17394 bound_to 11000
  140.1181  134.9434  157.2164 LP  0  0  0  0  0  0  0  0  0  0  0  0  # atno 17395 bound_to 11000

$$$$
