AV-unprocessed.smi:178|AV-procd|sdf|1446|dock3
  -GOLD-   2262019233D 1   1.00000     0.00000
 Structure written by MMmdl.
 50 52  0  0  0  0  0  0  0  0  1 V2000
  146.2416  142.6536  154.1511 C   0  0  0  0  0  0  0  0  0  0  0  0
  147.6141  142.3421  153.9892 O   0  0  0  0  0  0  0  0  0  0  0  0
  148.2026  141.8484  155.1799 C   0  0  0  0  0  0  0  0  0  0  0  0
  149.7274  141.8093  154.9939 C   0  0  0  0  0  0  0  0  0  0  0  0
  150.4481  141.6191  156.2552 N   0  0  0  0  0  0  0  0  0  0  0  0
  150.2773  142.6133  157.3119 C   0  0  0  0  0  0  0  0  0  0  0  0
  151.5864  143.3332  157.6621 C   0  0  0  0  0  0  0  0  0  0  0  0
  151.3607  144.5542  158.4486 C   0  0  0  0  0  0  0  0  0  0  0  0
  151.1832  145.5153  159.0678 N   0  0  0  0  0  0  0  0  0  0  0  0
  151.3676  140.6162  156.3687 C   0  0  0  0  0  0  0  0  0  0  0  0
  151.6733  139.9040  155.2506 N   0  0  0  0  0  0  0  0  0  0  0  0
  152.5559  138.9034  155.2910 C   0  0  0  0  0  0  0  0  0  0  0  0
  153.2482  138.4465  156.3335 N   0  0  0  0  0  0  0  0  0  0  0  0
  152.9612  139.1537  157.4624 C   0  0  0  0  0  0  0  0  0  0  0  0
  152.0449  140.2420  157.5721 C   0  0  0  0  0  0  0  0  0  0  0  0
  152.0412  140.7033  158.8855 N   0  0  0  0  0  0  0  0  0  0  0  0
  152.8872  139.9324  159.5100 C   0  0  0  0  0  0  0  0  0  0  0  0
  153.4896  138.9752  158.7290 N   0  0  0  0  0  0  0  0  0  0  0  0
  154.4668  137.9887  159.1630 C   0  0  0  0  0  0  0  0  0  0  0  0
  153.9526  137.0691  160.2958 C   0  0  2  0  0  0  0  0  0  0  0  0
  152.8529  136.3188  159.8039 O   0  0  0  0  0  0  0  0  0  0  0  0
  153.5093  137.8133  161.5465 C   0  0  0  0  0  0  0  0  0  0  0  0
  153.6439  136.7493  162.6284 C   0  0  0  0  0  0  0  0  0  0  0  0
  154.7949  136.0012  162.2591 O   0  0  0  0  0  0  0  0  0  0  0  0
  155.0445  136.1329  160.8601 C   0  0  1  0  0  0  0  0  0  0  0  0
  155.1797  134.7527  160.1970 C   0  0  0  0  0  0  0  0  0  0  0  0
  145.8360  143.0229  153.2093 H   0  0  0  0  0  0  0  0  0  0  0  0
  146.0998  143.4285  154.9057 H   0  0  0  0  0  0  0  0  0  0  0  0
  145.6683  141.7724  154.4418 H   0  0  0  0  0  0  0  0  0  0  0  0
  147.9359  142.4914  156.0197 H   0  0  0  0  0  0  0  0  0  0  0  0
  147.8179  140.8513  155.3956 H   0  0  0  0  0  0  0  0  0  0  0  0
  149.9786  140.9900  154.3198 H   0  0  0  0  0  0  0  0  0  0  0  0
  150.0717  142.7141  154.4921 H   0  0  0  0  0  0  0  0  0  0  0  0
  149.5468  143.3501  156.9768 H   0  0  0  0  0  0  0  0  0  0  0  0
  149.8310  142.1612  158.1968 H   0  0  0  0  0  0  0  0  0  0  0  0
  152.2483  142.6859  158.2368 H   0  0  0  0  0  0  0  0  0  0  0  0
  152.1203  143.6207  156.7568 H   0  0  0  0  0  0  0  0  0  0  0  0
  152.7309  138.3962  154.3537 H   0  0  0  0  0  0  0  0  0  0  0  0
  153.1011  140.0450  160.5632 H   0  0  0  0  0  0  0  0  0  0  0  0
  154.7595  137.3924  158.2978 H   0  0  0  0  0  0  0  0  0  0  0  0
  155.3643  138.5187  159.4842 H   0  0  0  0  0  0  0  0  0  0  0  0
  152.4612  136.7986  159.0898 H   0  0  0  0  0  0  0  0  0  0  0  0
  154.1997  138.6297  161.7625 H   0  0  0  0  0  0  0  0  0  0  0  0
  152.5048  138.2334  161.4777 H   0  0  0  0  0  0  0  0  0  0  0  0
  153.7460  137.1743  163.6270 H   0  0  0  0  0  0  0  0  0  0  0  0
  152.7766  136.0879  162.6267 H   0  0  0  0  0  0  0  0  0  0  0  0
  156.0079  136.6392  160.7863 H   0  0  0  0  0  0  0  0  0  0  0  0
  155.3613  134.8481  159.1264 H   0  0  0  0  0  0  0  0  0  0  0  0
  154.2833  134.1480  160.3360 H   0  0  0  0  0  0  0  0  0  0  0  0
  156.0151  134.1998  160.6271 H   0  0  0  0  0  0  0  0  0  0  0  0
  1  2  1  0  0  0  0
  1 27  1  0  0  0  0
  1 28  1  0  0  0  0
  1 29  1  0  0  0  0
  2  3  1  0  0  0  0
  3  4  1  0  0  0  0
  3 30  1  0  0  0  0
  3 31  1  0  0  0  0
  4  5  1  0  0  0  0
  4 32  1  0  0  0  0
  4 33  1  0  0  0  0
  5  6  1  0  0  0  0
  5 10  1  0  0  0  0
  6  7  1  0  0  0  0
  6 34  1  0  0  0  0
  6 35  1  0  0  0  0
  7  8  1  0  0  0  0
  7 36  1  0  0  0  0
  7 37  1  0  0  0  0
  8  9  3  0  0  0  0
 10 15  1  0  0  0  0
 10 11  2  0  0  0  0
 11 12  1  0  0  0  0
 12 13  2  0  0  0  0
 12 38  1  0  0  0  0
 13 14  1  0  0  0  0
 14 18  1  0  0  0  0
 14 15  2  0  0  0  0
 15 16  1  0  0  0  0
 16 17  2  0  0  0  0
 17 18  1  0  0  0  0
 17 39  1  0  0  0  0
 18 19  1  0  0  0  0
 19 20  1  0  0  0  0
 19 40  1  0  0  0  0
 19 41  1  0  0  0  0
 20 25  1  0  0  0  0
 20 21  1  0  0  0  0
 20 22  1  0  0  0  0
 21 42  1  0  0  0  0
 22 23  1  0  0  0  0
 22 43  1  0  0  0  0
 22 44  1  0  0  0  0
 23 24  1  0  0  0  0
 23 45  1  0  0  0  0
 23 46  1  0  0  0  0
 24 25  1  0  0  0  0
 25 26  1  0  0  0  0
 25 47  1  0  0  0  0
 26 48  1  0  0  0  0
 26 49  1  0  0  0  0
 26 50  1  0  0  0  0
M  END
> <s_m_source_file>
AV-unprocessed.smi

> <i_m_source_file_index>
178

> <i_lp_mmshare_version>
43012

> <i_f3d_flags>
0

> <s_epik_input>
W0NIM11PW0NIMl1bQ0gyXU4oW0NIMl1bQ0gyXUMjTiljKG5bY0hdbjEpYyhjMTIpbltjSF1uMltDSDJdW0NAQF0zKFtPSF0pW0NIMl1bQ0gyXU9bQ0BIXTNbQ0gzXQ==

> <s_epik_cmdline>
J2VwaWtfcHl0aG9uJywgJy1waCcsICc3LjAnLCAnLXRuJywgJzgnLCAnLW1hJywgJzIwMCcsICctbWV0YWxfYmluZGluZycsICctaW1hZScsICc8aW5maWxlLm1hZT4nLCAnLW9tYWUnLCAnPG91dGZpbGUubWFlPic=

> <r_lp_tautomer_probability>
1

> <r_epik_Ionization_Penalty>
0.000885317

> <r_epik_Ionization_Penalty_Charging>
0

> <r_epik_Ionization_Penalty_Neutral>
0.000885317

> <r_epik_State_Penalty>
0.00047273

> <r_epik_Charging_Adjusted_Penalty>
0.00047273

> <i_epik_Tot_Q>
0

> <i_epik_Tot_abs_Q>
0

> <r_epik_Metal_State_Penalty>
-0

> <b_epik_Metal_Only>
0

> <s_lp_Force_Field>
OPLS_2005

> <r_lp_Energy>
29.3608

> <b_lp_Chiralities_Consistent>
1

> <s_lp_Variant>
AV-unprocessed.smi:178-2

> <Gold.Version>
5.8.1

> <Gold.Id.Protein>
6NUR|6NUR_protein|mol2

> <Gold.PLP.Fitness>
45.6933

> <Gold.PLP.PLP>
-39.8675

> <Gold.PLP.part.hbond>
-3.8756

> <Gold.PLP.part.metal>
0.0000

> <Gold.PLP.part.buried>
0.7870

> <Gold.PLP.part.nonpolar>
-35.4216

> <Gold.PLP.part.repulsive>
0.3329

> <Gold.PLP.ligand.clash>
0.0000

> <Gold.PLP.ligand.torsion>
0.2418

> <Gold.PLP.Chemscore.Hbond>
2.0000

> <Gold.PLP.Chemscore.CHOScore>
0.0000

> <Gold.PLP.Chemscore.Metal>
0.0000

> <Gold.Chemscore.Hbonds>
donor molecule, donor type, donor heavy atom, donor atom, acceptor molecule, acceptor atom, score
      P1  H  6896  6908       L1    21  1.00
      P1  H  7989  7998       L1    11  1.00

> <Gold.PLP.Chemscore.Internal.Correction>
0.3094

> <Gold.Rescore>
     Score         DG    S(hbond)    S(metal)    S(lipo)     H(rot)  DE(clash)    DE(int)     intcor
      6.06     -10.31       1.52        0.00      71.61       3.37       1.41       2.84       ----

> <Gold.Chemscore.Fitness>
6.0619

> <Gold.Chemscore.DG>
-10.3129

> <Gold.Chemscore.ZeroCoef>
-5.4800

> <Gold.Chemscore.Hbond>
1.5240

> <Gold.Chemscore.Metal>
0.0000

> <Gold.Chemscore.Lipo>
71.6065

> <Gold.Chemscore.Internal_Hbond>
0.0000

> <Gold.Chemscore.DEClash>
1.4124

> <Gold.Chemscore.DEInternal>
2.8386

> <Gold.Chemscore.Rot>
3.3732

> <Gold.Chemscore.Internal.Correction>
   9.000000E+99

> <Gold.Chemscore.Hbonds>
donor molecule, donor type, donor heavy atom, donor atom, acceptor molecule, acceptor atom, score
      P1  H  6896  6908       L1    21  0.56
      P1  H  7989  7998       L1    11  0.75

> <Gold.Chemscore.Hbond.Weighted>
-5.0903

> <Gold.Chemscore.Metal.Weighted>
-0.0000

> <Gold.Chemscore.Lipo.Weighted>
-8.3780

> <Gold.Chemscore.Internal_Hbond.Weighted>
0.0000

> <Gold.Chemscore.DEClash.Weighted>
1.4124

> <Gold.Chemscore.DEInternal.Weighted>
2.8386

> <Gold.Chemscore.Rot.Weighted>
8.6354

> <Gold.Chemscore.Internal.Correction.Weighted>
   9.000000E+99

> <Gold.Protein.RotatedTorsions>
[ 6907 6896 6895 6894 ] final  -96.21 input  -60.11 | X-H torsion
[ 7974 7965 7964 7962 ] final -100.58 input  175.53 | X-H torsion
[ 8008 7997 7996 7995 ] final  140.53 input   59.86 | X-H torsion
[ 10167 10162 10161 10158 ] final    1.71 input  -65.29 | X-H torsion
[ 10718 10713 10712 10709 ] final   -0.29 input   66.30 | X-H torsion
[ 10763 10752 10751 10750 ] final   74.92 input  -60.55 | X-H torsion
[ 11005 11000 10999 10996 ] final -172.73 input  -57.11 | X-H torsion

> <Gold.Protein.ActiveResidues>
 VAL166  LYS551  ARG553  GLY616  TRP617  ASP618  TYR619  PRO620  LYS621  CYS622 
 ASP623  PHE694  ASN695  SER759  ASP760  ASP761  ALA762  ILE779  LEU786  VAL792 
 PHE793  MET794  SER795  GLU796  ALA797  LYS798  CYS799  TRP800  GLU811  SER814 

> <Gold.Protein.RotatedAtoms>
  150.6983  134.1538  159.4149 H   0  0  0  0  0  0  0  0  0  0  0  0  # atno 6907 bound_to 6896
  151.9520  135.0162  160.0552 H   0  0  0  0  0  0  0  0  0  0  0  0  # atno 6908 bound_to 6896
  152.2003  133.4801  159.5091 H   0  0  0  0  0  0  0  0  0  0  0  0  # atno 6909 bound_to 6896
  145.2927  140.9357  143.2868 H   0  0  0  0  0  0  0  0  0  0  0  0  # atno 7974 bound_to 7965
  156.2978  140.2339  156.4416 H   0  0  0  0  0  0  0  0  0  0  0  0  # atno 8008 bound_to 7997
  154.8180  140.0439  157.1411 H   0  0  0  0  0  0  0  0  0  0  0  0  # atno 8009 bound_to 7997
  154.9347  140.3021  155.5154 H   0  0  0  0  0  0  0  0  0  0  0  0  # atno 8010 bound_to 7997
  140.6670  143.7153  150.7846 H   0  0  0  0  0  0  0  0  0  0  0  0  # atno 10167 bound_to 10162
  156.8226  130.5461  149.5695 H   0  0  0  0  0  0  0  0  0  0  0  0  # atno 10718 bound_to 10713
  153.0619  135.5008  154.8113 H   0  0  0  0  0  0  0  0  0  0  0  0  # atno 10763 bound_to 10752
  154.6896  135.2982  154.9501 H   0  0  0  0  0  0  0  0  0  0  0  0  # atno 10764 bound_to 10752
  154.0260  135.6736  153.4829 H   0  0  0  0  0  0  0  0  0  0  0  0  # atno 10765 bound_to 10752
  140.4937  134.5960  157.4963 H   0  0  0  0  0  0  0  0  0  0  0  0  # atno 11005 bound_to 11000
  144.9159  139.4471  143.6564 LP  0  0  0  0  0  0  0  0  0  0  0  0  # atno 17320 bound_to 7965
  146.3179  139.7993  142.8969 LP  0  0  0  0  0  0  0  0  0  0  0  0  # atno 17321 bound_to 7965
  140.0832  143.4948  152.2519 LP  0  0  0  0  0  0  0  0  0  0  0  0  # atno 17342 bound_to 10162
  139.5922  144.7554  151.3373 LP  0  0  0  0  0  0  0  0  0  0  0  0  # atno 17343 bound_to 10162
  156.0980  130.5947  150.9846 LP  0  0  0  0  0  0  0  0  0  0  0  0  # atno 17370 bound_to 10713
  157.6449  131.0905  150.8175 LP  0  0  0  0  0  0  0  0  0  0  0  0  # atno 17371 bound_to 10713
  139.9754  134.7224  155.9960 LP  0  0  0  0  0  0  0  0  0  0  0  0  # atno 17394 bound_to 11000
  141.1471  133.6554  156.3900 LP  0  0  0  0  0  0  0  0  0  0  0  0  # atno 17395 bound_to 11000

$$$$
