#       Name:                AV-unprocessed.smi:44
#       Creating user name   scv26
#       Creation time:       Thu Mar 26 16:25:26 2020


#       File generated by GOLD software.
#

@<TRIPOS>MOLECULE
AV-unprocessed.smi:44
    37    39     1
SMALL
NO_CHARGES


@<TRIPOS>ATOM
      1 ****        -2.6690   4.2175  -1.0318 O.2            1 S1                 0.0000
      2 ****        -2.8254   3.0479  -0.6872 C.2            1 S1                 0.0000
      3 ****        -3.9934   2.3291  -0.6479 N.pl3          1 S1                -1.0000
      4 ****        -4.0233   1.0036  -0.2287 C.2            1 S1                 0.0000
      5 ****        -3.0311   0.2841   0.1600 N.2            1 S1                 0.0000
      6 ****        -1.7863   0.9316   0.1497 C.2            1 S1                 0.0000
      7 ****        -1.6404   2.2421  -0.2418 C.2            1 S1                 0.0000
      8 ****        -0.3261   2.6090  -0.1358 N.pl3          1 S1                 1.0000
      9 ****         0.2660   1.5028   0.3144 C.2            1 S1                 0.0000
     10 ****        -0.5591   0.4281   0.5026 N.pl3          1 S1                 0.0000
     11 ****        -0.1955  -0.9318   1.0145 C.3            1 S1                 0.0000
     12 ****        -0.3835  -1.9690  -0.0934 C.3            1 S1                 0.0000
     13 ****         0.9506  -1.8879  -0.8001 C.3            1 S1                 0.0000
     14 ****         1.9061  -1.7092   0.3801 C.3            1 S1                 0.0000
     15 ****         3.2200  -1.0112  -0.0019 C.3            1 S1                 0.0000
     16 ****         4.1936  -1.2377   0.9938 O.3            1 S1                 0.0000
     17 ****         1.1685  -0.9311   1.3270 O.3            1 S1                 0.0000
     18 ****         0.0938   3.5066  -0.3404 H              1 S1                 0.0000
     19 ****        -0.8313  -1.0772   1.8885 H              1 S1                 0.0000
     20 ****         2.1031  -2.6900   0.8170 H              1 S1                 0.0000
     21 ****        -5.0343   0.5896  -0.2584 H              1 S1                 0.0000
     22 ****         1.3200   1.4613   0.5193 H              1 S1                 0.0000
     23 ****        -0.5208  -2.9503   0.3630 H              1 S1                 0.0000
     24 ****        -1.2403  -1.7519  -0.7317 H              1 S1                 0.0000
     25 ****         1.1725  -2.7739  -1.3955 H              1 S1                 0.0000
     26 ****         0.9762  -1.0183  -1.4588 H              1 S1                 0.0000
     27 ****         3.6048  -1.4261  -0.9340 H              1 S1                 0.0000
     28 ****         3.0778   0.0576  -0.1596 H              1 S1                 0.0000
     29 ****         5.0071  -0.8444   0.7166 H              1 S1                 0.0000
     30 ****        -1.7565   4.6262  -1.0142 LP             1 S1                 0.0000
     31 ****        -3.4543   4.7602  -1.3297 LP             1 S1                 0.0000
     32 ****        -4.8460   2.7702  -0.9282 LP             1 S1                 0.0000
     33 ****        -3.1387  -0.6673   0.4485 LP             1 S1                 0.0000
     34 ****         4.3216  -2.2212   1.1219 LP             1 S1                 0.0000
     35 ****         3.8966  -0.8253   1.8550 LP             1 S1                 0.0000
     36 ****         1.2960  -1.3185   2.2401 LP             1 S1                 0.0000
     37 ****         1.5076   0.0095   1.3137 LP             1 S1                 0.0000
@<TRIPOS>BOND
    1    1    2 2     
    2    2    7 1     
    3    2    3 1     
    4    3    4 1     
    5    4   21 1     
    6    4    5 2     
    7    5    6 1     
    8    6   10 1     
    9    6    7 2     
   10    7    8 1     
   11    8    9 2     
   12    8   18 1     
   13    9   10 1     
   14    9   22 1     
   15   10   11 1     
   16   11   19 1     
   17   11   17 1     
   18   11   12 1     
   19   12   13 1     
   20   12   23 1     
   21   12   24 1     
   22   13   14 1     
   23   13   25 1     
   24   13   26 1     
   25   14   20 1     
   26   14   15 1     
   27   14   17 1     
   28   15   16 1     
   29   15   27 1     
   30   15   28 1     
   31   16   29 1     
   32    1   30 1     
   33    1   31 1     
   34    3   32 1     
   35    5   33 1     
   36   16   34 1     
   37   16   35 1     
   38   17   36 1     
   39   17   37 1     
@<TRIPOS>SUBSTRUCTURE
      1 S1             1
@<TRIPOS>SET
LONE_PAIRS      STATIC     ATOMS    <user>   **** ""
8 30 31 32 33 34 35 36 37
DONOR_HYDROGENS      STATIC     ATOMS    <user>   **** ""
2 18 29
ATOM$BLUE        STATIC     ATOMS    COLORGROUP SYSTEM
8 30 31 32 33 34 35 36 37
ATOM$RED        STATIC     ATOMS    COLORGROUP SYSTEM
2 18 29
