AV-unprocessed.smi:1487|AV-procd|sdf|6015|dock4
  -GOLD-   22720 6113D 1   1.00000     0.00000
 Structure written by MMmdl.
 49 51  0  0  0  0  0  0  0  0  3 V2000
  152.5235  144.0870  160.1186 C   0  0  0  0  0  0  0  0  0  0  0  0
  152.0815  143.0517  159.0982 C   0  0  0  0  0  0  0  0  0  0  0  0
  151.2914  143.4753  158.0059 C   0  0  0  0  0  0  0  0  0  0  0  0
  150.9048  142.5054  157.0886 C   0  0  0  0  0  0  0  0  0  0  0  0
  150.1394  142.6032  155.9250 N   0  3  0  0  0  0  0  0  0  0  0  0
  150.0250  141.3738  155.3512 C   0  0  0  0  0  0  0  0  0  0  0  0
  150.7102  140.4915  156.1287 N   0  0  0  0  0  0  0  0  0  0  0  0
  150.8871  139.0417  155.9618 C   0  0  0  0  0  0  0  0  0  0  0  0
  150.1608  138.4791  154.7232 C   0  0  2  0  0  0  0  0  0  0  0  0
  150.7662  139.0625  153.5871 O   0  0  0  0  0  0  0  0  0  0  0  0
  148.6448  138.7816  154.7055 C   0  0  0  0  0  0  0  0  0  0  0  0
  147.8414  137.7341  154.0227 N   0  3  1  0  0  0  0  0  0  0  0  0
  147.5435  136.5571  154.8837 C   0  0  0  0  0  0  0  0  0  0  0  0
  146.8193  135.4565  154.0896 C   0  0  0  0  0  0  0  0  0  0  0  0
  145.5352  135.9955  153.4472 C   0  0  0  0  0  0  0  0  0  0  0  0
  145.8617  137.2253  152.5880 C   0  0  1  0  0  0  0  0  0  0  0  0
  144.6658  137.7774  152.0818 O   0  0  0  0  0  0  0  0  0  0  0  0
  146.6045  138.2907  153.4146 C   0  0  0  0  0  0  0  0  0  0  0  0
  151.2729  141.1526  157.2285 C   0  0  0  0  0  0  0  0  0  0  0  0
  152.0495  140.7190  158.3012 C   0  0  0  0  0  0  0  0  0  0  0  0
  152.4557  141.6909  159.2433 C   0  0  0  0  0  0  0  0  0  0  0  0
  153.3072  141.2468  160.4207 C   0  0  0  0  0  0  0  0  0  0  0  0
  152.1699  145.0842  159.8550 H   0  0  0  0  0  0  0  0  0  0  0  0
  153.6114  144.1255  160.1795 H   0  0  0  0  0  0  0  0  0  0  0  0
  152.1293  143.8440  161.1057 H   0  0  0  0  0  0  0  0  0  0  0  0
  151.0010  144.5094  157.8900 H   0  0  0  0  0  0  0  0  0  0  0  0
  149.4839  141.1408  154.4452 H   0  0  0  0  0  0  0  0  0  0  0  0
  151.9512  138.8066  155.9376 H   0  0  0  0  0  0  0  0  0  0  0  0
  150.4957  138.5706  156.8647 H   0  0  0  0  0  0  0  0  0  0  0  0
  150.3392  137.4050  154.6870 H   0  0  0  0  0  0  0  0  0  0  0  0
  150.1465  139.0652  152.8735 H   0  0  0  0  0  0  0  0  0  0  0  0
  148.2613  138.9071  155.7186 H   0  0  0  0  0  0  0  0  0  0  0  0
  148.4958  139.7383  154.2021 H   0  0  0  0  0  0  0  0  0  0  0  0
  148.4620  136.1412  155.2948 H   0  0  0  0  0  0  0  0  0  0  0  0
  146.9323  136.8702  155.7316 H   0  0  0  0  0  0  0  0  0  0  0  0
  147.4813  135.0664  153.3154 H   0  0  0  0  0  0  0  0  0  0  0  0
  146.5826  134.6180  154.7452 H   0  0  0  0  0  0  0  0  0  0  0  0
  145.0643  135.2201  152.8414 H   0  0  0  0  0  0  0  0  0  0  0  0
  144.8204  136.2613  154.2279 H   0  0  0  0  0  0  0  0  0  0  0  0
  146.4807  136.9254  151.7412 H   0  0  0  0  0  0  0  0  0  0  0  0
  144.6634  138.7065  152.2561 H   0  0  0  0  0  0  0  0  0  0  0  0
  145.9583  138.6803  154.2035 H   0  0  0  0  0  0  0  0  0  0  0  0
  146.8593  139.1322  152.7685 H   0  0  0  0  0  0  0  0  0  0  0  0
  152.3364  139.6846  158.4177 H   0  0  0  0  0  0  0  0  0  0  0  0
  153.4986  140.1736  160.3934 H   0  0  0  0  0  0  0  0  0  0  0  0
  152.8064  141.4713  161.3628 H   0  0  0  0  0  0  0  0  0  0  0  0
  154.2707  141.7570  160.4100 H   0  0  0  0  0  0  0  0  0  0  0  0
  148.4036  137.4026  153.2521 H   0  0  0  0  0  0  0  0  0  0  0  0
  149.7195  143.4450  155.5512 H   0  0  0  0  0  0  0  0  0  0  0  0
  1  2  1  0  0  0  0
  1 23  1  0  0  0  0
  1 24  1  0  0  0  0
  1 25  1  0  0  0  0
  2 21  1  0  0  0  0
  2  3  2  0  0  0  0
  3  4  1  0  0  0  0
  3 26  1  0  0  0  0
  4 19  2  0  0  0  0
  4  5  1  0  0  0  0
  5  6  2  0  0  0  0
  5 49  1  0  0  0  0
  6  7  1  0  0  0  0
  6 27  1  0  0  0  0
  7  8  1  0  0  0  0
  7 19  1  0  0  0  0
  8  9  1  0  0  0  0
  8 28  1  0  0  0  0
  8 29  1  0  0  0  0
  9 10  1  0  0  0  0
  9 11  1  0  0  0  0
  9 30  1  0  0  0  0
 10 31  1  0  0  0  0
 11 12  1  0  0  0  0
 11 32  1  0  0  0  0
 11 33  1  0  0  0  0
 12 18  1  0  0  0  0
 12 13  1  0  0  0  0
 12 48  1  0  0  0  0
 13 14  1  0  0  0  0
 13 34  1  0  0  0  0
 13 35  1  0  0  0  0
 14 15  1  0  0  0  0
 14 36  1  0  0  0  0
 14 37  1  0  0  0  0
 15 16  1  0  0  0  0
 15 38  1  0  0  0  0
 15 39  1  0  0  0  0
 16 17  1  0  0  0  0
 16 18  1  0  0  0  0
 16 40  1  0  0  0  0
 17 41  1  0  0  0  0
 18 42  1  0  0  0  0
 18 43  1  0  0  0  0
 19 20  1  0  0  0  0
 20 21  2  0  0  0  0
 20 44  1  0  0  0  0
 21 22  1  0  0  0  0
 22 45  1  0  0  0  0
 22 46  1  0  0  0  0
 22 47  1  0  0  0  0
M  CHG  1   5   1
M  CHG  1  12   1
M  END
> <s_m_source_file>
AV-unprocessed.smi

> <i_m_source_file_index>
1487

> <i_lp_mmshare_version>
43012

> <i_f3d_flags>
0

> <s_epik_input>
W0NIM11jKFtjSF0xKWMoW0NIM10pW2NIXWMoYzEyKW4oW2NIXW4yKVtDSDJdW0NASF0oW09IXSlbQ0gyXU4zW0NIMl1bQ0gyXVtDSDJdW0NAQEhdKFtPSF0pW0NIMl0z

> <s_epik_cmdline>
J2VwaWtfcHl0aG9uJywgJy1waCcsICc3LjAnLCAnLXRuJywgJzgnLCAnLW1hJywgJzIwMCcsICctbWV0YWxfYmluZGluZycsICctaW1hZScsICc8aW5maWxlLm1hZT4nLCAnLW9tYWUnLCAnPG91dGZpbGUubWFlPic=

> <r_epik_Ionization_Penalty>
1.1857

> <r_epik_Ionization_Penalty_Charging>
1.1857

> <r_epik_Ionization_Penalty_Neutral>
1.75578e-06

> <r_epik_State_Penalty>
1.26953

> <r_epik_Charging_Adjusted_Penalty>
2.45524

> <i_epik_Tot_Q>
2

> <i_epik_Tot_abs_Q>
2

> <r_epik_Metal_State_Penalty>
5.28243

> <b_epik_Metal_Only>
0

> <s_lp_Force_Field>
OPLS_2005

> <r_lp_Energy>
33.096

> <b_lp_Chiralities_Consistent>
1

> <s_lp_Variant>
AV-unprocessed.smi:1487-9

> <Gold.Version>
5.8.1

> <Gold.Id.Protein>
6NUR|6NUR_protein|mol2

> <Gold.PLP.Fitness>
57.4828

> <Gold.PLP.PLP>
-38.5716

> <Gold.PLP.part.hbond>
-5.8308

> <Gold.PLP.part.metal>
0.0000

> <Gold.PLP.part.buried>
-0.7586

> <Gold.PLP.part.nonpolar>
-31.5476

> <Gold.PLP.part.repulsive>
0.1519

> <Gold.PLP.ligand.clash>
0.0000

> <Gold.PLP.ligand.torsion>
0.6917

> <Gold.PLP.Chemscore.Hbond>
6.7520

> <Gold.PLP.Chemscore.CHOScore>
0.0000

> <Gold.PLP.Chemscore.Metal>
0.0000

> <Gold.Chemscore.Hbonds>
donor molecule, donor type, donor heavy atom, donor atom, acceptor molecule, acceptor atom, score
      L1  H     5    49       P1  8028  1.95
      L1  H    10    31       P1  7957  0.88
      L1  H    12    48       P1  7948  2.00
      L1  H    17    41       P1 10175  0.99
      P1  H  7989  7998       L1    10  0.88

> <Gold.PLP.Chemscore.Internal.Correction>
0.0386

> <Gold.Rescore>
     Score         DG    S(hbond)    S(metal)    S(lipo)     H(rot)  DE(clash)    DE(int)     intcor
     20.75     -24.72       4.10        0.00     107.45       2.74       1.38       2.60       ----

> <Gold.Chemscore.Fitness>
20.7452

> <Gold.Chemscore.DG>
-24.7219

> <Gold.Chemscore.ZeroCoef>
-5.4800

> <Gold.Chemscore.Hbond>
4.0960

> <Gold.Chemscore.Metal>
0.0000

> <Gold.Chemscore.Lipo>
107.4505

> <Gold.Chemscore.Internal_Hbond>
0.0000

> <Gold.Chemscore.DEClash>
1.3808

> <Gold.Chemscore.DEInternal>
2.5959

> <Gold.Chemscore.Rot>
2.7384

> <Gold.Chemscore.Internal.Correction>
   9.000000E+99

> <Gold.Chemscore.Hbonds>
donor molecule, donor type, donor heavy atom, donor atom, acceptor molecule, acceptor atom, score
      L1  H     5    49       P1  8028  0.90
      L1  H    10    31       P1  7957  0.63
      L1  H    12    48       P1  7948  0.99
      L1  H    17    41       P1 10175  0.90
      P1  H  7989  7998       L1    10  0.33

> <Gold.Chemscore.Hbond.Weighted>
-13.6806

> <Gold.Chemscore.Metal.Weighted>
-0.0000

> <Gold.Chemscore.Lipo.Weighted>
-12.5717

> <Gold.Chemscore.Internal_Hbond.Weighted>
0.0000

> <Gold.Chemscore.DEClash.Weighted>
1.3808

> <Gold.Chemscore.DEInternal.Weighted>
2.5959

> <Gold.Chemscore.Rot.Weighted>
7.0103

> <Gold.Chemscore.Internal.Correction.Weighted>
   9.000000E+99

> <Gold.Protein.RotatedTorsions>
[ 6907 6896 6895 6894 ] final   20.49 input  -60.11 | X-H torsion
[ 7974 7965 7964 7962 ] final    7.43 input  175.53 | X-H torsion
[ 8008 7997 7996 7995 ] final   96.38 input   59.86 | X-H torsion
[ 10167 10162 10161 10158 ] final  -29.94 input  -65.29 | X-H torsion
[ 10718 10713 10712 10709 ] final -177.96 input   66.30 | X-H torsion
[ 10763 10752 10751 10750 ] final   -9.16 input  -60.55 | X-H torsion
[ 11005 11000 10999 10996 ] final  -77.23 input  -57.11 | X-H torsion

> <Gold.Protein.ActiveResidues>
 VAL166  LYS551  ARG553  GLY616  TRP617  ASP618  TYR619  PRO620  LYS621  CYS622 
 ASP623  PHE694  ASN695  SER759  ASP760  ASP761  ALA762  ILE779  LEU786  VAL792 
 PHE793  MET794  SER795  GLU796  ALA797  LYS798  CYS799  TRP800  GLU811  SER814 

> <Gold.Protein.RotatedAtoms>
  151.8972  135.0393  160.0502 H   0  0  0  0  0  0  0  0  0  0  0  0  # atno 6907 bound_to 6896
  152.2388  133.5113  159.5266 H   0  0  0  0  0  0  0  0  0  0  0  0  # atno 6908 bound_to 6896
  150.7047  134.1034  159.4016 H   0  0  0  0  0  0  0  0  0  0  0  0  # atno 6909 bound_to 6896
  146.2426  140.0084  142.8409 H   0  0  0  0  0  0  0  0  0  0  0  0  # atno 7974 bound_to 7965
  156.0790  140.3273  155.7670 H   0  0  0  0  0  0  0  0  0  0  0  0  # atno 8008 bound_to 7997
  155.5183  140.0583  157.2928 H   0  0  0  0  0  0  0  0  0  0  0  0  # atno 8009 bound_to 7997
  154.4572  140.1948  156.0364 H   0  0  0  0  0  0  0  0  0  0  0  0  # atno 8010 bound_to 7997
  140.7255  143.3888  151.1467 H   0  0  0  0  0  0  0  0  0  0  0  0  # atno 10167 bound_to 10162
  156.8372  130.9674  151.3102 H   0  0  0  0  0  0  0  0  0  0  0  0  # atno 10718 bound_to 10713
  153.4508  135.7015  153.6110 H   0  0  0  0  0  0  0  0  0  0  0  0  # atno 10763 bound_to 10752
  153.4445  135.3772  155.2248 H   0  0  0  0  0  0  0  0  0  0  0  0  # atno 10764 bound_to 10752
  154.8728  135.3982  154.3920 H   0  0  0  0  0  0  0  0  0  0  0  0  # atno 10765 bound_to 10752
  141.1659  133.7014  156.7789 H   0  0  0  0  0  0  0  0  0  0  0  0  # atno 11005 bound_to 11000
  145.1351  140.9540  143.4522 LP  0  0  0  0  0  0  0  0  0  0  0  0  # atno 17320 bound_to 7965
  145.0350  139.3308  143.6005 LP  0  0  0  0  0  0  0  0  0  0  0  0  # atno 17321 bound_to 7965
  139.7489  143.8809  152.3071 LP  0  0  0  0  0  0  0  0  0  0  0  0  # atno 17342 bound_to 10162
  139.8655  144.7095  150.9048 LP  0  0  0  0  0  0  0  0  0  0  0  0  # atno 17343 bound_to 10162
  157.6375  130.8778  149.9386 LP  0  0  0  0  0  0  0  0  0  0  0  0  # atno 17370 bound_to 10713
  156.0901  130.3664  150.0412 LP  0  0  0  0  0  0  0  0  0  0  0  0  # atno 17371 bound_to 10713
  140.2409  134.8614  157.3572 LP  0  0  0  0  0  0  0  0  0  0  0  0  # atno 17394 bound_to 11000
  140.1797  134.4505  155.7780 LP  0  0  0  0  0  0  0  0  0  0  0  0  # atno 17395 bound_to 11000

$$$$
