AV-unprocessed.smi:835|AV-procd|sdf|3886|dock7
  -GOLD-   22720 1343D 1   1.00000     0.00000
 Structure written by MMmdl.
 41 43  0  0  0  0  0  0  0  0  2 V2000
  151.5163  131.8870  156.6409 C   0  0  0  0  0  0  0  0  0  0  0  0
  150.6997  132.7626  155.7370 C   0  0  0  0  0  0  0  0  0  0  0  0
  150.5031  134.1717  155.8227 C   0  0  0  0  0  0  0  0  0  0  0  0
  149.6836  134.4263  154.7572 C   0  0  0  0  0  0  0  0  0  0  0  0
  149.1768  135.6154  154.3360 N   0  0  0  0  0  0  0  0  0  0  0  0
  148.6441  136.6054  155.0730 C   0  0  0  0  0  0  0  0  0  0  0  0
  148.5114  136.5937  156.2969 O   0  0  0  0  0  0  0  0  0  0  0  0
  148.2522  137.6298  154.3021 N   0  0  0  0  0  0  0  0  0  0  0  0
  147.6138  138.8431  154.8010 C   0  0  2  0  0  0  0  0  0  0  0  0
  146.3031  138.6091  155.5460 C   0  0  0  0  0  0  0  0  0  0  0  0
  145.6303  139.9842  155.4759 C   0  0  0  0  0  0  0  0  0  0  0  0
  146.1315  140.6428  154.2436 N   0  3  1  0  0  0  0  0  0  0  0  0
  146.5732  142.0381  154.4573 C   0  0  0  0  0  0  0  0  0  0  0  0
  145.4784  142.9457  154.9651 C   0  0  0  0  0  0  0  0  0  0  0  0
  145.9227  143.0281  153.5207 C   0  0  0  0  0  0  0  0  0  0  0  0
  147.1787  139.7705  153.6671 C   0  0  0  0  0  0  0  0  0  0  0  0
  149.4301  133.2446  154.0974 N   0  0  0  0  0  0  0  0  0  0  0  0
  148.6263  133.0032  152.9151 C   0  0  0  0  0  0  0  0  0  0  0  0
  150.0589  132.2175  154.7090 N   0  0  0  0  0  0  0  0  0  0  0  0
  151.9541  132.4626  157.4567 H   0  0  0  0  0  0  0  0  0  0  0  0
  152.3321  131.4123  156.0954 H   0  0  0  0  0  0  0  0  0  0  0  0
  150.9055  131.0989  157.0817 H   0  0  0  0  0  0  0  0  0  0  0  0
  150.9082  134.8604  156.5486 H   0  0  0  0  0  0  0  0  0  0  0  0
  149.1843  135.7550  153.3364 H   0  0  0  0  0  0  0  0  0  0  0  0
  148.3995  137.5622  153.3055 H   0  0  0  0  0  0  0  0  0  0  0  0
  148.3076  139.3832  155.4490 H   0  0  0  0  0  0  0  0  0  0  0  0
  145.6947  137.8695  155.0225 H   0  0  0  0  0  0  0  0  0  0  0  0
  146.4500  138.2628  156.5696 H   0  0  0  0  0  0  0  0  0  0  0  0
  144.5428  139.9077  155.4648 H   0  0  0  0  0  0  0  0  0  0  0  0
  145.9089  140.5682  156.3547 H   0  0  0  0  0  0  0  0  0  0  0  0
  147.6033  142.1775  154.7816 H   0  0  0  0  0  0  0  0  0  0  0  0
  144.5009  142.5110  155.1663 H   0  0  0  0  0  0  0  0  0  0  0  0
  145.7671  143.7635  155.6222 H   0  0  0  0  0  0  0  0  0  0  0  0
  146.5046  143.8999  153.2281 H   0  0  0  0  0  0  0  0  0  0  0  0
  145.2413  142.6476  152.7615 H   0  0  0  0  0  0  0  0  0  0  0  0
  148.0134  140.3320  153.2441 H   0  0  0  0  0  0  0  0  0  0  0  0
  146.7257  139.1958  152.8575 H   0  0  0  0  0  0  0  0  0  0  0  0
  147.6267  133.4135  153.0607 H   0  0  0  0  0  0  0  0  0  0  0  0
  148.5423  131.9331  152.7198 H   0  0  0  0  0  0  0  0  0  0  0  0
  149.0888  133.4859  152.0540 H   0  0  0  0  0  0  0  0  0  0  0  0
  145.3723  140.6709  153.5780 H   0  0  0  0  0  0  0  0  0  0  0  0
  1  2  1  0  0  0  0
  1 20  1  0  0  0  0
  1 21  1  0  0  0  0
  1 22  1  0  0  0  0
  2 19  2  0  0  0  0
  2  3  1  0  0  0  0
  3  4  2  0  0  0  0
  3 23  1  0  0  0  0
  4  5  1  0  0  0  0
  4 17  1  0  0  0  0
  5  6  1  0  0  0  0
  5 24  1  0  0  0  0
  6  7  2  0  0  0  0
  6  8  1  0  0  0  0
  8  9  1  0  0  0  0
  8 25  1  0  0  0  0
  9 16  1  0  0  0  0
  9 10  1  0  0  0  0
  9 26  1  0  0  0  0
 10 11  1  0  0  0  0
 10 27  1  0  0  0  0
 10 28  1  0  0  0  0
 11 12  1  0  0  0  0
 11 29  1  0  0  0  0
 11 30  1  0  0  0  0
 12 13  1  0  0  0  0
 12 16  1  0  0  0  0
 12 41  1  0  0  0  0
 13 15  1  0  0  0  0
 13 14  1  0  0  0  0
 13 31  1  0  0  0  0
 14 15  1  0  0  0  0
 14 32  1  0  0  0  0
 14 33  1  0  0  0  0
 15 34  1  0  0  0  0
 15 35  1  0  0  0  0
 16 36  1  0  0  0  0
 16 37  1  0  0  0  0
 17 18  1  0  0  0  0
 17 19  1  0  0  0  0
 18 38  1  0  0  0  0
 18 39  1  0  0  0  0
 18 40  1  0  0  0  0
M  CHG  1  12   1
M  END
> <s_m_source_file>
AV-unprocessed.smi

> <i_m_source_file_index>
835

> <i_lp_mmshare_version>
43012

> <i_f3d_flags>
0

> <s_epik_input>
W0NIM11jMVtjSF1jKG4objEpW0NIM10pW05IXUMoPU8pW05IXVtDQEBIXTJbQ0gyXVtDSDJdTihbQ0gyXTIpW0NIXTNbQ0gyXVtDSDJdMw==

> <s_epik_cmdline>
J2VwaWtfcHl0aG9uJywgJy1waCcsICc3LjAnLCAnLXRuJywgJzgnLCAnLW1hJywgJzIwMCcsICctbWV0YWxfYmluZGluZycsICctaW1hZScsICc8aW5maWxlLm1hZT4nLCAnLW9tYWUnLCAnPG91dGZpbGUubWFlPic=

> <r_lp_tautomer_probability>
1

> <r_epik_Ionization_Penalty>
0.000700689

> <r_epik_Ionization_Penalty_Charging>
0.000627528

> <r_epik_Ionization_Penalty_Neutral>
7.31611e-05

> <r_epik_State_Penalty>
0.00039643

> <r_epik_Charging_Adjusted_Penalty>
0.00102396

> <i_epik_Tot_Q>
1

> <i_epik_Tot_abs_Q>
1

> <r_epik_Metal_State_Penalty>
-0

> <b_epik_Metal_Only>
0

> <s_lp_Force_Field>
OPLS_2005

> <r_lp_Energy>
38.9836

> <b_lp_Chiralities_Consistent>
1

> <s_lp_Variant>
AV-unprocessed.smi:835-1

> <Gold.Version>
5.8.1

> <Gold.Id.Protein>
6NUR|6NUR_protein|mol2

> <Gold.PLP.Fitness>
39.6459

> <Gold.PLP.PLP>
-28.9884

> <Gold.PLP.part.hbond>
-3.0000

> <Gold.PLP.part.metal>
0.0000

> <Gold.PLP.part.buried>
-3.9402

> <Gold.PLP.part.nonpolar>
-22.2116

> <Gold.PLP.part.repulsive>
0.0524

> <Gold.PLP.ligand.clash>
0.0000

> <Gold.PLP.ligand.torsion>
1.0767

> <Gold.PLP.Chemscore.Hbond>
3.8480

> <Gold.PLP.Chemscore.CHOScore>
0.0000

> <Gold.PLP.Chemscore.Metal>
0.0000

> <Gold.Chemscore.Hbonds>
donor molecule, donor type, donor heavy atom, donor atom, acceptor molecule, acceptor atom, score
      L1  H     5    24       P1  7948  1.00
      L1  H     8    25       P1  7948  0.83
      L1  H    12    41       P1 10175  2.00

> <Gold.PLP.Chemscore.Internal.Correction>
1.2668

> <Gold.Rescore>
     Score         DG    S(hbond)    S(metal)    S(lipo)     H(rot)  DE(clash)    DE(int)     intcor
     15.16     -16.84       2.65        0.00      48.11       1.22       0.02       1.66       ----

> <Gold.Chemscore.Fitness>
15.1640

> <Gold.Chemscore.DG>
-16.8440

> <Gold.Chemscore.ZeroCoef>
-5.4800

> <Gold.Chemscore.Hbond>
2.6518

> <Gold.Chemscore.Metal>
0.0000

> <Gold.Chemscore.Lipo>
48.1129

> <Gold.Chemscore.Internal_Hbond>
0.0000

> <Gold.Chemscore.DEClash>
0.0154

> <Gold.Chemscore.DEInternal>
1.6645

> <Gold.Chemscore.Rot>
1.2196

> <Gold.Chemscore.Internal.Correction>
   9.000000E+99

> <Gold.Chemscore.Hbonds>
donor molecule, donor type, donor heavy atom, donor atom, acceptor molecule, acceptor atom, score
      L1  H     5    24       P1  7948  0.56
      L1  H     8    25       P1  7948  0.78
      L1  H    12    41       P1 10175  0.89

> <Gold.Chemscore.Hbond.Weighted>
-8.8571

> <Gold.Chemscore.Metal.Weighted>
-0.0000

> <Gold.Chemscore.Lipo.Weighted>
-5.6292

> <Gold.Chemscore.Internal_Hbond.Weighted>
0.0000

> <Gold.Chemscore.DEClash.Weighted>
0.0154

> <Gold.Chemscore.DEInternal.Weighted>
1.6645

> <Gold.Chemscore.Rot.Weighted>
3.1223

> <Gold.Chemscore.Internal.Correction.Weighted>
   9.000000E+99

> <Gold.Protein.RotatedTorsions>
[ 6907 6896 6895 6894 ] final  -51.04 input  -60.11 | X-H torsion
[ 7974 7965 7964 7962 ] final   98.53 input  175.53 | X-H torsion
[ 8008 7997 7996 7995 ] final  -10.65 input   59.86 | X-H torsion
[ 10167 10162 10161 10158 ] final -175.03 input  -65.29 | X-H torsion
[ 10718 10713 10712 10709 ] final -111.55 input   66.30 | X-H torsion
[ 10763 10752 10751 10750 ] final -131.09 input  -60.55 | X-H torsion
[ 11005 11000 10999 10996 ] final  132.39 input  -57.11 | X-H torsion

> <Gold.Protein.ActiveResidues>
 VAL166  LYS551  ARG553  GLY616  TRP617  ASP618  TYR619  PRO620  LYS621  CYS622 
 ASP623  PHE694  ASN695  SER759  ASP760  ASP761  ALA762  ILE779  LEU786  VAL792 
 PHE793  MET794  SER795  GLU796  ALA797  LYS798  CYS799  TRP800  GLU811  SER814 

> <Gold.Protein.RotatedAtoms>
  150.8649  134.8010  159.7110 H   0  0  0  0  0  0  0  0  0  0  0  0  # atno 6907 bound_to 6896
  152.4674  134.5040  159.9743 H   0  0  0  0  0  0  0  0  0  0  0  0  # atno 6908 bound_to 6896
  151.5138  133.3441  159.2925 H   0  0  0  0  0  0  0  0  0  0  0  0  # atno 6909 bound_to 6896
  145.4110  139.2334  143.3248 H   0  0  0  0  0  0  0  0  0  0  0  0  # atno 7974 bound_to 7965
  154.5535  140.2323  155.8447 H   0  0  0  0  0  0  0  0  0  0  0  0  # atno 8008 bound_to 7997
  156.1968  140.3063  155.9404 H   0  0  0  0  0  0  0  0  0  0  0  0  # atno 8009 bound_to 7997
  155.3024  140.0432  157.3021 H   0  0  0  0  0  0  0  0  0  0  0  0  # atno 8010 bound_to 7997
  139.5602  144.1889  152.1226 H   0  0  0  0  0  0  0  0  0  0  0  0  # atno 10167 bound_to 10162
  156.0654  130.5873  150.8389 H   0  0  0  0  0  0  0  0  0  0  0  0  # atno 10718 bound_to 10713
  154.8752  135.3841  154.4189 H   0  0  0  0  0  0  0  0  0  0  0  0  # atno 10763 bound_to 10752
  153.4895  135.7030  153.5897 H   0  0  0  0  0  0  0  0  0  0  0  0  # atno 10764 bound_to 10752
  153.4277  135.3886  155.2118 H   0  0  0  0  0  0  0  0  0  0  0  0  # atno 10765 bound_to 10752
  139.9787  134.9555  156.9575 H   0  0  0  0  0  0  0  0  0  0  0  0  # atno 11005 bound_to 11000
  146.2705  140.4821  142.8816 LP  0  0  0  0  0  0  0  0  0  0  0  0  # atno 17320 bound_to 7965
  144.8309  140.6705  143.6291 LP  0  0  0  0  0  0  0  0  0  0  0  0  # atno 17321 bound_to 7965
  140.1401  144.5210  150.6749 LP  0  0  0  0  0  0  0  0  0  0  0  0  # atno 17342 bound_to 10162
  140.6881  143.2361  151.5206 LP  0  0  0  0  0  0  0  0  0  0  0  0  # atno 17343 bound_to 10162
  157.5691  131.0946  150.9444 LP  0  0  0  0  0  0  0  0  0  0  0  0  # atno 17370 bound_to 10713
  156.9664  130.5474  149.5288 LP  0  0  0  0  0  0  0  0  0  0  0  0  # atno 17371 bound_to 10713
  140.5141  134.0973  155.7277 LP  0  0  0  0  0  0  0  0  0  0  0  0  # atno 17394 bound_to 11000
  141.1461  133.9052  157.2211 LP  0  0  0  0  0  0  0  0  0  0  0  0  # atno 17395 bound_to 11000

$$$$
