#       Name:                AV-unprocessed.smi:2496
#       Creating user name   scv26
#       Creation time:       Fri Mar 27 13:45:38 2020


#       File generated by GOLD software.
#

@<TRIPOS>MOLECULE
AV-unprocessed.smi:2496
    43    43     1
SMALL
NO_CHARGES


@<TRIPOS>ATOM
      1 ****        -3.2947   1.5203   0.9589 C.3            1 S1                 0.0000
      2 ****        -2.6991   0.1630   1.2026 C.2            1 S1                 0.0000
      3 ****        -2.8152  -0.3866   2.4012 N.2            1 S1                 0.0000
      4 ****        -2.1776  -1.5623   2.2792 N.pl3          1 S1                 0.0000
      5 ****        -1.6556  -1.7687   1.0241 C.2            1 S1                 0.0000
      6 ****        -0.8990  -3.0118   0.6902 C.3            1 S1                 0.0000
      7 ****        -1.9788  -0.6605   0.2824 C.2            1 S1                 0.0000
      8 ****        -1.6560  -0.3335  -1.1615 C.3            1 S1                 0.0000
      9 ****        -2.1740  -1.4116  -2.1322 C.3            1 S1                 0.0000
     10 ****        -0.1476  -0.0756  -1.2968 C.2            1 S1                 0.0000
     11 ****         0.5735  -0.8627  -1.9109 O.2            1 S1                 0.0000
     12 ****         0.3113   1.0375  -0.6969 N.am           1 S1                 0.0000
     13 ****         1.7013   1.4923  -0.6016 C.3            1 S1                 0.0000
     14 ****         2.2696   1.8049  -2.0012 C.3            1 S1                 0.0000
     15 ****         2.5845   0.5282   0.2414 C.3            1 S1                 0.0000
     16 ****         1.9572   0.2040   1.6117 C.3            1 S1                 0.0000
     17 ****         4.0088   1.0746   0.4456 C.3            1 S1                 0.0000
     18 ****        -2.1031  -2.2070   3.0532 H              1 S1                 0.0000
     19 ****        -2.5165   2.2506   0.7367 H              1 S1                 0.0000
     20 ****        -3.8504   1.8819   1.8249 H              1 S1                 0.0000
     21 ****        -3.9816   1.4980   0.1128 H              1 S1                 0.0000
     22 ****        -0.0190  -2.7843   0.0890 H              1 S1                 0.0000
     23 ****        -1.5245  -3.7048   0.1277 H              1 S1                 0.0000
     24 ****        -0.5611  -3.5219   1.5925 H              1 S1                 0.0000
     25 ****        -2.1476   0.5971  -1.4475 H              1 S1                 0.0000
     26 ****        -1.7149  -2.3835  -1.9520 H              1 S1                 0.0000
     27 ****        -1.9697  -1.1388  -3.1682 H              1 S1                 0.0000
     28 ****        -3.2530  -1.5339  -2.0348 H              1 S1                 0.0000
     29 ****        -0.3707   1.6102  -0.2213 H              1 S1                 0.0000
     30 ****         1.6473   2.4399  -0.0644 H              1 S1                 0.0000
     31 ****         3.1993   2.3695  -1.9381 H              1 S1                 0.0000
     32 ****         1.5719   2.4096  -2.5816 H              1 S1                 0.0000
     33 ****         2.4740   0.8964  -2.5681 H              1 S1                 0.0000
     34 ****         2.6807  -0.4136  -0.2996 H              1 S1                 0.0000
     35 ****         1.7923   1.1104   2.1948 H              1 S1                 0.0000
     36 ****         2.6045  -0.4516   2.1947 H              1 S1                 0.0000
     37 ****         0.9994  -0.3064   1.5122 H              1 S1                 0.0000
     38 ****         3.9931   2.0517   0.9291 H              1 S1                 0.0000
     39 ****         4.5424   1.1755  -0.4991 H              1 S1                 0.0000
     40 ****         4.6000   0.4054   1.0714 H              1 S1                 0.0000
     41 ****        -3.2713  -0.0135   3.2091 LP             1 S1                 0.0000
     42 ****         0.1785  -1.6810  -2.3286 LP             1 S1                 0.0000
     43 ****         1.5539  -0.6836  -1.9919 LP             1 S1                 0.0000
@<TRIPOS>BOND
    1    1    2 1     
    2    1   19 1     
    3    1   20 1     
    4    1   21 1     
    5    2    7 1     
    6    2    3 2     
    7    3    4 1     
    8    4   18 1     
    9    4    5 1     
   10    5    6 1     
   11    5    7 2     
   12    6   22 1     
   13    6   23 1     
   14    6   24 1     
   15    7    8 1     
   16    8    9 1     
   17    8   10 1     
   18    8   25 1     
   19    9   26 1     
   20    9   27 1     
   21    9   28 1     
   22   10   11 2     
   23   10   12 am    
   24   12   13 1     
   25   12   29 1     
   26   13   14 1     
   27   13   15 1     
   28   13   30 1     
   29   14   31 1     
   30   14   32 1     
   31   14   33 1     
   32   15   16 1     
   33   15   17 1     
   34   15   34 1     
   35   16   35 1     
   36   16   36 1     
   37   16   37 1     
   38   17   38 1     
   39   17   39 1     
   40   17   40 1     
   41    3   41 1     
   42   11   42 1     
   43   11   43 1     
@<TRIPOS>SUBSTRUCTURE
      1 S1             1
@<TRIPOS>SET
LONE_PAIRS      STATIC     ATOMS    <user>   **** ""
3 41 42 43
DONOR_HYDROGENS      STATIC     ATOMS    <user>   **** ""
2 18 29
ATOM$BLUE        STATIC     ATOMS    COLORGROUP SYSTEM
3 41 42 43
ATOM$RED        STATIC     ATOMS    COLORGROUP SYSTEM
2 18 29
