#       Name:                AV-unprocessed.smi:2979
#       Creating user name   scv26
#       Creation time:       Fri Mar 27 16:28:53 2020


#       File generated by GOLD software.
#

@<TRIPOS>MOLECULE
AV-unprocessed.smi:2979
    40    41     1
SMALL
NO_CHARGES


@<TRIPOS>ATOM
      1 ****        -1.8805   2.8328   0.8233 C.3            1 S1                 0.0000
      2 ****        -1.4798   1.5104   1.1341 O.3            1 S1                 0.0000
      3 ****        -2.1282   0.5416   0.3258 C.3            1 S1                 0.0000
      4 ****        -1.6057  -0.8595   0.6741 C.3            1 S1                 0.0000
      5 ****        -0.1518  -0.9477   0.6177 N.pl3          1 S1                 0.0000
      6 ****         0.6523  -1.0513  -0.4726 C.2            1 S1                 0.0000
      7 ****         0.1284  -1.0600  -1.8782 C.3            1 S1                 0.0000
      8 ****         0.3657   0.2735  -2.6038 C.3            1 S1                 0.0000
      9 ****        -0.2281   0.2833  -4.0180 C.3            1 S1                 0.0000
     10 ****         0.0151   1.5306  -4.6314 O.3            1 S1                 0.0000
     11 ****         1.9595  -1.1348  -0.2220 N.2            1 S1                 0.0000
     12 ****         2.0121  -1.0650   1.1557 C.ar           1 S1                 0.0000
     13 ****         3.1190  -1.0944   2.0339 C.ar           1 S1                 0.0000
     14 ****         2.9268  -1.0036   3.4279 C.ar           1 S1                 0.0000
     15 ****         1.6279  -0.8817   3.9623 C.ar           1 S1                 0.0000
     16 ****         0.5115  -0.8518   3.1047 C.ar           1 S1                 0.0000
     17 ****         0.7080  -0.9444   1.7132 C.ar           1 S1                 0.0000
     18 ****        -1.3606   3.5352   1.4747 H              1 S1                 0.0000
     19 ****        -2.9530   2.9654   0.9711 H              1 S1                 0.0000
     20 ****        -1.6345   3.0860  -0.2088 H              1 S1                 0.0000
     21 ****        -3.2064   0.5834   0.4864 H              1 S1                 0.0000
     22 ****        -1.9548   0.7560  -0.7285 H              1 S1                 0.0000
     23 ****        -1.9294  -1.1251   1.6806 H              1 S1                 0.0000
     24 ****        -2.0402  -1.6119   0.0164 H              1 S1                 0.0000
     25 ****         0.6240  -1.8650  -2.4223 H              1 S1                 0.0000
     26 ****        -0.9322  -1.3048  -1.8884 H              1 S1                 0.0000
     27 ****        -0.0669   1.0896  -2.0244 H              1 S1                 0.0000
     28 ****         1.4371   0.4721  -2.6563 H              1 S1                 0.0000
     29 ****         0.2147  -0.5051  -4.6272 H              1 S1                 0.0000
     30 ****        -1.3038   0.1082  -3.9854 H              1 S1                 0.0000
     31 ****        -0.3513   1.5143  -5.5023 H              1 S1                 0.0000
     32 ****         4.1179  -1.1856   1.6336 H              1 S1                 0.0000
     33 ****         3.7799  -1.0261   4.0900 H              1 S1                 0.0000
     34 ****         1.4891  -0.8103   5.0312 H              1 S1                 0.0000
     35 ****        -0.4834  -0.7554   3.5130 H              1 S1                 0.0000
     36 ****        -1.6978   1.3262   2.0925 LP             1 S1                 0.0000
     37 ****        -0.4923   1.4339   0.9963 LP             1 S1                 0.0000
     38 ****         1.0003   1.6943  -4.6833 LP             1 S1                 0.0000
     39 ****        -0.4160   2.2583  -4.0979 LP             1 S1                 0.0000
     40 ****         2.7146  -1.2255  -0.8713 LP             1 S1                 0.0000
@<TRIPOS>BOND
    1    1    2 1     
    2    1   18 1     
    3    1   19 1     
    4    1   20 1     
    5    2    3 1     
    6    3    4 1     
    7    3   21 1     
    8    3   22 1     
    9    4    5 1     
   10    4   23 1     
   11    4   24 1     
   12    5   17 1     
   13    5    6 1     
   14    6    7 1     
   15    6   11 2     
   16    7    8 1     
   17    7   25 1     
   18    7   26 1     
   19    8    9 1     
   20    8   27 1     
   21    8   28 1     
   22    9   10 1     
   23    9   29 1     
   24    9   30 1     
   25   10   31 1     
   26   11   12 1     
   27   12   17 ar    
   28   12   13 ar    
   29   13   14 ar    
   30   13   32 1     
   31   14   15 ar    
   32   14   33 1     
   33   15   16 ar    
   34   15   34 1     
   35   16   17 ar    
   36   16   35 1     
   37    2   36 1     
   38    2   37 1     
   39   10   38 1     
   40   10   39 1     
   41   11   40 1     
@<TRIPOS>SUBSTRUCTURE
      1 S1             1
@<TRIPOS>SET
LONE_PAIRS      STATIC     ATOMS    <user>   **** ""
5 36 37 38 39 40
DONOR_HYDROGENS      STATIC     ATOMS    <user>   **** ""
1 31
ATOM$BLUE        STATIC     ATOMS    COLORGROUP SYSTEM
5 36 37 38 39 40
ATOM$RED        STATIC     ATOMS    COLORGROUP SYSTEM
1 31
