#       Name:                AV-unprocessed.smi:2001
#       Creating user name   scv26
#       Creation time:       Fri Mar 27 10:32:34 2020


#       File generated by GOLD software.
#

@<TRIPOS>MOLECULE
AV-unprocessed.smi:2001
    60    61     1
SMALL
NO_CHARGES


@<TRIPOS>ATOM
      1 ****        -7.0097  -1.5952  -2.7580 C.3            1 S1                 0.0000
      2 ****        -6.4448  -1.2987  -1.4929 O.3            1 S1                 0.0000
      3 ****        -5.7411  -0.0684  -1.4870 C.3            1 S1                 0.0000
      4 ****        -5.1549   0.1594  -0.0856 C.3            1 S1                 0.0000
      5 ****        -4.3721   1.3977  -0.0226 N.am           1 S1                 0.0000
      6 ****        -3.0100   1.2136  -0.1945 N.2            1 S1                 0.0000
      7 ****        -2.2067   2.2274  -0.1540 C.2            1 S1                 0.0000
      8 ****        -0.7356   2.0716  -0.3253 C.2            1 S1                 0.0000
      9 ****         0.0348   3.0288  -0.2323 O.2            1 S1                 0.0000
     10 ****        -0.3144   0.8200  -0.5812 N.am           1 S1                 0.0000
     11 ****         1.0760   0.4225  -0.7626 C.3            1 S1                 0.0000
     12 ****         1.7544   0.1539   0.5930 C.3            1 S1                 0.0000
     13 ****         3.1797  -0.1623   0.5205 N.3            1 S1                 0.0000
     14 ****         3.4416  -1.4371  -0.1430 C.3            1 S1                 0.0000
     15 ****         4.9469  -1.7628  -0.1906 C.3            1 S1                 0.0000
     16 ****         5.2251  -3.1351  -0.8128 C.3            1 S1                 0.0000
     17 ****         5.4666  -1.7593   1.1360 O.3            1 S1                 0.0000
     18 ****         5.2784  -0.5187   1.8108 C.3            1 S1                 0.0000
     19 ****         5.8844  -0.6373   3.2132 C.3            1 S1                 0.0000
     20 ****         3.7731  -0.1925   1.8527 C.3            1 S1                 0.0000
     21 ****        -2.7151   3.5711   0.0654 C.2            1 S1                 0.0000
     22 ****        -4.0469   3.7357   0.2226 C.2            1 S1                 0.0000
     23 ****        -4.9772   2.6065   0.1805 C.2            1 S1                 0.0000
     24 ****        -6.1942   2.7319   0.3132 O.2            1 S1                 0.0000
     25 ****        -7.5450  -2.5433  -2.7068 H              1 S1                 0.0000
     26 ****        -6.2374  -1.6861  -3.5230 H              1 S1                 0.0000
     27 ****        -7.7185  -0.8249  -3.0647 H              1 S1                 0.0000
     28 ****        -4.9410  -0.0931  -2.2287 H              1 S1                 0.0000
     29 ****        -6.4157   0.7463  -1.7554 H              1 S1                 0.0000
     30 ****        -5.9547   0.1751   0.6571 H              1 S1                 0.0000
     31 ****        -4.5256  -0.6906   0.1851 H              1 S1                 0.0000
     32 ****        -1.0100   0.0903  -0.6438 H              1 S1                 0.0000
     33 ****         1.0778  -0.4742  -1.3813 H              1 S1                 0.0000
     34 ****         1.6204   1.1875  -1.3188 H              1 S1                 0.0000
     35 ****         1.6290   1.0447   1.2103 H              1 S1                 0.0000
     36 ****         1.2253  -0.6465   1.1130 H              1 S1                 0.0000
     37 ****         2.9112  -2.2381   0.3745 H              1 S1                 0.0000
     38 ****         3.0593  -1.4164  -1.1630 H              1 S1                 0.0000
     39 ****         5.4660  -1.0016  -0.7757 H              1 S1                 0.0000
     40 ****         4.8477  -3.1871  -1.8344 H              1 S1                 0.0000
     41 ****         4.7510  -3.9318  -0.2391 H              1 S1                 0.0000
     42 ****         6.2957  -3.3384  -0.8436 H              1 S1                 0.0000
     43 ****         5.8069   0.2648   1.2649 H              1 S1                 0.0000
     44 ****         5.7776   0.2958   3.7669 H              1 S1                 0.0000
     45 ****         6.9478  -0.8717   3.1596 H              1 S1                 0.0000
     46 ****         5.3978  -1.4260   3.7878 H              1 S1                 0.0000
     47 ****         3.6284   0.7718   2.3417 H              1 S1                 0.0000
     48 ****         3.2588  -0.9330   2.4677 H              1 S1                 0.0000
     49 ****        -2.0518   4.4231   0.1008 H              1 S1                 0.0000
     50 ****        -4.4387   4.7293   0.3842 H              1 S1                 0.0000
     51 ****        -5.8113  -2.0316  -1.2450 LP             1 S1                 0.0000
     52 ****        -7.1800  -1.2507  -0.8168 LP             1 S1                 0.0000
     53 ****        -2.6466   0.2951  -0.3503 LP             1 S1                 0.0000
     54 ****        -0.3234   3.9418  -0.0367 LP             1 S1                 0.0000
     55 ****         1.0182   2.8927  -0.3525 LP             1 S1                 0.0000
     56 ****         3.5971   0.5643  -0.0254 LP             1 S1                 0.0000
     57 ****         6.4469  -1.9522   1.0935 LP             1 S1                 0.0000
     58 ****         5.0078  -2.4779   1.6587 LP             1 S1                 0.0000
     59 ****        -6.7869   1.9275   0.2743 LP             1 S1                 0.0000
     60 ****        -6.5904   3.6383   0.4599 LP             1 S1                 0.0000
@<TRIPOS>BOND
    1    1    2 1     
    2    1   25 1     
    3    1   26 1     
    4    1   27 1     
    5    2    3 1     
    6    3    4 1     
    7    3   28 1     
    8    3   29 1     
    9    4    5 1     
   10    4   30 1     
   11    4   31 1     
   12    5   23 am    
   13    5    6 1     
   14    6    7 2     
   15    7    8 1     
   16    7   21 1     
   17    8    9 2     
   18    8   10 am    
   19   10   11 1     
   20   10   32 1     
   21   11   12 1     
   22   11   33 1     
   23   11   34 1     
   24   12   13 1     
   25   12   35 1     
   26   12   36 1     
   27   13   20 1     
   28   13   14 1     
   29   14   15 1     
   30   14   37 1     
   31   14   38 1     
   32   15   16 1     
   33   15   17 1     
   34   15   39 1     
   35   16   40 1     
   36   16   41 1     
   37   16   42 1     
   38   17   18 1     
   39   18   19 1     
   40   18   20 1     
   41   18   43 1     
   42   19   44 1     
   43   19   45 1     
   44   19   46 1     
   45   20   47 1     
   46   20   48 1     
   47   21   22 2     
   48   21   49 1     
   49   22   23 1     
   50   22   50 1     
   51   23   24 2     
   52    2   51 1     
   53    2   52 1     
   54    6   53 1     
   55    9   54 1     
   56    9   55 1     
   57   13   56 1     
   58   17   57 1     
   59   17   58 1     
   60   24   59 1     
   61   24   60 1     
@<TRIPOS>SUBSTRUCTURE
      1 S1             1
@<TRIPOS>SET
LONE_PAIRS      STATIC     ATOMS    <user>   **** ""
10 51 52 53 54 55 56 57 58 59 60
DONOR_HYDROGENS      STATIC     ATOMS    <user>   **** ""
1 32
ATOM$BLUE        STATIC     ATOMS    COLORGROUP SYSTEM
10 51 52 53 54 55 56 57 58 59 60
ATOM$RED        STATIC     ATOMS    COLORGROUP SYSTEM
1 32
