AV-unprocessed.smi:1440|AV-procd|sdf|5873|dock3
  -GOLD-   22720 5553D 1   1.00000     0.00000
 Structure written by MMmdl.
 41 42  0  0  0  0  0  0  0  0  1 V2000
  153.3803  142.5079  160.8779 C   0  0  0  0  0  0  0  0  0  0  0  0
  152.2591  142.5098  159.8294 C   0  0  2  0  0  0  0  0  0  0  0  0
  152.1827  141.1660  159.0809 C   0  0  0  0  0  0  0  0  0  0  0  0
  151.0567  141.1652  158.0348 C   0  0  0  0  0  0  0  0  0  0  0  0
  151.2100  142.3306  157.0352 C   0  0  1  0  0  0  0  0  0  0  0  0
  150.0850  142.3670  156.1050 N   0  0  0  0  0  0  0  0  0  0  0  0
  149.7978  141.4262  155.1927 C   0  0  0  0  0  0  0  0  0  0  0  0
  150.4679  140.4028  155.0460 O   0  0  0  0  0  0  0  0  0  0  0  0
  148.5533  141.6890  154.3349 C   0  0  0  0  0  0  0  0  0  0  0  0
  147.4440  142.2680  155.0885 N   0  0  0  0  0  0  0  0  0  0  0  0
  146.2263  141.7190  155.2245 C   0  0  0  0  0  0  0  0  0  0  0  0
  145.8996  140.6532  154.7033 O   0  0  0  0  0  0  0  0  0  0  0  0
  145.2240  142.4880  156.0860 C   0  0  0  0  0  0  0  0  0  0  0  0
  145.6921  142.6111  157.4543 N   0  0  0  0  0  0  0  0  0  0  0  0
  146.1865  141.6937  158.2878 C   0  0  0  0  0  0  0  0  0  0  0  0
  146.5110  142.1736  159.4804 N   0  0  0  0  0  0  0  0  0  0  0  0
  146.1662  143.4838  159.3009 C   0  0  0  0  0  0  0  0  0  0  0  0
  145.6707  143.7991  158.1042 N   0  0  0  0  0  0  0  0  0  0  0  0
  151.3012  143.6755  157.7795 C   0  0  0  0  0  0  0  0  0  0  0  0
  152.4250  143.6687  158.8284 C   0  0  0  0  0  0  0  0  0  0  0  0
  154.3568  142.3659  160.4141 H   0  0  0  0  0  0  0  0  0  0  0  0
  153.2370  141.7077  161.6046 H   0  0  0  0  0  0  0  0  0  0  0  0
  153.4057  143.4500  161.4263 H   0  0  0  0  0  0  0  0  0  0  0  0
  151.3159  142.6539  160.3588 H   0  0  0  0  0  0  0  0  0  0  0  0
  153.1350  140.9627  158.5888 H   0  0  0  0  0  0  0  0  0  0  0  0
  152.0221  140.3525  159.7890 H   0  0  0  0  0  0  0  0  0  0  0  0
  151.0546  140.2108  157.5070 H   0  0  0  0  0  0  0  0  0  0  0  0
  150.0935  141.2379  158.5421 H   0  0  0  0  0  0  0  0  0  0  0  0
  152.1325  142.1915  156.4680 H   0  0  0  0  0  0  0  0  0  0  0  0
  149.4790  143.1728  156.1583 H   0  0  0  0  0  0  0  0  0  0  0  0
  148.8205  142.3831  153.5376 H   0  0  0  0  0  0  0  0  0  0  0  0
  148.2389  140.7628  153.8504 H   0  0  0  0  0  0  0  0  0  0  0  0
  147.6214  143.1455  155.5558 H   0  0  0  0  0  0  0  0  0  0  0  0
  145.0716  143.4881  155.6776 H   0  0  0  0  0  0  0  0  0  0  0  0
  144.2555  141.9851  156.0747 H   0  0  0  0  0  0  0  0  0  0  0  0
  146.3087  140.6551  158.0171 H   0  0  0  0  0  0  0  0  0  0  0  0
  146.2837  144.2274  160.0755 H   0  0  0  0  0  0  0  0  0  0  0  0
  151.4697  144.4854  157.0686 H   0  0  0  0  0  0  0  0  0  0  0  0
  150.3520  143.8903  158.2727 H   0  0  0  0  0  0  0  0  0  0  0  0
  152.4329  144.6211  159.3594 H   0  0  0  0  0  0  0  0  0  0  0  0
  153.3899  143.5875  158.3261 H   0  0  0  0  0  0  0  0  0  0  0  0
  1  2  1  0  0  0  0
  1 21  1  0  0  0  0
  1 22  1  0  0  0  0
  1 23  1  0  0  0  0
  2 20  1  0  0  0  0
  2  3  1  0  0  0  0
  2 24  1  0  0  0  0
  3  4  1  0  0  0  0
  3 25  1  0  0  0  0
  3 26  1  0  0  0  0
  4  5  1  0  0  0  0
  4 27  1  0  0  0  0
  4 28  1  0  0  0  0
  5  6  1  0  0  0  0
  5 19  1  0  0  0  0
  5 29  1  0  0  0  0
  6  7  1  0  0  0  0
  6 30  1  0  0  0  0
  7  8  2  0  0  0  0
  7  9  1  0  0  0  0
  9 10  1  0  0  0  0
  9 31  1  0  0  0  0
  9 32  1  0  0  0  0
 10 11  1  0  0  0  0
 10 33  1  0  0  0  0
 11 12  2  0  0  0  0
 11 13  1  0  0  0  0
 13 14  1  0  0  0  0
 13 34  1  0  0  0  0
 13 35  1  0  0  0  0
 14 18  1  0  0  0  0
 14 15  1  0  0  0  0
 15 16  2  0  0  0  0
 15 36  1  0  0  0  0
 16 17  1  0  0  0  0
 17 18  2  0  0  0  0
 17 37  1  0  0  0  0
 19 20  1  0  0  0  0
 19 38  1  0  0  0  0
 19 39  1  0  0  0  0
 20 40  1  0  0  0  0
 20 41  1  0  0  0  0
M  END
> <s_m_source_file>
AV-unprocessed.smi

> <i_m_source_file_index>
1440

> <i_lp_mmshare_version>
43012

> <i_f3d_flags>
0

> <s_epik_input>
W0NIM11bQ0BASF0xW0NIMl1bQ0gyXVtDQEhdKFtDSDJdW0NIMl0xKVtOSF1DKD1PKVtDSDJdW05IXUMoPU8pW0NIMl1uMltjSF1uW2NIXW4y

> <s_epik_cmdline>
J2VwaWtfcHl0aG9uJywgJy1waCcsICc3LjAnLCAnLXRuJywgJzgnLCAnLW1hJywgJzIwMCcsICctbWV0YWxfYmluZGluZycsICctaW1hZScsICc8aW5maWxlLm1hZT4nLCAnLW9tYWUnLCAnPG91dGZpbGUubWFlPic=

> <r_lp_tautomer_probability>
1

> <r_epik_Ionization_Penalty>
7.34071e-06

> <r_epik_Ionization_Penalty_Charging>
0

> <r_epik_Ionization_Penalty_Neutral>
7.34071e-06

> <r_epik_State_Penalty>
-0

> <r_epik_Charging_Adjusted_Penalty>
0

> <i_epik_Tot_Q>
0

> <i_epik_Tot_abs_Q>
0

> <r_epik_Metal_State_Penalty>
-0

> <b_epik_Metal_Only>
0

> <s_lp_Force_Field>
OPLS_2005

> <r_lp_Energy>
7.17082

> <b_lp_Chiralities_Consistent>
1

> <s_lp_Variant>
AV-unprocessed.smi:1440-1

> <Gold.Version>
5.8.1

> <Gold.Id.Protein>
6NUR|6NUR_protein|mol2

> <Gold.PLP.Fitness>
48.6059

> <Gold.PLP.PLP>
-37.6579

> <Gold.PLP.part.hbond>
-4.0000

> <Gold.PLP.part.metal>
0.0000

> <Gold.PLP.part.buried>
-5.4116

> <Gold.PLP.part.nonpolar>
-28.9666

> <Gold.PLP.part.repulsive>
1.1941

> <Gold.PLP.ligand.clash>
0.0000

> <Gold.PLP.ligand.torsion>
0.4565

> <Gold.PLP.Chemscore.Hbond>
3.9440

> <Gold.PLP.Chemscore.CHOScore>
0.0000

> <Gold.PLP.Chemscore.Metal>
0.0000

> <Gold.Chemscore.Hbonds>
donor molecule, donor type, donor heavy atom, donor atom, acceptor molecule, acceptor atom, score
      L1  H     6    30       P1  8028  1.00
      L1  H    10    33       P1  8028  0.90
      P1  H  6934  6946       L1    16  1.00
      P1  H  7989  7998       L1     8  1.00

> <Gold.PLP.Chemscore.Internal.Correction>
0.0290

> <Gold.Rescore>
     Score         DG    S(hbond)    S(metal)    S(lipo)     H(rot)  DE(clash)    DE(int)     intcor
     15.80     -16.65       2.68        0.00      81.42       2.86       0.41       0.43       ----

> <Gold.Chemscore.Fitness>
15.8009

> <Gold.Chemscore.DG>
-16.6453

> <Gold.Chemscore.ZeroCoef>
-5.4800

> <Gold.Chemscore.Hbond>
2.6846

> <Gold.Chemscore.Metal>
0.0000

> <Gold.Chemscore.Lipo>
81.4153

> <Gold.Chemscore.Internal_Hbond>
0.0000

> <Gold.Chemscore.DEClash>
0.4109

> <Gold.Chemscore.DEInternal>
0.4335

> <Gold.Chemscore.Rot>
2.8621

> <Gold.Chemscore.Internal.Correction>
   9.000000E+99

> <Gold.Chemscore.Hbonds>
donor molecule, donor type, donor heavy atom, donor atom, acceptor molecule, acceptor atom, score
      L1  H     6    30       P1  8028  0.98
      L1  H    10    33       P1  8028  0.26
      P1  H  6934  6946       L1    16  0.82
      P1  H  7989  7998       L1     8  0.33

> <Gold.Chemscore.Hbond.Weighted>
-8.9666

> <Gold.Chemscore.Metal.Weighted>
-0.0000

> <Gold.Chemscore.Lipo.Weighted>
-9.5256

> <Gold.Chemscore.Internal_Hbond.Weighted>
0.0000

> <Gold.Chemscore.DEClash.Weighted>
0.4109

> <Gold.Chemscore.DEInternal.Weighted>
0.4335

> <Gold.Chemscore.Rot.Weighted>
7.3270

> <Gold.Chemscore.Internal.Correction.Weighted>
   9.000000E+99

> <Gold.Protein.RotatedTorsions>
[ 6907 6896 6895 6894 ] final  175.66 input  -60.11 | X-H torsion
[ 7974 7965 7964 7962 ] final  -46.07 input  175.53 | X-H torsion
[ 8008 7997 7996 7995 ] final  -98.37 input   59.86 | X-H torsion
[ 10167 10162 10161 10158 ] final  -79.66 input  -65.29 | X-H torsion
[ 10718 10713 10712 10709 ] final -122.26 input   66.30 | X-H torsion
[ 10763 10752 10751 10750 ] final  156.14 input  -60.55 | X-H torsion
[ 11005 11000 10999 10996 ] final   22.47 input  -57.11 | X-H torsion

> <Gold.Protein.ActiveResidues>
 VAL166  LYS551  ARG553  GLY616  TRP617  ASP618  TYR619  PRO620  LYS621  CYS622 
 ASP623  PHE694  ASN695  SER759  ASP760  ASP761  ALA762  ILE779  LEU786  VAL792 
 PHE793  MET794  SER795  GLU796  ALA797  LYS798  CYS799  TRP800  GLU811  SER814 

> <Gold.Protein.RotatedAtoms>
  151.7327  133.3318  159.3344 H   0  0  0  0  0  0  0  0  0  0  0  0  # atno 6907 bound_to 6896
  150.7606  134.6349  159.6215 H   0  0  0  0  0  0  0  0  0  0  0  0  # atno 6908 bound_to 6896
  152.3582  134.6913  160.0267 H   0  0  0  0  0  0  0  0  0  0  0  0  # atno 6909 bound_to 6896
  145.9756  140.7337  142.9389 H   0  0  0  0  0  0  0  0  0  0  0  0  # atno 7974 bound_to 7965
  154.8004  140.0455  157.1268 H   0  0  0  0  0  0  0  0  0  0  0  0  # atno 8008 bound_to 7997
  154.9486  140.3062  155.5066 H   0  0  0  0  0  0  0  0  0  0  0  0  # atno 8009 bound_to 7997
  156.2961  140.2292  156.4562 H   0  0  0  0  0  0  0  0  0  0  0  0  # atno 8010 bound_to 7997
  140.4573  143.2464  151.8401 H   0  0  0  0  0  0  0  0  0  0  0  0  # atno 10167 bound_to 10162
  156.1404  130.6461  150.9762 H   0  0  0  0  0  0  0  0  0  0  0  0  # atno 10718 bound_to 10713
  154.1797  135.2800  155.3056 H   0  0  0  0  0  0  0  0  0  0  0  0  # atno 10763 bound_to 10752
  154.6012  135.5529  153.7380 H   0  0  0  0  0  0  0  0  0  0  0  0  # atno 10764 bound_to 10752
  153.0141  135.6392  154.1936 H   0  0  0  0  0  0  0  0  0  0  0  0  # atno 10765 bound_to 10752
  140.3802  134.1929  155.7664 H   0  0  0  0  0  0  0  0  0  0  0  0  # atno 11005 bound_to 11000
  144.6848  140.2822  143.7290 LP  0  0  0  0  0  0  0  0  0  0  0  0  # atno 17320 bound_to 7965
  145.7843  139.1903  143.2139 LP  0  0  0  0  0  0  0  0  0  0  0  0  # atno 17321 bound_to 7965
  139.4802  144.5050  151.9010 LP  0  0  0  0  0  0  0  0  0  0  0  0  # atno 17342 bound_to 10162
  140.4136  144.2336  150.5888 LP  0  0  0  0  0  0  0  0  0  0  0  0  # atno 17343 bound_to 10162
  157.6570  131.0887  150.7924 LP  0  0  0  0  0  0  0  0  0  0  0  0  # atno 17370 bound_to 10713
  156.8000  130.4918  149.5371 LP  0  0  0  0  0  0  0  0  0  0  0  0  # atno 17371 bound_to 10713
  141.1926  133.8169  157.0833 LP  0  0  0  0  0  0  0  0  0  0  0  0  # atno 17394 bound_to 11000
  140.0484  134.9818  157.1092 LP  0  0  0  0  0  0  0  0  0  0  0  0  # atno 17395 bound_to 11000

$$$$
