AV-unprocessed.smi:1661|AV-procd|sdf|6653|dock1
  -GOLD-   22720 7363D 1   1.00000     0.00000
 Structure written by MMmdl.
 38 39  0  0  0  0  0  0  0  0  2 V2000
  144.1645  131.8689  150.6658 C   0  0  0  0  0  0  0  0  0  0  0  0
  145.2811  132.1820  151.6715 C   0  0  2  0  0  0  0  0  0  0  0  0
  146.3970  133.0301  151.0391 C   0  0  0  0  0  0  0  0  0  0  0  0
  147.5251  133.3105  152.0461 C   0  0  0  0  0  0  0  0  0  0  0  0
  148.0851  132.0473  152.5922 N   0  3  1  0  0  0  0  0  0  0  0  0
  149.2597  132.2870  153.4673 C   0  0  0  0  0  0  0  0  0  0  0  0
  148.9502  133.2774  154.6071 C   0  0  0  0  0  0  0  0  0  0  0  0
  149.2342  134.6528  154.2142 N   0  0  0  0  0  0  0  0  0  0  0  0
  150.0391  135.4879  154.8875 C   0  0  0  0  0  0  0  0  0  0  0  0
  150.6189  135.1732  155.9272 O   0  0  0  0  0  0  0  0  0  0  0  0
  150.1185  136.6862  154.2826 N   0  0  0  0  0  0  0  0  0  0  0  0
  150.8600  137.8279  154.6873 C   0  0  0  0  0  0  0  0  0  0  0  0
  150.5819  139.0774  154.2834 N   0  0  0  0  0  0  0  0  0  0  0  0
  151.4614  140.0062  154.8247 N   0  0  0  0  0  0  0  0  0  0  0  0
  152.3665  139.4217  155.6147 C   0  0  0  0  0  0  0  0  0  0  0  0
  152.2329  137.6790  155.7749 S   0  0  0  0  0  0  0  0  0  0  0  0
  147.0309  131.2235  153.2427 C   0  0  0  0  0  0  0  0  0  0  0  0
  145.8930  130.8999  152.2602 C   0  0  0  0  0  0  0  0  0  0  0  0
  144.5411  131.2938  149.8192 H   0  0  0  0  0  0  0  0  0  0  0  0
  143.7200  132.7845  150.2746 H   0  0  0  0  0  0  0  0  0  0  0  0
  143.3670  131.2902  151.1327 H   0  0  0  0  0  0  0  0  0  0  0  0
  144.8404  132.7548  152.4889 H   0  0  0  0  0  0  0  0  0  0  0  0
  146.8062  132.5151  150.1686 H   0  0  0  0  0  0  0  0  0  0  0  0
  145.9883  133.9735  150.6752 H   0  0  0  0  0  0  0  0  0  0  0  0
  148.3120  133.8784  151.5481 H   0  0  0  0  0  0  0  0  0  0  0  0
  147.1555  133.9304  152.8645 H   0  0  0  0  0  0  0  0  0  0  0  0
  149.5723  131.3443  153.9190 H   0  0  0  0  0  0  0  0  0  0  0  0
  150.1003  132.6291  152.8615 H   0  0  0  0  0  0  0  0  0  0  0  0
  147.9109  133.2082  154.9289 H   0  0  0  0  0  0  0  0  0  0  0  0
  149.5604  133.0415  155.4794 H   0  0  0  0  0  0  0  0  0  0  0  0
  148.7978  134.9870  153.3672 H   0  0  0  0  0  0  0  0  0  0  0  0
  149.5865  136.7968  153.4320 H   0  0  0  0  0  0  0  0  0  0  0  0
  153.1180  140.0213  156.1068 H   0  0  0  0  0  0  0  0  0  0  0  0
  147.4508  130.2891  153.6127 H   0  0  0  0  0  0  0  0  0  0  0  0
  146.6357  131.7545  154.1105 H   0  0  0  0  0  0  0  0  0  0  0  0
  145.1234  130.3198  152.7708 H   0  0  0  0  0  0  0  0  0  0  0  0
  146.2743  130.2674  151.4572 H   0  0  0  0  0  0  0  0  0  0  0  0
  148.4218  131.5234  151.7971 H   0  0  0  0  0  0  0  0  0  0  0  0
  1  2  1  0  0  0  0
  1 19  1  0  0  0  0
  1 20  1  0  0  0  0
  1 21  1  0  0  0  0
  2 18  1  0  0  0  0
  2  3  1  0  0  0  0
  2 22  1  0  0  0  0
  3  4  1  0  0  0  0
  3 23  1  0  0  0  0
  3 24  1  0  0  0  0
  4  5  1  0  0  0  0
  4 25  1  0  0  0  0
  4 26  1  0  0  0  0
  5  6  1  0  0  0  0
  5 17  1  0  0  0  0
  5 38  1  0  0  0  0
  6  7  1  0  0  0  0
  6 27  1  0  0  0  0
  6 28  1  0  0  0  0
  7  8  1  0  0  0  0
  7 29  1  0  0  0  0
  7 30  1  0  0  0  0
  8  9  1  0  0  0  0
  8 31  1  0  0  0  0
  9 10  2  0  0  0  0
  9 11  1  0  0  0  0
 11 12  1  0  0  0  0
 11 32  1  0  0  0  0
 12 16  1  0  0  0  0
 12 13  2  0  0  0  0
 13 14  1  0  0  0  0
 14 15  2  0  0  0  0
 15 16  1  0  0  0  0
 15 33  1  0  0  0  0
 17 18  1  0  0  0  0
 17 34  1  0  0  0  0
 17 35  1  0  0  0  0
 18 36  1  0  0  0  0
 18 37  1  0  0  0  0
M  CHG  1   5   1
M  END
> <s_m_source_file>
AV-unprocessed.smi

> <i_m_source_file_index>
1661

> <i_lp_mmshare_version>
43012

> <i_f3d_flags>
0

> <s_epik_input>
W0NIM11bQ0hdMVtDSDJdW0NIMl1OKFtDSDJdW0NIMl0xKVtDSDJdW0NIMl1bTkhdQyg9TylbTkhdYzJubltjSF1zMg==

> <s_epik_cmdline>
J2VwaWtfcHl0aG9uJywgJy1waCcsICc3LjAnLCAnLXRuJywgJzgnLCAnLW1hJywgJzIwMCcsICctbWV0YWxfYmluZGluZycsICctaW1hZScsICc8aW5maWxlLm1hZT4nLCAnLW9tYWUnLCAnPG91dGZpbGUubWFlPic=

> <r_lp_tautomer_probability>
1

> <r_epik_Ionization_Penalty>
0.0053917

> <r_epik_Ionization_Penalty_Charging>
0.00168873

> <r_epik_Ionization_Penalty_Neutral>
0.00370297

> <r_epik_State_Penalty>
-0

> <r_epik_Charging_Adjusted_Penalty>
0.00168873

> <i_epik_Tot_Q>
1

> <i_epik_Tot_abs_Q>
1

> <r_epik_Metal_State_Penalty>
0.36997

> <b_epik_Metal_Only>
0

> <s_lp_Force_Field>
OPLS_2005

> <r_lp_Energy>
14.0049

> <b_lp_Chiralities_Consistent>
1

> <s_lp_Variant>
AV-unprocessed.smi:1661-1

> <Gold.Version>
5.8.1

> <Gold.Id.Protein>
6NUR|6NUR_protein|mol2

> <Gold.PLP.Fitness>
44.8397

> <Gold.PLP.PLP>
-33.9604

> <Gold.PLP.part.hbond>
-5.1903

> <Gold.PLP.part.metal>
0.0000

> <Gold.PLP.part.buried>
-4.8250

> <Gold.PLP.part.nonpolar>
-24.0859

> <Gold.PLP.part.repulsive>
0.3565

> <Gold.PLP.ligand.clash>
0.0000

> <Gold.PLP.ligand.torsion>
0.3484

> <Gold.PLP.Chemscore.Hbond>
3.8480

> <Gold.PLP.Chemscore.CHOScore>
0.0000

> <Gold.PLP.Chemscore.Metal>
0.0000

> <Gold.Chemscore.Hbonds>
donor molecule, donor type, donor heavy atom, donor atom, acceptor molecule, acceptor atom, score
      L1  H     5    38       P1 10747  1.00
      L1  H     8    31       P1  7948  0.90
      L1  H    11    32       P1  7948  1.00
      P1  H  7989  7998       L1    14  0.85

> <Gold.PLP.Chemscore.Internal.Correction>
0.0321

> <Gold.Rescore>
     Score         DG    S(hbond)    S(metal)    S(lipo)     H(rot)  DE(clash)    DE(int)     intcor
     16.62     -18.93       2.97        0.00      67.35       1.70       0.05       2.26       ----

> <Gold.Chemscore.Fitness>
16.6234

> <Gold.Chemscore.DG>
-18.9324

> <Gold.Chemscore.ZeroCoef>
-5.4800

> <Gold.Chemscore.Hbond>
2.9749

> <Gold.Chemscore.Metal>
0.0000

> <Gold.Chemscore.Lipo>
67.3525

> <Gold.Chemscore.Internal_Hbond>
0.0000

> <Gold.Chemscore.DEClash>
0.0508

> <Gold.Chemscore.DEInternal>
2.2582

> <Gold.Chemscore.Rot>
1.7046

> <Gold.Chemscore.Internal.Correction>
   9.000000E+99

> <Gold.Chemscore.Hbonds>
donor molecule, donor type, donor heavy atom, donor atom, acceptor molecule, acceptor atom, score
      L1  H     5    38       P1 10747  1.00
      L1  H     8    31       P1  7948  0.44
      L1  H    11    32       P1  7948  0.67
      P1  H  7989  7998       L1    14  0.14

> <Gold.Chemscore.Hbond.Weighted>
-9.9360

> <Gold.Chemscore.Metal.Weighted>
-0.0000

> <Gold.Chemscore.Lipo.Weighted>
-7.8802

> <Gold.Chemscore.Internal_Hbond.Weighted>
0.0000

> <Gold.Chemscore.DEClash.Weighted>
0.0508

> <Gold.Chemscore.DEInternal.Weighted>
2.2582

> <Gold.Chemscore.Rot.Weighted>
4.3638

> <Gold.Chemscore.Internal.Correction.Weighted>
   9.000000E+99

> <Gold.Protein.RotatedTorsions>
[ 6907 6896 6895 6894 ] final   47.35 input  -60.11 | X-H torsion
[ 7974 7965 7964 7962 ] final  -50.44 input  175.53 | X-H torsion
[ 8008 7997 7996 7995 ] final  162.32 input   59.86 | X-H torsion
[ 10167 10162 10161 10158 ] final  116.31 input  -65.29 | X-H torsion
[ 10718 10713 10712 10709 ] final  164.19 input   66.30 | X-H torsion
[ 10763 10752 10751 10750 ] final  113.88 input  -60.55 | X-H torsion
[ 11005 11000 10999 10996 ] final   36.43 input  -57.11 | X-H torsion

> <Gold.Protein.ActiveResidues>
 VAL166  LYS551  ARG553  GLY616  TRP617  ASP618  TYR619  PRO620  LYS621  CYS622 
 ASP623  PHE694  ASN695  SER759  ASP760  ASP761  ALA762  ILE779  LEU786  VAL792 
 PHE793  MET794  SER795  GLU796  ALA797  LYS798  CYS799  TRP800  GLU811  SER814 

> <Gold.Protein.RotatedAtoms>
  152.2671  134.7973  160.0420 H   0  0  0  0  0  0  0  0  0  0  0  0  # atno 6907 bound_to 6896
  151.8599  133.3450  159.3708 H   0  0  0  0  0  0  0  0  0  0  0  0  # atno 6908 bound_to 6896
  150.7138  134.5144  159.5667 H   0  0  0  0  0  0  0  0  0  0  0  0  # atno 6909 bound_to 6896
  145.9298  140.7760  142.9605 H   0  0  0  0  0  0  0  0  0  0  0  0  # atno 7974 bound_to 7965
  156.2040  140.1753  156.7839 H   0  0  0  0  0  0  0  0  0  0  0  0  # atno 8008 bound_to 7997
  154.5630  140.0696  156.8878 H   0  0  0  0  0  0  0  0  0  0  0  0  # atno 8009 bound_to 7997
  155.2814  140.3349  155.4260 H   0  0  0  0  0  0  0  0  0  0  0  0  # atno 8010 bound_to 7997
  139.6256  144.7108  151.2540 H   0  0  0  0  0  0  0  0  0  0  0  0  # atno 10167 bound_to 10162
  157.0979  131.0435  151.2510 H   0  0  0  0  0  0  0  0  0  0  0  0  # atno 10718 bound_to 10713
  153.4990  135.3642  155.2530 H   0  0  0  0  0  0  0  0  0  0  0  0  # atno 10763 bound_to 10752
  154.8748  135.3995  154.3500 H   0  0  0  0  0  0  0  0  0  0  0  0  # atno 10764 bound_to 10752
  153.4133  135.7078  153.6410 H   0  0  0  0  0  0  0  0  0  0  0  0  # atno 10765 bound_to 10752
  140.2327  134.3509  155.7957 H   0  0  0  0  0  0  0  0  0  0  0  0  # atno 11005 bound_to 11000
  144.6763  140.2108  143.7377 LP  0  0  0  0  0  0  0  0  0  0  0  0  # atno 17320 bound_to 7965
  145.8441  139.2144  143.1810 LP  0  0  0  0  0  0  0  0  0  0  0  0  # atno 17321 bound_to 7965
  140.7409  143.6574  150.8195 LP  0  0  0  0  0  0  0  0  0  0  0  0  # atno 17342 bound_to 10162
  140.0191  143.5561  152.2808 LP  0  0  0  0  0  0  0  0  0  0  0  0  # atno 17343 bound_to 10162
  157.4666  130.7684  149.7284 LP  0  0  0  0  0  0  0  0  0  0  0  0  # atno 17370 bound_to 10713
  155.9881  130.3962  150.3134 LP  0  0  0  0  0  0  0  0  0  0  0  0  # atno 17371 bound_to 10713
  141.2216  133.7254  156.8757 LP  0  0  0  0  0  0  0  0  0  0  0  0  # atno 17394 bound_to 11000
  140.1734  134.9084  157.2861 LP  0  0  0  0  0  0  0  0  0  0  0  0  # atno 17395 bound_to 11000

$$$$
