AV-unprocessed.smi:2817|AV-procd|sdf|10847|dock2
  -GOLD-   2272015293D 1   1.00000     0.00000
 Structure written by MMmdl.
 42 44  0  0  0  0  0  0  0  0  1 V2000
  150.5898  140.5535  155.1594 O   0  0  0  0  0  0  0  0  0  0  0  0
  150.7795  140.8814  156.3309 C   0  0  0  0  0  0  0  0  0  0  0  0
  151.3723  142.1660  156.7038 C   0  0  0  0  0  0  0  0  0  0  0  0
  151.5689  142.4880  158.0047 C   0  0  0  0  0  0  0  0  0  0  0  0
  152.2062  143.8064  158.4216 C   0  0  0  0  0  0  0  0  0  0  0  0
  152.2317  144.0953  159.9316 C   0  0  0  0  0  0  0  0  0  0  0  0
  151.9294  145.5591  159.5917 C   0  0  0  0  0  0  0  0  0  0  0  0
  151.3270  145.0598  158.2738 C   0  0  0  0  0  0  0  0  0  0  0  0
  151.2175  141.5916  159.0208 N   0  0  0  0  0  0  0  0  0  0  0  0
  150.6904  140.4485  158.7171 C   0  0  0  0  0  0  0  0  0  0  0  0
  150.4573  140.0712  157.3809 N   0  0  0  0  0  0  0  0  0  0  0  0
  149.8558  138.7443  157.1716 C   0  0  0  0  0  0  0  0  0  0  0  0
  148.5431  138.5650  157.9667 C   0  0  1  0  0  0  0  0  0  0  0  0
  147.4306  138.5680  157.0943 O   0  0  0  0  0  0  0  0  0  0  0  0
  148.5014  137.2573  158.7760 C   0  0  0  0  0  0  0  0  0  0  0  0
  147.6823  137.4229  159.9275 O   0  0  0  0  0  0  0  0  0  0  0  0
  147.5506  136.3606  160.7955 C   0  0  0  0  0  0  0  0  0  0  0  0
  147.6850  135.0679  160.2481 C   0  0  0  0  0  0  0  0  0  0  0  0
  147.5650  133.9243  161.0608 C   0  0  0  0  0  0  0  0  0  0  0  0
  147.3077  134.0635  162.4370 C   0  0  0  0  0  0  0  0  0  0  0  0
  147.1718  135.3474  162.9970 C   0  0  0  0  0  0  0  0  0  0  0  0
  147.2924  136.4912  162.1839 C   0  0  0  0  0  0  0  0  0  0  0  0
  151.6539  142.8597  155.9248 H   0  0  0  0  0  0  0  0  0  0  0  0
  153.1879  143.9432  157.9646 H   0  0  0  0  0  0  0  0  0  0  0  0
  151.4169  143.6199  160.4810 H   0  0  0  0  0  0  0  0  0  0  0  0
  153.1954  143.9274  160.4130 H   0  0  0  0  0  0  0  0  0  0  0  0
  151.2222  146.0478  160.2623 H   0  0  0  0  0  0  0  0  0  0  0  0
  152.8314  146.1559  159.4466 H   0  0  0  0  0  0  0  0  0  0  0  0
  151.5536  145.6773  157.4043 H   0  0  0  0  0  0  0  0  0  0  0  0
  150.2576  144.8569  158.3576 H   0  0  0  0  0  0  0  0  0  0  0  0
  150.4016  139.7128  159.4697 H   0  0  0  0  0  0  0  0  0  0  0  0
  149.6924  138.5324  156.1128 H   0  0  0  0  0  0  0  0  0  0  0  0
  150.5745  137.9865  157.4895 H   0  0  0  0  0  0  0  0  0  0  0  0
  148.4084  139.3912  158.6660 H   0  0  0  0  0  0  0  0  0  0  0  0
  147.2408  139.4610  156.8510 H   0  0  0  0  0  0  0  0  0  0  0  0
  148.0742  136.4723  158.1499 H   0  0  0  0  0  0  0  0  0  0  0  0
  149.5117  136.9486  159.0502 H   0  0  0  0  0  0  0  0  0  0  0  0
  147.8823  134.9520  159.1924 H   0  0  0  0  0  0  0  0  0  0  0  0
  147.6701  132.9408  160.6273 H   0  0  0  0  0  0  0  0  0  0  0  0
  147.2146  133.1876  163.0618 H   0  0  0  0  0  0  0  0  0  0  0  0
  146.9746  135.4563  164.0532 H   0  0  0  0  0  0  0  0  0  0  0  0
  147.1821  137.4582  162.6506 H   0  0  0  0  0  0  0  0  0  0  0  0
  1  2  2  0  0  0  0
  2 11  1  0  0  0  0
  2  3  1  0  0  0  0
  3  4  2  0  0  0  0
  3 23  1  0  0  0  0
  4  5  1  0  0  0  0
  4  9  1  0  0  0  0
  5  8  1  0  0  0  0
  5  6  1  0  0  0  0
  5 24  1  0  0  0  0
  6  7  1  0  0  0  0
  6 25  1  0  0  0  0
  6 26  1  0  0  0  0
  7  8  1  0  0  0  0
  7 27  1  0  0  0  0
  7 28  1  0  0  0  0
  8 29  1  0  0  0  0
  8 30  1  0  0  0  0
  9 10  2  0  0  0  0
 10 11  1  0  0  0  0
 10 31  1  0  0  0  0
 11 12  1  0  0  0  0
 12 13  1  0  0  0  0
 12 32  1  0  0  0  0
 12 33  1  0  0  0  0
 13 14  1  0  0  0  0
 13 15  1  0  0  0  0
 13 34  1  0  0  0  0
 14 35  1  0  0  0  0
 15 16  1  0  0  0  0
 15 36  1  0  0  0  0
 15 37  1  0  0  0  0
 16 17  1  0  0  0  0
 17 22  1  0  0  0  0
 17 18  2  0  0  0  0
 18 19  1  0  0  0  0
 18 38  1  0  0  0  0
 19 20  2  0  0  0  0
 19 39  1  0  0  0  0
 20 21  1  0  0  0  0
 20 40  1  0  0  0  0
 21 22  2  0  0  0  0
 21 41  1  0  0  0  0
 22 42  1  0  0  0  0
M  END
> <s_m_source_file>
AV-unprocessed.smi

> <i_m_source_file_index>
2817

> <i_lp_mmshare_version>
43012

> <i_f3d_flags>
0

> <s_epik_input>
W0NIMl0xW0NIMl1bQ0gyXVtDSF0xYyhbY0hdYzI9TyluW2NIXW4yW0NIMl1bQ0BIXShbT0hdKVtDSDJdT2MzW2NIXVtjSF1bY0hdW2NIXVtjSF0z

> <s_epik_cmdline>
J2VwaWtfcHl0aG9uJywgJy1waCcsICc3LjAnLCAnLXRuJywgJzgnLCAnLW1hJywgJzIwMCcsICctbWV0YWxfYmluZGluZycsICctaW1hZScsICc8aW5maWxlLm1hZT4nLCAnLW9tYWUnLCAnPG91dGZpbGUubWFlPic=

> <r_lp_tautomer_probability>
1

> <r_epik_Ionization_Penalty>
2.12778e-05

> <r_epik_Ionization_Penalty_Charging>
7.42033e-08

> <r_epik_Ionization_Penalty_Neutral>
2.12036e-05

> <r_epik_State_Penalty>
-0

> <r_epik_Charging_Adjusted_Penalty>
7.42033e-08

> <i_epik_Tot_Q>
0

> <i_epik_Tot_abs_Q>
0

> <r_epik_Metal_State_Penalty>
-0

> <b_epik_Metal_Only>
0

> <s_lp_Force_Field>
OPLS_2005

> <r_lp_Energy>
33.1228

> <b_lp_Chiralities_Consistent>
1

> <s_lp_Variant>
AV-unprocessed.smi:2817-2

> <Gold.Version>
5.8.1

> <Gold.Id.Protein>
6NUR|6NUR_protein|mol2

> <Gold.PLP.Fitness>
50.1544

> <Gold.PLP.PLP>
-47.6808

> <Gold.PLP.part.hbond>
-2.5890

> <Gold.PLP.part.metal>
0.0000

> <Gold.PLP.part.buried>
-7.0464

> <Gold.PLP.part.nonpolar>
-38.8189

> <Gold.PLP.part.repulsive>
0.0686

> <Gold.PLP.ligand.clash>
0.0000

> <Gold.PLP.ligand.torsion>
1.6168

> <Gold.PLP.Chemscore.Hbond>
1.7360

> <Gold.PLP.Chemscore.CHOScore>
0.0000

> <Gold.PLP.Chemscore.Metal>
0.0000

> <Gold.Chemscore.Hbonds>
donor molecule, donor type, donor heavy atom, donor atom, acceptor molecule, acceptor atom, score
      P1  H  6934  6947       L1    16  0.80
      P1  H  7989  7998       L1     1  0.98

> <Gold.PLP.Chemscore.Internal.Correction>
0.4992

> <Gold.Rescore>
     Score         DG    S(hbond)    S(metal)    S(lipo)     H(rot)  DE(clash)    DE(int)     intcor
     16.70     -18.25       1.29        0.00     125.26       2.42       0.09       1.47       ----

> <Gold.Chemscore.Fitness>
16.6954

> <Gold.Chemscore.DG>
-18.2541

> <Gold.Chemscore.ZeroCoef>
-5.4800

> <Gold.Chemscore.Hbond>
1.2948

> <Gold.Chemscore.Metal>
0.0000

> <Gold.Chemscore.Lipo>
125.2648

> <Gold.Chemscore.Internal_Hbond>
0.0000

> <Gold.Chemscore.DEClash>
0.0859

> <Gold.Chemscore.DEInternal>
1.4728

> <Gold.Chemscore.Rot>
2.4245

> <Gold.Chemscore.Internal.Correction>
   9.000000E+99

> <Gold.Chemscore.Hbonds>
donor molecule, donor type, donor heavy atom, donor atom, acceptor molecule, acceptor atom, score
      P1  H  6934  6947       L1    16  0.48
      P1  H  7989  7998       L1     1  0.91

> <Gold.Chemscore.Hbond.Weighted>
-4.3247

> <Gold.Chemscore.Metal.Weighted>
-0.0000

> <Gold.Chemscore.Lipo.Weighted>
-14.6560

> <Gold.Chemscore.Internal_Hbond.Weighted>
0.0000

> <Gold.Chemscore.DEClash.Weighted>
0.0859

> <Gold.Chemscore.DEInternal.Weighted>
1.4728

> <Gold.Chemscore.Rot.Weighted>
6.2066

> <Gold.Chemscore.Internal.Correction.Weighted>
   9.000000E+99

> <Gold.Protein.RotatedTorsions>
[ 6907 6896 6895 6894 ] final   57.28 input  -60.11 | X-H torsion
[ 7974 7965 7964 7962 ] final   24.04 input  175.53 | X-H torsion
[ 8008 7997 7996 7995 ] final -148.08 input   59.86 | X-H torsion
[ 10167 10162 10161 10158 ] final   16.92 input  -65.29 | X-H torsion
[ 10718 10713 10712 10709 ] final  -42.95 input   66.30 | X-H torsion
[ 10763 10752 10751 10750 ] final  -78.48 input  -60.55 | X-H torsion
[ 11005 11000 10999 10996 ] final -121.49 input  -57.11 | X-H torsion

> <Gold.Protein.ActiveResidues>
 VAL166  LYS551  ARG553  GLY616  TRP617  ASP618  TYR619  PRO620  LYS621  CYS622 
 ASP623  PHE694  ASN695  SER759  ASP760  ASP761  ALA762  ILE779  LEU786  VAL792 
 PHE793  MET794  SER795  GLU796  ALA797  LYS798  CYS799  TRP800  GLU811  SER814 

> <Gold.Protein.RotatedAtoms>
  152.3716  134.6725  160.0173 H   0  0  0  0  0  0  0  0  0  0  0  0  # atno 6907 bound_to 6896
  151.7016  133.3306  159.3276 H   0  0  0  0  0  0  0  0  0  0  0  0  # atno 6908 bound_to 6896
  150.7678  134.6546  159.6351 H   0  0  0  0  0  0  0  0  0  0  0  0  # atno 6909 bound_to 6896
  146.1956  139.7660  142.8799 H   0  0  0  0  0  0  0  0  0  0  0  0  # atno 7974 bound_to 7965
  155.5859  140.0648  157.2771 H   0  0  0  0  0  0  0  0  0  0  0  0  # atno 8008 bound_to 7997
  154.4319  140.1844  156.1071 H   0  0  0  0  0  0  0  0  0  0  0  0  # atno 8009 bound_to 7997
  156.0270  140.3310  155.7102 H   0  0  0  0  0  0  0  0  0  0  0  0  # atno 8010 bound_to 7997
  140.5763  143.9067  150.6752 H   0  0  0  0  0  0  0  0  0  0  0  0  # atno 10167 bound_to 10162
  156.2542  130.4191  149.8615 H   0  0  0  0  0  0  0  0  0  0  0  0  # atno 10718 bound_to 10713
  154.5264  135.5728  153.6722 H   0  0  0  0  0  0  0  0  0  0  0  0  # atno 10763 bound_to 10752
  152.9929  135.6194  154.2687 H   0  0  0  0  0  0  0  0  0  0  0  0  # atno 10764 bound_to 10752
  154.2611  135.2856  155.2757 H   0  0  0  0  0  0  0  0  0  0  0  0  # atno 10765 bound_to 10752
  141.0066  134.0326  157.3469 H   0  0  0  0  0  0  0  0  0  0  0  0  # atno 11005 bound_to 11000
  145.3653  141.0333  143.3261 LP  0  0  0  0  0  0  0  0  0  0  0  0  # atno 17320 bound_to 7965
  144.8574  139.5229  143.6828 LP  0  0  0  0  0  0  0  0  0  0  0  0  # atno 17321 bound_to 7965
  140.2555  143.3562  152.1369 LP  0  0  0  0  0  0  0  0  0  0  0  0  # atno 17342 bound_to 10162
  139.5144  144.6948  151.5661 LP  0  0  0  0  0  0  0  0  0  0  0  0  # atno 17343 bound_to 10162
  156.6153  130.8604  151.3463 LP  0  0  0  0  0  0  0  0  0  0  0  0  # atno 17370 bound_to 10713
  157.7226  130.9579  150.1501 LP  0  0  0  0  0  0  0  0  0  0  0  0  # atno 17371 bound_to 10713
  139.9067  135.0181  156.7515 LP  0  0  0  0  0  0  0  0  0  0  0  0  # atno 17394 bound_to 11000
  140.6803  133.9481  155.7906 LP  0  0  0  0  0  0  0  0  0  0  0  0  # atno 17395 bound_to 11000

$$$$
