AV-unprocessed.smi:3035|AV-procd|sdf|11581|dock7
  -GOLD-   2272016553D 1   1.00000     0.00000
 Structure written by MMmdl.
 38 39  0  0  0  0  0  0  0  0  1 V2000
  149.6849  133.7955  155.5156 C   0  0  0  0  0  0  0  0  0  0  0  0
  150.0140  135.1409  155.2170 O   0  0  0  0  0  0  0  0  0  0  0  0
  151.0158  135.6596  156.0757 C   0  0  0  0  0  0  0  0  0  0  0  0
  151.2567  137.1075  155.7707 C   0  0  0  0  0  0  0  0  0  0  0  0
  150.4068  138.0630  155.7930 N   0  0  0  0  0  0  0  0  0  0  0  0
  151.1270  139.1301  155.4446 N   0  0  0  0  0  0  0  0  0  0  0  0
  150.5284  140.4577  155.3638 C   0  0  0  0  0  0  0  0  0  0  0  0
  150.0598  140.9416  156.7442 C   0  0  0  0  0  0  0  0  0  0  0  0
  151.1155  141.6903  157.4112 N   0  0  0  0  0  0  0  0  0  0  0  0
  150.9393  142.8791  158.0059 C   0  0  0  0  0  0  0  0  0  0  0  0
  149.8522  143.4568  158.0421 O   0  0  0  0  0  0  0  0  0  0  0  0
  152.1818  143.5112  158.6553 C   0  0  0  0  0  0  0  0  0  0  0  0
  152.6599  142.7137  159.8915 C   0  0  0  0  0  0  0  0  0  0  0  0
  152.5653  143.6561  161.0988 C   0  0  0  0  0  0  0  0  0  0  0  0
  151.6114  144.7679  160.6712 C   0  0  0  0  0  0  0  0  0  0  0  0
  151.8887  144.9309  159.1777 C   0  0  0  0  0  0  0  0  0  0  0  0
  152.4509  138.8124  155.2073 C   0  0  0  0  0  0  0  0  0  0  0  0
  153.3784  139.5498  154.8776 O   0  0  0  0  0  0  0  0  0  0  0  0
  152.5262  137.4917  155.4207 O   0  0  0  0  0  0  0  0  0  0  0  0
  148.9150  133.4452  154.8281 H   0  0  0  0  0  0  0  0  0  0  0  0
  149.2982  133.7001  156.5312 H   0  0  0  0  0  0  0  0  0  0  0  0
  150.5532  133.1440  155.4088 H   0  0  0  0  0  0  0  0  0  0  0  0
  150.7093  135.5441  157.1167 H   0  0  0  0  0  0  0  0  0  0  0  0
  151.9439  135.1004  155.9475 H   0  0  0  0  0  0  0  0  0  0  0  0
  151.2566  141.1549  154.9462 H   0  0  0  0  0  0  0  0  0  0  0  0
  149.6877  140.4356  154.6684 H   0  0  0  0  0  0  0  0  0  0  0  0
  149.1782  141.5759  156.6382 H   0  0  0  0  0  0  0  0  0  0  0  0
  149.7738  140.0916  157.3662 H   0  0  0  0  0  0  0  0  0  0  0  0
  152.0377  141.2794  157.4230 H   0  0  0  0  0  0  0  0  0  0  0  0
  152.9812  143.5601  157.9138 H   0  0  0  0  0  0  0  0  0  0  0  0
  152.0465  141.8284  160.0671 H   0  0  0  0  0  0  0  0  0  0  0  0
  153.6829  142.3597  159.7606 H   0  0  0  0  0  0  0  0  0  0  0  0
  152.2313  143.1455  162.0026 H   0  0  0  0  0  0  0  0  0  0  0  0
  153.5479  144.0821  161.3055 H   0  0  0  0  0  0  0  0  0  0  0  0
  150.5793  144.4506  160.8264 H   0  0  0  0  0  0  0  0  0  0  0  0
  151.7645  145.6913  161.2304 H   0  0  0  0  0  0  0  0  0  0  0  0
  152.7702  145.5579  159.0363 H   0  0  0  0  0  0  0  0  0  0  0  0
  151.0619  145.4230  158.6630 H   0  0  0  0  0  0  0  0  0  0  0  0
  1  2  1  0  0  0  0
  1 20  1  0  0  0  0
  1 21  1  0  0  0  0
  1 22  1  0  0  0  0
  2  3  1  0  0  0  0
  3  4  1  0  0  0  0
  3 23  1  0  0  0  0
  3 24  1  0  0  0  0
  4 19  1  0  0  0  0
  4  5  2  0  0  0  0
  5  6  1  0  0  0  0
  6  7  1  0  0  0  0
  6 17  1  0  0  0  0
  7  8  1  0  0  0  0
  7 25  1  0  0  0  0
  7 26  1  0  0  0  0
  8  9  1  0  0  0  0
  8 27  1  0  0  0  0
  8 28  1  0  0  0  0
  9 10  1  0  0  0  0
  9 29  1  0  0  0  0
 10 11  2  0  0  0  0
 10 12  1  0  0  0  0
 12 16  1  0  0  0  0
 12 13  1  0  0  0  0
 12 30  1  0  0  0  0
 13 14  1  0  0  0  0
 13 31  1  0  0  0  0
 13 32  1  0  0  0  0
 14 15  1  0  0  0  0
 14 33  1  0  0  0  0
 14 34  1  0  0  0  0
 15 16  1  0  0  0  0
 15 35  1  0  0  0  0
 15 36  1  0  0  0  0
 16 37  1  0  0  0  0
 16 38  1  0  0  0  0
 17 18  2  0  0  0  0
 17 19  1  0  0  0  0
M  END
> <s_m_source_file>
AV-unprocessed.smi

> <i_m_source_file_index>
3035

> <i_lp_mmshare_version>
43012

> <i_f3d_flags>
0

> <s_epik_input>
W0NIM11PW0NIMl1jMW5uKGMoPU8pbzEpW0NIMl1bQ0gyXVtOSF1DKD1PKVtDSF0yW0NIMl1bQ0gyXVtDSDJdW0NIMl0y

> <s_epik_cmdline>
J2VwaWtfcHl0aG9uJywgJy1waCcsICc3LjAnLCAnLXRuJywgJzgnLCAnLW1hJywgJzIwMCcsICctbWV0YWxfYmluZGluZycsICctaW1hZScsICc8aW5maWxlLm1hZT4nLCAnLW9tYWUnLCAnPG91dGZpbGUubWFlPic=

> <r_lp_tautomer_probability>
1

> <r_epik_Ionization_Penalty>
6.81406e-08

> <r_epik_Ionization_Penalty_Charging>
1.21446e-09

> <r_epik_Ionization_Penalty_Neutral>
6.69261e-08

> <r_epik_State_Penalty>
-0

> <r_epik_Charging_Adjusted_Penalty>
1.21446e-09

> <i_epik_Tot_Q>
0

> <i_epik_Tot_abs_Q>
0

> <r_epik_Metal_State_Penalty>
-0

> <b_epik_Metal_Only>
0

> <s_lp_Force_Field>
OPLS_2005

> <r_lp_Energy>
26.4396

> <b_lp_Chiralities_Consistent>
1

> <s_lp_Variant>
AV-unprocessed.smi:3035-1

> <Gold.Version>
5.8.1

> <Gold.Id.Protein>
6NUR|6NUR_protein|mol2

> <Gold.PLP.Fitness>
45.5673

> <Gold.PLP.PLP>
-41.1581

> <Gold.PLP.part.hbond>
-3.0000

> <Gold.PLP.part.metal>
0.0000

> <Gold.PLP.part.buried>
-5.8147

> <Gold.PLP.part.nonpolar>
-34.5420

> <Gold.PLP.part.repulsive>
1.1625

> <Gold.PLP.ligand.clash>
0.0000

> <Gold.PLP.ligand.torsion>
0.3991

> <Gold.PLP.Chemscore.Hbond>
1.7278

> <Gold.PLP.Chemscore.CHOScore>
0.0000

> <Gold.PLP.Chemscore.Metal>
0.0000

> <Gold.Chemscore.Hbonds>
donor molecule, donor type, donor heavy atom, donor atom, acceptor molecule, acceptor atom, score
      P1  H  7997  8008       L1    18  1.00
      P1  H 10752 10764       L1    19  0.32

> <Gold.PLP.Chemscore.Internal.Correction>
0.0240

> <Gold.Rescore>
     Score         DG    S(hbond)    S(metal)    S(lipo)     H(rot)  DE(clash)    DE(int)     intcor
     14.66     -15.06       1.90        0.00      79.27       2.36       0.01       0.39       ----

> <Gold.Chemscore.Fitness>
14.6604

> <Gold.Chemscore.DG>
-15.0634

> <Gold.Chemscore.ZeroCoef>
-5.4800

> <Gold.Chemscore.Hbond>
1.9002

> <Gold.Chemscore.Metal>
0.0000

> <Gold.Chemscore.Lipo>
79.2735

> <Gold.Chemscore.Internal_Hbond>
0.0000

> <Gold.Chemscore.DEClash>
0.0126

> <Gold.Chemscore.DEInternal>
0.3904

> <Gold.Chemscore.Rot>
2.3587

> <Gold.Chemscore.Internal.Correction>
   9.000000E+99

> <Gold.Chemscore.Hbonds>
donor molecule, donor type, donor heavy atom, donor atom, acceptor molecule, acceptor atom, score
      P1  H  7997  8008       L1    18  0.99
      P1  H 10752 10764       L1    19  0.03

> <Gold.Chemscore.Hbond.Weighted>
-6.3466

> <Gold.Chemscore.Metal.Weighted>
-0.0000

> <Gold.Chemscore.Lipo.Weighted>
-9.2750

> <Gold.Chemscore.Internal_Hbond.Weighted>
0.0000

> <Gold.Chemscore.DEClash.Weighted>
0.0126

> <Gold.Chemscore.DEInternal.Weighted>
0.3904

> <Gold.Chemscore.Rot.Weighted>
6.0382

> <Gold.Chemscore.Internal.Correction.Weighted>
   9.000000E+99

> <Gold.Protein.RotatedTorsions>
[ 6907 6896 6895 6894 ] final   64.11 input  -60.11 | X-H torsion
[ 7974 7965 7964 7962 ] final   12.83 input  175.53 | X-H torsion
[ 8008 7997 7996 7995 ] final  -10.09 input   59.86 | X-H torsion
[ 10167 10162 10161 10158 ] final -167.98 input  -65.29 | X-H torsion
[ 10718 10713 10712 10709 ] final  116.44 input   66.30 | X-H torsion
[ 10763 10752 10751 10750 ] final  -59.53 input  -60.55 | X-H torsion
[ 11005 11000 10999 10996 ] final -168.98 input  -57.11 | X-H torsion

> <Gold.Protein.ActiveResidues>
 VAL166  LYS551  ARG553  GLY616  TRP617  ASP618  TYR619  PRO620  LYS621  CYS622 
 ASP623  PHE694  ASN695  SER759  ASP760  ASP761  ALA762  ILE779  LEU786  VAL792 
 PHE793  MET794  SER795  GLU796  ALA797  LYS798  CYS799  TRP800  GLU811  SER814 

> <Gold.Protein.RotatedAtoms>
  152.4306  134.5785  159.9941 H   0  0  0  0  0  0  0  0  0  0  0  0  # atno 6907 bound_to 6896
  151.5910  133.3361  159.3035 H   0  0  0  0  0  0  0  0  0  0  0  0  # atno 6908 bound_to 6896
  150.8198  134.7436  159.6827 H   0  0  0  0  0  0  0  0  0  0  0  0  # atno 6909 bound_to 6896
  146.2343  139.9279  142.8500 H   0  0  0  0  0  0  0  0  0  0  0  0  # atno 7974 bound_to 7965
  154.5586  140.2338  155.8370 H   0  0  0  0  0  0  0  0  0  0  0  0  # atno 8008 bound_to 7997
  156.2010  140.3052  155.9487 H   0  0  0  0  0  0  0  0  0  0  0  0  # atno 8009 bound_to 7997
  155.2931  140.0427  157.3015 H   0  0  0  0  0  0  0  0  0  0  0  0  # atno 8010 bound_to 7997
  139.6015  144.1002  152.1747 H   0  0  0  0  0  0  0  0  0  0  0  0  # atno 10167 bound_to 10162
  157.6160  131.1025  150.7473 H   0  0  0  0  0  0  0  0  0  0  0  0  # atno 10718 bound_to 10713
  154.2552  135.6318  153.5254 H   0  0  0  0  0  0  0  0  0  0  0  0  # atno 10763 bound_to 10752
  152.9905  135.5574  154.5764 H   0  0  0  0  0  0  0  0  0  0  0  0  # atno 10764 bound_to 10752
  154.5301  135.2888  155.1163 H   0  0  0  0  0  0  0  0  0  0  0  0  # atno 10765 bound_to 10752
  140.5359  134.5570  157.5087 H   0  0  0  0  0  0  0  0  0  0  0  0  # atno 11005 bound_to 11000
  145.2073  140.9880  143.4121 LP  0  0  0  0  0  0  0  0  0  0  0  0  # atno 17320 bound_to 7965
  144.9721  139.3869  143.6303 LP  0  0  0  0  0  0  0  0  0  0  0  0  # atno 17321 bound_to 7965
  140.0599  144.5865  150.7271 LP  0  0  0  0  0  0  0  0  0  0  0  0  # atno 17342 bound_to 10162
  140.7253  143.2629  151.4142 LP  0  0  0  0  0  0  0  0  0  0  0  0  # atno 17343 bound_to 10162
  156.7840  130.4868  149.5396 LP  0  0  0  0  0  0  0  0  0  0  0  0  # atno 17370 bound_to 10713
  156.1282  130.6159  151.0295 LP  0  0  0  0  0  0  0  0  0  0  0  0  # atno 17371 bound_to 10713
  139.9529  134.7585  156.0407 LP  0  0  0  0  0  0  0  0  0  0  0  0  # atno 17394 bound_to 11000
  141.1255  133.6600  156.3324 LP  0  0  0  0  0  0  0  0  0  0  0  0  # atno 17395 bound_to 11000

$$$$
