AV-unprocessed.smi:22|AV-procd|sdf|170|dock7
  -GOLD-   2262015423D 1   1.00000     0.00000
 Structure written by MMmdl.
 56 59  0  0  0  0  0  0  0  0  2 V2000
  145.6066  131.3929  150.1507 C   0  0  0  0  0  0  0  0  0  0  0  0
  145.5444  132.7592  150.7306 N   0  3  1  0  0  0  0  0  0  0  0  0
  144.2808  133.4461  150.3444 C   0  0  0  0  0  0  0  0  0  0  0  0
  143.8944  133.1558  148.8850 C   0  0  0  0  0  0  0  0  0  0  0  0
  143.5184  134.3534  148.2390 O   0  0  0  0  0  0  0  0  0  0  0  0
  145.8249  132.8379  152.1991 C   0  0  0  0  0  0  0  0  0  0  0  0
  146.1738  134.2900  152.6067 C   0  0  0  0  0  0  0  0  0  0  0  0
  146.4616  134.4069  154.1116 C   0  0  0  0  0  0  0  0  0  0  0  0
  147.5195  133.4810  154.5115 N   0  0  0  0  0  0  0  0  0  0  0  0
  148.0968  133.6702  155.7255 C   0  0  0  0  0  0  0  0  0  0  0  0
  149.3357  134.2251  155.8103 N   0  0  0  0  0  0  0  0  0  0  0  0
  149.9063  134.4237  157.0023 C   0  0  0  0  0  0  0  0  0  0  0  0
  149.4255  134.1424  158.2144 N   0  0  0  0  0  0  0  0  0  0  0  0
  148.1866  133.5780  158.1367 C   0  0  0  0  0  0  0  0  0  0  0  0
  147.4555  133.3113  156.9445 C   0  0  0  0  0  0  0  0  0  0  0  0
  146.2350  132.7251  157.2594 N   0  0  0  0  0  0  0  0  0  0  0  0
  146.2416  132.6563  158.5628 C   0  0  0  0  0  0  0  0  0  0  0  0
  147.3780  133.1400  159.1710 N   0  0  0  0  0  0  0  0  0  0  0  0
  147.6513  133.1785  160.5994 C   0  0  0  0  0  0  0  0  0  0  0  0
  147.1286  134.4601  161.2887 C   0  0  1  0  0  0  0  0  0  0  0  0
  145.7188  134.3741  161.4066 O   0  0  0  0  0  0  0  0  0  0  0  0
  147.7181  134.7101  162.6737 C   0  0  0  0  0  0  0  0  0  0  0  0
  147.7249  136.2290  162.7690 C   0  0  0  0  0  0  0  0  0  0  0  0
  148.1105  136.6178  161.4616 O   0  0  0  0  0  0  0  0  0  0  0  0
  147.4754  135.7533  160.5243 C   0  0  0  0  0  0  0  0  0  0  0  0
  147.2673  132.0833  154.1718 C   0  0  0  0  0  0  0  0  0  0  0  0
  146.9852  131.9225  152.6690 C   0  0  0  0  0  0  0  0  0  0  0  0
  144.9259  130.7164  150.6695 H   0  0  0  0  0  0  0  0  0  0  0  0
  146.6149  130.9824  150.2016 H   0  0  0  0  0  0  0  0  0  0  0  0
  145.3308  131.3983  149.0965 H   0  0  0  0  0  0  0  0  0  0  0  0
  143.4786  133.1303  151.0135 H   0  0  0  0  0  0  0  0  0  0  0  0
  144.3492  134.5255  150.4755 H   0  0  0  0  0  0  0  0  0  0  0  0
  144.7060  132.6810  148.3340 H   0  0  0  0  0  0  0  0  0  0  0  0
  143.0463  132.4714  148.8558 H   0  0  0  0  0  0  0  0  0  0  0  0
  144.2932  134.7590  147.8795 H   0  0  0  0  0  0  0  0  0  0  0  0
  144.9241  132.5231  152.7292 H   0  0  0  0  0  0  0  0  0  0  0  0
  147.0487  134.6252  152.0472 H   0  0  0  0  0  0  0  0  0  0  0  0
  145.3728  134.9834  152.3550 H   0  0  0  0  0  0  0  0  0  0  0  0
  146.7556  135.4314  154.3446 H   0  0  0  0  0  0  0  0  0  0  0  0
  145.5565  134.1928  154.6819 H   0  0  0  0  0  0  0  0  0  0  0  0
  150.8882  134.8733  156.9818 H   0  0  0  0  0  0  0  0  0  0  0  0
  145.4152  132.2403  159.1210 H   0  0  0  0  0  0  0  0  0  0  0  0
  147.1997  132.2970  161.0563 H   0  0  0  0  0  0  0  0  0  0  0  0
  148.7279  133.0804  160.7465 H   0  0  0  0  0  0  0  0  0  0  0  0
  145.4225  135.0743  161.9682 H   0  0  0  0  0  0  0  0  0  0  0  0
  147.1681  134.2274  163.4827 H   0  0  0  0  0  0  0  0  0  0  0  0
  148.7484  134.3556  162.7146 H   0  0  0  0  0  0  0  0  0  0  0  0
  146.7285  136.6144  162.9910 H   0  0  0  0  0  0  0  0  0  0  0  0
  148.4181  136.6030  163.5226 H   0  0  0  0  0  0  0  0  0  0  0  0
  148.1571  135.5729  159.6926 H   0  0  0  0  0  0  0  0  0  0  0  0
  146.5886  136.2423  160.1173 H   0  0  0  0  0  0  0  0  0  0  0  0
  148.1100  131.4498  154.4473 H   0  0  0  0  0  0  0  0  0  0  0  0
  146.4121  131.7313  154.7503 H   0  0  0  0  0  0  0  0  0  0  0  0
  146.7565  130.8725  152.4868 H   0  0  0  0  0  0  0  0  0  0  0  0
  147.8922  132.1515  152.1076 H   0  0  0  0  0  0  0  0  0  0  0  0
  146.2885  133.2816  150.2897 H   0  0  0  0  0  0  0  0  0  0  0  0
  1  2  1  0  0  0  0
  1 28  1  0  0  0  0
  1 29  1  0  0  0  0
  1 30  1  0  0  0  0
  2  3  1  0  0  0  0
  2  6  1  0  0  0  0
  2 56  1  0  0  0  0
  3  4  1  0  0  0  0
  3 31  1  0  0  0  0
  3 32  1  0  0  0  0
  4  5  1  0  0  0  0
  4 33  1  0  0  0  0
  4 34  1  0  0  0  0
  5 35  1  0  0  0  0
  6 27  1  0  0  0  0
  6  7  1  0  0  0  0
  6 36  1  0  0  0  0
  7  8  1  0  0  0  0
  7 37  1  0  0  0  0
  7 38  1  0  0  0  0
  8  9  1  0  0  0  0
  8 39  1  0  0  0  0
  8 40  1  0  0  0  0
  9 10  1  0  0  0  0
  9 26  1  0  0  0  0
 10 15  1  0  0  0  0
 10 11  2  0  0  0  0
 11 12  1  0  0  0  0
 12 13  2  0  0  0  0
 12 41  1  0  0  0  0
 13 14  1  0  0  0  0
 14 18  1  0  0  0  0
 14 15  2  0  0  0  0
 15 16  1  0  0  0  0
 16 17  2  0  0  0  0
 17 18  1  0  0  0  0
 17 42  1  0  0  0  0
 18 19  1  0  0  0  0
 19 20  1  0  0  0  0
 19 43  1  0  0  0  0
 19 44  1  0  0  0  0
 20 25  1  0  0  0  0
 20 21  1  0  0  0  0
 20 22  1  0  0  0  0
 21 45  1  0  0  0  0
 22 23  1  0  0  0  0
 22 46  1  0  0  0  0
 22 47  1  0  0  0  0
 23 24  1  0  0  0  0
 23 48  1  0  0  0  0
 23 49  1  0  0  0  0
 24 25  1  0  0  0  0
 25 50  1  0  0  0  0
 25 51  1  0  0  0  0
 26 27  1  0  0  0  0
 26 52  1  0  0  0  0
 26 53  1  0  0  0  0
 27 54  1  0  0  0  0
 27 55  1  0  0  0  0
M  CHG  1   2   1
M  END
> <s_m_source_file>
AV-unprocessed.smi

> <i_m_source_file_index>
22

> <i_lp_mmshare_version>
43012

> <i_f3d_flags>
0

> <s_epik_input>
W09IXVtDSDJdW0NIMl1OKFtDSDNdKVtDSF0xW0NIMl1bQ0gyXU4oW0NIMl1bQ0gyXTEpYyhuW2NIXW4yKWMoYzIzKW5bY0hdbjNbQ0gyXVtDQEBdNChbT0hdKVtDSDJdW0NIMl1PW0NIMl00

> <s_epik_cmdline>
J2VwaWtfcHl0aG9uJywgJy1waCcsICc3LjAnLCAnLXRuJywgJzgnLCAnLW1hJywgJzIwMCcsICctbWV0YWxfYmluZGluZycsICctaW1hZScsICc8aW5maWxlLm1hZT4nLCAnLW9tYWUnLCAnPG91dGZpbGUubWFlPic=

> <r_lp_tautomer_probability>
1

> <r_epik_Ionization_Penalty>
0.00317524

> <r_epik_Ionization_Penalty_Charging>
0.00191487

> <r_epik_Ionization_Penalty_Neutral>
0.00126037

> <r_epik_State_Penalty>
-0

> <r_epik_Charging_Adjusted_Penalty>
0.00191487

> <i_epik_Tot_Q>
1

> <i_epik_Tot_abs_Q>
1

> <r_epik_Metal_State_Penalty>
-0

> <b_epik_Metal_Only>
0

> <s_lp_Force_Field>
OPLS_2005

> <r_lp_Energy>
47.7053

> <b_lp_Chiralities_Consistent>
1

> <s_lp_Variant>
AV-unprocessed.smi:22-2

> <Gold.Version>
5.8.1

> <Gold.Id.Protein>
6NUR|6NUR_protein|mol2

> <Gold.PLP.Fitness>
49.6292

> <Gold.PLP.PLP>
-37.6382

> <Gold.PLP.part.hbond>
-5.9849

> <Gold.PLP.part.metal>
0.0000

> <Gold.PLP.part.buried>
-4.6159

> <Gold.PLP.part.nonpolar>
-27.9484

> <Gold.PLP.part.repulsive>
0.1569

> <Gold.PLP.ligand.clash>
0.0000

> <Gold.PLP.ligand.torsion>
1.3957

> <Gold.PLP.Chemscore.Hbond>
4.7413

> <Gold.PLP.Chemscore.CHOScore>
0.0000

> <Gold.PLP.Chemscore.Metal>
0.0000

> <Gold.Chemscore.Hbonds>
donor molecule, donor type, donor heavy atom, donor atom, acceptor molecule, acceptor atom, score
      L1  H     5    35       P1  7921  1.00
      P1  H  6896  6907       L1    13  1.00
      P1  H  6931  6943       L1    24  0.90
      P1  H 10192 10197       L1     5  1.00

> <Gold.PLP.Chemscore.Internal.Correction>
0.5588

> <Gold.Rescore>
     Score         DG    S(hbond)    S(metal)    S(lipo)     H(rot)  DE(clash)    DE(int)     intcor
     15.12     -16.92       3.27        0.00      86.81       3.76       0.44       1.35       ----

> <Gold.Chemscore.Fitness>
15.1245

> <Gold.Chemscore.DG>
-16.9222

> <Gold.Chemscore.ZeroCoef>
-5.4800

> <Gold.Chemscore.Hbond>
3.2657

> <Gold.Chemscore.Metal>
0.0000

> <Gold.Chemscore.Lipo>
86.8053

> <Gold.Chemscore.Internal_Hbond>
0.0000

> <Gold.Chemscore.DEClash>
0.4435

> <Gold.Chemscore.DEInternal>
1.3542

> <Gold.Chemscore.Rot>
3.7583

> <Gold.Chemscore.Internal.Correction>
   9.000000E+99

> <Gold.Chemscore.Hbonds>
donor molecule, donor type, donor heavy atom, donor atom, acceptor molecule, acceptor atom, score
      L1  H     5    35       P1  7921  0.96
      P1  H  6896  6907       L1    13  0.74
      P1  H  6931  6943       L1    24  0.18
      P1  H 10192 10197       L1     5  0.37

> <Gold.Chemscore.Hbond.Weighted>
-10.9073

> <Gold.Chemscore.Metal.Weighted>
-0.0000

> <Gold.Chemscore.Lipo.Weighted>
-10.1562

> <Gold.Chemscore.Internal_Hbond.Weighted>
0.0000

> <Gold.Chemscore.DEClash.Weighted>
0.4435

> <Gold.Chemscore.DEInternal.Weighted>
1.3542

> <Gold.Chemscore.Rot.Weighted>
9.6213

> <Gold.Chemscore.Internal.Correction.Weighted>
   9.000000E+99

> <Gold.Protein.RotatedTorsions>
[ 6907 6896 6895 6894 ] final -107.53 input  -60.11 | X-H torsion
[ 7974 7965 7964 7962 ] final  146.99 input  175.53 | X-H torsion
[ 8008 7997 7996 7995 ] final   53.24 input   59.86 | X-H torsion
[ 10167 10162 10161 10158 ] final  155.66 input  -65.29 | X-H torsion
[ 10718 10713 10712 10709 ] final  101.25 input   66.30 | X-H torsion
[ 10763 10752 10751 10750 ] final  -28.30 input  -60.55 | X-H torsion
[ 11005 11000 10999 10996 ] final  123.09 input  -57.11 | X-H torsion

> <Gold.Protein.ActiveResidues>
 VAL166  LYS551  ARG553  GLY616  TRP617  ASP618  TYR619  PRO620  LYS621  CYS622 
 ASP623  PHE694  ASN695  SER759  ASP760  ASP761  ALA762  ILE779  LEU786  VAL792 
 PHE793  MET794  SER795  GLU796  ALA797  LYS798  CYS799  TRP800  GLU811  SER814 

> <Gold.Protein.RotatedAtoms>
  150.7449  133.9813  159.3576 H   0  0  0  0  0  0  0  0  0  0  0  0  # atno 6907 bound_to 6896
  151.7754  135.0773  160.0375 H   0  0  0  0  0  0  0  0  0  0  0  0  # atno 6908 bound_to 6896
  152.3310  133.5922  159.5846 H   0  0  0  0  0  0  0  0  0  0  0  0  # atno 6909 bound_to 6896
  144.8627  139.5973  143.5923 H   0  0  0  0  0  0  0  0  0  0  0  0  # atno 7974 bound_to 7965
  155.4651  140.3463  155.4318 H   0  0  0  0  0  0  0  0  0  0  0  0  # atno 8008 bound_to 7997
  156.1136  140.1468  156.9333 H   0  0  0  0  0  0  0  0  0  0  0  0  # atno 8009 bound_to 7997
  154.4773  140.0881  156.7273 H   0  0  0  0  0  0  0  0  0  0  0  0  # atno 8010 bound_to 7997
  139.4821  144.5079  151.8070 H   0  0  0  0  0  0  0  0  0  0  0  0  # atno 10167 bound_to 10162
  157.6834  131.0721  150.5223 H   0  0  0  0  0  0  0  0  0  0  0  0  # atno 10718 bound_to 10713
  153.7462  135.6929  153.4956 H   0  0  0  0  0  0  0  0  0  0  0  0  # atno 10763 bound_to 10752
  153.2035  135.4428  155.0293 H   0  0  0  0  0  0  0  0  0  0  0  0  # atno 10764 bound_to 10752
  154.8203  135.3419  154.6985 H   0  0  0  0  0  0  0  0  0  0  0  0  # atno 10765 bound_to 10752
  139.9297  134.9641  156.8207 H   0  0  0  0  0  0  0  0  0  0  0  0  # atno 11005 bound_to 11000
  146.2872  139.7038  142.9187 LP  0  0  0  0  0  0  0  0  0  0  0  0  # atno 17320 bound_to 7965
  145.4281  141.0413  143.2926 LP  0  0  0  0  0  0  0  0  0  0  0  0  # atno 17321 bound_to 7965
  140.4578  144.1764  150.5903 LP  0  0  0  0  0  0  0  0  0  0  0  0  # atno 17342 bound_to 10162
  140.4516  143.2484  151.9340 LP  0  0  0  0  0  0  0  0  0  0  0  0  # atno 17343 bound_to 10162
  156.5536  130.4238  149.6096 LP  0  0  0  0  0  0  0  0  0  0  0  0  # atno 17370 bound_to 10713
  156.2881  130.7109  151.1950 LP  0  0  0  0  0  0  0  0  0  0  0  0  # atno 17371 bound_to 10713
  140.6237  133.9970  155.7630 LP  0  0  0  0  0  0  0  0  0  0  0  0  # atno 17394 bound_to 11000
  141.0878  133.9964  157.3286 LP  0  0  0  0  0  0  0  0  0  0  0  0  # atno 17395 bound_to 11000

$$$$
