AV-unprocessed.smi:665|AV-procd|sdf|3253|dock5
  -GOLD-   22720 0203D 1   1.00000     0.00000
 Structure written by MMmdl.
 43 44  0  0  0  0  0  0  0  0  1 V2000
  143.3872  132.3508  149.6089 C   0  0  0  0  0  0  0  0  0  0  0  0
  144.5181  132.5350  150.5220 N   0  0  0  0  0  0  0  0  0  0  0  0
  145.0696  131.3860  151.1140 C   0  0  0  0  0  0  0  0  0  0  0  0
  146.1068  131.4593  151.9594 C   0  0  0  0  0  0  0  0  0  0  0  0
  146.6603  132.7589  152.2554 C   0  0  0  0  0  0  0  0  0  0  0  0
  146.1498  133.8808  151.6875 C   0  0  0  0  0  0  0  0  0  0  0  0
  146.6257  135.1833  151.9205 N   0  0  0  0  0  0  0  0  0  0  0  0
  145.9644  136.2677  152.3666 C   0  0  0  0  0  0  0  0  0  0  0  0
  144.7741  136.3074  152.6769 O   0  0  0  0  0  0  0  0  0  0  0  0
  146.7877  137.3224  152.4565 N   0  0  0  0  0  0  0  0  0  0  0  0
  146.4277  138.6522  152.9420 C   0  0  0  0  0  0  0  0  0  0  0  0
  147.0986  139.7296  152.0733 C   0  0  0  0  0  0  0  0  0  0  0  0
  146.8037  141.1439  152.6059 C   0  0  0  0  0  0  0  0  0  0  0  0
  147.1937  141.3376  154.0929 C   0  0  0  0  0  0  0  0  0  0  0  0
  148.7285  141.3494  154.2624 C   0  0  0  0  0  0  0  0  0  0  0  0
  146.6534  142.6973  154.5769 C   0  0  0  0  0  0  0  0  0  0  0  0
  146.5533  140.2130  154.9444 C   0  0  0  0  0  0  0  0  0  0  0  0
  146.8491  138.7990  154.4136 C   0  0  0  0  0  0  0  0  0  0  0  0
  144.9986  133.7904  150.7679 C   0  0  0  0  0  0  0  0  0  0  0  0
  144.4890  134.7825  150.2410 O   0  0  0  0  0  0  0  0  0  0  0  0
  143.1009  131.3044  149.4978 H   0  0  0  0  0  0  0  0  0  0  0  0
  143.6334  132.7269  148.6149 H   0  0  0  0  0  0  0  0  0  0  0  0
  142.5104  132.8908  149.9694 H   0  0  0  0  0  0  0  0  0  0  0  0
  144.6019  130.4514  150.8404 H   0  0  0  0  0  0  0  0  0  0  0  0
  146.5212  130.5674  152.4059 H   0  0  0  0  0  0  0  0  0  0  0  0
  147.4817  132.7952  152.9519 H   0  0  0  0  0  0  0  0  0  0  0  0
  147.6175  135.2973  151.7692 H   0  0  0  0  0  0  0  0  0  0  0  0
  147.7498  137.1917  152.1803 H   0  0  0  0  0  0  0  0  0  0  0  0
  145.3473  138.7979  152.8859 H   0  0  0  0  0  0  0  0  0  0  0  0
  148.1757  139.5632  152.0342 H   0  0  0  0  0  0  0  0  0  0  0  0
  146.7434  139.6488  151.0452 H   0  0  0  0  0  0  0  0  0  0  0  0
  147.3122  141.8817  151.9843 H   0  0  0  0  0  0  0  0  0  0  0  0
  145.7367  141.3372  152.4848 H   0  0  0  0  0  0  0  0  0  0  0  0
  149.0084  141.5000  155.3056 H   0  0  0  0  0  0  0  0  0  0  0  0
  149.1826  142.1551  153.6846 H   0  0  0  0  0  0  0  0  0  0  0  0
  149.1924  140.4192  153.9364 H   0  0  0  0  0  0  0  0  0  0  0  0
  146.9001  142.8729  155.6247 H   0  0  0  0  0  0  0  0  0  0  0  0
  145.5682  142.7529  154.4837 H   0  0  0  0  0  0  0  0  0  0  0  0
  147.0730  143.5208  153.9980 H   0  0  0  0  0  0  0  0  0  0  0  0
  146.8842  140.2907  155.9808 H   0  0  0  0  0  0  0  0  0  0  0  0
  145.4709  140.3488  154.9662 H   0  0  0  0  0  0  0  0  0  0  0  0
  146.3201  138.0655  155.0234 H   0  0  0  0  0  0  0  0  0  0  0  0
  147.9104  138.5744  154.5239 H   0  0  0  0  0  0  0  0  0  0  0  0
  1  2  1  0  0  0  0
  1 21  1  0  0  0  0
  1 22  1  0  0  0  0
  1 23  1  0  0  0  0
  2 19  1  0  0  0  0
  2  3  1  0  0  0  0
  3  4  2  0  0  0  0
  3 24  1  0  0  0  0
  4  5  1  0  0  0  0
  4 25  1  0  0  0  0
  5  6  2  0  0  0  0
  5 26  1  0  0  0  0
  6  7  1  0  0  0  0
  6 19  1  0  0  0  0
  7  8  1  0  0  0  0
  7 27  1  0  0  0  0
  8  9  2  0  0  0  0
  8 10  1  0  0  0  0
 10 11  1  0  0  0  0
 10 28  1  0  0  0  0
 11 18  1  0  0  0  0
 11 12  1  0  0  0  0
 11 29  1  0  0  0  0
 12 13  1  0  0  0  0
 12 30  1  0  0  0  0
 12 31  1  0  0  0  0
 13 14  1  0  0  0  0
 13 32  1  0  0  0  0
 13 33  1  0  0  0  0
 14 15  1  0  0  0  0
 14 16  1  0  0  0  0
 14 17  1  0  0  0  0
 15 34  1  0  0  0  0
 15 35  1  0  0  0  0
 15 36  1  0  0  0  0
 16 37  1  0  0  0  0
 16 38  1  0  0  0  0
 16 39  1  0  0  0  0
 17 18  1  0  0  0  0
 17 40  1  0  0  0  0
 17 41  1  0  0  0  0
 18 42  1  0  0  0  0
 18 43  1  0  0  0  0
 19 20  2  0  0  0  0
M  END
> <s_m_source_file>
AV-unprocessed.smi

> <i_m_source_file_index>
665

> <i_lp_mmshare_version>
43012

> <i_f3d_flags>
0

> <s_epik_input>
W0NIM11uMVtjSF1bY0hdW2NIXWMoYzE9TylbTkhdQyg9TylbTkhdW0NIXShbQ0gyXVtDSDJdMilbQ0gyXVtDSDJdQzIoW0NIM10pW0NIM10=

> <s_epik_cmdline>
J2VwaWtfcHl0aG9uJywgJy1waCcsICc3LjAnLCAnLXRuJywgJzgnLCAnLW1hJywgJzIwMCcsICctbWV0YWxfYmluZGluZycsICctaW1hZScsICc8aW5maWxlLm1hZT4nLCAnLW9tYWUnLCAnPG91dGZpbGUubWFlPic=

> <r_lp_tautomer_probability>
1

> <r_epik_Ionization_Penalty>
2.65253e-05

> <r_epik_Ionization_Penalty_Charging>
5.1221e-06

> <r_epik_Ionization_Penalty_Neutral>
2.14032e-05

> <r_epik_State_Penalty>
-0

> <r_epik_Charging_Adjusted_Penalty>
5.1221e-06

> <i_epik_Tot_Q>
0

> <i_epik_Tot_abs_Q>
0

> <r_epik_Metal_State_Penalty>
-0

> <b_epik_Metal_Only>
0

> <s_lp_Force_Field>
OPLS_2005

> <r_lp_Energy>
25.5106

> <b_lp_Chiralities_Consistent>
1

> <s_lp_Variant>
AV-unprocessed.smi:665-1

> <Gold.Version>
5.8.1

> <Gold.Id.Protein>
6NUR|6NUR_protein|mol2

> <Gold.PLP.Fitness>
36.0620

> <Gold.PLP.PLP>
-31.7007

> <Gold.PLP.part.hbond>
-1.5920

> <Gold.PLP.part.metal>
0.0000

> <Gold.PLP.part.buried>
1.1874

> <Gold.PLP.part.nonpolar>
-33.0708

> <Gold.PLP.part.repulsive>
1.3891

> <Gold.PLP.ligand.clash>
0.0000

> <Gold.PLP.ligand.torsion>
0.8086

> <Gold.PLP.Chemscore.Hbond>
1.9920

> <Gold.PLP.Chemscore.CHOScore>
0.0000

> <Gold.PLP.Chemscore.Metal>
0.0000

> <Gold.Chemscore.Hbonds>
donor molecule, donor type, donor heavy atom, donor atom, acceptor molecule, acceptor atom, score
      L1  H     7    27       P1  7948  1.00
      L1  H    10    28       P1  7948  1.00

> <Gold.PLP.Chemscore.Internal.Correction>
0.0024

> <Gold.Rescore>
     Score         DG    S(hbond)    S(metal)    S(lipo)     H(rot)  DE(clash)    DE(int)     intcor
     16.29     -18.79       1.91        0.00      81.27       1.00       1.60       0.90       ----

> <Gold.Chemscore.Fitness>
16.2937

> <Gold.Chemscore.DG>
-18.7924

> <Gold.Chemscore.ZeroCoef>
-5.4800

> <Gold.Chemscore.Hbond>
1.9055

> <Gold.Chemscore.Metal>
0.0000

> <Gold.Chemscore.Lipo>
81.2655

> <Gold.Chemscore.Internal_Hbond>
0.0000

> <Gold.Chemscore.DEClash>
1.5995

> <Gold.Chemscore.DEInternal>
0.8992

> <Gold.Chemscore.Rot>
1.0000

> <Gold.Chemscore.Internal.Correction>
   9.000000E+99

> <Gold.Chemscore.Hbonds>
donor molecule, donor type, donor heavy atom, donor atom, acceptor molecule, acceptor atom, score
      L1  H     7    27       P1  7948  0.85
      L1  H    10    28       P1  7948  0.92

> <Gold.Chemscore.Hbond.Weighted>
-6.3643

> <Gold.Chemscore.Metal.Weighted>
-0.0000

> <Gold.Chemscore.Lipo.Weighted>
-9.5081

> <Gold.Chemscore.Internal_Hbond.Weighted>
0.0000

> <Gold.Chemscore.DEClash.Weighted>
1.5995

> <Gold.Chemscore.DEInternal.Weighted>
0.8992

> <Gold.Chemscore.Rot.Weighted>
2.5600

> <Gold.Chemscore.Internal.Correction.Weighted>
   9.000000E+99

> <Gold.Protein.RotatedTorsions>
[ 6907 6896 6895 6894 ] final -178.40 input  -60.11 | X-H torsion
[ 7974 7965 7964 7962 ] final  -25.39 input  175.53 | X-H torsion
[ 8008 7997 7996 7995 ] final -171.04 input   59.86 | X-H torsion
[ 10167 10162 10161 10158 ] final  169.48 input  -65.29 | X-H torsion
[ 10718 10713 10712 10709 ] final  -34.97 input   66.30 | X-H torsion
[ 10763 10752 10751 10750 ] final -151.20 input  -60.55 | X-H torsion
[ 11005 11000 10999 10996 ] final  176.35 input  -57.11 | X-H torsion

> <Gold.Protein.ActiveResidues>
 VAL166  LYS551  ARG553  GLY616  TRP617  ASP618  TYR619  PRO620  LYS621  CYS622 
 ASP623  PHE694  ASN695  SER759  ASP760  ASP761  ALA762  ILE779  LEU786  VAL792 
 PHE793  MET794  SER795  GLU796  ALA797  LYS798  CYS799  TRP800  GLU811  SER814 

> <Gold.Protein.RotatedAtoms>
  151.6367  133.3328  159.3120 H   0  0  0  0  0  0  0  0  0  0  0  0  # atno 6907 bound_to 6896
  150.8029  134.7138  159.6628 H   0  0  0  0  0  0  0  0  0  0  0  0  # atno 6908 bound_to 6896
  152.4122  134.6108  160.0076 H   0  0  0  0  0  0  0  0  0  0  0  0  # atno 6909 bound_to 6896
  146.1494  140.4880  142.8618 H   0  0  0  0  0  0  0  0  0  0  0  0  # atno 7974 bound_to 7965
  155.9263  140.1083  157.1168 H   0  0  0  0  0  0  0  0  0  0  0  0  # atno 8008 bound_to 7997
  154.4063  140.1246  156.4809 H   0  0  0  0  0  0  0  0  0  0  0  0  # atno 8009 bound_to 7997
  155.7135  140.3470  155.4986 H   0  0  0  0  0  0  0  0  0  0  0  0  # atno 8010 bound_to 7997
  139.4993  144.3701  151.9734 H   0  0  0  0  0  0  0  0  0  0  0  0  # atno 10167 bound_to 10162
  156.3442  130.4298  149.7760 H   0  0  0  0  0  0  0  0  0  0  0  0  # atno 10718 bound_to 10713
  154.8072  135.3266  154.7399 H   0  0  0  0  0  0  0  0  0  0  0  0  # atno 10763 bound_to 10752
  153.8055  135.6900  153.4853 H   0  0  0  0  0  0  0  0  0  0  0  0  # atno 10764 bound_to 10752
  153.1826  135.4581  154.9993 H   0  0  0  0  0  0  0  0  0  0  0  0  # atno 10765 bound_to 10752
  140.3722  134.7020  157.4399 H   0  0  0  0  0  0  0  0  0  0  0  0  # atno 11005 bound_to 11000
  144.7885  140.5985  143.6557 LP  0  0  0  0  0  0  0  0  0  0  0  0  # atno 17320 bound_to 7965
  145.4860  139.1492  143.3735 LP  0  0  0  0  0  0  0  0  0  0  0  0  # atno 17321 bound_to 7965
  140.3137  144.3508  150.6027 LP  0  0  0  0  0  0  0  0  0  0  0  0  # atno 17342 bound_to 10162
  140.5778  143.2175  151.7483 LP  0  0  0  0  0  0  0  0  0  0  0  0  # atno 17343 bound_to 10162
  156.4985  130.8118  151.3123 LP  0  0  0  0  0  0  0  0  0  0  0  0  # atno 17370 bound_to 10713
  157.7451  130.9952  150.2736 LP  0  0  0  0  0  0  0  0  0  0  0  0  # atno 17371 bound_to 10713
  140.0543  134.6086  155.8824 LP  0  0  0  0  0  0  0  0  0  0  0  0  # atno 17394 bound_to 11000
  141.1951  133.6585  156.5626 LP  0  0  0  0  0  0  0  0  0  0  0  0  # atno 17395 bound_to 11000

$$$$
