AV-unprocessed.smi:2624|AV-procd|sdf|10233|dock6
  -GOLD-   2272014243D 1   1.00000     0.00000
 Structure written by MMmdl.
 39 40  0  0  0  0  0  0  0  0  1 V2000
  152.9584  143.4898  158.9827 C   0  0  0  0  0  0  0  0  0  0  0  0
  152.3978  142.2260  158.6726 O   0  0  0  0  0  0  0  0  0  0  0  0
  151.0683  142.3252  158.1917 C   0  0  0  0  0  0  0  0  0  0  0  0
  151.1044  142.4877  156.6649 C   0  0  0  0  0  0  0  0  0  0  0  0
  150.7324  141.2414  155.9822 N   0  0  0  0  0  0  0  0  0  0  0  0
  149.5848  141.2802  155.1668 C   0  0  0  0  0  0  0  0  0  0  0  0
  149.1516  140.2021  154.4871 C   0  0  0  0  0  0  0  0  0  0  0  0
  147.9398  140.2849  153.6368 C   0  0  0  0  0  0  0  0  0  0  0  0
  147.5034  141.3721  153.2564 O   0  0  0  0  0  0  0  0  0  0  0  0
  147.2425  139.0188  153.2659 C   0  0  0  0  0  0  0  0  0  0  0  0
  147.0310  138.0594  154.2819 C   0  0  0  0  0  0  0  0  0  0  0  0
  146.3918  136.8360  153.9979 C   0  0  0  0  0  0  0  0  0  0  0  0
  146.1874  135.8159  155.0987 C   0  0  0  0  0  0  0  0  0  0  0  0
  145.9522  136.5653  152.6878 C   0  0  0  0  0  0  0  0  0  0  0  0
  146.1421  137.5190  151.6712 C   0  0  0  0  0  0  0  0  0  0  0  0
  146.7784  138.7451  151.9508 C   0  0  0  0  0  0  0  0  0  0  0  0
  146.9022  139.6523  150.9349 O   0  0  0  0  0  0  0  0  0  0  0  0
  149.9002  138.9689  154.6313 C   0  0  0  0  0  0  0  0  0  0  0  0
  150.9941  138.9231  155.4172 C   0  0  0  0  0  0  0  0  0  0  0  0
  151.7427  137.7204  155.5751 C   0  0  0  0  0  0  0  0  0  0  0  0
  152.3495  136.7402  155.6781 N   0  0  0  0  0  0  0  0  0  0  0  0
  151.4696  140.1023  156.1544 C   0  0  0  0  0  0  0  0  0  0  0  0
  152.4623  140.0743  156.8839 O   0  0  0  0  0  0  0  0  0  0  0  0
  153.9788  143.3597  159.3428 H   0  0  0  0  0  0  0  0  0  0  0  0
  152.3878  143.9933  159.7641 H   0  0  0  0  0  0  0  0  0  0  0  0
  152.9917  144.1335  158.1029 H   0  0  0  0  0  0  0  0  0  0  0  0
  150.5070  141.4304  158.4659 H   0  0  0  0  0  0  0  0  0  0  0  0
  150.5698  143.1816  158.6491 H   0  0  0  0  0  0  0  0  0  0  0  0
  150.4317  143.2943  156.3695 H   0  0  0  0  0  0  0  0  0  0  0  0
  152.0955  142.8185  156.3493 H   0  0  0  0  0  0  0  0  0  0  0  0
  149.0900  142.2410  155.1312 H   0  0  0  0  0  0  0  0  0  0  0  0
  147.3711  138.2544  155.2895 H   0  0  0  0  0  0  0  0  0  0  0  0
  145.4164  135.0935  154.8291 H   0  0  0  0  0  0  0  0  0  0  0  0
  145.8822  136.3059  156.0239 H   0  0  0  0  0  0  0  0  0  0  0  0
  147.1148  135.2742  155.2858 H   0  0  0  0  0  0  0  0  0  0  0  0
  145.4629  135.6297  152.4590 H   0  0  0  0  0  0  0  0  0  0  0  0
  145.7888  137.3080  150.6721 H   0  0  0  0  0  0  0  0  0  0  0  0
  147.8013  139.8333  150.7072 H   0  0  0  0  0  0  0  0  0  0  0  0
  149.5845  138.0732  154.1159 H   0  0  0  0  0  0  0  0  0  0  0  0
  1  2  1  0  0  0  0
  1 24  1  0  0  0  0
  1 25  1  0  0  0  0
  1 26  1  0  0  0  0
  2  3  1  0  0  0  0
  3  4  1  0  0  0  0
  3 27  1  0  0  0  0
  3 28  1  0  0  0  0
  4  5  1  0  0  0  0
  4 29  1  0  0  0  0
  4 30  1  0  0  0  0
  5 22  1  0  0  0  0
  5  6  1  0  0  0  0
  6  7  2  0  0  0  0
  6 31  1  0  0  0  0
  7  8  1  0  0  0  0
  7 18  1  0  0  0  0
  8  9  2  0  0  0  0
  8 10  1  0  0  0  0
 10 16  1  0  0  0  0
 10 11  2  0  0  0  0
 11 12  1  0  0  0  0
 11 32  1  0  0  0  0
 12 13  1  0  0  0  0
 12 14  2  0  0  0  0
 13 33  1  0  0  0  0
 13 34  1  0  0  0  0
 13 35  1  0  0  0  0
 14 15  1  0  0  0  0
 14 36  1  0  0  0  0
 15 16  2  0  0  0  0
 15 37  1  0  0  0  0
 16 17  1  0  0  0  0
 17 38  1  0  0  0  0
 18 19  2  0  0  0  0
 18 39  1  0  0  0  0
 19 20  1  0  0  0  0
 19 22  1  0  0  0  0
 20 21  3  0  0  0  0
 22 23  2  0  0  0  0
M  END
> <s_m_source_file>
AV-unprocessed.smi

> <i_m_source_file_index>
2624

> <i_lp_mmshare_version>
43012

> <i_f3d_flags>
0

> <s_epik_input>
W0NIM11PW0NIMl1bQ0gyXW4xW2NIXWMoW2NIXWMoQyNOKWMxPU8pQyg9TyljMltjSF1jKFtDSDNdKVtjSF1bY0hdYzJbT0hd

> <s_epik_cmdline>
J2VwaWtfcHl0aG9uJywgJy1waCcsICc3LjAnLCAnLXRuJywgJzgnLCAnLW1hJywgJzIwMCcsICctbWV0YWxfYmluZGluZycsICctaW1hZScsICc8aW5maWxlLm1hZT4nLCAnLW9tYWUnLCAnPG91dGZpbGUubWFlPic=

> <r_epik_Ionization_Penalty>
0.124493

> <r_epik_Ionization_Penalty_Charging>
5.62591e-11

> <r_epik_Ionization_Penalty_Neutral>
0.124493

> <r_epik_State_Penalty>
0.113971

> <r_epik_Charging_Adjusted_Penalty>
0.113971

> <i_epik_Tot_Q>
0

> <i_epik_Tot_abs_Q>
0

> <r_epik_Metal_State_Penalty>
0.113971

> <b_epik_Metal_Only>
0

> <s_lp_Force_Field>
OPLS_2005

> <r_lp_Energy>
23.5595

> <b_lp_Chiralities_Consistent>
1

> <s_lp_Variant>
AV-unprocessed.smi:2624-1

> <Gold.Version>
5.8.1

> <Gold.Id.Protein>
6NUR|6NUR_protein|mol2

> <Gold.PLP.Fitness>
49.4264

> <Gold.PLP.PLP>
-38.6784

> <Gold.PLP.part.hbond>
-3.4277

> <Gold.PLP.part.metal>
0.0000

> <Gold.PLP.part.buried>
-2.0337

> <Gold.PLP.part.nonpolar>
-34.2954

> <Gold.PLP.part.repulsive>
0.2099

> <Gold.PLP.ligand.clash>
0.0000

> <Gold.PLP.ligand.torsion>
1.4032

> <Gold.PLP.Chemscore.Hbond>
2.9433

> <Gold.PLP.Chemscore.CHOScore>
1.0000

> <Gold.PLP.Chemscore.Metal>
0.0000

> <Gold.Chemscore.Hbonds>
donor molecule, donor type, donor heavy atom, donor atom, acceptor molecule, acceptor atom, score
      L1  H    17    38       P1  7957  1.00
      P1  H  7997  8009       L1    23  0.96
      P1  H 10752 10763       L1    21  0.96
      L1  C     6    31       P1  8028  0.99

> <Gold.PLP.Chemscore.Internal.Correction>
1.7246

> <Gold.Rescore>
     Score         DG    S(hbond)    S(metal)    S(lipo)     H(rot)  DE(clash)    DE(int)     intcor
     16.92     -19.88       2.93        0.00      81.96       1.94       0.07       2.89       ----

> <Gold.Chemscore.Fitness>
16.9202

> <Gold.Chemscore.DG>
-19.8828

> <Gold.Chemscore.ZeroCoef>
-5.4800

> <Gold.Chemscore.Hbond>
2.9288

> <Gold.Chemscore.Metal>
0.0000

> <Gold.Chemscore.Lipo>
81.9561

> <Gold.Chemscore.Internal_Hbond>
0.0000

> <Gold.Chemscore.DEClash>
0.0703

> <Gold.Chemscore.DEInternal>
2.8924

> <Gold.Chemscore.Rot>
1.9407

> <Gold.Chemscore.Internal.Correction>
   9.000000E+99

> <Gold.Chemscore.Hbonds>
donor molecule, donor type, donor heavy atom, donor atom, acceptor molecule, acceptor atom, score
      L1  H    17    38       P1  7957  0.54
      P1  H  7997  8009       L1    23  0.91
      P1  H 10752 10763       L1    21  0.91

> <Gold.Chemscore.Hbond.Weighted>
-9.7822

> <Gold.Chemscore.Metal.Weighted>
-0.0000

> <Gold.Chemscore.Lipo.Weighted>
-9.5889

> <Gold.Chemscore.Internal_Hbond.Weighted>
0.0000

> <Gold.Chemscore.DEClash.Weighted>
0.0703

> <Gold.Chemscore.DEInternal.Weighted>
2.8924

> <Gold.Chemscore.Rot.Weighted>
4.9682

> <Gold.Chemscore.Internal.Correction.Weighted>
   9.000000E+99

> <Gold.Protein.RotatedTorsions>
[ 6907 6896 6895 6894 ] final   97.64 input  -60.11 | X-H torsion
[ 7974 7965 7964 7962 ] final   15.04 input  175.53 | X-H torsion
[ 8008 7997 7996 7995 ] final  170.84 input   59.86 | X-H torsion
[ 10167 10162 10161 10158 ] final  -98.05 input  -65.29 | X-H torsion
[ 10718 10713 10712 10709 ] final -176.84 input   66.30 | X-H torsion
[ 10763 10752 10751 10750 ] final   82.53 input  -60.55 | X-H torsion
[ 11005 11000 10999 10996 ] final -119.52 input  -57.11 | X-H torsion

> <Gold.Protein.ActiveResidues>
 VAL166  LYS551  ARG553  GLY616  TRP617  ASP618  TYR619  PRO620  LYS621  CYS622 
 ASP623  PHE694  ASN695  SER759  ASP760  ASP761  ALA762  ILE779  LEU786  VAL792 
 PHE793  MET794  SER795  GLU796  ALA797  LYS798  CYS799  TRP800  GLU811  SER814 

> <Gold.Protein.RotatedAtoms>
  152.5420  134.0702  159.8190 H   0  0  0  0  0  0  0  0  0  0  0  0  # atno 6907 bound_to 6896
  151.0818  133.5377  159.2627 H   0  0  0  0  0  0  0  0  0  0  0  0  # atno 6908 bound_to 6896
  151.2201  135.0524  159.9000 H   0  0  0  0  0  0  0  0  0  0  0  0  # atno 6909 bound_to 6896
  146.2289  139.8952  142.8548 H   0  0  0  0  0  0  0  0  0  0  0  0  # atno 7974 bound_to 7965
  156.1328  140.1527  156.9040 H   0  0  0  0  0  0  0  0  0  0  0  0  # atno 8008 bound_to 7997
  154.4923  140.0848  156.7660 H   0  0  0  0  0  0  0  0  0  0  0  0  # atno 8009 bound_to 7997
  155.4225  140.3423  155.4275 H   0  0  0  0  0  0  0  0  0  0  0  0  # atno 8010 bound_to 7997
  140.2770  143.3307  152.0479 H   0  0  0  0  0  0  0  0  0  0  0  0  # atno 10167 bound_to 10162
  156.8207  130.9619  151.3112 H   0  0  0  0  0  0  0  0  0  0  0  0  # atno 10718 bound_to 10713
  153.1211  135.4725  154.9197 H   0  0  0  0  0  0  0  0  0  0  0  0  # atno 10763 bound_to 10752
  154.7576  135.3122  154.8442 H   0  0  0  0  0  0  0  0  0  0  0  0  # atno 10764 bound_to 10752
  153.9006  135.6875  153.4809 H   0  0  0  0  0  0  0  0  0  0  0  0  # atno 10765 bound_to 10752
  141.0209  134.0125  157.3283 H   0  0  0  0  0  0  0  0  0  0  0  0  # atno 11005 bound_to 11000
  145.2378  140.9998  143.3953 LP  0  0  0  0  0  0  0  0  0  0  0  0  # atno 17320 bound_to 7965
  144.9477  139.4118  143.6418 LP  0  0  0  0  0  0  0  0  0  0  0  0  # atno 17321 bound_to 7965
  139.4973  144.6618  151.6447 LP  0  0  0  0  0  0  0  0  0  0  0  0  # atno 17342 bound_to 10162
  140.5843  143.9891  150.6286 LP  0  0  0  0  0  0  0  0  0  0  0  0  # atno 17343 bound_to 10162
  157.6458  130.8843  149.9536 LP  0  0  0  0  0  0  0  0  0  0  0  0  # atno 17370 bound_to 10713
  156.0990  130.3657  150.0252 LP  0  0  0  0  0  0  0  0  0  0  0  0  # atno 17371 bound_to 10713
  139.9146  135.0195  156.7828 LP  0  0  0  0  0  0  0  0  0  0  0  0  # atno 17394 bound_to 11000
  140.6574  133.9676  155.7786 LP  0  0  0  0  0  0  0  0  0  0  0  0  # atno 17395 bound_to 11000

$$$$
