AV-unprocessed.smi:809|AV-procd|sdf|3807|dock6
  -GOLD-   22720 1243D 1   1.00000     0.00000
 Structure written by MMmdl.
 39 40  0  0  0  0  0  0  0  0  3 V2000
  152.7370  142.7537  161.0663 C   0  0  0  0  0  0  0  0  0  0  0  0
  152.2440  142.0175  159.8603 C   0  0  0  0  0  0  0  0  0  0  0  0
  152.3814  140.6784  159.6036 C   0  0  0  0  0  0  0  0  0  0  0  0
  151.6574  140.2374  158.0837 S   0  0  0  0  0  0  0  0  0  0  0  0
  151.1869  141.9200  157.8324 C   0  0  0  0  0  0  0  0  0  0  0  0
  150.5157  142.3816  156.7649 N   0  5  0  0  0  0  0  0  0  0  0  0
  150.2177  141.5489  155.7422 C   0  0  0  0  0  0  0  0  0  0  0  0
  150.8322  140.5278  155.4265 O   0  0  0  0  0  0  0  0  0  0  0  0
  149.1439  141.9308  155.0375 N   0  0  0  0  0  0  0  0  0  0  0  0
  148.6130  141.2683  153.8488 C   0  0  0  0  0  0  0  0  0  0  0  0
  147.7156  140.0406  154.1643 C   0  0  1  0  0  0  0  0  0  0  0  0
  146.6434  140.5024  154.9669 O   0  0  0  0  0  0  0  0  0  0  0  0
  147.0961  139.4942  152.8579 C   0  0  0  0  0  0  0  0  0  0  0  0
  146.2700  138.2136  153.0764 C   0  0  0  0  0  0  0  0  0  0  0  0
  147.0770  137.1680  153.7500 N   0  3  2  0  0  0  0  0  0  0  0  0
  146.3560  135.8813  153.8555 C   0  0  0  0  0  0  0  0  0  0  0  0
  147.5980  137.6322  155.0578 C   0  0  0  0  0  0  0  0  0  0  0  0
  148.4601  138.8967  154.8959 C   0  0  0  0  0  0  0  0  0  0  0  0
  151.5618  142.7019  158.8511 N   0  0  0  0  0  0  0  0  0  0  0  0
  152.2648  142.3781  161.9741 H   0  0  0  0  0  0  0  0  0  0  0  0
  152.5248  143.8215  161.0026 H   0  0  0  0  0  0  0  0  0  0  0  0
  153.8148  142.6388  161.1817 H   0  0  0  0  0  0  0  0  0  0  0  0
  152.8608  139.9272  160.2128 H   0  0  0  0  0  0  0  0  0  0  0  0
  148.6702  142.7683  155.3421 H   0  0  0  0  0  0  0  0  0  0  0  0
  148.1039  141.9801  153.1960 H   0  0  0  0  0  0  0  0  0  0  0  0
  149.4902  140.9384  153.2919 H   0  0  0  0  0  0  0  0  0  0  0  0
  146.9474  141.2129  155.5094 H   0  0  0  0  0  0  0  0  0  0  0  0
  146.4768  140.2572  152.3839 H   0  0  0  0  0  0  0  0  0  0  0  0
  147.8926  139.2705  152.1468 H   0  0  0  0  0  0  0  0  0  0  0  0
  145.3796  138.4297  153.6689 H   0  0  0  0  0  0  0  0  0  0  0  0
  145.9225  137.8401  152.1123 H   0  0  0  0  0  0  0  0  0  0  0  0
  145.4633  135.9825  154.4740 H   0  0  0  0  0  0  0  0  0  0  0  0
  146.9947  135.1168  154.2986 H   0  0  0  0  0  0  0  0  0  0  0  0
  146.0514  135.5285  152.8696 H   0  0  0  0  0  0  0  0  0  0  0  0
  146.7660  137.8241  155.7372 H   0  0  0  0  0  0  0  0  0  0  0  0
  148.1985  136.8429  155.5118 H   0  0  0  0  0  0  0  0  0  0  0  0
  149.3618  138.6404  154.3380 H   0  0  0  0  0  0  0  0  0  0  0  0
  148.7945  139.2221  155.8819 H   0  0  0  0  0  0  0  0  0  0  0  0
  147.8817  136.9989  153.1632 H   0  0  0  0  0  0  0  0  0  0  0  0
  1  2  1  0  0  0  0
  1 20  1  0  0  0  0
  1 21  1  0  0  0  0
  1 22  1  0  0  0  0
  2 19  1  0  0  0  0
  2  3  2  0  0  0  0
  3  4  1  0  0  0  0
  3 23  1  0  0  0  0
  4  5  1  0  0  0  0
  5  6  1  0  0  0  0
  5 19  2  0  0  0  0
  6  7  1  0  0  0  0
  7  8  2  0  0  0  0
  7  9  1  0  0  0  0
  9 10  1  0  0  0  0
  9 24  1  0  0  0  0
 10 11  1  0  0  0  0
 10 25  1  0  0  0  0
 10 26  1  0  0  0  0
 11 18  1  0  0  0  0
 11 12  1  0  0  0  0
 11 13  1  0  0  0  0
 12 27  1  0  0  0  0
 13 14  1  0  0  0  0
 13 28  1  0  0  0  0
 13 29  1  0  0  0  0
 14 15  1  0  0  0  0
 14 30  1  0  0  0  0
 14 31  1  0  0  0  0
 15 16  1  0  0  0  0
 15 17  1  0  0  0  0
 15 39  1  0  0  0  0
 16 32  1  0  0  0  0
 16 33  1  0  0  0  0
 16 34  1  0  0  0  0
 17 18  1  0  0  0  0
 17 35  1  0  0  0  0
 17 36  1  0  0  0  0
 18 37  1  0  0  0  0
 18 38  1  0  0  0  0
M  CHG  1   6  -1
M  CHG  1  15   1
M  END
> <s_m_source_file>
AV-unprocessed.smi

> <i_m_source_file_index>
809

> <i_lp_mmshare_version>
43012

> <i_f3d_flags>
0

> <s_epik_input>
W0NIM11jMVtjSF1zYyhuMSlbTkhdQyg9TylbTkhdW0NIMl1DMihbT0hdKVtDSDJdW0NIMl1OKFtDSDNdKVtDSDJdW0NIMl0y

> <s_epik_cmdline>
J2VwaWtfcHl0aG9uJywgJy1waCcsICc3LjAnLCAnLXRuJywgJzgnLCAnLW1hJywgJzIwMCcsICctbWV0YWxfYmluZGluZycsICctaW1hZScsICc8aW5maWxlLm1hZT4nLCAnLW9tYWUnLCAnPG91dGZpbGUubWFlPic=

> <r_lp_tautomer_probability>
0.999

> <r_epik_Ionization_Penalty>
8.50704

> <r_epik_Ionization_Penalty_Charging>
6.65046

> <r_epik_Ionization_Penalty_Neutral>
1.85657

> <r_epik_State_Penalty>
6.64992

> <r_epik_Charging_Adjusted_Penalty>
13.3004

> <i_epik_Tot_Q>
0

> <i_epik_Tot_abs_Q>
2

> <r_epik_Metal_State_Penalty>
2.57297

> <b_epik_Metal_Only>
1

> <s_lp_Force_Field>
OPLS_2005

> <r_lp_Energy>
10.5193

> <b_lp_Chiralities_Consistent>
1

> <s_lp_Variant>
AV-unprocessed.smi:809-3

> <Gold.Version>
5.8.1

> <Gold.Id.Protein>
6NUR|6NUR_protein|mol2

> <Gold.PLP.Fitness>
40.6189

> <Gold.PLP.PLP>
-29.3615

> <Gold.PLP.part.hbond>
-3.0000

> <Gold.PLP.part.metal>
0.0000

> <Gold.PLP.part.buried>
-2.1590

> <Gold.PLP.part.nonpolar>
-23.4840

> <Gold.PLP.part.repulsive>
0.3668

> <Gold.PLP.ligand.clash>
0.0000

> <Gold.PLP.ligand.torsion>
0.3060

> <Gold.PLP.Chemscore.Hbond>
3.9520

> <Gold.PLP.Chemscore.CHOScore>
0.0000

> <Gold.PLP.Chemscore.Metal>
0.0000

> <Gold.Chemscore.Hbonds>
donor molecule, donor type, donor heavy atom, donor atom, acceptor molecule, acceptor atom, score
      L1  H     9    24       P1  8028  0.90
      L1  H    15    39       P1  7948  2.00
      P1  H  7989  7998       L1     8  0.75

> <Gold.PLP.Chemscore.Internal.Correction>
0.0134

> <Gold.Rescore>
     Score         DG    S(hbond)    S(metal)    S(lipo)     H(rot)  DE(clash)    DE(int)     intcor
     15.21     -17.04       2.52        0.00      66.60       1.82       0.09       1.74       ----

> <Gold.Chemscore.Fitness>
15.2120

> <Gold.Chemscore.DG>
-17.0436

> <Gold.Chemscore.ZeroCoef>
-5.4800

> <Gold.Chemscore.Hbond>
2.5231

> <Gold.Chemscore.Metal>
0.0000

> <Gold.Chemscore.Lipo>
66.5999

> <Gold.Chemscore.Internal_Hbond>
0.0000

> <Gold.Chemscore.DEClash>
0.0912

> <Gold.Chemscore.DEInternal>
1.7404

> <Gold.Chemscore.Rot>
1.8186

> <Gold.Chemscore.Internal.Correction>
   9.000000E+99

> <Gold.Chemscore.Hbonds>
donor molecule, donor type, donor heavy atom, donor atom, acceptor molecule, acceptor atom, score
      L1  H     9    24       P1  8028  0.86
      L1  H    15    39       P1  7948  1.00
      P1  H  7989  7998       L1     8  0.40

> <Gold.Chemscore.Hbond.Weighted>
-8.4271

> <Gold.Chemscore.Metal.Weighted>
-0.0000

> <Gold.Chemscore.Lipo.Weighted>
-7.7922

> <Gold.Chemscore.Internal_Hbond.Weighted>
0.0000

> <Gold.Chemscore.DEClash.Weighted>
0.0912

> <Gold.Chemscore.DEInternal.Weighted>
1.7404

> <Gold.Chemscore.Rot.Weighted>
4.6557

> <Gold.Chemscore.Internal.Correction.Weighted>
   9.000000E+99

> <Gold.Protein.RotatedTorsions>
[ 6907 6896 6895 6894 ] final   45.19 input  -60.11 | X-H torsion
[ 7974 7965 7964 7962 ] final -132.17 input  175.53 | X-H torsion
[ 8008 7997 7996 7995 ] final  122.30 input   59.86 | X-H torsion
[ 10167 10162 10161 10158 ] final  155.90 input  -65.29 | X-H torsion
[ 10718 10713 10712 10709 ] final -126.92 input   66.30 | X-H torsion
[ 10763 10752 10751 10750 ] final  -70.84 input  -60.55 | X-H torsion
[ 11005 11000 10999 10996 ] final   10.80 input  -57.11 | X-H torsion

> <Gold.Protein.ActiveResidues>
 VAL166  LYS551  ARG553  GLY616  TRP617  ASP618  TYR619  PRO620  LYS621  CYS622 
 ASP623  PHE694  ASN695  SER759  ASP760  ASP761  ALA762  ILE779  LEU786  VAL792 
 PHE793  MET794  SER795  GLU796  ALA797  LYS798  CYS799  TRP800  GLU811  SER814 

> <Gold.Protein.RotatedAtoms>
  152.2416  134.8223  160.0459 H   0  0  0  0  0  0  0  0  0  0  0  0  # atno 6907 bound_to 6896
  151.8935  133.3516  159.3814 H   0  0  0  0  0  0  0  0  0  0  0  0  # atno 6908 bound_to 6896
  150.7055  134.4826  159.5522 H   0  0  0  0  0  0  0  0  0  0  0  0  # atno 6909 bound_to 6896
  144.9310  140.7128  143.4906 H   0  0  0  0  0  0  0  0  0  0  0  0  # atno 7974 bound_to 7965
  156.2722  140.2789  156.1445 H   0  0  0  0  0  0  0  0  0  0  0  0  # atno 8008 bound_to 7997
  155.0918  140.0388  157.2688 H   0  0  0  0  0  0  0  0  0  0  0  0  # atno 8009 bound_to 7997
  154.6883  140.2623  155.6844 H   0  0  0  0  0  0  0  0  0  0  0  0  # atno 8010 bound_to 7997
  139.4821  144.5057  151.8101 H   0  0  0  0  0  0  0  0  0  0  0  0  # atno 10167 bound_to 10162
  156.1809  130.6731  151.0303 H   0  0  0  0  0  0  0  0  0  0  0  0  # atno 10718 bound_to 10713
  154.4233  135.5981  153.6023 H   0  0  0  0  0  0  0  0  0  0  0  0  # atno 10763 bound_to 10752
  152.9795  135.5957  154.3928 H   0  0  0  0  0  0  0  0  0  0  0  0  # atno 10764 bound_to 10752
  154.3757  135.2841  155.2219 H   0  0  0  0  0  0  0  0  0  0  0  0  # atno 10765 bound_to 10752
  140.5104  134.0657  155.7817 H   0  0  0  0  0  0  0  0  0  0  0  0  # atno 11005 bound_to 11000
  145.3142  139.1809  143.4622 LP  0  0  0  0  0  0  0  0  0  0  0  0  # atno 17320 bound_to 7965
  146.3247  140.3150  142.8629 LP  0  0  0  0  0  0  0  0  0  0  0  0  # atno 17321 bound_to 7965
  140.4555  144.1795  150.5901 LP  0  0  0  0  0  0  0  0  0  0  0  0  # atno 17342 bound_to 10162
  140.4540  143.2475  151.9310 LP  0  0  0  0  0  0  0  0  0  0  0  0  # atno 17343 bound_to 10162
  157.6867  131.0822  150.7222 LP  0  0  0  0  0  0  0  0  0  0  0  0  # atno 17370 bound_to 10713
  156.7279  130.4700  149.5507 LP  0  0  0  0  0  0  0  0  0  0  0  0  # atno 17371 bound_to 10713
  141.1388  133.9174  157.2372 LP  0  0  0  0  0  0  0  0  0  0  0  0  # atno 17394 bound_to 11000
  139.9662  135.0141  156.9393 LP  0  0  0  0  0  0  0  0  0  0  0  0  # atno 17395 bound_to 11000

$$$$
