#       Name:                AV-unprocessed.smi:1126
#       Creating user name   scv26
#       Creation time:       Fri Mar 27 03:40:32 2020


#       File generated by GOLD software.
#

@<TRIPOS>MOLECULE
AV-unprocessed.smi:1126
    53    54     1
SMALL
NO_CHARGES


@<TRIPOS>ATOM
      1 ****        -4.7916  -3.3269   0.3937 C.3            1 S1                 0.0000
      2 ****        -4.3552  -2.2508  -0.4177 O.3            1 S1                 0.0000
      3 ****        -3.9379  -2.6750  -1.7052 C.3            1 S1                 0.0000
      4 ****        -3.4710  -1.4706  -2.5402 C.3            1 S1                 0.0000
      5 ****        -2.0955  -1.0266  -2.3043 N.3            1 S1                 0.0000
      6 ****        -1.9018  -0.4774  -0.9596 C.3            1 S1                 0.0000
      7 ****        -0.4496  -0.0413  -0.6973 C.3            1 S1                 0.0000
      8 ****         0.0192   0.9864  -1.7479 C.3            1 S1                 0.0000
      9 ****         1.4943   1.3919  -1.5732 C.3            1 S1                 0.0000
     10 ****         1.7284   2.0064  -0.2734 N.am           1 S1                 0.0000
     11 ****         2.9029   2.5120   0.1294 C.2            1 S1                 0.0000
     12 ****         3.9121   2.5278  -0.5749 O.2            1 S1                 0.0000
     13 ****         2.9472   3.0883   1.5451 C.3            1 S1                 0.0000
     14 ****         2.9563   2.0308   2.5401 N.pl3          1 S1                 0.0000
     15 ****         4.0301   1.2984   3.0008 C.2            1 S1                 0.0000
     16 ****         3.5567   0.4112   3.9258 C.2            1 S1                 0.0000
     17 ****         4.3161  -0.6102   4.7222 C.3            1 S1                 0.0000
     18 ****         2.1595   0.6832   3.9599 C.2            1 S1                 0.0000
     19 ****         1.8028   1.6513   3.1315 N.2            1 S1                 0.0000
     20 ****        -0.2404   0.4156  -3.1536 C.3            1 S1                 0.0000
     21 ****        -1.7038  -0.0312  -3.3024 C.3            1 S1                 0.0000
     22 ****        -5.0884  -2.9504   1.3724 H              1 S1                 0.0000
     23 ****        -3.9951  -4.0573   0.5414 H              1 S1                 0.0000
     24 ****        -5.6518  -3.8310  -0.0489 H              1 S1                 0.0000
     25 ****        -3.1444  -3.4208  -1.6335 H              1 S1                 0.0000
     26 ****        -4.7826  -3.1500  -2.2066 H              1 S1                 0.0000
     27 ****        -3.5537  -1.7665  -3.5866 H              1 S1                 0.0000
     28 ****        -4.1660  -0.6393  -2.4131 H              1 S1                 0.0000
     29 ****        -2.5722   0.3695  -0.8048 H              1 S1                 0.0000
     30 ****        -2.1636  -1.2224  -0.2098 H              1 S1                 0.0000
     31 ****        -0.3748   0.3756   0.3074 H              1 S1                 0.0000
     32 ****         0.2015  -0.9163  -0.7186 H              1 S1                 0.0000
     33 ****        -0.5915   1.8839  -1.6362 H              1 S1                 0.0000
     34 ****         2.1401   0.5187  -1.6783 H              1 S1                 0.0000
     35 ****         1.7801   2.0959  -2.3565 H              1 S1                 0.0000
     36 ****         0.9517   2.0300   0.3719 H              1 S1                 0.0000
     37 ****         3.8436   3.6965   1.6729 H              1 S1                 0.0000
     38 ****         2.0894   3.7421   1.7120 H              1 S1                 0.0000
     39 ****         5.0319   1.4670   2.6337 H              1 S1                 0.0000
     40 ****         3.7696  -1.5505   4.7971 H              1 S1                 0.0000
     41 ****         4.5047  -0.2658   5.7390 H              1 S1                 0.0000
     42 ****         5.2841  -0.8365   4.2745 H              1 S1                 0.0000
     43 ****         1.3975   0.2076   4.5596 H              1 S1                 0.0000
     44 ****        -0.0058   1.1630  -3.9121 H              1 S1                 0.0000
     45 ****         0.4193  -0.4333  -3.3393 H              1 S1                 0.0000
     46 ****        -1.8417  -0.4417  -4.3034 H              1 S1                 0.0000
     47 ****        -2.3587   0.8391  -3.2344 H              1 S1                 0.0000
     48 ****        -3.5870  -1.7986   0.0355 LP             1 S1                 0.0000
     49 ****        -5.1091  -1.6022  -0.5225 LP             1 S1                 0.0000
     50 ****        -1.5146  -1.8366  -2.3844 LP             1 S1                 0.0000
     51 ****         3.8819   2.1501  -1.5003 LP             1 S1                 0.0000
     52 ****         4.7622   2.9183  -0.2217 LP             1 S1                 0.0000
     53 ****         0.8857   2.0192   2.9779 LP             1 S1                 0.0000
@<TRIPOS>BOND
    1    1    2 1     
    2    1   22 1     
    3    1   23 1     
    4    1   24 1     
    5    2    3 1     
    6    3    4 1     
    7    3   25 1     
    8    3   26 1     
    9    4    5 1     
   10    4   27 1     
   11    4   28 1     
   12    5   21 1     
   13    5    6 1     
   14    6    7 1     
   15    6   29 1     
   16    6   30 1     
   17    7    8 1     
   18    7   31 1     
   19    7   32 1     
   20    8    9 1     
   21    8   20 1     
   22    8   33 1     
   23    9   10 1     
   24    9   34 1     
   25    9   35 1     
   26   10   11 am    
   27   10   36 1     
   28   11   12 2     
   29   11   13 1     
   30   13   14 1     
   31   13   37 1     
   32   13   38 1     
   33   14   19 1     
   34   14   15 1     
   35   15   16 2     
   36   15   39 1     
   37   16   17 1     
   38   16   18 1     
   39   17   40 1     
   40   17   41 1     
   41   17   42 1     
   42   18   19 2     
   43   18   43 1     
   44   20   21 1     
   45   20   44 1     
   46   20   45 1     
   47   21   46 1     
   48   21   47 1     
   49    2   48 1     
   50    2   49 1     
   51    5   50 1     
   52   12   51 1     
   53   12   52 1     
   54   19   53 1     
@<TRIPOS>SUBSTRUCTURE
      1 S1             1
@<TRIPOS>SET
LONE_PAIRS      STATIC     ATOMS    <user>   **** ""
6 48 49 50 51 52 53
DONOR_HYDROGENS      STATIC     ATOMS    <user>   **** ""
1 36
ATOM$BLUE        STATIC     ATOMS    COLORGROUP SYSTEM
6 48 49 50 51 52 53
ATOM$RED        STATIC     ATOMS    COLORGROUP SYSTEM
1 36
