AV-unprocessed.smi:2448|AV-procd|sdf|9662|dock7
  -GOLD-   2272013303D 1   1.00000     0.00000
 Structure written by MMmdl.
 38 39  0  0  0  0  0  0  0  0  2 V2000
  150.1585  142.4955  158.8016 O   0  0  0  0  0  0  0  0  0  0  0  0
  151.2758  142.7747  157.9772 C   0  0  2  0  0  0  0  0  0  0  0  0
  151.0424  142.1119  156.6047 C   0  0  0  0  0  0  0  0  0  0  0  0
  151.5680  140.7447  156.5549 N   0  0  0  0  0  0  0  0  0  0  0  0
  150.8236  139.8031  155.7072 C   0  0  1  0  0  0  0  0  0  0  0  0
  150.3535  140.4552  154.3812 C   0  0  0  0  0  0  0  0  0  0  0  0
  148.8509  140.4677  154.1626 C   0  0  0  0  0  0  0  0  0  0  0  0
  148.1493  141.6913  154.0833 C   0  0  0  0  0  0  0  0  0  0  0  0
  146.7553  141.6732  153.8730 C   0  0  0  0  0  0  0  0  0  0  0  0
  146.1081  140.4933  153.7530 N   0  3  0  0  0  0  0  0  0  0  0  0
  146.7395  139.3011  153.8272 C   0  0  0  0  0  0  0  0  0  0  0  0
  148.1329  139.2567  154.0370 C   0  0  0  0  0  0  0  0  0  0  0  0
  151.6968  138.5618  155.4267 C   0  0  0  0  0  0  0  0  0  0  0  0
  151.0098  137.6817  154.6975 F   0  0  0  0  0  0  0  0  0  0  0  0
  152.7849  138.9092  154.7398 F   0  0  0  0  0  0  0  0  0  0  0  0
  152.0713  137.9781  156.5658 F   0  0  0  0  0  0  0  0  0  0  0  0
  152.5696  142.3185  158.6754 C   0  0  0  0  0  0  0  0  0  0  0  0
  152.8577  143.2970  159.8176 C   0  0  0  0  0  0  0  0  0  0  0  0
  152.2977  144.9347  159.2893 S   0  0  0  0  0  0  0  0  0  0  0  0
  151.3928  144.3040  157.8503 C   0  0  0  0  0  0  0  0  0  0  0  0
  149.4283  143.0176  158.5063 H   0  0  0  0  0  0  0  0  0  0  0  0
  149.9765  142.1107  156.3730 H   0  0  0  0  0  0  0  0  0  0  0  0
  151.5150  142.7286  155.8452 H   0  0  0  0  0  0  0  0  0  0  0  0
  151.6162  140.3741  157.4991 H   0  0  0  0  0  0  0  0  0  0  0  0
  149.9488  139.4451  156.2519 H   0  0  0  0  0  0  0  0  0  0  0  0
  150.7410  141.4727  154.3114 H   0  0  0  0  0  0  0  0  0  0  0  0
  150.7862  139.9186  153.5365 H   0  0  0  0  0  0  0  0  0  0  0  0
  148.6719  142.6320  154.1790 H   0  0  0  0  0  0  0  0  0  0  0  0
  146.1434  142.5603  153.7977 H   0  0  0  0  0  0  0  0  0  0  0  0
  146.1159  138.4259  153.7163 H   0  0  0  0  0  0  0  0  0  0  0  0
  148.6420  138.3051  154.0915 H   0  0  0  0  0  0  0  0  0  0  0  0
  152.5094  141.2913  159.0373 H   0  0  0  0  0  0  0  0  0  0  0  0
  153.3945  142.3558  157.9623 H   0  0  0  0  0  0  0  0  0  0  0  0
  152.2903  143.0143  160.7048 H   0  0  0  0  0  0  0  0  0  0  0  0
  153.9131  143.3120  160.0897 H   0  0  0  0  0  0  0  0  0  0  0  0
  151.9801  144.5647  156.9691 H   0  0  0  0  0  0  0  0  0  0  0  0
  150.4244  144.7953  157.7481 H   0  0  0  0  0  0  0  0  0  0  0  0
  145.0988  140.5027  153.6015 H   0  0  0  0  0  0  0  0  0  0  0  0
  1  2  1  0  0  0  0
  1 21  1  0  0  0  0
  2 20  1  0  0  0  0
  2  3  1  0  0  0  0
  2 17  1  0  0  0  0
  3  4  1  0  0  0  0
  3 22  1  0  0  0  0
  3 23  1  0  0  0  0
  4  5  1  0  0  0  0
  4 24  1  0  0  0  0
  5  6  1  0  0  0  0
  5 13  1  0  0  0  0
  5 25  1  0  0  0  0
  6  7  1  0  0  0  0
  6 26  1  0  0  0  0
  6 27  1  0  0  0  0
  7 12  1  0  0  0  0
  7  8  2  0  0  0  0
  8  9  1  0  0  0  0
  8 28  1  0  0  0  0
  9 10  2  0  0  0  0
  9 29  1  0  0  0  0
 10 11  1  0  0  0  0
 10 38  1  0  0  0  0
 11 12  2  0  0  0  0
 11 30  1  0  0  0  0
 12 31  1  0  0  0  0
 13 14  1  0  0  0  0
 13 15  1  0  0  0  0
 13 16  1  0  0  0  0
 17 18  1  0  0  0  0
 17 32  1  0  0  0  0
 17 33  1  0  0  0  0
 18 19  1  0  0  0  0
 18 34  1  0  0  0  0
 18 35  1  0  0  0  0
 19 20  1  0  0  0  0
 20 36  1  0  0  0  0
 20 37  1  0  0  0  0
M  CHG  1  10   1
M  END
> <s_m_source_file>
AV-unprocessed.smi

> <i_m_source_file_index>
2448

> <i_lp_mmshare_version>
43012

> <i_f3d_flags>
0

> <s_epik_input>
W0NIMl0xU1tDSDJdW0NIMl1bQ0BAXTEoW09IXSlbQ0gyXVtOSF1bQ0BASF0oQyhGKShGKUYpW0NIMl1jMltjSF1bY0hdbltjSF1bY0hdMg==

> <s_epik_cmdline>
J2VwaWtfcHl0aG9uJywgJy1waCcsICc3LjAnLCAnLXRuJywgJzgnLCAnLW1hJywgJzIwMCcsICctbWV0YWxfYmluZGluZycsICctaW1hZScsICc8aW5maWxlLm1hZT4nLCAnLW9tYWUnLCAnPG91dGZpbGUubWFlPic=

> <r_epik_Ionization_Penalty>
1.11129

> <r_epik_Ionization_Penalty_Charging>
1.08366

> <r_epik_Ionization_Penalty_Neutral>
0.0276276

> <r_epik_State_Penalty>
1.93785

> <r_epik_Charging_Adjusted_Penalty>
3.02151

> <i_epik_Tot_Q>
1

> <i_epik_Tot_abs_Q>
1

> <r_epik_Metal_State_Penalty>
5.97911

> <b_epik_Metal_Only>
0

> <s_lp_Force_Field>
OPLS_2005

> <r_lp_Energy>
38.9461

> <b_lp_Chiralities_Consistent>
1

> <s_lp_Variant>
AV-unprocessed.smi:2448-12

> <Gold.Version>
5.8.1

> <Gold.Id.Protein>
6NUR|6NUR_protein|mol2

> <Gold.PLP.Fitness>
48.1763

> <Gold.PLP.PLP>
-45.0430

> <Gold.PLP.part.hbond>
-1.6813

> <Gold.PLP.part.metal>
0.0000

> <Gold.PLP.part.buried>
-0.0505

> <Gold.PLP.part.nonpolar>
-42.3643

> <Gold.PLP.part.repulsive>
0.0000

> <Gold.PLP.ligand.clash>
0.0000

> <Gold.PLP.ligand.torsion>
1.6604

> <Gold.PLP.Chemscore.Hbond>
2.0000

> <Gold.PLP.Chemscore.CHOScore>
0.0000

> <Gold.PLP.Chemscore.Metal>
0.0000

> <Gold.Chemscore.Hbonds>
donor molecule, donor type, donor heavy atom, donor atom, acceptor molecule, acceptor atom, score
      L1  H    10    38       P1 10175  2.00

> <Gold.PLP.Chemscore.Internal.Correction>
0.4542

> <Gold.Rescore>
     Score         DG    S(hbond)    S(metal)    S(lipo)     H(rot)  DE(clash)    DE(int)     intcor
     13.83     -17.13       0.99        0.00     124.26       2.42       1.79       1.51       ----

> <Gold.Chemscore.Fitness>
13.8275

> <Gold.Chemscore.DG>
-17.1335

> <Gold.Chemscore.ZeroCoef>
-5.4800

> <Gold.Chemscore.Hbond>
0.9947

> <Gold.Chemscore.Metal>
0.0000

> <Gold.Chemscore.Lipo>
124.2601

> <Gold.Chemscore.Internal_Hbond>
0.0000

> <Gold.Chemscore.DEClash>
1.7911

> <Gold.Chemscore.DEInternal>
1.5149

> <Gold.Chemscore.Rot>
2.4247

> <Gold.Chemscore.Internal.Correction>
   9.000000E+99

> <Gold.Chemscore.Hbonds>
donor molecule, donor type, donor heavy atom, donor atom, acceptor molecule, acceptor atom, score
      L1  H    10    38       P1 10175  0.94

> <Gold.Chemscore.Hbond.Weighted>
-3.3223

> <Gold.Chemscore.Metal.Weighted>
-0.0000

> <Gold.Chemscore.Lipo.Weighted>
-14.5384

> <Gold.Chemscore.Internal_Hbond.Weighted>
0.0000

> <Gold.Chemscore.DEClash.Weighted>
1.7911

> <Gold.Chemscore.DEInternal.Weighted>
1.5149

> <Gold.Chemscore.Rot.Weighted>
6.2072

> <Gold.Chemscore.Internal.Correction.Weighted>
   9.000000E+99

> <Gold.Protein.RotatedTorsions>
[ 6907 6896 6895 6894 ] final -112.98 input  -60.11 | X-H torsion
[ 7974 7965 7964 7962 ] final   75.76 input  175.53 | X-H torsion
[ 8008 7997 7996 7995 ] final  146.58 input   59.86 | X-H torsion
[ 10167 10162 10161 10158 ] final   82.02 input  -65.29 | X-H torsion
[ 10718 10713 10712 10709 ] final -171.39 input   66.30 | X-H torsion
[ 10763 10752 10751 10750 ] final   16.22 input  -60.55 | X-H torsion
[ 11005 11000 10999 10996 ] final   93.66 input  -57.11 | X-H torsion

> <Gold.Protein.ActiveResidues>
 VAL166  LYS551  ARG553  GLY616  TRP617  ASP618  TYR619  PRO620  LYS621  CYS622 
 ASP623  PHE694  ASN695  SER759  ASP760  ASP761  ALA762  ILE779  LEU786  VAL792 
 PHE793  MET794  SER795  GLU796  ALA797  LYS798  CYS799  TRP800  GLU811  SER814 

> <Gold.Protein.RotatedAtoms>
  150.7796  133.9011  159.3341 H   0  0  0  0  0  0  0  0  0  0  0  0  # atno 6907 bound_to 6896
  151.6877  135.0950  160.0237 H   0  0  0  0  0  0  0  0  0  0  0  0  # atno 6908 bound_to 6896
  152.3844  133.6552  159.6222 H   0  0  0  0  0  0  0  0  0  0  0  0  # atno 6909 bound_to 6896
  145.7115  139.2616  143.1648 H   0  0  0  0  0  0  0  0  0  0  0  0  # atno 7974 bound_to 7965
  156.2851  140.2178  156.5399 H   0  0  0  0  0  0  0  0  0  0  0  0  # atno 8008 bound_to 7997
  154.7378  140.0490  157.0806 H   0  0  0  0  0  0  0  0  0  0  0  0  # atno 8009 bound_to 7997
  155.0270  140.3130  155.4775 H   0  0  0  0  0  0  0  0  0  0  0  0  # atno 8010 bound_to 7997
  139.9331  144.6139  150.8325 H   0  0  0  0  0  0  0  0  0  0  0  0  # atno 10167 bound_to 10162
  156.7401  130.9339  151.3109 H   0  0  0  0  0  0  0  0  0  0  0  0  # atno 10718 bound_to 10713
  153.1451  135.6767  153.8967 H   0  0  0  0  0  0  0  0  0  0  0  0  # atno 10763 bound_to 10752
  153.8411  135.3105  155.3427 H   0  0  0  0  0  0  0  0  0  0  0  0  # atno 10764 bound_to 10752
  154.7819  135.4884  153.9947 H   0  0  0  0  0  0  0  0  0  0  0  0  # atno 10765 bound_to 10752
  139.8807  134.8802  156.3751 H   0  0  0  0  0  0  0  0  0  0  0  0  # atno 11005 bound_to 11000
  146.0708  140.7871  142.9689 LP  0  0  0  0  0  0  0  0  0  0  0  0  # atno 17320 bound_to 7965
  144.6940  140.3339  143.7211 LP  0  0  0  0  0  0  0  0  0  0  0  0  # atno 17321 bound_to 7965
  140.7632  143.3216  151.2608 LP  0  0  0  0  0  0  0  0  0  0  0  0  # atno 17342 bound_to 10162
  139.6766  143.9928  152.2784 LP  0  0  0  0  0  0  0  0  0  0  0  0  # atno 17343 bound_to 10162
  157.6822  130.9151  150.0295 LP  0  0  0  0  0  0  0  0  0  0  0  0  # atno 17370 bound_to 10713
  156.1470  130.3642  149.9495 LP  0  0  0  0  0  0  0  0  0  0  0  0  # atno 17371 bound_to 10713
  140.9437  133.7497  156.0180 LP  0  0  0  0  0  0  0  0  0  0  0  0  # atno 17394 bound_to 11000
  140.8188  134.3313  157.5388 LP  0  0  0  0  0  0  0  0  0  0  0  0  # atno 17395 bound_to 11000

$$$$
