#       Name:                AV-unprocessed.smi:3137
#       Creating user name   scv26
#       Creation time:       Fri Mar 27 17:35:06 2020


#       File generated by GOLD software.
#

@<TRIPOS>MOLECULE
AV-unprocessed.smi:3137
    43    43     1
SMALL
NO_CHARGES


@<TRIPOS>ATOM
      1 ****        -4.7117   2.6628  -2.9638 C.3            1 S1                 0.0000
      2 ****        -4.1514   1.9022  -1.7581 C.3            1 S1                 0.0000
      3 ****        -2.7228   1.6687  -1.9168 N.am           1 S1                 0.0000
      4 ****        -1.9529   1.0460  -1.0128 C.2            1 S1                 0.0000
      5 ****        -2.3863   0.6092   0.0536 O.2            1 S1                 0.0000
      6 ****        -0.4696   0.9028  -1.3684 C.3            1 S1                 0.0000
      7 ****         0.1818  -0.3389  -0.7364 C.3            1 S1                 0.0000
      8 ****         1.6084  -0.4352  -1.1125 N.4            1 S1                 1.0000
      9 ****         2.3236  -1.6375  -0.6234 C.3            1 S1                 0.0000
     10 ****         3.3916  -2.0333  -1.6523 C.3            1 S1                 0.0000
     11 ****         2.9742  -1.4002   0.7596 C.3            1 S1                 0.0000
     12 ****         2.0170  -1.2778   1.8442 N.pl3          1 S1                 0.0000
     13 ****         1.8038  -0.2047   2.6838 C.2            1 S1                 0.0000
     14 ****         0.8093  -0.5542   3.5528 C.2            1 S1                 0.0000
     15 ****         0.1996   0.2602   4.6571 C.3            1 S1                 0.0000
     16 ****         0.4861  -1.8865   3.1683 C.2            1 S1                 0.0000
     17 ****         1.2128  -2.3178   2.1503 N.2            1 S1                 0.0000
     18 ****        -5.7810   2.8392  -2.8468 H              1 S1                 0.0000
     19 ****        -4.5675   2.1012  -3.8872 H              1 S1                 0.0000
     20 ****        -4.2262   3.6324  -3.0799 H              1 S1                 0.0000
     21 ****        -4.3293   2.4722  -0.8451 H              1 S1                 0.0000
     22 ****        -4.6671   0.9472  -1.6490 H              1 S1                 0.0000
     23 ****        -2.2943   2.0034  -2.7677 H              1 S1                 0.0000
     24 ****        -0.3629   0.8602  -2.4534 H              1 S1                 0.0000
     25 ****         0.0471   1.8039  -1.0369 H              1 S1                 0.0000
     26 ****         0.0895  -0.2915   0.3471 H              1 S1                 0.0000
     27 ****        -0.3374  -1.2404  -1.0650 H              1 S1                 0.0000
     28 ****         1.6401  -0.4604  -2.1216 H              1 S1                 0.0000
     29 ****         1.6212  -2.4703  -0.5637 H              1 S1                 0.0000
     30 ****         3.9138  -2.9406  -1.3471 H              1 S1                 0.0000
     31 ****         4.1370  -1.2470  -1.7766 H              1 S1                 0.0000
     32 ****         2.9448  -2.2274  -2.6280 H              1 S1                 0.0000
     33 ****         3.6362  -2.2315   1.0063 H              1 S1                 0.0000
     34 ****         3.5992  -0.5062   0.7390 H              1 S1                 0.0000
     35 ****         2.3666   0.7126   2.5920 H              1 S1                 0.0000
     36 ****        -0.7524  -0.1553   4.9887 H              1 S1                 0.0000
     37 ****         0.0091   1.2867   4.3436 H              1 S1                 0.0000
     38 ****         0.8516   0.3053   5.5296 H              1 S1                 0.0000
     39 ****        -0.2506  -2.5497   3.5975 H              1 S1                 0.0000
     40 ****         2.0991   0.3904  -0.8000 H              1 S1                 0.0000
     41 ****        -3.3552   0.7116   0.2790 LP             1 S1                 0.0000
     42 ****        -1.7695   0.1521   0.6943 LP             1 S1                 0.0000
     43 ****         1.1748  -3.2134   1.7070 LP             1 S1                 0.0000
@<TRIPOS>BOND
    1    1    2 1     
    2    1   18 1     
    3    1   19 1     
    4    1   20 1     
    5    2    3 1     
    6    2   21 1     
    7    2   22 1     
    8    3    4 am    
    9    3   23 1     
   10    4    5 2     
   11    4    6 1     
   12    6    7 1     
   13    6   24 1     
   14    6   25 1     
   15    7    8 1     
   16    7   26 1     
   17    7   27 1     
   18    8    9 1     
   19    8   28 1     
   20    8   40 1     
   21    9   10 1     
   22    9   11 1     
   23    9   29 1     
   24   10   30 1     
   25   10   31 1     
   26   10   32 1     
   27   11   12 1     
   28   11   33 1     
   29   11   34 1     
   30   12   17 1     
   31   12   13 1     
   32   13   14 2     
   33   13   35 1     
   34   14   15 1     
   35   14   16 1     
   36   15   36 1     
   37   15   37 1     
   38   15   38 1     
   39   16   17 2     
   40   16   39 1     
   41    5   41 1     
   42    5   42 1     
   43   17   43 1     
@<TRIPOS>SUBSTRUCTURE
      1 S1             1
@<TRIPOS>SET
LONE_PAIRS      STATIC     ATOMS    <user>   **** ""
3 41 42 43
DONOR_HYDROGENS      STATIC     ATOMS    <user>   **** ""
3 23 28 40
ATOM$BLUE        STATIC     ATOMS    COLORGROUP SYSTEM
3 41 42 43
ATOM$RED        STATIC     ATOMS    COLORGROUP SYSTEM
3 23 28 40
