AV-unprocessed.smi:484|AV-procd|sdf|2690|dock5
  -GOLD-   2262023123D 1   1.00000     0.00000
 Structure written by MMmdl.
 47 49  0  0  0  0  0  0  0  0  2 V2000
  145.1846  133.3022  162.3872 C   0  0  0  0  0  0  0  0  0  0  0  0
  146.5452  132.9839  161.7575 C   0  0  0  0  0  0  0  0  0  0  0  0
  147.2267  134.2220  161.2069 C   0  0  0  0  0  0  0  0  0  0  0  0
  147.4084  135.3559  162.0236 C   0  0  0  0  0  0  0  0  0  0  0  0
  148.0447  136.5020  161.5099 C   0  0  0  0  0  0  0  0  0  0  0  0
  148.5078  136.5357  160.1788 C   0  0  0  0  0  0  0  0  0  0  0  0
  149.1105  137.7010  159.7570 O   0  0  0  0  0  0  0  0  0  0  0  0
  149.4856  137.8093  158.3906 C   0  0  0  0  0  0  0  0  0  0  0  0
  150.9634  138.2268  158.3139 C   0  0  1  0  0  0  0  0  0  0  0  0
  151.7546  137.0811  158.5530 O   0  0  0  0  0  0  0  0  0  0  0  0
  151.3771  138.8939  156.9798 C   0  0  0  0  0  0  0  0  0  0  0  0
  151.0840  140.3389  156.8967 N   0  0  0  0  0  0  0  0  0  0  0  0
  150.2966  141.0409  156.0260 C   0  0  0  0  0  0  0  0  0  0  0  0
  149.5002  140.5063  154.8779 C   0  0  0  0  0  0  0  0  0  0  0  0
  150.2934  139.8176  153.9355 O   0  0  0  0  0  0  0  0  0  0  0  0
  150.3688  142.3534  156.3871 N   0  3  0  0  0  0  0  0  0  0  0  0
  151.1892  142.4955  157.5045 C   0  0  0  0  0  0  0  0  0  0  0  0
  151.5526  143.6278  158.2275 C   0  0  0  0  0  0  0  0  0  0  0  0
  152.4076  143.4268  159.3304 C   0  0  0  0  0  0  0  0  0  0  0  0
  152.8658  142.1397  159.6778 C   0  0  0  0  0  0  0  0  0  0  0  0
  152.4897  141.0000  158.9366 C   0  0  0  0  0  0  0  0  0  0  0  0
  151.6472  141.2059  157.8435 C   0  0  0  0  0  0  0  0  0  0  0  0
  148.3247  135.3911  159.3626 C   0  0  0  0  0  0  0  0  0  0  0  0
  147.6883  134.2442  159.8756 C   0  0  0  0  0  0  0  0  0  0  0  0
  144.7146  132.3977  162.7739 H   0  0  0  0  0  0  0  0  0  0  0  0
  144.5061  133.7443  161.6570 H   0  0  0  0  0  0  0  0  0  0  0  0
  145.2885  134.0034  163.2160 H   0  0  0  0  0  0  0  0  0  0  0  0
  147.1956  132.5171  162.4982 H   0  0  0  0  0  0  0  0  0  0  0  0
  146.4204  132.2542  160.9564 H   0  0  0  0  0  0  0  0  0  0  0  0
  147.0619  135.3503  163.0468 H   0  0  0  0  0  0  0  0  0  0  0  0
  148.1773  137.3659  162.1447 H   0  0  0  0  0  0  0  0  0  0  0  0
  149.3554  136.8394  157.9071 H   0  0  0  0  0  0  0  0  0  0  0  0
  148.8566  138.5287  157.8643 H   0  0  0  0  0  0  0  0  0  0  0  0
  151.1670  138.9247  159.1267 H   0  0  0  0  0  0  0  0  0  0  0  0
  151.4527  136.3851  157.9897 H   0  0  0  0  0  0  0  0  0  0  0  0
  152.4486  138.7685  156.8264 H   0  0  0  0  0  0  0  0  0  0  0  0
  150.9068  138.3904  156.1349 H   0  0  0  0  0  0  0  0  0  0  0  0
  148.7410  139.8244  155.2608 H   0  0  0  0  0  0  0  0  0  0  0  0
  148.9826  141.3167  154.3659 H   0  0  0  0  0  0  0  0  0  0  0  0
  149.8232  139.7830  153.1161 H   0  0  0  0  0  0  0  0  0  0  0  0
  151.1999  144.6142  157.9642 H   0  0  0  0  0  0  0  0  0  0  0  0
  152.7170  144.2761  159.9227 H   0  0  0  0  0  0  0  0  0  0  0  0
  153.5192  142.0237  160.5304 H   0  0  0  0  0  0  0  0  0  0  0  0
  152.8490  140.0203  159.2137 H   0  0  0  0  0  0  0  0  0  0  0  0
  148.6645  135.3663  158.3385 H   0  0  0  0  0  0  0  0  0  0  0  0
  147.5572  133.3783  159.2431 H   0  0  0  0  0  0  0  0  0  0  0  0
  149.8781  143.0946  155.9035 H   0  0  0  0  0  0  0  0  0  0  0  0
  1  2  1  0  0  0  0
  1 25  1  0  0  0  0
  1 26  1  0  0  0  0
  1 27  1  0  0  0  0
  2  3  1  0  0  0  0
  2 28  1  0  0  0  0
  2 29  1  0  0  0  0
  3 24  1  0  0  0  0
  3  4  2  0  0  0  0
  4  5  1  0  0  0  0
  4 30  1  0  0  0  0
  5  6  2  0  0  0  0
  5 31  1  0  0  0  0
  6  7  1  0  0  0  0
  6 23  1  0  0  0  0
  7  8  1  0  0  0  0
  8  9  1  0  0  0  0
  8 32  1  0  0  0  0
  8 33  1  0  0  0  0
  9 10  1  0  0  0  0
  9 11  1  0  0  0  0
  9 34  1  0  0  0  0
 10 35  1  0  0  0  0
 11 12  1  0  0  0  0
 11 36  1  0  0  0  0
 11 37  1  0  0  0  0
 12 22  1  0  0  0  0
 12 13  1  0  0  0  0
 13 14  1  0  0  0  0
 13 16  2  0  0  0  0
 14 15  1  0  0  0  0
 14 38  1  0  0  0  0
 14 39  1  0  0  0  0
 15 40  1  0  0  0  0
 16 17  1  0  0  0  0
 16 47  1  0  0  0  0
 17 22  2  0  0  0  0
 17 18  1  0  0  0  0
 18 19  2  0  0  0  0
 18 41  1  0  0  0  0
 19 20  1  0  0  0  0
 19 42  1  0  0  0  0
 20 21  2  0  0  0  0
 20 43  1  0  0  0  0
 21 22  1  0  0  0  0
 21 44  1  0  0  0  0
 23 24  2  0  0  0  0
 23 45  1  0  0  0  0
 24 46  1  0  0  0  0
M  CHG  1  16   1
M  END
> <s_m_source_file>
AV-unprocessed.smi

> <i_m_source_file_index>
484

> <i_lp_mmshare_version>
43012

> <i_f3d_flags>
0

> <s_epik_input>
W0NIM11bQ0gyXWMxW2NIXVtjSF1jKFtjSF1bY0hdMSlPW0NIMl1bQ0BIXShbT0hdKVtDSDJdbihjKG4yKVtDSDJdW09IXSljKGMyMylbY0hdW2NIXVtjSF1bY0hdMw==

> <s_epik_cmdline>
J2VwaWtfcHl0aG9uJywgJy1waCcsICc3LjAnLCAnLXRuJywgJzgnLCAnLW1hJywgJzIwMCcsICctbWV0YWxfYmluZGluZycsICctaW1hZScsICc8aW5maWxlLm1hZT4nLCAnLW9tYWUnLCAnPG91dGZpbGUubWFlPic=

> <r_lp_tautomer_probability>
1

> <r_epik_Ionization_Penalty>
1.43166

> <r_epik_Ionization_Penalty_Charging>
1.43081

> <r_epik_Ionization_Penalty_Neutral>
0.000858184

> <r_epik_State_Penalty>
1.51538

> <r_epik_Charging_Adjusted_Penalty>
2.94618

> <i_epik_Tot_Q>
1

> <i_epik_Tot_abs_Q>
1

> <r_epik_Metal_State_Penalty>
5.56039

> <b_epik_Metal_Only>
0

> <s_lp_Force_Field>
OPLS_2005

> <r_lp_Energy>
17.0937

> <b_lp_Chiralities_Consistent>
1

> <s_lp_Variant>
AV-unprocessed.smi:484-4

> <Gold.Version>
5.8.1

> <Gold.Id.Protein>
6NUR|6NUR_protein|mol2

> <Gold.PLP.Fitness>
60.3906

> <Gold.PLP.PLP>
-49.8754

> <Gold.PLP.part.hbond>
-5.3141

> <Gold.PLP.part.metal>
0.0000

> <Gold.PLP.part.buried>
-3.1245

> <Gold.PLP.part.nonpolar>
-41.2815

> <Gold.PLP.part.repulsive>
0.0792

> <Gold.PLP.ligand.clash>
0.0000

> <Gold.PLP.ligand.torsion>
0.8998

> <Gold.PLP.Chemscore.Hbond>
4.0239

> <Gold.PLP.Chemscore.CHOScore>
0.0000

> <Gold.PLP.Chemscore.Metal>
0.0000

> <Gold.Chemscore.Hbonds>
donor molecule, donor type, donor heavy atom, donor atom, acceptor molecule, acceptor atom, score
      L1  H    15    40       P1  7957  1.00
      L1  H    16    47       P1  8028  2.00
      P1  H  6931  6943       L1     7  0.04
      P1  H  7989  7998       L1    15  0.95

> <Gold.PLP.Chemscore.Internal.Correction>
0.2430

> <Gold.Rescore>
     Score         DG    S(hbond)    S(metal)    S(lipo)     H(rot)  DE(clash)    DE(int)     intcor
     19.40     -20.44       2.42        0.00     128.50       3.18       0.21       0.84       ----

> <Gold.Chemscore.Fitness>
19.3954

> <Gold.Chemscore.DG>
-20.4442

> <Gold.Chemscore.ZeroCoef>
-5.4800

> <Gold.Chemscore.Hbond>
2.4163

> <Gold.Chemscore.Metal>
0.0000

> <Gold.Chemscore.Lipo>
128.5031

> <Gold.Chemscore.Internal_Hbond>
0.0000

> <Gold.Chemscore.DEClash>
0.2092

> <Gold.Chemscore.DEInternal>
0.8397

> <Gold.Chemscore.Rot>
3.1801

> <Gold.Chemscore.Internal.Correction>
   9.000000E+99

> <Gold.Chemscore.Hbonds>
donor molecule, donor type, donor heavy atom, donor atom, acceptor molecule, acceptor atom, score
      L1  H    15    40       P1  7957  0.95
      L1  H    16    47       P1  8028  0.99
      P1  H  7989  7998       L1    15  0.13

> <Gold.Chemscore.Hbond.Weighted>
-8.0704

> <Gold.Chemscore.Metal.Weighted>
-0.0000

> <Gold.Chemscore.Lipo.Weighted>
-15.0349

> <Gold.Chemscore.Internal_Hbond.Weighted>
0.0000

> <Gold.Chemscore.DEClash.Weighted>
0.2092

> <Gold.Chemscore.DEInternal.Weighted>
0.8397

> <Gold.Chemscore.Rot.Weighted>
8.1410

> <Gold.Chemscore.Internal.Correction.Weighted>
   9.000000E+99

> <Gold.Protein.RotatedTorsions>
[ 6907 6896 6895 6894 ] final -171.97 input  -60.11 | X-H torsion
[ 7974 7965 7964 7962 ] final  118.38 input  175.53 | X-H torsion
[ 8008 7997 7996 7995 ] final  -96.75 input   59.86 | X-H torsion
[ 10167 10162 10161 10158 ] final   69.20 input  -65.29 | X-H torsion
[ 10718 10713 10712 10709 ] final -145.73 input   66.30 | X-H torsion
[ 10763 10752 10751 10750 ] final  -38.32 input  -60.55 | X-H torsion
[ 11005 11000 10999 10996 ] final  160.40 input  -57.11 | X-H torsion

> <Gold.Protein.ActiveResidues>
 VAL166  LYS551  ARG553  GLY616  TRP617  ASP618  TYR619  PRO620  LYS621  CYS622 
 ASP623  PHE694  ASN695  SER759  ASP760  ASP761  ALA762  ILE779  LEU786  VAL792 
 PHE793  MET794  SER795  GLU796  ALA797  LYS798  CYS799  TRP800  GLU811  SER814 

> <Gold.Protein.RotatedAtoms>
  151.5324  133.3447  159.2920 H   0  0  0  0  0  0  0  0  0  0  0  0  # atno 6907 bound_to 6896
  150.8585  134.7933  159.7076 H   0  0  0  0  0  0  0  0  0  0  0  0  # atno 6908 bound_to 6896
  152.4612  134.5189  159.9828 H   0  0  0  0  0  0  0  0  0  0  0  0  # atno 6909 bound_to 6896
  145.1559  139.3183  143.4542 H   0  0  0  0  0  0  0  0  0  0  0  0  # atno 7974 bound_to 7965
  154.7786  140.0469  157.1109 H   0  0  0  0  0  0  0  0  0  0  0  0  # atno 8008 bound_to 7997
  154.9732  140.3092  155.4959 H   0  0  0  0  0  0  0  0  0  0  0  0  # atno 8009 bound_to 7997
  156.2933  140.2249  156.4826 H   0  0  0  0  0  0  0  0  0  0  0  0  # atno 8010 bound_to 7997
  140.0703  144.5158  150.7232 H   0  0  0  0  0  0  0  0  0  0  0  0  # atno 10167 bound_to 10162
  156.3861  130.7862  151.2059 H   0  0  0  0  0  0  0  0  0  0  0  0  # atno 10718 bound_to 10713
  153.9109  135.6792  153.4751 H   0  0  0  0  0  0  0  0  0  0  0  0  # atno 10763 bound_to 10752
  153.1079  135.4797  154.8981 H   0  0  0  0  0  0  0  0  0  0  0  0  # atno 10764 bound_to 10752
  154.7528  135.3189  154.8482 H   0  0  0  0  0  0  0  0  0  0  0  0  # atno 10765 bound_to 10752
  140.2056  134.8306  157.3065 H   0  0  0  0  0  0  0  0  0  0  0  0  # atno 11005 bound_to 11000
  146.3489  140.1651  142.8590 LP  0  0  0  0  0  0  0  0  0  0  0  0  # atno 17320 bound_to 7965
  145.0381  140.8924  143.5069 LP  0  0  0  0  0  0  0  0  0  0  0  0  # atno 17321 bound_to 7965
  140.7129  143.2519  151.4526 LP  0  0  0  0  0  0  0  0  0  0  0  0  # atno 17342 bound_to 10162
  139.5840  144.1646  152.2005 LP  0  0  0  0  0  0  0  0  0  0  0  0  # atno 17343 bound_to 10162
  157.7496  131.0329  150.4249 LP  0  0  0  0  0  0  0  0  0  0  0  0  # atno 17370 bound_to 10713
  156.4502  130.4010  149.6641 LP  0  0  0  0  0  0  0  0  0  0  0  0  # atno 17371 bound_to 10713
  140.2007  134.4258  155.7664 LP  0  0  0  0  0  0  0  0  0  0  0  0  # atno 17394 bound_to 11000
  141.2227  133.7070  156.8179 LP  0  0  0  0  0  0  0  0  0  0  0  0  # atno 17395 bound_to 11000

$$$$
