AV-unprocessed.smi:3232|AV-procd|sdf|12342|dock3
  -GOLD-   2272018203D 1   1.00000     0.00000
 Structure written by MMmdl.
 40 41  0  0  0  0  0  0  0  0  2 V2000
  148.0621  132.9373  153.0675 C   0  0  0  0  0  0  0  0  0  0  0  0
  147.0911  133.5413  152.0441 C   0  0  0  0  0  0  0  0  0  0  0  0
  146.7782  134.9608  152.3379 N   0  3  1  0  0  0  0  0  0  0  0  0
  146.0068  135.6563  151.2865 C   0  0  0  0  0  0  0  0  0  0  0  0
  145.3375  136.8248  151.9979 C   0  0  0  0  0  0  0  0  0  0  0  0
  144.9914  136.2400  153.3624 C   0  0  0  0  0  0  0  0  0  0  0  0
  146.0768  135.1769  153.6286 C   0  0  2  0  0  0  0  0  0  0  0  0
  147.0839  135.5797  154.7265 C   0  0  0  0  0  0  0  0  0  0  0  0
  148.1607  136.4134  154.2055 N   0  0  0  0  0  0  0  0  0  0  0  0
  148.8324  137.3358  154.9122 C   0  0  0  0  0  0  0  0  0  0  0  0
  148.6374  137.5341  156.1120 O   0  0  0  0  0  0  0  0  0  0  0  0
  149.8575  138.1700  154.1289 C   0  0  2  0  0  0  0  0  0  0  0  0
  151.2969  138.0004  154.6491 C   0  0  0  0  0  0  0  0  0  0  0  0
  149.4630  139.5721  154.1317 N   0  0  0  0  0  0  0  0  0  0  0  0
  148.3223  140.1622  153.7626 C   0  0  0  0  0  0  0  0  0  0  0  0
  148.3338  141.4811  153.8917 N   0  0  0  0  0  0  0  0  0  0  0  0
  149.5957  141.6506  154.3870 C   0  0  0  0  0  0  0  0  0  0  0  0
  150.3158  140.5399  154.5448 N   0  0  0  0  0  0  0  0  0  0  0  0
  148.2243  131.8782  152.8657 H   0  0  0  0  0  0  0  0  0  0  0  0
  147.6711  133.0242  154.0814 H   0  0  0  0  0  0  0  0  0  0  0  0
  149.0353  133.4274  153.0381 H   0  0  0  0  0  0  0  0  0  0  0  0
  147.4944  133.4473  151.0349 H   0  0  0  0  0  0  0  0  0  0  0  0
  146.1635  132.9677  152.0648 H   0  0  0  0  0  0  0  0  0  0  0  0
  146.6442  135.9820  150.4641 H   0  0  0  0  0  0  0  0  0  0  0  0
  145.2439  134.9890  150.8815 H   0  0  0  0  0  0  0  0  0  0  0  0
  146.0475  137.6445  152.1150 H   0  0  0  0  0  0  0  0  0  0  0  0
  144.4660  137.2052  151.4640 H   0  0  0  0  0  0  0  0  0  0  0  0
  144.9288  137.0095  154.1324 H   0  0  0  0  0  0  0  0  0  0  0  0
  144.0150  135.7560  153.3123 H   0  0  0  0  0  0  0  0  0  0  0  0
  145.5751  134.2529  153.9222 H   0  0  0  0  0  0  0  0  0  0  0  0
  146.5766  136.1068  155.5365 H   0  0  0  0  0  0  0  0  0  0  0  0
  147.5294  134.6887  155.1703 H   0  0  0  0  0  0  0  0  0  0  0  0
  148.3864  136.3118  153.2260 H   0  0  0  0  0  0  0  0  0  0  0  0
  149.8388  137.8147  153.0967 H   0  0  0  0  0  0  0  0  0  0  0  0
  151.6021  136.9535  154.6344 H   0  0  0  0  0  0  0  0  0  0  0  0
  151.4045  138.3651  155.6715 H   0  0  0  0  0  0  0  0  0  0  0  0
  152.0010  138.5537  154.0271 H   0  0  0  0  0  0  0  0  0  0  0  0
  147.4697  139.6159  153.3863 H   0  0  0  0  0  0  0  0  0  0  0  0
  149.9977  142.6222  154.6339 H   0  0  0  0  0  0  0  0  0  0  0  0
  147.6563  135.4534  152.4170 H   0  0  0  0  0  0  0  0  0  0  0  0
  1  2  1  0  0  0  0
  1 19  1  0  0  0  0
  1 20  1  0  0  0  0
  1 21  1  0  0  0  0
  2  3  1  0  0  0  0
  2 22  1  0  0  0  0
  2 23  1  0  0  0  0
  3  7  1  0  0  0  0
  3  4  1  0  0  0  0
  3 40  1  0  0  0  0
  4  5  1  0  0  0  0
  4 24  1  0  0  0  0
  4 25  1  0  0  0  0
  5  6  1  0  0  0  0
  5 26  1  0  0  0  0
  5 27  1  0  0  0  0
  6  7  1  0  0  0  0
  6 28  1  0  0  0  0
  6 29  1  0  0  0  0
  7  8  1  0  0  0  0
  7 30  1  0  0  0  0
  8  9  1  0  0  0  0
  8 31  1  0  0  0  0
  8 32  1  0  0  0  0
  9 10  1  0  0  0  0
  9 33  1  0  0  0  0
 10 11  2  0  0  0  0
 10 12  1  0  0  0  0
 12 13  1  0  0  0  0
 12 14  1  0  0  0  0
 12 34  1  0  0  0  0
 13 35  1  0  0  0  0
 13 36  1  0  0  0  0
 13 37  1  0  0  0  0
 14 18  1  0  0  0  0
 14 15  1  0  0  0  0
 15 16  2  0  0  0  0
 15 38  1  0  0  0  0
 16 17  1  0  0  0  0
 17 18  2  0  0  0  0
 17 39  1  0  0  0  0
M  CHG  1   3   1
M  END
> <s_m_source_file>
AV-unprocessed.smi

> <i_m_source_file_index>
3232

> <i_lp_mmshare_version>
43012

> <i_f3d_flags>
0

> <s_epik_input>
W0NIM11bQ0gyXU4xW0NIMl1bQ0gyXVtDSDJdW0NASF0xW0NIMl1bTkhdQyg9TylbQ0BIXShbQ0gzXSluMltjSF1uW2NIXW4y

> <s_epik_cmdline>
J2VwaWtfcHl0aG9uJywgJy1waCcsICc3LjAnLCAnLXRuJywgJzgnLCAnLW1hJywgJzIwMCcsICctbWV0YWxfYmluZGluZycsICctaW1hZScsICc8aW5maWxlLm1hZT4nLCAnLW9tYWUnLCAnPG91dGZpbGUubWFlPic=

> <r_lp_tautomer_probability>
1

> <r_epik_Ionization_Penalty>
0.00177695

> <r_epik_Ionization_Penalty_Charging>
0.00176881

> <r_epik_Ionization_Penalty_Neutral>
8.13528e-06

> <r_epik_State_Penalty>
0.00119827

> <r_epik_Charging_Adjusted_Penalty>
0.00296709

> <i_epik_Tot_Q>
1

> <i_epik_Tot_abs_Q>
1

> <r_epik_Metal_State_Penalty>
-0

> <b_epik_Metal_Only>
0

> <s_lp_Force_Field>
OPLS_2005

> <r_lp_Energy>
32.398

> <b_lp_Chiralities_Consistent>
1

> <s_lp_Variant>
AV-unprocessed.smi:3232-4

> <Gold.Version>
5.8.1

> <Gold.Id.Protein>
6NUR|6NUR_protein|mol2

> <Gold.PLP.Fitness>
40.1370

> <Gold.PLP.PLP>
-26.1358

> <Gold.PLP.part.hbond>
-2.9807

> <Gold.PLP.part.metal>
0.0000

> <Gold.PLP.part.buried>
0.3053

> <Gold.PLP.part.nonpolar>
-22.2127

> <Gold.PLP.part.repulsive>
0.2682

> <Gold.PLP.ligand.clash>
0.0000

> <Gold.PLP.ligand.torsion>
0.5183

> <Gold.PLP.Chemscore.Hbond>
3.9760

> <Gold.PLP.Chemscore.CHOScore>
1.0000

> <Gold.PLP.Chemscore.Metal>
0.0000

> <Gold.Chemscore.Hbonds>
donor molecule, donor type, donor heavy atom, donor atom, acceptor molecule, acceptor atom, score
      L1  H     3    40       P1  7948  2.00
      L1  H     9    33       P1  7948  0.86
      P1  H  7989  7998       L1    18  0.93
      L1  C    17    39       P1  8028  0.90

> <Gold.PLP.Chemscore.Internal.Correction>
0.1098

> <Gold.Rescore>
     Score         DG    S(hbond)    S(metal)    S(lipo)     H(rot)  DE(clash)    DE(int)     intcor
     12.44     -13.12       2.74        0.00      41.45       2.49       0.07       0.61       ----

> <Gold.Chemscore.Fitness>
12.4447

> <Gold.Chemscore.DG>
-13.1176

> <Gold.Chemscore.ZeroCoef>
-5.4800

> <Gold.Chemscore.Hbond>
2.7420

> <Gold.Chemscore.Metal>
0.0000

> <Gold.Chemscore.Lipo>
41.4463

> <Gold.Chemscore.Internal_Hbond>
0.0000

> <Gold.Chemscore.DEClash>
0.0669

> <Gold.Chemscore.DEInternal>
0.6061

> <Gold.Chemscore.Rot>
2.4882

> <Gold.Chemscore.Internal.Correction>
   9.000000E+99

> <Gold.Chemscore.Hbonds>
donor molecule, donor type, donor heavy atom, donor atom, acceptor molecule, acceptor atom, score
      L1  H     3    40       P1  7948  0.95
      L1  H     9    33       P1  7948  0.84
      P1  H  7989  7998       L1    18  0.22

> <Gold.Chemscore.Hbond.Weighted>
-9.1582

> <Gold.Chemscore.Metal.Weighted>
-0.0000

> <Gold.Chemscore.Lipo.Weighted>
-4.8492

> <Gold.Chemscore.Internal_Hbond.Weighted>
0.0000

> <Gold.Chemscore.DEClash.Weighted>
0.0669

> <Gold.Chemscore.DEInternal.Weighted>
0.6061

> <Gold.Chemscore.Rot.Weighted>
6.3697

> <Gold.Chemscore.Internal.Correction.Weighted>
   9.000000E+99

> <Gold.Protein.RotatedTorsions>
[ 6907 6896 6895 6894 ] final  133.37 input  -60.11 | X-H torsion
[ 7974 7965 7964 7962 ] final   54.04 input  175.53 | X-H torsion
[ 8008 7997 7996 7995 ] final   91.04 input   59.86 | X-H torsion
[ 10167 10162 10161 10158 ] final  -60.79 input  -65.29 | X-H torsion
[ 10718 10713 10712 10709 ] final  161.20 input   66.30 | X-H torsion
[ 10763 10752 10751 10750 ] final  -42.52 input  -60.55 | X-H torsion
[ 11005 11000 10999 10996 ] final  -84.90 input  -57.11 | X-H torsion

> <Gold.Protein.ActiveResidues>
 VAL166  LYS551  ARG553  GLY616  TRP617  ASP618  TYR619  PRO620  LYS621  CYS622 
 ASP623  PHE694  ASN695  SER759  ASP760  ASP761  ALA762  ILE779  LEU786  VAL792 
 PHE793  MET794  SER795  GLU796  ALA797  LYS798  CYS799  TRP800  GLU811  SER814 

> <Gold.Protein.RotatedAtoms>
  152.3226  133.5870  159.5754 H   0  0  0  0  0  0  0  0  0  0  0  0  # atno 6907 bound_to 6896
  150.7379  133.9988  159.3640 H   0  0  0  0  0  0  0  0  0  0  0  0  # atno 6908 bound_to 6896
  151.7871  135.0746  160.0433 H   0  0  0  0  0  0  0  0  0  0  0  0  # atno 6909 bound_to 6896
  145.9650  139.4095  143.0225 H   0  0  0  0  0  0  0  0  0  0  0  0  # atno 7974 bound_to 7965
  156.0191  140.3342  155.7020 H   0  0  0  0  0  0  0  0  0  0  0  0  # atno 8008 bound_to 7997
  155.6048  140.0659  157.2740 H   0  0  0  0  0  0  0  0  0  0  0  0  # atno 8009 bound_to 7997
  154.4309  140.1804  156.1199 H   0  0  0  0  0  0  0  0  0  0  0  0  # atno 8010 bound_to 7997
  140.6048  143.2370  151.5846 H   0  0  0  0  0  0  0  0  0  0  0  0  # atno 10167 bound_to 10162
  157.1399  131.0538  151.2331 H   0  0  0  0  0  0  0  0  0  0  0  0  # atno 10718 bound_to 10713
  153.9804  135.6717  153.4750 H   0  0  0  0  0  0  0  0  0  0  0  0  # atno 10763 bound_to 10752
  153.0751  135.4953  154.8384 H   0  0  0  0  0  0  0  0  0  0  0  0  # atno 10764 bound_to 10752
  154.7168  135.3108  154.9073 H   0  0  0  0  0  0  0  0  0  0  0  0  # atno 10765 bound_to 10752
  141.1646  133.7370  156.8936 H   0  0  0  0  0  0  0  0  0  0  0  0  # atno 11005 bound_to 11000
  145.7986  140.9781  143.1010 LP  0  0  0  0  0  0  0  0  0  0  0  0  # atno 17320 bound_to 7965
  144.6823  139.9773  143.7483 LP  0  0  0  0  0  0  0  0  0  0  0  0  # atno 17321 bound_to 7965
  139.5317  144.2897  152.1162 LP  0  0  0  0  0  0  0  0  0  0  0  0  # atno 17342 bound_to 10162
  140.2085  144.4587  150.6397 LP  0  0  0  0  0  0  0  0  0  0  0  0  # atno 17343 bound_to 10162
  157.4317  130.7494  149.6995 LP  0  0  0  0  0  0  0  0  0  0  0  0  # atno 17370 bound_to 10713
  155.9791  130.4044  150.3610 LP  0  0  0  0  0  0  0  0  0  0  0  0  # atno 17371 bound_to 10713
  140.1631  134.9152  157.2740 LP  0  0  0  0  0  0  0  0  0  0  0  0  # atno 17394 bound_to 11000
  140.2588  134.3596  155.7414 LP  0  0  0  0  0  0  0  0  0  0  0  0  # atno 17395 bound_to 11000

$$$$
