AV-unprocessed.smi:527|AV-procd|sdf|2827|dock9
  -GOLD-   2262023313D 1   1.00000     0.00000
 Structure written by MMmdl.
 43 44  0  0  0  0  0  0  0  0  2 V2000
  142.9602  132.6978  151.1262 C   0  0  0  0  0  0  0  0  0  0  0  0
  144.1616  133.1469  150.2690 C   0  0  2  0  0  0  0  0  0  0  0  0
  145.0899  131.9638  149.9263 C   0  0  0  0  0  0  0  0  0  0  0  0
  145.9105  131.4979  151.1392 C   0  0  0  0  0  0  0  0  0  0  0  0
  146.7124  132.6573  151.7463 C   0  0  0  0  0  0  0  0  0  0  0  0
  145.8092  133.8547  152.1083 C   0  0  1  0  0  0  0  0  0  0  0  0
  146.6306  134.9546  152.6110 N   0  0  0  0  0  0  0  0  0  0  0  0
  146.1856  135.9833  153.3477 C   0  0  0  0  0  0  0  0  0  0  0  0
  145.1129  135.9684  153.9553 O   0  0  0  0  0  0  0  0  0  0  0  0
  147.0610  137.0069  153.3251 N   0  0  0  0  0  0  0  0  0  0  0  0
  146.9490  138.1982  153.9471 C   0  0  0  0  0  0  0  0  0  0  0  0
  145.9979  138.5393  154.6552 O   0  0  0  0  0  0  0  0  0  0  0  0
  148.1235  139.1572  153.7138 C   0  0  0  0  0  0  0  0  0  0  0  0
  147.8146  140.5461  154.0769 N   0  0  0  0  0  0  0  0  0  0  0  0
  146.7742  141.3140  153.6186 C   0  0  0  0  0  0  0  0  0  0  0  0
  146.8945  142.5374  154.2259 C   0  0  0  0  0  0  0  0  0  0  0  0
  148.0025  142.4657  155.0272 N   0  3  0  0  0  0  0  0  0  0  0  0
  148.5611  141.2544  154.9351 C   0  0  0  0  0  0  0  0  0  0  0  0
  144.9782  134.3157  150.8826 C   0  0  2  0  0  0  0  0  0  0  0  0
  144.1054  135.5522  151.1761 C   0  0  0  0  0  0  0  0  0  0  0  0
  143.2616  132.3722  152.1212 H   0  0  0  0  0  0  0  0  0  0  0  0
  142.4370  131.8658  150.6546 H   0  0  0  0  0  0  0  0  0  0  0  0
  142.2328  133.5000  151.2476 H   0  0  0  0  0  0  0  0  0  0  0  0
  143.7452  133.5014  149.3252 H   0  0  0  0  0  0  0  0  0  0  0  0
  144.5108  131.1307  149.5264 H   0  0  0  0  0  0  0  0  0  0  0  0
  145.7733  132.2638  149.1306 H   0  0  0  0  0  0  0  0  0  0  0  0
  145.2519  131.0703  151.8955 H   0  0  0  0  0  0  0  0  0  0  0  0
  146.5889  130.6989  150.8393 H   0  0  0  0  0  0  0  0  0  0  0  0
  147.2451  132.3053  152.6305 H   0  0  0  0  0  0  0  0  0  0  0  0
  147.4761  132.9753  151.0350 H   0  0  0  0  0  0  0  0  0  0  0  0
  145.1185  133.5482  152.8956 H   0  0  0  0  0  0  0  0  0  0  0  0
  147.6101  134.9310  152.3684 H   0  0  0  0  0  0  0  0  0  0  0  0
  147.8971  136.8659  152.7777 H   0  0  0  0  0  0  0  0  0  0  0  0
  148.9834  138.8391  154.3051 H   0  0  0  0  0  0  0  0  0  0  0  0
  148.4194  139.1325  152.6642 H   0  0  0  0  0  0  0  0  0  0  0  0
  146.0462  140.9436  152.9113 H   0  0  0  0  0  0  0  0  0  0  0  0
  146.2912  143.4303  154.1489 H   0  0  0  0  0  0  0  0  0  0  0  0
  149.4438  140.9172  155.4489 H   0  0  0  0  0  0  0  0  0  0  0  0
  145.6896  134.6259  150.1151 H   0  0  0  0  0  0  0  0  0  0  0  0
  143.4424  135.3842  152.0250 H   0  0  0  0  0  0  0  0  0  0  0  0
  143.4888  135.8107  150.3147 H   0  0  0  0  0  0  0  0  0  0  0  0
  144.7147  136.4262  151.4068 H   0  0  0  0  0  0  0  0  0  0  0  0
  148.3530  143.2201  155.6043 H   0  0  0  0  0  0  0  0  0  0  0  0
  1  2  1  0  0  0  0
  1 21  1  0  0  0  0
  1 22  1  0  0  0  0
  1 23  1  0  0  0  0
  2 19  1  0  0  0  0
  2  3  1  0  0  0  0
  2 24  1  0  0  0  0
  3  4  1  0  0  0  0
  3 25  1  0  0  0  0
  3 26  1  0  0  0  0
  4  5  1  0  0  0  0
  4 27  1  0  0  0  0
  4 28  1  0  0  0  0
  5  6  1  0  0  0  0
  5 29  1  0  0  0  0
  5 30  1  0  0  0  0
  6  7  1  0  0  0  0
  6 19  1  0  0  0  0
  6 31  1  0  0  0  0
  7  8  1  0  0  0  0
  7 32  1  0  0  0  0
  8  9  2  0  0  0  0
  8 10  1  0  0  0  0
 10 11  1  0  0  0  0
 10 33  1  0  0  0  0
 11 12  2  0  0  0  0
 11 13  1  0  0  0  0
 13 14  1  0  0  0  0
 13 34  1  0  0  0  0
 13 35  1  0  0  0  0
 14 18  1  0  0  0  0
 14 15  1  0  0  0  0
 15 16  2  0  0  0  0
 15 36  1  0  0  0  0
 16 17  1  0  0  0  0
 16 37  1  0  0  0  0
 17 18  2  0  0  0  0
 17 43  1  0  0  0  0
 18 38  1  0  0  0  0
 19 20  1  0  0  0  0
 19 39  1  0  0  0  0
 20 40  1  0  0  0  0
 20 41  1  0  0  0  0
 20 42  1  0  0  0  0
M  CHG  1  17   1
M  END
> <s_m_source_file>
AV-unprocessed.smi

> <i_m_source_file_index>
527

> <i_lp_mmshare_version>
43012

> <i_f3d_flags>
0

> <s_epik_input>
W0NIM11bQ0BASF0xW0NIMl1bQ0gyXVtDSDJdW0NASF0oW0NASF0xW0NIM10pW05IXUMoPU8pW05IXUMoPU8pW0NIMl1uMltjSF1bY0hdbltjSF0y

> <s_epik_cmdline>
J2VwaWtfcHl0aG9uJywgJy1waCcsICc3LjAnLCAnLXRuJywgJzgnLCAnLW1hJywgJzIwMCcsICctbWV0YWxfYmluZGluZycsICctaW1hZScsICc8aW5maWxlLm1hZT4nLCAnLW9tYWUnLCAnPG91dGZpbGUubWFlPic=

> <r_lp_tautomer_probability>
1

> <r_epik_Ionization_Penalty>
0.816441

> <r_epik_Ionization_Penalty_Charging>
0

> <r_epik_Ionization_Penalty_Neutral>
0.816441

> <r_epik_State_Penalty>
0.849034

> <r_epik_Charging_Adjusted_Penalty>
0.849034

> <i_epik_Tot_Q>
1

> <i_epik_Tot_abs_Q>
1

> <r_epik_Metal_State_Penalty>
0.984327

> <b_epik_Metal_Only>
0

> <s_lp_Force_Field>
OPLS_2005

> <r_lp_Energy>
18.5197

> <b_lp_Chiralities_Consistent>
1

> <s_lp_Variant>
AV-unprocessed.smi:527-13

> <Gold.Version>
5.8.1

> <Gold.Id.Protein>
6NUR|6NUR_protein|mol2

> <Gold.PLP.Fitness>
47.6674

> <Gold.PLP.PLP>
-34.5236

> <Gold.PLP.part.hbond>
-2.7435

> <Gold.PLP.part.metal>
0.0000

> <Gold.PLP.part.buried>
-1.8144

> <Gold.PLP.part.nonpolar>
-30.7797

> <Gold.PLP.part.repulsive>
0.3020

> <Gold.PLP.ligand.clash>
0.0000

> <Gold.PLP.ligand.torsion>
0.5517

> <Gold.PLP.Chemscore.Hbond>
3.7520

> <Gold.PLP.Chemscore.CHOScore>
0.9952

> <Gold.PLP.Chemscore.Metal>
0.0000

> <Gold.Chemscore.Hbonds>
donor molecule, donor type, donor heavy atom, donor atom, acceptor molecule, acceptor atom, score
      L1  H     7    32       P1  7948  0.75
      L1  H    10    33       P1  7948  1.00
      L1  H    17    43       P1  8028  1.82
      L1  C    15    36       P1 10175  1.00

> <Gold.PLP.Chemscore.Internal.Correction>
0.0057

> <Gold.Rescore>
     Score         DG    S(hbond)    S(metal)    S(lipo)     H(rot)  DE(clash)    DE(int)     intcor
     16.48     -18.60       2.49        0.00      78.48       1.71       0.07       2.06       ----

> <Gold.Chemscore.Fitness>
16.4774

> <Gold.Chemscore.DG>
-18.6038

> <Gold.Chemscore.ZeroCoef>
-5.4800

> <Gold.Chemscore.Hbond>
2.4869

> <Gold.Chemscore.Metal>
0.0000

> <Gold.Chemscore.Lipo>
78.4845

> <Gold.Chemscore.Internal_Hbond>
0.0000

> <Gold.Chemscore.DEClash>
0.0694

> <Gold.Chemscore.DEInternal>
2.0570

> <Gold.Chemscore.Rot>
1.7052

> <Gold.Chemscore.Internal.Correction>
   9.000000E+99

> <Gold.Chemscore.Hbonds>
donor molecule, donor type, donor heavy atom, donor atom, acceptor molecule, acceptor atom, score
      L1  H     7    32       P1  7948  0.70
      L1  H    10    33       P1  7948  0.93
      L1  H    17    43       P1  8028  0.83

> <Gold.Chemscore.Hbond.Weighted>
-8.3064

> <Gold.Chemscore.Metal.Weighted>
-0.0000

> <Gold.Chemscore.Lipo.Weighted>
-9.1827

> <Gold.Chemscore.Internal_Hbond.Weighted>
0.0000

> <Gold.Chemscore.DEClash.Weighted>
0.0694

> <Gold.Chemscore.DEInternal.Weighted>
2.0570

> <Gold.Chemscore.Rot.Weighted>
4.3653

> <Gold.Chemscore.Internal.Correction.Weighted>
   9.000000E+99

> <Gold.Protein.RotatedTorsions>
[ 6907 6896 6895 6894 ] final  101.62 input  -60.11 | X-H torsion
[ 7974 7965 7964 7962 ] final  -50.69 input  175.53 | X-H torsion
[ 8008 7997 7996 7995 ] final  102.18 input   59.86 | X-H torsion
[ 10167 10162 10161 10158 ] final  165.13 input  -65.29 | X-H torsion
[ 10718 10713 10712 10709 ] final   51.53 input   66.30 | X-H torsion
[ 10763 10752 10751 10750 ] final  -39.55 input  -60.55 | X-H torsion
[ 11005 11000 10999 10996 ] final  -26.00 input  -57.11 | X-H torsion

> <Gold.Protein.ActiveResidues>
 VAL166  LYS551  ARG553  GLY616  TRP617  ASP618  TYR619  PRO620  LYS621  CYS622 
 ASP623  PHE694  ASN695  SER759  ASP760  ASP761  ALA762  ILE779  LEU786  VAL792 
 PHE793  MET794  SER795  GLU796  ALA797  LYS798  CYS799  TRP800  GLU811  SER814 

> <Gold.Protein.RotatedAtoms>
  152.5345  134.0098  159.7932 H   0  0  0  0  0  0  0  0  0  0  0  0  # atno 6907 bound_to 6896
  151.0302  133.5789  159.2668 H   0  0  0  0  0  0  0  0  0  0  0  0  # atno 6908 bound_to 6896
  151.2796  135.0717  159.9218 H   0  0  0  0  0  0  0  0  0  0  0  0  # atno 6909 bound_to 6896
  145.9271  140.7782  142.9618 H   0  0  0  0  0  0  0  0  0  0  0  0  # atno 7974 bound_to 7965
  156.1369  140.3185  155.8434 H   0  0  0  0  0  0  0  0  0  0  0  0  # atno 8008 bound_to 7997
  155.4228  140.0513  157.3041 H   0  0  0  0  0  0  0  0  0  0  0  0  # atno 8009 bound_to 7997
  154.4944  140.2105  155.9491 H   0  0  0  0  0  0  0  0  0  0  0  0  # atno 8010 bound_to 7997
  139.4900  144.4164  151.9239 H   0  0  0  0  0  0  0  0  0  0  0  0  # atno 10167 bound_to 10162
  157.4990  130.8425  149.8293 H   0  0  0  0  0  0  0  0  0  0  0  0  # atno 10718 bound_to 10713
  153.9312  135.6771  153.4745 H   0  0  0  0  0  0  0  0  0  0  0  0  # atno 10763 bound_to 10752
  153.0978  135.4842  154.8809 H   0  0  0  0  0  0  0  0  0  0  0  0  # atno 10764 bound_to 10752
  154.7427  135.3164  154.8657 H   0  0  0  0  0  0  0  0  0  0  0  0  # atno 10765 bound_to 10752
  140.8989  133.7537  156.0518 H   0  0  0  0  0  0  0  0  0  0  0  0  # atno 11005 bound_to 11000
  144.6760  140.2068  143.7381 LP  0  0  0  0  0  0  0  0  0  0  0  0  # atno 17320 bound_to 7965
  145.8474  139.2159  143.1792 LP  0  0  0  0  0  0  0  0  0  0  0  0  # atno 17321 bound_to 7965
  140.3607  144.2977  150.5934 LP  0  0  0  0  0  0  0  0  0  0  0  0  # atno 17342 bound_to 10162
  140.5405  143.2224  151.8092 LP  0  0  0  0  0  0  0  0  0  0  0  0  # atno 17343 bound_to 10162
  156.0217  130.3793  150.1941 LP  0  0  0  0  0  0  0  0  0  0  0  0  # atno 17370 bound_to 10713
  157.0131  130.9957  151.3360 LP  0  0  0  0  0  0  0  0  0  0  0  0  # atno 17371 bound_to 10713
  140.8254  134.3240  157.5367 LP  0  0  0  0  0  0  0  0  0  0  0  0  # atno 17394 bound_to 11000
  139.8739  134.9333  156.3577 LP  0  0  0  0  0  0  0  0  0  0  0  0  # atno 17395 bound_to 11000

$$$$
