AV-unprocessed.smi:743|AV-procd|sdf|3566|dock4
  -GOLD-   22720 0563D 1   1.00000     0.00000
 Structure written by MMmdl.
 28 29  0  0  0  0  0  0  0  0  1 V2000
  152.1997  141.7900  158.4758 C   0  0  0  0  0  0  0  0  0  0  0  0
  151.6322  141.2622  157.2535 N   0  0  0  0  0  0  0  0  0  0  0  0
  150.5237  141.7003  156.5622 C   0  0  0  0  0  0  0  0  0  0  0  0
  150.3772  140.8998  155.4635 C   0  0  0  0  0  0  0  0  0  0  0  0
  149.3220  140.9709  154.3845 C   0  0  2  0  0  0  0  0  0  0  0  0
  148.3284  142.0018  154.7006 N   0  0  0  0  0  0  0  0  0  0  0  0
  147.0016  141.9460  154.4858 C   0  0  0  0  0  0  0  0  0  0  0  0
  146.2693  142.8977  154.7463 O   0  0  0  0  0  0  0  0  0  0  0  0
  146.3879  140.6518  153.9333 C   0  0  0  0  0  0  0  0  0  0  0  0
  147.4186  139.7269  153.2696 C   0  0  0  0  0  0  0  0  0  0  0  0
  148.6651  139.5893  154.1511 C   0  0  1  0  0  0  0  0  0  0  0  0
  149.5992  138.6645  153.5343 N   0  0  0  0  0  0  0  0  0  0  0  0
  151.4690  139.9896  155.5786 C   0  0  0  0  0  0  0  0  0  0  0  0
  152.2155  140.2082  156.6482 N   0  0  0  0  0  0  0  0  0  0  0  0
  148.3635  139.1674  155.1112 H   0  0  0  0  0  0  0  0  0  0  0  0
  151.4526  142.3778  159.0097 H   0  0  0  0  0  0  0  0  0  0  0  0
  153.0509  142.4278  158.2375 H   0  0  0  0  0  0  0  0  0  0  0  0
  152.5316  140.9741  159.1192 H   0  0  0  0  0  0  0  0  0  0  0  0
  149.9366  142.5405  156.9030 H   0  0  0  0  0  0  0  0  0  0  0  0
  149.7786  141.2939  153.4473 H   0  0  0  0  0  0  0  0  0  0  0  0
  148.6917  142.8606  155.0882 H   0  0  0  0  0  0  0  0  0  0  0  0
  145.9136  140.1307  154.7657 H   0  0  0  0  0  0  0  0  0  0  0  0
  145.5949  140.8971  153.2258 H   0  0  0  0  0  0  0  0  0  0  0  0
  146.9679  138.7492  153.0939 H   0  0  0  0  0  0  0  0  0  0  0  0
  147.6916  140.1237  152.2904 H   0  0  0  0  0  0  0  0  0  0  0  0
  149.1004  137.8505  153.2046 H   0  0  0  0  0  0  0  0  0  0  0  0
  150.0134  139.0949  152.7200 H   0  0  0  0  0  0  0  0  0  0  0  0
  151.7407  139.1807  154.9162 H   0  0  0  0  0  0  0  0  0  0  0  0
  1  2  1  0  0  0  0
  1 16  1  0  0  0  0
  1 17  1  0  0  0  0
  1 18  1  0  0  0  0
  2 14  1  0  0  0  0
  2  3  1  0  0  0  0
  3  4  2  0  0  0  0
  3 19  1  0  0  0  0
  4  5  1  0  0  0  0
  4 13  1  0  0  0  0
  5 11  1  0  0  0  0
  5  6  1  0  0  0  0
  5 20  1  0  0  0  0
  6  7  1  0  0  0  0
  6 21  1  0  0  0  0
  7  8  2  0  0  0  0
  7  9  1  0  0  0  0
  9 10  1  0  0  0  0
  9 22  1  0  0  0  0
  9 23  1  0  0  0  0
 10 11  1  0  0  0  0
 10 24  1  0  0  0  0
 10 25  1  0  0  0  0
 11 15  1  0  0  0  0
 11 12  1  0  0  0  0
 12 26  1  0  0  0  0
 12 27  1  0  0  0  0
 13 14  2  0  0  0  0
 13 28  1  0  0  0  0
M  END
> <s_m_source_file>
AV-unprocessed.smi

> <i_m_source_file_index>
743

> <i_lp_mmshare_version>
43012

> <i_f3d_flags>
0

> <s_epik_input>
W0NIM11uMVtjSF1jKFtjSF1uMSlbQ0BASF0yW05IXUMoPU8pW0NIMl1bQ0gyXVtDQEBIXTJbTkgyXQ==

> <s_epik_cmdline>
J2VwaWtfcHl0aG9uJywgJy1waCcsICc3LjAnLCAnLXRuJywgJzgnLCAnLW1hJywgJzIwMCcsICctbWV0YWxfYmluZGluZycsICctaW1hZScsICc8aW5maWxlLm1hZT4nLCAnLW9tYWUnLCAnPG91dGZpbGUubWFlPic=

> <r_lp_tautomer_probability>
1

> <r_epik_Ionization_Penalty>
2.50279

> <r_epik_Ionization_Penalty_Charging>
0

> <r_epik_Ionization_Penalty_Neutral>
2.50279

> <r_epik_State_Penalty>
2.66754

> <r_epik_Charging_Adjusted_Penalty>
2.66754

> <i_epik_Tot_Q>
0

> <i_epik_Tot_abs_Q>
0

> <r_epik_Metal_State_Penalty>
2.66721

> <b_epik_Metal_Only>
0

> <s_lp_Force_Field>
OPLS_2005

> <r_lp_Energy>
8.43832

> <b_lp_Chiralities_Consistent>
1

> <s_lp_Variant>
AV-unprocessed.smi:743-7

> <Gold.Version>
5.8.1

> <Gold.Id.Protein>
6NUR|6NUR_protein|mol2

> <Gold.PLP.Fitness>
37.7297

> <Gold.PLP.PLP>
-25.9724

> <Gold.PLP.part.hbond>
-3.8254

> <Gold.PLP.part.metal>
0.0000

> <Gold.PLP.part.buried>
1.5985

> <Gold.PLP.part.nonpolar>
-22.3561

> <Gold.PLP.part.repulsive>
0.3859

> <Gold.PLP.ligand.clash>
0.0000

> <Gold.PLP.ligand.torsion>
0.0971

> <Gold.PLP.Chemscore.Hbond>
3.4537

> <Gold.PLP.Chemscore.CHOScore>
0.5216

> <Gold.PLP.Chemscore.Metal>
0.0000

> <Gold.Chemscore.Hbonds>
donor molecule, donor type, donor heavy atom, donor atom, acceptor molecule, acceptor atom, score
      L1  H     6    21       P1  8028  1.00
      L1  H    12    26       P1  7948  0.84
      L1  H    12    27       P1  7957  0.88
      P1  H  7997  8008       L1    14  0.75
      L1  C     3    19       P1  8028  0.53

> <Gold.PLP.Chemscore.Internal.Correction>
0.0258

> <Gold.Rescore>
     Score         DG    S(hbond)    S(metal)    S(lipo)     H(rot)  DE(clash)    DE(int)     intcor
     20.62     -20.83       3.42        0.00      55.41       1.00       0.19       0.02       ----

> <Gold.Chemscore.Fitness>
20.6221

> <Gold.Chemscore.DG>
-20.8301

> <Gold.Chemscore.ZeroCoef>
-5.4800

> <Gold.Chemscore.Hbond>
3.4212

> <Gold.Chemscore.Metal>
0.0000

> <Gold.Chemscore.Lipo>
55.4124

> <Gold.Chemscore.Internal_Hbond>
0.0000

> <Gold.Chemscore.DEClash>
0.1925

> <Gold.Chemscore.DEInternal>
0.0155

> <Gold.Chemscore.Rot>
1.0000

> <Gold.Chemscore.Internal.Correction>
   9.000000E+99

> <Gold.Chemscore.Hbonds>
donor molecule, donor type, donor heavy atom, donor atom, acceptor molecule, acceptor atom, score
      L1  H     6    21       P1  8028  0.99
      L1  H    12    26       P1  7948  0.77
      L1  H    12    27       P1  7957  0.68
      P1  H  7997  8008       L1    14  0.69

> <Gold.Chemscore.Hbond.Weighted>
-11.4268

> <Gold.Chemscore.Metal.Weighted>
-0.0000

> <Gold.Chemscore.Lipo.Weighted>
-6.4832

> <Gold.Chemscore.Internal_Hbond.Weighted>
0.0000

> <Gold.Chemscore.DEClash.Weighted>
0.1925

> <Gold.Chemscore.DEInternal.Weighted>
0.0155

> <Gold.Chemscore.Rot.Weighted>
2.5600

> <Gold.Chemscore.Internal.Correction.Weighted>
   9.000000E+99

> <Gold.Protein.RotatedTorsions>
[ 6907 6896 6895 6894 ] final  142.99 input  -60.11 | X-H torsion
[ 7974 7965 7964 7962 ] final  -79.33 input  175.53 | X-H torsion
[ 8008 7997 7996 7995 ] final  -46.73 input   59.86 | X-H torsion
[ 10167 10162 10161 10158 ] final   82.17 input  -65.29 | X-H torsion
[ 10718 10713 10712 10709 ] final -109.33 input   66.30 | X-H torsion
[ 10763 10752 10751 10750 ] final    2.98 input  -60.55 | X-H torsion
[ 11005 11000 10999 10996 ] final  -62.69 input  -57.11 | X-H torsion

> <Gold.Protein.ActiveResidues>
 VAL166  LYS551  ARG553  GLY616  TRP617  ASP618  TYR619  PRO620  LYS621  CYS622 
 ASP623  PHE694  ASN695  SER759  ASP760  ASP761  ALA762  ILE779  LEU786  VAL792 
 PHE793  MET794  SER795  GLU796  ALA797  LYS798  CYS799  TRP800  GLU811  SER814 

> <Gold.Protein.RotatedAtoms>
  152.2119  133.4917  159.5114 H   0  0  0  0  0  0  0  0  0  0  0  0  # atno 6907 bound_to 6896
  150.6992  134.1456  159.4130 H   0  0  0  0  0  0  0  0  0  0  0  0  # atno 6908 bound_to 6896
  151.9376  135.0228  160.0584 H   0  0  0  0  0  0  0  0  0  0  0  0  # atno 6909 bound_to 6896
  145.5746  140.9460  143.1377 H   0  0  0  0  0  0  0  0  0  0  0  0  # atno 7974 bound_to 7965
  154.4010  140.1364  156.4059 H   0  0  0  0  0  0  0  0  0  0  0  0  # atno 8008 bound_to 7997
  155.7780  140.3482  155.5262 H   0  0  0  0  0  0  0  0  0  0  0  0  # atno 8009 bound_to 7997
  155.8702  140.0970  157.1546 H   0  0  0  0  0  0  0  0  0  0  0  0  # atno 8010 bound_to 7997
  139.9316  144.6148  150.8339 H   0  0  0  0  0  0  0  0  0  0  0  0  # atno 10167 bound_to 10162
  156.0531  130.5758  150.8084 H   0  0  0  0  0  0  0  0  0  0  0  0  # atno 10718 bound_to 10713
  153.2889  135.6947  153.7313 H   0  0  0  0  0  0  0  0  0  0  0  0  # atno 10763 bound_to 10752
  153.6271  135.3417  155.3030 H   0  0  0  0  0  0  0  0  0  0  0  0  # atno 10764 bound_to 10752
  154.8518  135.4400  154.1965 H   0  0  0  0  0  0  0  0  0  0  0  0  # atno 10765 bound_to 10752
  141.1368  133.6643  156.5566 H   0  0  0  0  0  0  0  0  0  0  0  0  # atno 11005 bound_to 11000
  144.7422  139.7418  143.7306 LP  0  0  0  0  0  0  0  0  0  0  0  0  # atno 17320 bound_to 7965
  146.1760  139.4930  142.9897 LP  0  0  0  0  0  0  0  0  0  0  0  0  # atno 17321 bound_to 7965
  140.7636  143.3226  151.2587 LP  0  0  0  0  0  0  0  0  0  0  0  0  # atno 17342 bound_to 10162
  139.6777  143.9908  152.2791 LP  0  0  0  0  0  0  0  0  0  0  0  0  # atno 17343 bound_to 10162
  157.5476  131.0943  150.9740 LP  0  0  0  0  0  0  0  0  0  0  0  0  # atno 17370 bound_to 10713
  157.0008  130.5599  149.5311 LP  0  0  0  0  0  0  0  0  0  0  0  0  # atno 17371 bound_to 10713
  140.4022  134.7347  157.4786 LP  0  0  0  0  0  0  0  0  0  0  0  0  # atno 17394 bound_to 11000
  140.0488  134.6161  155.8887 LP  0  0  0  0  0  0  0  0  0  0  0  0  # atno 17395 bound_to 11000

$$$$
