AV-unprocessed.smi:304|AV-procd|sdf|2279|dock9
  -GOLD-   2262022173D 1   1.00000     0.00000
 Structure written by MMmdl.
 37 39  0  0  0  0  0  0  0  0  2 V2000
  149.4121  142.4384  157.0472 O   0  0  0  0  0  0  0  0  0  0  0  0
  150.7253  142.2518  157.5377 C   0  0  1  0  0  0  0  0  0  0  0  0
  151.4654  141.2871  156.5988 C   0  0  0  0  0  0  0  0  0  0  0  0
  150.6989  140.1015  156.4730 O   0  0  0  0  0  0  0  0  0  0  0  0
  150.5785  139.6611  155.1306 C   0  0  0  0  0  0  0  0  0  0  0  0
  149.2778  140.1762  154.6046 C   0  0  0  0  0  0  0  0  0  0  0  0
  148.9851  141.4662  154.2413 C   0  0  0  0  0  0  0  0  0  0  0  0
  147.6426  141.6340  153.7909 C   0  0  0  0  0  0  0  0  0  0  0  0
  146.9213  140.4704  153.8253 C   0  0  0  0  0  0  0  0  0  0  0  0
  147.8810  139.1409  154.4144 S   0  0  0  0  0  0  0  0  0  0  0  0
  151.4232  143.6236  157.6245 C   0  0  0  0  0  0  0  0  0  0  0  0
  151.5272  144.1220  159.0025 N   0  0  0  0  0  0  0  0  0  0  0  0
  150.9920  145.2356  159.5727 C   0  0  0  0  0  0  0  0  0  0  0  0
  151.3722  145.2500  160.8806 N   0  3  0  0  0  0  0  0  0  0  0  0
  152.1614  144.1291  161.1495 C   0  0  0  0  0  0  0  0  0  0  0  0
  152.7777  143.7066  162.3230 C   0  0  0  0  0  0  0  0  0  0  0  0
  153.5170  142.5070  162.2558 C   0  0  0  0  0  0  0  0  0  0  0  0
  154.1390  142.0513  163.3689 F   0  0  0  0  0  0  0  0  0  0  0  0
  153.6203  141.7745  161.0540 C   0  0  0  0  0  0  0  0  0  0  0  0
  154.3383  140.6268  161.0337 F   0  0  0  0  0  0  0  0  0  0  0  0
  152.9904  142.2129  159.8704 C   0  0  0  0  0  0  0  0  0  0  0  0
  152.2645  143.4003  159.9463 C   0  0  0  0  0  0  0  0  0  0  0  0
  149.3387  143.3234  156.7225 H   0  0  0  0  0  0  0  0  0  0  0  0
  150.6690  141.8153  158.5357 H   0  0  0  0  0  0  0  0  0  0  0  0
  151.6559  141.7459  155.6268 H   0  0  0  0  0  0  0  0  0  0  0  0
  152.4332  141.0248  157.0293 H   0  0  0  0  0  0  0  0  0  0  0  0
  151.4031  140.0432  154.5272 H   0  0  0  0  0  0  0  0  0  0  0  0
  150.6020  138.5713  155.0825 H   0  0  0  0  0  0  0  0  0  0  0  0
  149.6838  142.2887  154.2797 H   0  0  0  0  0  0  0  0  0  0  0  0
  147.2586  142.5889  153.4642 H   0  0  0  0  0  0  0  0  0  0  0  0
  145.8903  140.3139  153.5444 H   0  0  0  0  0  0  0  0  0  0  0  0
  152.4259  143.5817  157.1972 H   0  0  0  0  0  0  0  0  0  0  0  0
  150.8717  144.3670  157.0473 H   0  0  0  0  0  0  0  0  0  0  0  0
  150.3730  145.9704  159.0781 H   0  0  0  0  0  0  0  0  0  0  0  0
  152.7000  144.2635  163.2452 H   0  0  0  0  0  0  0  0  0  0  0  0
  153.0736  141.6447  158.9561 H   0  0  0  0  0  0  0  0  0  0  0  0
  151.1080  145.9721  161.5388 H   0  0  0  0  0  0  0  0  0  0  0  0
  1  2  1  0  0  0  0
  1 23  1  0  0  0  0
  2  3  1  0  0  0  0
  2 11  1  0  0  0  0
  2 24  1  0  0  0  0
  3  4  1  0  0  0  0
  3 25  1  0  0  0  0
  3 26  1  0  0  0  0
  4  5  1  0  0  0  0
  5  6  1  0  0  0  0
  5 27  1  0  0  0  0
  5 28  1  0  0  0  0
  6 10  1  0  0  0  0
  6  7  2  0  0  0  0
  7  8  1  0  0  0  0
  7 29  1  0  0  0  0
  8  9  2  0  0  0  0
  8 30  1  0  0  0  0
  9 10  1  0  0  0  0
  9 31  1  0  0  0  0
 11 12  1  0  0  0  0
 11 32  1  0  0  0  0
 11 33  1  0  0  0  0
 12 22  1  0  0  0  0
 12 13  1  0  0  0  0
 13 14  2  0  0  0  0
 13 34  1  0  0  0  0
 14 15  1  0  0  0  0
 14 37  1  0  0  0  0
 15 22  2  0  0  0  0
 15 16  1  0  0  0  0
 16 17  2  0  0  0  0
 16 35  1  0  0  0  0
 17 18  1  0  0  0  0
 17 19  1  0  0  0  0
 19 20  1  0  0  0  0
 19 21  2  0  0  0  0
 21 22  1  0  0  0  0
 21 36  1  0  0  0  0
M  CHG  1  14   1
M  END
> <s_m_source_file>
AV-unprocessed.smi

> <i_m_source_file_index>
304

> <i_lp_mmshare_version>
43012

> <i_f3d_flags>
0

> <s_epik_input>
W2NIXTFjKEYpYyhGKVtjSF1jKGMxMiluKFtjSF1uMilbQ0gyXVtDQEhdKFtPSF0pW0NIMl1PW0NIMl1jM1tjSF1bY0hdW2NIXXMz

> <s_epik_cmdline>
J2VwaWtfcHl0aG9uJywgJy1waCcsICc3LjAnLCAnLXRuJywgJzgnLCAnLW1hJywgJzIwMCcsICctbWV0YWxfYmluZGluZycsICctaW1hZScsICc8aW5maWxlLm1hZT4nLCAnLW9tYWUnLCAnPG91dGZpbGUubWFlPic=

> <r_epik_Ionization_Penalty>
2.17745

> <r_epik_Ionization_Penalty_Charging>
2.17744

> <r_epik_Ionization_Penalty_Neutral>
1.26231e-06

> <r_epik_State_Penalty>
2.31922

> <r_epik_Charging_Adjusted_Penalty>
4.49666

> <i_epik_Tot_Q>
1

> <i_epik_Tot_abs_Q>
1

> <r_epik_Metal_State_Penalty>
6.40003

> <b_epik_Metal_Only>
0

> <s_lp_Force_Field>
OPLS_2005

> <r_lp_Energy>
12.5781

> <b_lp_Chiralities_Consistent>
1

> <s_lp_Variant>
AV-unprocessed.smi:304-4

> <Gold.Version>
5.8.1

> <Gold.Id.Protein>
6NUR|6NUR_protein|mol2

> <Gold.PLP.Fitness>
62.2191

> <Gold.PLP.PLP>
-58.9302

> <Gold.PLP.part.hbond>
-2.0000

> <Gold.PLP.part.metal>
0.0000

> <Gold.PLP.part.buried>
-6.1624

> <Gold.PLP.part.nonpolar>
-51.4625

> <Gold.PLP.part.repulsive>
0.1538

> <Gold.PLP.ligand.clash>
0.0000

> <Gold.PLP.ligand.torsion>
1.4217

> <Gold.PLP.Chemscore.Hbond>
1.0000

> <Gold.PLP.Chemscore.CHOScore>
1.0000

> <Gold.PLP.Chemscore.Metal>
0.0000

> <Gold.Chemscore.Hbonds>
donor molecule, donor type, donor heavy atom, donor atom, acceptor molecule, acceptor atom, score
      L1  H     1    23       P1  8028  1.00
      L1  C     9    31       P1 10175  1.00

> <Gold.PLP.Chemscore.Internal.Correction>
0.1322

> <Gold.Rescore>
     Score         DG    S(hbond)    S(metal)    S(lipo)     H(rot)  DE(clash)    DE(int)     intcor
     14.60     -17.68       0.99        0.00     135.70       2.73       1.58       1.51       ----

> <Gold.Chemscore.Fitness>
14.5960

> <Gold.Chemscore.DG>
-17.6815

> <Gold.Chemscore.ZeroCoef>
-5.4800

> <Gold.Chemscore.Hbond>
0.9888

> <Gold.Chemscore.Metal>
0.0000

> <Gold.Chemscore.Lipo>
135.7002

> <Gold.Chemscore.Internal_Hbond>
0.0000

> <Gold.Chemscore.DEClash>
1.5804

> <Gold.Chemscore.DEInternal>
1.5051

> <Gold.Chemscore.Rot>
2.7258

> <Gold.Chemscore.Internal.Correction>
   9.000000E+99

> <Gold.Chemscore.Hbonds>
donor molecule, donor type, donor heavy atom, donor atom, acceptor molecule, acceptor atom, score
      L1  H     1    23       P1  8028  0.99

> <Gold.Chemscore.Hbond.Weighted>
-3.3027

> <Gold.Chemscore.Metal.Weighted>
-0.0000

> <Gold.Chemscore.Lipo.Weighted>
-15.8769

> <Gold.Chemscore.Internal_Hbond.Weighted>
0.0000

> <Gold.Chemscore.DEClash.Weighted>
1.5804

> <Gold.Chemscore.DEInternal.Weighted>
1.5051

> <Gold.Chemscore.Rot.Weighted>
6.9781

> <Gold.Chemscore.Internal.Correction.Weighted>
   9.000000E+99

> <Gold.Protein.RotatedTorsions>
[ 6907 6896 6895 6894 ] final -111.42 input  -60.11 | X-H torsion
[ 7974 7965 7964 7962 ] final   52.35 input  175.53 | X-H torsion
[ 8008 7997 7996 7995 ] final  172.94 input   59.86 | X-H torsion
[ 10167 10162 10161 10158 ] final -156.98 input  -65.29 | X-H torsion
[ 10718 10713 10712 10709 ] final  -44.42 input   66.30 | X-H torsion
[ 10763 10752 10751 10750 ] final  -39.05 input  -60.55 | X-H torsion
[ 11005 11000 10999 10996 ] final -110.18 input  -57.11 | X-H torsion

> <Gold.Protein.ActiveResidues>
 VAL166  LYS551  ARG553  GLY616  TRP617  ASP618  TYR619  PRO620  LYS621  CYS622 
 ASP623  PHE694  ASN695  SER759  ASP760  ASP761  ALA762  ILE779  LEU786  VAL792 
 PHE793  MET794  SER795  GLU796  ALA797  LYS798  CYS799  TRP800  GLU811  SER814 

> <Gold.Protein.RotatedAtoms>
  150.7689  133.9238  159.3405 H   0  0  0  0  0  0  0  0  0  0  0  0  # atno 6907 bound_to 6896
  151.7129  135.0907  160.0280 H   0  0  0  0  0  0  0  0  0  0  0  0  # atno 6908 bound_to 6896
  152.3698  133.6366  159.6114 H   0  0  0  0  0  0  0  0  0  0  0  0  # atno 6909 bound_to 6896
  145.9822  139.4253  143.0125 H   0  0  0  0  0  0  0  0  0  0  0  0  # atno 7974 bound_to 7965
  156.1125  140.1473  156.9319 H   0  0  0  0  0  0  0  0  0  0  0  0  # atno 8008 bound_to 7997
  154.4777  140.0889  156.7345 H   0  0  0  0  0  0  0  0  0  0  0  0  # atno 8009 bound_to 7997
  155.4572  140.3437  155.4310 H   0  0  0  0  0  0  0  0  0  0  0  0  # atno 8010 bound_to 7997
  139.6807  143.9587  152.2335 H   0  0  0  0  0  0  0  0  0  0  0  0  # atno 10167 bound_to 10162
  156.2388  130.4178  149.8786 H   0  0  0  0  0  0  0  0  0  0  0  0  # atno 10718 bound_to 10713
  153.9229  135.6780  153.4747 H   0  0  0  0  0  0  0  0  0  0  0  0  # atno 10763 bound_to 10752
  153.1019  135.4824  154.8879 H   0  0  0  0  0  0  0  0  0  0  0  0  # atno 10764 bound_to 10752
  154.7468  135.3174  154.8586 H   0  0  0  0  0  0  0  0  0  0  0  0  # atno 10765 bound_to 10752
  141.0806  133.9226  157.2296 H   0  0  0  0  0  0  0  0  0  0  0  0  # atno 11005 bound_to 11000
  145.7753  140.9879  143.1128 LP  0  0  0  0  0  0  0  0  0  0  0  0  # atno 17320 bound_to 7965
  144.6864  139.9498  143.7477 LP  0  0  0  0  0  0  0  0  0  0  0  0  # atno 17321 bound_to 7965
  139.9376  144.6702  150.8299 LP  0  0  0  0  0  0  0  0  0  0  0  0  # atno 17342 bound_to 10162
  140.7651  143.3266  151.2502 LP  0  0  0  0  0  0  0  0  0  0  0  0  # atno 17343 bound_to 10162
  156.6374  130.8691  151.3507 LP  0  0  0  0  0  0  0  0  0  0  0  0  # atno 17370 bound_to 10713
  157.7166  130.9505  150.1278 LP  0  0  0  0  0  0  0  0  0  0  0  0  # atno 17371 bound_to 10713
  139.9620  135.0152  156.9286 LP  0  0  0  0  0  0  0  0  0  0  0  0  # atno 17394 bound_to 11000
  140.5476  134.0658  155.7359 LP  0  0  0  0  0  0  0  0  0  0  0  0  # atno 17395 bound_to 11000

$$$$
