AV-unprocessed.smi:1626|AV-procd|sdf|6507|dock7
  -GOLD-   22720 7173D 1   1.00000     0.00000
 Structure written by MMmdl.
 48 50  0  0  0  0  0  0  0  0  2 V2000
  152.4442  143.6538  160.5401 C   0  0  0  0  0  0  0  0  0  0  0  0
  152.2552  142.6440  159.4217 C   0  0  0  0  0  0  0  0  0  0  0  0
  151.3399  142.9316  158.3843 C   0  0  0  0  0  0  0  0  0  0  0  0
  151.1364  142.0207  157.3251 C   0  0  0  0  0  0  0  0  0  0  0  0
  150.3028  142.0957  156.2224 N   0  0  0  0  0  0  0  0  0  0  0  0
  150.5660  140.9461  155.6081 C   0  0  0  0  0  0  0  0  0  0  0  0
  151.4679  140.1301  156.1873 N   0  0  0  0  0  0  0  0  0  0  0  0
  151.9147  138.8350  155.7068 C   0  0  0  0  0  0  0  0  0  0  0  0
  150.9962  138.2617  154.6104 C   0  0  1  0  0  0  0  0  0  0  0  0
  151.7108  137.3023  153.8551 O   0  0  0  0  0  0  0  0  0  0  0  0
  149.7482  137.5861  155.2117 C   0  0  0  0  0  0  0  0  0  0  0  0
  148.5583  137.6924  154.3285 N   0  3  2  0  0  0  0  0  0  0  0  0
  148.2105  139.0960  153.9772 C   0  0  0  0  0  0  0  0  0  0  0  0
  147.0540  139.1467  152.9645 C   0  0  0  0  0  0  0  0  0  0  0  0
  145.8243  138.4009  153.5020 C   0  0  1  0  0  0  0  0  0  0  0  0
  144.8112  138.3758  152.5195 O   0  0  0  0  0  0  0  0  0  0  0  0
  146.2128  136.9644  153.8793 C   0  0  0  0  0  0  0  0  0  0  0  0
  147.3866  136.9575  154.8727 C   0  0  0  0  0  0  0  0  0  0  0  0
  151.8795  140.8040  157.3318 C   0  0  0  0  0  0  0  0  0  0  0  0
  152.7937  140.5066  158.3577 C   0  0  0  0  0  0  0  0  0  0  0  0
  152.9848  141.4279  159.4088 C   0  0  0  0  0  0  0  0  0  0  0  0
  153.9738  141.0984  160.5129 C   0  0  0  0  0  0  0  0  0  0  0  0
  151.7793  144.5097  160.4202 H   0  0  0  0  0  0  0  0  0  0  0  0
  153.4693  144.0246  160.5493 H   0  0  0  0  0  0  0  0  0  0  0  0
  152.2309  143.1994  161.5078 H   0  0  0  0  0  0  0  0  0  0  0  0
  150.7852  143.8584  158.3930 H   0  0  0  0  0  0  0  0  0  0  0  0
  150.0711  140.6799  154.6852 H   0  0  0  0  0  0  0  0  0  0  0  0
  152.9368  138.9326  155.3378 H   0  0  0  0  0  0  0  0  0  0  0  0
  151.9545  138.1546  156.5585 H   0  0  0  0  0  0  0  0  0  0  0  0
  150.7071  139.0718  153.9417 H   0  0  0  0  0  0  0  0  0  0  0  0
  151.2504  137.1564  153.0419 H   0  0  0  0  0  0  0  0  0  0  0  0
  149.9819  136.5359  155.3943 H   0  0  0  0  0  0  0  0  0  0  0  0
  149.5106  138.0153  156.1864 H   0  0  0  0  0  0  0  0  0  0  0  0
  147.9371  139.6410  154.8823 H   0  0  0  0  0  0  0  0  0  0  0  0
  149.0729  139.6079  153.5522 H   0  0  0  0  0  0  0  0  0  0  0  0
  146.7986  140.1841  152.7456 H   0  0  0  0  0  0  0  0  0  0  0  0
  147.3782  138.7014  152.0226 H   0  0  0  0  0  0  0  0  0  0  0  0
  145.4353  138.9175  154.3804 H   0  0  0  0  0  0  0  0  0  0  0  0
  144.6038  139.2646  152.2732 H   0  0  0  0  0  0  0  0  0  0  0  0
  145.3572  136.4452  154.3130 H   0  0  0  0  0  0  0  0  0  0  0  0
  146.4927  136.4068  152.9842 H   0  0  0  0  0  0  0  0  0  0  0  0
  147.6653  135.9246  155.0846 H   0  0  0  0  0  0  0  0  0  0  0  0
  147.0821  137.4056  155.8199 H   0  0  0  0  0  0  0  0  0  0  0  0
  153.3440  139.5777  158.3355 H   0  0  0  0  0  0  0  0  0  0  0  0
  154.4634  140.1403  160.3367 H   0  0  0  0  0  0  0  0  0  0  0  0
  153.4657  141.0423  161.4758 H   0  0  0  0  0  0  0  0  0  0  0  0
  154.7481  141.8634  160.5733 H   0  0  0  0  0  0  0  0  0  0  0  0
  148.8070  137.2234  153.4685 H   0  0  0  0  0  0  0  0  0  0  0  0
  1  2  1  0  0  0  0
  1 23  1  0  0  0  0
  1 24  1  0  0  0  0
  1 25  1  0  0  0  0
  2 21  1  0  0  0  0
  2  3  2  0  0  0  0
  3  4  1  0  0  0  0
  3 26  1  0  0  0  0
  4 19  2  0  0  0  0
  4  5  1  0  0  0  0
  5  6  2  0  0  0  0
  6  7  1  0  0  0  0
  6 27  1  0  0  0  0
  7  8  1  0  0  0  0
  7 19  1  0  0  0  0
  8  9  1  0  0  0  0
  8 28  1  0  0  0  0
  8 29  1  0  0  0  0
  9 10  1  0  0  0  0
  9 11  1  0  0  0  0
  9 30  1  0  0  0  0
 10 31  1  0  0  0  0
 11 12  1  0  0  0  0
 11 32  1  0  0  0  0
 11 33  1  0  0  0  0
 12 18  1  0  0  0  0
 12 13  1  0  0  0  0
 12 48  1  0  0  0  0
 13 14  1  0  0  0  0
 13 34  1  0  0  0  0
 13 35  1  0  0  0  0
 14 15  1  0  0  0  0
 14 36  1  0  0  0  0
 14 37  1  0  0  0  0
 15 16  1  0  0  0  0
 15 17  1  0  0  0  0
 15 38  1  0  0  0  0
 16 39  1  0  0  0  0
 17 18  1  0  0  0  0
 17 40  1  0  0  0  0
 17 41  1  0  0  0  0
 18 42  1  0  0  0  0
 18 43  1  0  0  0  0
 19 20  1  0  0  0  0
 20 21  2  0  0  0  0
 20 44  1  0  0  0  0
 21 22  1  0  0  0  0
 22 45  1  0  0  0  0
 22 46  1  0  0  0  0
 22 47  1  0  0  0  0
M  CHG  1  12   1
M  END
> <s_m_source_file>
AV-unprocessed.smi

> <i_m_source_file_index>
1626

> <i_lp_mmshare_version>
43012

> <i_f3d_flags>
0

> <s_epik_input>
W0NIM11jKFtjSF0xKWMoW0NIM10pW2NIXWMoYzEyKW4oW2NIXW4yKVtDSDJdW0NASF0oW09IXSlbQ0gyXU4zW0NIMl1bQ0gyXVtDSF0oW09IXSlbQ0gyXVtDSDJdMw==

> <s_epik_cmdline>
J2VwaWtfcHl0aG9uJywgJy1waCcsICc3LjAnLCAnLXRuJywgJzgnLCAnLW1hJywgJzIwMCcsICctbWV0YWxfYmluZGluZycsICctaW1hZScsICc8aW5maWxlLm1hZT4nLCAnLW9tYWUnLCAnPG91dGZpbGUubWFlPic=

> <r_epik_Ionization_Penalty>
0.106584

> <r_epik_Ionization_Penalty_Charging>
0.0185694

> <r_epik_Ionization_Penalty_Neutral>
0.0880147

> <r_epik_State_Penalty>
0.0908428

> <r_epik_Charging_Adjusted_Penalty>
0.109412

> <i_epik_Tot_Q>
1

> <i_epik_Tot_abs_Q>
1

> <r_epik_Metal_State_Penalty>
0.0153739

> <b_epik_Metal_Only>
0

> <s_lp_Force_Field>
OPLS_2005

> <r_lp_Energy>
20.8081

> <b_lp_Chiralities_Consistent>
1

> <s_lp_Variant>
AV-unprocessed.smi:1626-2

> <Gold.Version>
5.8.1

> <Gold.Id.Protein>
6NUR|6NUR_protein|mol2

> <Gold.PLP.Fitness>
56.4215

> <Gold.PLP.PLP>
-43.0390

> <Gold.PLP.part.hbond>
-5.0000

> <Gold.PLP.part.metal>
0.0000

> <Gold.PLP.part.buried>
-4.5267

> <Gold.PLP.part.nonpolar>
-34.3668

> <Gold.PLP.part.repulsive>
0.5308

> <Gold.PLP.ligand.clash>
0.0000

> <Gold.PLP.ligand.torsion>
0.7932

> <Gold.PLP.Chemscore.Hbond>
4.9760

> <Gold.PLP.Chemscore.CHOScore>
0.0000

> <Gold.PLP.Chemscore.Metal>
0.0000

> <Gold.Chemscore.Hbonds>
donor molecule, donor type, donor heavy atom, donor atom, acceptor molecule, acceptor atom, score
      L1  H    10    31       P1  7949  0.86
      L1  H    12    48       P1  7948  2.00
      L1  H    16    39       P1 10175  0.91
      P1  H 10752 10765       L1    10  0.89

> <Gold.PLP.Chemscore.Internal.Correction>
0.0409

> <Gold.Rescore>
     Score         DG    S(hbond)    S(metal)    S(lipo)     H(rot)  DE(clash)    DE(int)     intcor
     21.97     -23.54       3.58        0.00     110.45       2.67       0.67       0.90       ----

> <Gold.Chemscore.Fitness>
21.9663

> <Gold.Chemscore.DG>
-23.5373

> <Gold.Chemscore.ZeroCoef>
-5.4800

> <Gold.Chemscore.Hbond>
3.5848

> <Gold.Chemscore.Metal>
0.0000

> <Gold.Chemscore.Lipo>
110.4488

> <Gold.Chemscore.Internal_Hbond>
0.0000

> <Gold.Chemscore.DEClash>
0.6701

> <Gold.Chemscore.DEInternal>
0.9009

> <Gold.Chemscore.Rot>
2.6712

> <Gold.Chemscore.Internal.Correction>
   9.000000E+99

> <Gold.Chemscore.Hbonds>
donor molecule, donor type, donor heavy atom, donor atom, acceptor molecule, acceptor atom, score
      L1  H    10    31       P1  7949  0.55
      L1  H    12    48       P1  7948  1.00
      L1  H    16    39       P1 10175  0.83
      P1  H 10752 10765       L1    10  0.56

> <Gold.Chemscore.Hbond.Weighted>
-11.9731

> <Gold.Chemscore.Metal.Weighted>
-0.0000

> <Gold.Chemscore.Lipo.Weighted>
-12.9225

> <Gold.Chemscore.Internal_Hbond.Weighted>
0.0000

> <Gold.Chemscore.DEClash.Weighted>
0.6701

> <Gold.Chemscore.DEInternal.Weighted>
0.9009

> <Gold.Chemscore.Rot.Weighted>
6.8383

> <Gold.Chemscore.Internal.Correction.Weighted>
   9.000000E+99

> <Gold.Protein.RotatedTorsions>
[ 6907 6896 6895 6894 ] final   47.65 input  -60.11 | X-H torsion
[ 7974 7965 7964 7962 ] final  -94.52 input  175.53 | X-H torsion
[ 8008 7997 7996 7995 ] final   65.47 input   59.86 | X-H torsion
[ 10167 10162 10161 10158 ] final   79.07 input  -65.29 | X-H torsion
[ 10718 10713 10712 10709 ] final   97.87 input   66.30 | X-H torsion
[ 10763 10752 10751 10750 ] final  156.36 input  -60.55 | X-H torsion
[ 11005 11000 10999 10996 ] final -110.07 input  -57.11 | X-H torsion

> <Gold.Protein.ActiveResidues>
 VAL166  LYS551  ARG553  GLY616  TRP617  ASP618  TYR619  PRO620  LYS621  CYS622 
 ASP623  PHE694  ASN695  SER759  ASP760  ASP761  ALA762  ILE779  LEU786  VAL792 
 PHE793  MET794  SER795  GLU796  ALA797  LYS798  CYS799  TRP800  GLU811  SER814 

> <Gold.Protein.RotatedAtoms>
  152.2705  134.7937  160.0414 H   0  0  0  0  0  0  0  0  0  0  0  0  # atno 6907 bound_to 6896
  151.8551  133.3442  159.3694 H   0  0  0  0  0  0  0  0  0  0  0  0  # atno 6908 bound_to 6896
  150.7150  134.5188  159.5688 H   0  0  0  0  0  0  0  0  0  0  0  0  # atno 6909 bound_to 6896
  145.3721  140.9507  143.2441 H   0  0  0  0  0  0  0  0  0  0  0  0  # atno 7974 bound_to 7965
  155.6623  140.3497  155.4787 H   0  0  0  0  0  0  0  0  0  0  0  0  # atno 8008 bound_to 7997
  155.9758  140.1164  157.0794 H   0  0  0  0  0  0  0  0  0  0  0  0  # atno 8009 bound_to 7997
  154.4178  140.1148  156.5354 H   0  0  0  0  0  0  0  0  0  0  0  0  # atno 8010 bound_to 7997
  139.9642  144.5940  150.8044 H   0  0  0  0  0  0  0  0  0  0  0  0  # atno 10167 bound_to 10162
  157.6905  131.0623  150.4710 H   0  0  0  0  0  0  0  0  0  0  0  0  # atno 10718 bound_to 10713
  154.1831  135.2798  155.3046 H   0  0  0  0  0  0  0  0  0  0  0  0  # atno 10763 bound_to 10752
  154.5987  135.5536  153.7355 H   0  0  0  0  0  0  0  0  0  0  0  0  # atno 10764 bound_to 10752
  153.0132  135.6386  154.1970 H   0  0  0  0  0  0  0  0  0  0  0  0  # atno 10765 bound_to 10752
  141.0812  133.9216  157.2283 H   0  0  0  0  0  0  0  0  0  0  0  0  # atno 11005 bound_to 11000
  144.8568  139.5237  143.6830 LP  0  0  0  0  0  0  0  0  0  0  0  0  # atno 17320 bound_to 7965
  146.2880  139.7059  142.9181 LP  0  0  0  0  0  0  0  0  0  0  0  0  # atno 17321 bound_to 7965
  140.7543  143.3025  151.3045 LP  0  0  0  0  0  0  0  0  0  0  0  0  # atno 17342 bound_to 10162
  139.6530  144.0327  152.2640 LP  0  0  0  0  0  0  0  0  0  0  0  0  # atno 17343 bound_to 10162
  156.5048  130.4125  149.6333 LP  0  0  0  0  0  0  0  0  0  0  0  0  # atno 17370 bound_to 10713
  156.3295  130.7323  151.2250 LP  0  0  0  0  0  0  0  0  0  0  0  0  # atno 17371 bound_to 10713
  139.9627  135.0150  156.9303 LP  0  0  0  0  0  0  0  0  0  0  0  0  # atno 17394 bound_to 11000
  140.5463  134.0671  155.7356 LP  0  0  0  0  0  0  0  0  0  0  0  0  # atno 17395 bound_to 11000

$$$$
