#       Name:                AV-unprocessed.smi:21
#       Creating user name   scv26
#       Creation time:       Thu Mar 26 15:38:51 2020


#       File generated by GOLD software.
#

@<TRIPOS>MOLECULE
AV-unprocessed.smi:21
    72    75     1
SMALL
NO_CHARGES


@<TRIPOS>ATOM
      1 ****        -3.9609  -1.0845   2.8270 C.3            1 S1                 0.0000
      2 ****        -4.3626  -1.7562   1.6438 O.3            1 S1                 0.0000
      3 ****        -4.6827  -0.8768   0.5742 C.3            1 S1                 0.0000
      4 ****        -3.4228  -0.2791  -0.0756 C.3            1 S1                 0.0000
      5 ****        -3.6210  -0.5293  -1.5745 C.3            1 S1                 0.0000
      6 ****        -2.2990  -0.5259  -2.3708 C.3            1 S1                 0.0000
      7 ****        -1.6297   0.7747  -2.3616 N.3            1 S1                 0.0000
      8 ****        -2.2461   1.8605  -3.1202 C.3            1 S1                 0.0000
      9 ****        -0.2727   0.7226  -2.3508 C.ar           1 S1                 0.0000
     10 ****         0.4316   1.2528  -3.3867 N.ar           1 S1                 0.0000
     11 ****         1.7663   1.1959  -3.3956 C.ar           1 S1                 0.0000
     12 ****         2.5848   0.6707  -2.4827 N.ar           1 S1                 0.0000
     13 ****         1.8879   0.1471  -1.4341 C.ar           1 S1                 0.0000
     14 ****         0.4711   0.1264  -1.2930 C.ar           1 S1                 0.0000
     15 ****         0.1270  -0.4904  -0.0972 N.2            1 S1                 0.0000
     16 ****         1.2710  -0.8239   0.4328 C.2            1 S1                 0.0000
     17 ****         2.3840  -0.4631  -0.2933 N.pl3          1 S1                 0.0000
     18 ****         3.7760  -0.7033   0.0623 C.3            1 S1                 0.0000
     19 ****         4.4075   0.3912   0.9667 C.3            1 S1                 0.0000
     20 ****         4.4100   1.7806   0.2867 C.3            1 S1                 0.0000
     21 ****         5.1984   1.7649  -0.8848 O.3            1 S1                 0.0000
     22 ****         3.7529   0.4501   2.3724 C.3            1 S1                 0.0000
     23 ****         4.4099   1.4130   3.3479 C.3            1 S1                 0.0000
     24 ****         3.9099   0.9122   4.6997 C.3            1 S1                 0.0000
     25 ****         3.6846  -0.4839   4.5404 O.3            1 S1                 0.0000
     26 ****         3.8606  -0.8499   3.1769 C.3            1 S1                 0.0000
     27 ****        -4.3543  -1.7827  -1.6258 N.3            1 S1                 0.0000
     28 ****        -4.9660  -2.0561  -2.9195 C.3            1 S1                 0.0000
     29 ****        -5.3413  -1.6643  -0.5667 C.3            1 S1                 0.0000
     30 ****        -5.3664  -0.0959   0.9116 H              1 S1                 0.0000
     31 ****        -4.2718   0.2571  -1.9592 H              1 S1                 0.0000
     32 ****        -3.7486  -1.8160   3.6063 H              1 S1                 0.0000
     33 ****        -4.7494  -0.4256   3.1927 H              1 S1                 0.0000
     34 ****        -3.0576  -0.4946   2.6688 H              1 S1                 0.0000
     35 ****        -3.2887   0.7774   0.1581 H              1 S1                 0.0000
     36 ****        -2.5402  -0.8147   0.2738 H              1 S1                 0.0000
     37 ****        -1.6460  -1.3129  -1.9926 H              1 S1                 0.0000
     38 ****        -2.4947  -0.7801  -3.4125 H              1 S1                 0.0000
     39 ****        -1.7219   2.8021  -2.9522 H              1 S1                 0.0000
     40 ****        -3.2820   2.0087  -2.8178 H              1 S1                 0.0000
     41 ****        -2.2320   1.6420  -4.1885 H              1 S1                 0.0000
     42 ****         2.2474   1.6328  -4.2582 H              1 S1                 0.0000
     43 ****         1.3293  -1.3409   1.3784 H              1 S1                 0.0000
     44 ****         3.8394  -1.6793   0.5434 H              1 S1                 0.0000
     45 ****         4.3498  -0.8005  -0.8600 H              1 S1                 0.0000
     46 ****         5.4510   0.1093   1.1167 H              1 S1                 0.0000
     47 ****         3.3990   2.1087   0.0453 H              1 S1                 0.0000
     48 ****         4.8376   2.5381   0.9425 H              1 S1                 0.0000
     49 ****         5.1615   2.6209  -1.2838 H              1 S1                 0.0000
     50 ****         2.7015   0.7264   2.2826 H              1 S1                 0.0000
     51 ****         5.4964   1.3244   3.2973 H              1 S1                 0.0000
     52 ****         4.1450   2.4561   3.1729 H              1 S1                 0.0000
     53 ****         4.6200   1.1115   5.5026 H              1 S1                 0.0000
     54 ****         2.9632   1.3882   4.9576 H              1 S1                 0.0000
     55 ****         3.1285  -1.6000   2.8801 H              1 S1                 0.0000
     56 ****         4.8526  -1.2901   3.0666 H              1 S1                 0.0000
     57 ****        -5.5481  -2.9773  -2.8808 H              1 S1                 0.0000
     58 ****        -4.2085  -2.1793  -3.6930 H              1 S1                 0.0000
     59 ****        -5.6320  -1.2466  -3.2212 H              1 S1                 0.0000
     60 ****        -5.7019  -2.6430  -0.2484 H              1 S1                 0.0000
     61 ****        -6.2045  -1.1012  -0.9254 H              1 S1                 0.0000
     62 ****        -5.1698  -2.3087   1.8518 LP             1 S1                 0.0000
     63 ****        -3.6165  -2.3536   1.3500 LP             1 S1                 0.0000
     64 ****        -1.8427   1.1025  -1.4412 LP             1 S1                 0.0000
     65 ****        -0.0525   1.6877  -4.1460 LP             1 S1                 0.0000
     66 ****         3.5819   0.6621  -2.5577 LP             1 S1                 0.0000
     67 ****        -0.7892  -0.6438   0.2730 LP             1 S1                 0.0000
     68 ****         4.8426   1.0807  -1.5214 LP             1 S1                 0.0000
     69 ****         6.1449   1.5425  -0.6512 LP             1 S1                 0.0000
     70 ****         2.7515  -0.7039   4.8250 LP             1 S1                 0.0000
     71 ****         4.3341  -0.9914   5.1065 LP             1 S1                 0.0000
     72 ****        -3.7413  -2.5624  -1.4985 LP             1 S1                 0.0000
@<TRIPOS>BOND
    1    1    2 1     
    2    1   32 1     
    3    1   33 1     
    4    1   34 1     
    5    2    3 1     
    6    3   30 1     
    7    3   29 1     
    8    3    4 1     
    9    4    5 1     
   10    4   35 1     
   11    4   36 1     
   12    5   31 1     
   13    5    6 1     
   14    5   27 1     
   15    6    7 1     
   16    6   37 1     
   17    6   38 1     
   18    7    8 1     
   19    7    9 1     
   20    8   39 1     
   21    8   40 1     
   22    8   41 1     
   23    9   14 ar    
   24    9   10 ar    
   25   10   11 ar    
   26   11   12 ar    
   27   11   42 1     
   28   12   13 ar    
   29   13   17 1     
   30   13   14 ar    
   31   14   15 1     
   32   15   16 2     
   33   16   17 1     
   34   16   43 1     
   35   17   18 1     
   36   18   19 1     
   37   18   44 1     
   38   18   45 1     
   39   19   20 1     
   40   19   22 1     
   41   19   46 1     
   42   20   21 1     
   43   20   47 1     
   44   20   48 1     
   45   21   49 1     
   46   22   26 1     
   47   22   23 1     
   48   22   50 1     
   49   23   24 1     
   50   23   51 1     
   51   23   52 1     
   52   24   25 1     
   53   24   53 1     
   54   24   54 1     
   55   25   26 1     
   56   26   55 1     
   57   26   56 1     
   58   27   28 1     
   59   27   29 1     
   60   28   57 1     
   61   28   58 1     
   62   28   59 1     
   63   29   60 1     
   64   29   61 1     
   65    2   62 1     
   66    2   63 1     
   67    7   64 1     
   68   10   65 1     
   69   12   66 1     
   70   15   67 1     
   71   21   68 1     
   72   21   69 1     
   73   25   70 1     
   74   25   71 1     
   75   27   72 1     
@<TRIPOS>SUBSTRUCTURE
      1 S1             1
@<TRIPOS>SET
LONE_PAIRS      STATIC     ATOMS    <user>   **** ""
11 62 63 64 65 66 67 68 69 70 71 72
DONOR_HYDROGENS      STATIC     ATOMS    <user>   **** ""
1 49
ATOM$BLUE        STATIC     ATOMS    COLORGROUP SYSTEM
11 62 63 64 65 66 67 68 69 70 71 72
ATOM$RED        STATIC     ATOMS    COLORGROUP SYSTEM
1 49
