AV-unprocessed.smi:1800|AV-procd|sdf|7264|dock7
  -GOLD-   22720 8513D 1   1.00000     0.00000
 Structure written by MMmdl.
 36 37  0  0  0  0  0  0  0  0  1 V2000
  153.7781  140.1028  159.8579 C   0  0  0  0  0  0  0  0  0  0  0  0
  152.6738  141.1591  159.6948 C   0  0  1  0  0  0  0  0  0  0  0  0
  153.1213  142.5872  160.0663 C   0  0  0  0  0  0  0  0  0  0  0  0
  152.1246  143.5882  159.7321 N   0  0  0  0  0  0  0  0  0  0  0  0
  151.4616  144.4483  160.5819 C   0  0  0  0  0  0  0  0  0  0  0  0
  150.6230  145.2083  159.8179 C   0  0  0  0  0  0  0  0  0  0  0  0
  150.8456  144.7316  158.4959 C   0  0  0  0  0  0  0  0  0  0  0  0
  151.7436  143.7609  158.4476 N   0  0  0  0  0  0  0  0  0  0  0  0
  152.1922  141.1414  158.3123 N   0  0  0  0  0  0  0  0  0  0  0  0
  151.8618  139.6190  157.5707 S   0  0  0  0  0  0  0  0  0  0  0  0
  153.1438  138.9058  157.4643 O   0  0  0  0  0  0  0  0  0  0  0  0
  150.7405  139.0084  158.3017 O   0  0  0  0  0  0  0  0  0  0  0  0
  151.2977  140.1267  155.8791 C   0  0  0  0  0  0  0  0  0  0  0  0
  150.0499  141.0190  155.8977 C   0  0  0  0  0  0  0  0  0  0  0  0
  149.4001  140.7718  154.5394 C   0  0  0  0  0  0  0  0  0  0  0  0
  149.6123  139.2779  154.2927 C   0  0  0  0  0  0  0  0  0  0  0  0
  150.9274  138.9185  154.9996 C   0  0  0  0  0  0  0  0  0  0  0  0
  154.1050  140.0240  160.8949 H   0  0  0  0  0  0  0  0  0  0  0  0
  154.6513  140.3455  159.2513 H   0  0  0  0  0  0  0  0  0  0  0  0
  153.4250  139.1166  159.5553 H   0  0  0  0  0  0  0  0  0  0  0  0
  151.8467  140.8718  160.3460 H   0  0  0  0  0  0  0  0  0  0  0  0
  153.3443  142.6498  161.1329 H   0  0  0  0  0  0  0  0  0  0  0  0
  154.0424  142.8461  159.5431 H   0  0  0  0  0  0  0  0  0  0  0  0
  151.6422  144.4484  161.6467 H   0  0  0  0  0  0  0  0  0  0  0  0
  149.9530  145.9862  160.1524 H   0  0  0  0  0  0  0  0  0  0  0  0
  150.3844  145.0601  157.5762 H   0  0  0  0  0  0  0  0  0  0  0  0
  152.7786  141.7213  157.7126 H   0  0  0  0  0  0  0  0  0  0  0  0
  152.1187  140.6594  155.3980 H   0  0  0  0  0  0  0  0  0  0  0  0
  149.3544  140.7073  156.6767 H   0  0  0  0  0  0  0  0  0  0  0  0
  150.2902  142.0692  156.0657 H   0  0  0  0  0  0  0  0  0  0  0  0
  148.3473  141.0552  154.5187 H   0  0  0  0  0  0  0  0  0  0  0  0
  149.9173  141.3507  153.7732 H   0  0  0  0  0  0  0  0  0  0  0  0
  148.7927  138.7155  154.7419 H   0  0  0  0  0  0  0  0  0  0  0  0
  149.6316  139.0348  153.2299 H   0  0  0  0  0  0  0  0  0  0  0  0
  151.7203  138.7173  154.2786 H   0  0  0  0  0  0  0  0  0  0  0  0
  150.7901  138.0116  155.5889 H   0  0  0  0  0  0  0  0  0  0  0  0
  1  2  1  0  0  0  0
  1 18  1  0  0  0  0
  1 19  1  0  0  0  0
  1 20  1  0  0  0  0
  2  3  1  0  0  0  0
  2  9  1  0  0  0  0
  2 21  1  0  0  0  0
  3  4  1  0  0  0  0
  3 22  1  0  0  0  0
  3 23  1  0  0  0  0
  4  8  1  0  0  0  0
  4  5  1  0  0  0  0
  5  6  2  0  0  0  0
  5 24  1  0  0  0  0
  6  7  1  0  0  0  0
  6 25  1  0  0  0  0
  7  8  2  0  0  0  0
  7 26  1  0  0  0  0
  9 10  1  0  0  0  0
  9 27  1  0  0  0  0
 10 11  2  0  0  0  0
 10 12  2  0  0  0  0
 10 13  1  0  0  0  0
 13 17  1  0  0  0  0
 13 14  1  0  0  0  0
 13 28  1  0  0  0  0
 14 15  1  0  0  0  0
 14 29  1  0  0  0  0
 14 30  1  0  0  0  0
 15 16  1  0  0  0  0
 15 31  1  0  0  0  0
 15 32  1  0  0  0  0
 16 17  1  0  0  0  0
 16 33  1  0  0  0  0
 16 34  1  0  0  0  0
 17 35  1  0  0  0  0
 17 36  1  0  0  0  0
M  END
> <s_m_source_file>
AV-unprocessed.smi

> <i_m_source_file_index>
1800

> <i_lp_mmshare_version>
43012

> <i_f3d_flags>
0

> <s_epik_input>
bjFbY0hdW2NIXVtjSF1uMVtDSDJdW0NAQEhdKFtDSDNdKVtOSF1TKD1PKSg9TylbQ0hdMltDSDJdW0NIMl1bQ0gyXVtDSDJdMg==

> <s_epik_cmdline>
J2VwaWtfcHl0aG9uJywgJy1waCcsICc3LjAnLCAnLXRuJywgJzgnLCAnLW1hJywgJzIwMCcsICctbWV0YWxfYmluZGluZycsICctaW1hZScsICc8aW5maWxlLm1hZT4nLCAnLW9tYWUnLCAnPG91dGZpbGUubWFlPic=

> <r_lp_tautomer_probability>
1

> <r_epik_Ionization_Penalty>
1.44925e-05

> <r_epik_Ionization_Penalty_Charging>
0

> <r_epik_Ionization_Penalty_Neutral>
1.44925e-05

> <r_epik_State_Penalty>
-0

> <r_epik_Charging_Adjusted_Penalty>
0

> <i_epik_Tot_Q>
0

> <i_epik_Tot_abs_Q>
0

> <r_epik_Metal_State_Penalty>
0.00862991

> <b_epik_Metal_Only>
0

> <s_lp_Force_Field>
OPLS_2005

> <r_lp_Energy>
17.3369

> <b_lp_Chiralities_Consistent>
1

> <s_lp_Variant>
AV-unprocessed.smi:1800-2

> <Gold.Version>
5.8.1

> <Gold.Id.Protein>
6NUR|6NUR_protein|mol2

> <Gold.PLP.Fitness>
46.5591

> <Gold.PLP.PLP>
-40.7770

> <Gold.PLP.part.hbond>
-1.0000

> <Gold.PLP.part.metal>
0.0000

> <Gold.PLP.part.buried>
-3.9552

> <Gold.PLP.part.nonpolar>
-36.5720

> <Gold.PLP.part.repulsive>
0.0412

> <Gold.PLP.ligand.clash>
0.0000

> <Gold.PLP.ligand.torsion>
0.2307

> <Gold.PLP.Chemscore.Hbond>
1.0000

> <Gold.PLP.Chemscore.CHOScore>
0.9979

> <Gold.PLP.Chemscore.Metal>
0.0000

> <Gold.Chemscore.Hbonds>
donor molecule, donor type, donor heavy atom, donor atom, acceptor molecule, acceptor atom, score
      P1  H  7997  8009       L1    11  1.00
      L1  C     7    26       P1  8028  0.71
      L1  C     7    26       P1  8029  0.15

> <Gold.PLP.Chemscore.Internal.Correction>
0.2496

> <Gold.Rescore>
     Score         DG    S(hbond)    S(metal)    S(lipo)     H(rot)  DE(clash)    DE(int)     intcor
     12.83     -14.54       0.82        0.00      92.54       1.76       0.08       1.63       ----

> <Gold.Chemscore.Fitness>
12.8340

> <Gold.Chemscore.DG>
-14.5381

> <Gold.Chemscore.ZeroCoef>
-5.4800

> <Gold.Chemscore.Hbond>
0.8181

> <Gold.Chemscore.Metal>
0.0000

> <Gold.Chemscore.Lipo>
92.5430

> <Gold.Chemscore.Internal_Hbond>
0.0000

> <Gold.Chemscore.DEClash>
0.0777

> <Gold.Chemscore.DEInternal>
1.6265

> <Gold.Chemscore.Rot>
1.7585

> <Gold.Chemscore.Internal.Correction>
   9.000000E+99

> <Gold.Chemscore.Hbonds>
donor molecule, donor type, donor heavy atom, donor atom, acceptor molecule, acceptor atom, score
      P1  H  7997  8009       L1    11  0.88

> <Gold.Chemscore.Hbond.Weighted>
-2.7325

> <Gold.Chemscore.Metal.Weighted>
-0.0000

> <Gold.Chemscore.Lipo.Weighted>
-10.8275

> <Gold.Chemscore.Internal_Hbond.Weighted>
0.0000

> <Gold.Chemscore.DEClash.Weighted>
0.0777

> <Gold.Chemscore.DEInternal.Weighted>
1.6265

> <Gold.Chemscore.Rot.Weighted>
4.5019

> <Gold.Chemscore.Internal.Correction.Weighted>
   9.000000E+99

> <Gold.Protein.RotatedTorsions>
[ 6907 6896 6895 6894 ] final  -23.99 input  -60.11 | X-H torsion
[ 7974 7965 7964 7962 ] final  104.04 input  175.53 | X-H torsion
[ 8008 7997 7996 7995 ] final  148.93 input   59.86 | X-H torsion
[ 10167 10162 10161 10158 ] final   46.00 input  -65.29 | X-H torsion
[ 10718 10713 10712 10709 ] final -120.16 input   66.30 | X-H torsion
[ 10763 10752 10751 10750 ] final  -17.53 input  -60.55 | X-H torsion
[ 11005 11000 10999 10996 ] final  170.89 input  -57.11 | X-H torsion

> <Gold.Protein.ActiveResidues>
 VAL166  LYS551  ARG553  GLY616  TRP617  ASP618  TYR619  PRO620  LYS621  CYS622 
 ASP623  PHE694  ASN695  SER759  ASP760  ASP761  ALA762  ILE779  LEU786  VAL792 
 PHE793  MET794  SER795  GLU796  ALA797  LYS798  CYS799  TRP800  GLU811  SER814 

> <Gold.Protein.RotatedAtoms>
  151.1959  135.0422  159.8851 H   0  0  0  0  0  0  0  0  0  0  0  0  # atno 6907 bound_to 6896
  152.5436  134.0904  159.8284 H   0  0  0  0  0  0  0  0  0  0  0  0  # atno 6908 bound_to 6896
  151.1038  133.5176  159.2641 H   0  0  0  0  0  0  0  0  0  0  0  0  # atno 6909 bound_to 6896
  145.3380  139.2469  143.3625 H   0  0  0  0  0  0  0  0  0  0  0  0  # atno 7974 bound_to 7965
  156.2773  140.2115  156.5777 H   0  0  0  0  0  0  0  0  0  0  0  0  # atno 8008 bound_to 7997
  154.7084  140.0514  157.0549 H   0  0  0  0  0  0  0  0  0  0  0  0  # atno 8009 bound_to 7997
  155.0639  140.3169  155.4655 H   0  0  0  0  0  0  0  0  0  0  0  0  # atno 8010 bound_to 7997
  140.3184  144.2735  150.6187 H   0  0  0  0  0  0  0  0  0  0  0  0  # atno 10167 bound_to 10162
  156.1236  130.6342  150.9506 H   0  0  0  0  0  0  0  0  0  0  0  0  # atno 10718 bound_to 10713
  153.5753  135.7006  153.5486 H   0  0  0  0  0  0  0  0  0  0  0  0  # atno 10763 bound_to 10752
  153.3308  135.4048  155.1493 H   0  0  0  0  0  0  0  0  0  0  0  0  # atno 10764 bound_to 10752
  154.8626  135.3718  154.5278 H   0  0  0  0  0  0  0  0  0  0  0  0  # atno 10765 bound_to 10752
  140.3131  134.7500  157.4007 H   0  0  0  0  0  0  0  0  0  0  0  0  # atno 11005 bound_to 11000
  146.3019  140.3971  142.8701 LP  0  0  0  0  0  0  0  0  0  0  0  0  # atno 17320 bound_to 7965
  144.8812  140.7403  143.5985 LP  0  0  0  0  0  0  0  0  0  0  0  0  # atno 17321 bound_to 7965
  140.5505  143.2207  151.7934 LP  0  0  0  0  0  0  0  0  0  0  0  0  # atno 17342 bound_to 10162
  139.4879  144.4482  151.9685 LP  0  0  0  0  0  0  0  0  0  0  0  0  # atno 17343 bound_to 10162
  157.6419  131.0909  150.8233 LP  0  0  0  0  0  0  0  0  0  0  0  0  # atno 17370 bound_to 10713
  156.8327  130.5021  149.5330 LP  0  0  0  0  0  0  0  0  0  0  0  0  # atno 17371 bound_to 10713
  140.1007  134.5477  155.8356 LP  0  0  0  0  0  0  0  0  0  0  0  0  # atno 17394 bound_to 11000
  141.2103  133.6694  156.6503 LP  0  0  0  0  0  0  0  0  0  0  0  0  # atno 17395 bound_to 11000

$$$$
