AV-unprocessed.smi:2772|AV-procd|sdf|10666|dock8
  -GOLD-   2272015113D 1   1.00000     0.00000
 Structure written by MMmdl.
 55 57  0  0  0  0  0  0  0  0  3 V2000
  151.3100  145.4501  159.8725 C   0  0  0  0  0  0  0  0  0  0  0  0
  151.9453  144.1227  160.2308 C   0  0  0  0  0  0  0  0  0  0  0  0
  152.0769  143.7201  161.5757 C   0  0  0  0  0  0  0  0  0  0  0  0
  152.6711  142.4726  161.8467 C   0  0  0  0  0  0  0  0  0  0  0  0
  153.1215  141.6777  160.7727 C   0  0  0  0  0  0  0  0  0  0  0  0
  153.6932  140.4105  161.0678 N   0  0  0  0  0  0  0  0  0  0  0  0
  154.1817  139.5010  160.2070 C   0  0  0  0  0  0  0  0  0  0  0  0
  154.2924  139.6648  158.9922 O   0  0  0  0  0  0  0  0  0  0  0  0
  154.5639  138.3837  160.8434 N   0  0  0  0  0  0  0  0  0  0  0  0
  155.1445  137.2025  160.2082 C   0  0  2  0  0  0  0  0  0  0  0  0
  154.2745  136.7451  159.0342 C   0  0  0  0  0  0  0  0  0  0  0  0
  154.8425  135.4701  158.3886 C   0  0  0  0  0  0  0  0  0  0  0  0
  154.9941  134.3501  159.3665 N   0  3  1  0  0  0  0  0  0  0  0  0
  155.4920  133.0764  158.7383 C   0  0  2  0  0  0  0  0  0  0  0  0
  154.7624  132.6946  157.4254 C   0  0  0  0  0  0  0  0  0  0  0  0
  153.2969  132.2947  157.6782 C   0  0  0  0  0  0  0  0  0  0  0  0
  153.2131  131.1574  158.6287 N   0  3  2  0  0  0  0  0  0  0  0  0
  151.8247  130.6909  158.8321 C   0  0  0  0  0  0  0  0  0  0  0  0
  153.9107  131.4390  159.9084 C   0  0  0  0  0  0  0  0  0  0  0  0
  155.3777  131.8365  159.6606 C   0  0  0  0  0  0  0  0  0  0  0  0
  155.8091  134.7838  160.5419 C   0  0  0  0  0  0  0  0  0  0  0  0
  155.2521  136.0510  161.2118 C   0  0  0  0  0  0  0  0  0  0  0  0
  152.9316  142.1735  159.4591 C   0  0  0  0  0  0  0  0  0  0  0  0
  152.3603  143.3674  159.1913 N   0  0  0  0  0  0  0  0  0  0  0  0
  150.9833  145.9863  160.7638 H   0  0  0  0  0  0  0  0  0  0  0  0
  150.4411  145.2934  159.2327 H   0  0  0  0  0  0  0  0  0  0  0  0
  152.0222  146.0794  159.3382 H   0  0  0  0  0  0  0  0  0  0  0  0
  151.7286  144.3480  162.3825 H   0  0  0  0  0  0  0  0  0  0  0  0
  152.7807  142.1354  162.8671 H   0  0  0  0  0  0  0  0  0  0  0  0
  153.7665  140.1855  162.0492 H   0  0  0  0  0  0  0  0  0  0  0  0
  154.4379  138.3473  161.8446 H   0  0  0  0  0  0  0  0  0  0  0  0
  156.1428  137.4259  159.8269 H   0  0  0  0  0  0  0  0  0  0  0  0
  153.2540  136.5588  159.3730 H   0  0  0  0  0  0  0  0  0  0  0  0
  154.2124  137.5370  158.2867 H   0  0  0  0  0  0  0  0  0  0  0  0
  154.1559  135.2018  157.5893 H   0  0  0  0  0  0  0  0  0  0  0  0
  155.8077  135.6824  157.9257 H   0  0  0  0  0  0  0  0  0  0  0  0
  156.5471  133.2298  158.5059 H   0  0  0  0  0  0  0  0  0  0  0  0
  154.8285  133.4694  156.6642 H   0  0  0  0  0  0  0  0  0  0  0  0
  155.2756  131.8417  156.9782 H   0  0  0  0  0  0  0  0  0  0  0  0
  152.7319  133.1439  158.0660 H   0  0  0  0  0  0  0  0  0  0  0  0
  152.8305  132.0094  156.7344 H   0  0  0  0  0  0  0  0  0  0  0  0
  151.2154  131.4645  159.3011 H   0  0  0  0  0  0  0  0  0  0  0  0
  151.8058  129.8063  159.4695 H   0  0  0  0  0  0  0  0  0  0  0  0
  151.3652  130.4227  157.8802 H   0  0  0  0  0  0  0  0  0  0  0  0
  153.3882  132.2300  160.4488 H   0  0  0  0  0  0  0  0  0  0  0  0
  153.8770  130.5498  160.5393 H   0  0  0  0  0  0  0  0  0  0  0  0
  155.8811  130.9970  159.1786 H   0  0  0  0  0  0  0  0  0  0  0  0
  155.9107  131.9581  160.6013 H   0  0  0  0  0  0  0  0  0  0  0  0
  155.8283  134.0148  161.3104 H   0  0  0  0  0  0  0  0  0  0  0  0
  156.8411  134.9494  160.2281 H   0  0  0  0  0  0  0  0  0  0  0  0
  155.8975  136.3399  162.0426 H   0  0  0  0  0  0  0  0  0  0  0  0
  154.2726  135.8353  161.6420 H   0  0  0  0  0  0  0  0  0  0  0  0
  153.2148  141.6034  158.5881 H   0  0  0  0  0  0  0  0  0  0  0  0
  154.0680  134.1578  159.7202 H   0  0  0  0  0  0  0  0  0  0  0  0
  153.7077  130.3889  158.1975 H   0  0  0  0  0  0  0  0  0  0  0  0
  1  2  1  0  0  0  0
  1 25  1  0  0  0  0
  1 26  1  0  0  0  0
  1 27  1  0  0  0  0
  2 24  1  0  0  0  0
  2  3  2  0  0  0  0
  3  4  1  0  0  0  0
  3 28  1  0  0  0  0
  4  5  2  0  0  0  0
  4 29  1  0  0  0  0
  5  6  1  0  0  0  0
  5 23  1  0  0  0  0
  6  7  1  0  0  0  0
  6 30  1  0  0  0  0
  7  8  2  0  0  0  0
  7  9  1  0  0  0  0
  9 10  1  0  0  0  0
  9 31  1  0  0  0  0
 10 22  1  0  0  0  0
 10 11  1  0  0  0  0
 10 32  1  0  0  0  0
 11 12  1  0  0  0  0
 11 33  1  0  0  0  0
 11 34  1  0  0  0  0
 12 13  1  0  0  0  0
 12 35  1  0  0  0  0
 12 36  1  0  0  0  0
 13 14  1  0  0  0  0
 13 21  1  0  0  0  0
 13 54  1  0  0  0  0
 14 20  1  0  0  0  0
 14 15  1  0  0  0  0
 14 37  1  0  0  0  0
 15 16  1  0  0  0  0
 15 38  1  0  0  0  0
 15 39  1  0  0  0  0
 16 17  1  0  0  0  0
 16 40  1  0  0  0  0
 16 41  1  0  0  0  0
 17 18  1  0  0  0  0
 17 19  1  0  0  0  0
 17 55  1  0  0  0  0
 18 42  1  0  0  0  0
 18 43  1  0  0  0  0
 18 44  1  0  0  0  0
 19 20  1  0  0  0  0
 19 45  1  0  0  0  0
 19 46  1  0  0  0  0
 20 47  1  0  0  0  0
 20 48  1  0  0  0  0
 21 22  1  0  0  0  0
 21 49  1  0  0  0  0
 21 50  1  0  0  0  0
 22 51  1  0  0  0  0
 22 52  1  0  0  0  0
 23 24  2  0  0  0  0
 23 53  1  0  0  0  0
M  CHG  1  13   1
M  CHG  1  17   1
M  END
> <s_m_source_file>
AV-unprocessed.smi

> <i_m_source_file_index>
2772

> <i_lp_mmshare_version>
43012

> <i_f3d_flags>
0

> <s_epik_input>
W0NIM11jMVtjSF1bY0hdYyhbY0hdbjEpW05IXUMoPU8pW05IXVtDSF0yW0NIMl1bQ0gyXU4oW0NIMl1bQ0gyXTIpW0NIXTNbQ0gyXVtDSDJdTihbQ0gzXSlbQ0gyXVtDSDJdMw==

> <s_epik_cmdline>
J2VwaWtfcHl0aG9uJywgJy1waCcsICc3LjAnLCAnLXRuJywgJzgnLCAnLW1hJywgJzIwMCcsICctbWV0YWxfYmluZGluZycsICctaW1hZScsICc8aW5maWxlLm1hZT4nLCAnLW9tYWUnLCAnPG91dGZpbGUubWFlPic=

> <r_epik_Ionization_Penalty>
0.196786

> <r_epik_Ionization_Penalty_Charging>
0.180787

> <r_epik_Ionization_Penalty_Neutral>
0.0159988

> <r_epik_State_Penalty>
0.163322

> <r_epik_Charging_Adjusted_Penalty>
0.344109

> <i_epik_Tot_Q>
2

> <i_epik_Tot_abs_Q>
2

> <r_epik_Metal_State_Penalty>
0.163596

> <b_epik_Metal_Only>
0

> <s_lp_Force_Field>
OPLS_2005

> <r_lp_Energy>
49.2909

> <b_lp_Chiralities_Consistent>
1

> <s_lp_Variant>
AV-unprocessed.smi:2772-3

> <Gold.Version>
5.8.1

> <Gold.Id.Protein>
6NUR|6NUR_protein|mol2

> <Gold.PLP.Fitness>
39.3857

> <Gold.PLP.PLP>
-36.7048

> <Gold.PLP.part.hbond>
-1.0000

> <Gold.PLP.part.metal>
0.0000

> <Gold.PLP.part.buried>
-6.2460

> <Gold.PLP.part.nonpolar>
-29.9116

> <Gold.PLP.part.repulsive>
0.2007

> <Gold.PLP.ligand.clash>
0.0000

> <Gold.PLP.ligand.torsion>
0.1736

> <Gold.PLP.Chemscore.Hbond>
1.0000

> <Gold.PLP.Chemscore.CHOScore>
0.0000

> <Gold.PLP.Chemscore.Metal>
0.0000

> <Gold.Chemscore.Hbonds>
donor molecule, donor type, donor heavy atom, donor atom, acceptor molecule, acceptor atom, score
      P1  H  7997  8008       L1     8  1.00

> <Gold.PLP.Chemscore.Internal.Correction>
0.0281

> <Gold.Rescore>
     Score         DG    S(hbond)    S(metal)    S(lipo)     H(rot)  DE(clash)    DE(int)     intcor
     15.24     -17.94       1.00        0.00     104.45       1.21       0.02       2.67       ----

> <Gold.Chemscore.Fitness>
15.2440

> <Gold.Chemscore.DG>
-17.9383

> <Gold.Chemscore.ZeroCoef>
-5.4800

> <Gold.Chemscore.Hbond>
0.9978

> <Gold.Chemscore.Metal>
0.0000

> <Gold.Chemscore.Lipo>
104.4530

> <Gold.Chemscore.Internal_Hbond>
0.0000

> <Gold.Chemscore.DEClash>
0.0208

> <Gold.Chemscore.DEInternal>
2.6735

> <Gold.Chemscore.Rot>
1.2092

> <Gold.Chemscore.Internal.Correction>
   9.000000E+99

> <Gold.Chemscore.Hbonds>
donor molecule, donor type, donor heavy atom, donor atom, acceptor molecule, acceptor atom, score
      P1  H  7997  8008       L1     8  0.99

> <Gold.Chemscore.Hbond.Weighted>
-3.3327

> <Gold.Chemscore.Metal.Weighted>
-0.0000

> <Gold.Chemscore.Lipo.Weighted>
-12.2210

> <Gold.Chemscore.Internal_Hbond.Weighted>
0.0000

> <Gold.Chemscore.DEClash.Weighted>
0.0208

> <Gold.Chemscore.DEInternal.Weighted>
2.6735

> <Gold.Chemscore.Rot.Weighted>
3.0955

> <Gold.Chemscore.Internal.Correction.Weighted>
   9.000000E+99

> <Gold.Protein.RotatedTorsions>
[ 6907 6896 6895 6894 ] final  159.27 input  -60.11 | X-H torsion
[ 7974 7965 7964 7962 ] final -135.51 input  175.53 | X-H torsion
[ 8008 7997 7996 7995 ] final -120.16 input   59.86 | X-H torsion
[ 10167 10162 10161 10158 ] final -140.59 input  -65.29 | X-H torsion
[ 10718 10713 10712 10709 ] final  112.64 input   66.30 | X-H torsion
[ 10763 10752 10751 10750 ] final  119.82 input  -60.55 | X-H torsion
[ 11005 11000 10999 10996 ] final  117.22 input  -57.11 | X-H torsion

> <Gold.Protein.ActiveResidues>
 VAL166  LYS551  ARG553  GLY616  TRP617  ASP618  TYR619  PRO620  LYS621  CYS622 
 ASP623  PHE694  ASN695  SER759  ASP760  ASP761  ALA762  ILE779  LEU786  VAL792 
 PHE793  MET794  SER795  GLU796  ALA797  LYS798  CYS799  TRP800  GLU811  SER814 

> <Gold.Protein.RotatedAtoms>
  151.9881  133.3781  159.4133 H   0  0  0  0  0  0  0  0  0  0  0  0  # atno 6907 bound_to 6896
  150.6925  134.3967  159.5109 H   0  0  0  0  0  0  0  0  0  0  0  0  # atno 6908 bound_to 6896
  152.1696  134.8845  160.0586 H   0  0  0  0  0  0  0  0  0  0  0  0  # atno 6909 bound_to 6896
  144.9007  140.6768  143.5086 H   0  0  0  0  0  0  0  0  0  0  0  0  # atno 7974 bound_to 7965
  155.1274  140.0399  157.2766 H   0  0  0  0  0  0  0  0  0  0  0  0  # atno 8008 bound_to 7997
  154.6568  140.2582  155.7126 H   0  0  0  0  0  0  0  0  0  0  0  0  # atno 8009 bound_to 7997
  156.2602  140.2825  156.1024 H   0  0  0  0  0  0  0  0  0  0  0  0  # atno 8010 bound_to 7997
  139.8267  143.7501  152.2666 H   0  0  0  0  0  0  0  0  0  0  0  0  # atno 10167 bound_to 10162
  157.6382  131.0971  150.6925 H   0  0  0  0  0  0  0  0  0  0  0  0  # atno 10718 bound_to 10713
  153.5889  135.3469  155.2903 H   0  0  0  0  0  0  0  0  0  0  0  0  # atno 10763 bound_to 10752
  154.8656  135.4200  154.2538 H   0  0  0  0  0  0  0  0  0  0  0  0  # atno 10764 bound_to 10752
  153.3341  135.7046  153.6993 H   0  0  0  0  0  0  0  0  0  0  0  0  # atno 10765 bound_to 10752
  139.9067  134.9607  156.7318 H   0  0  0  0  0  0  0  0  0  0  0  0  # atno 11005 bound_to 11000
  145.3621  139.1679  143.4378 LP  0  0  0  0  0  0  0  0  0  0  0  0  # atno 17320 bound_to 7965
  146.3107  140.3684  142.8671 LP  0  0  0  0  0  0  0  0  0  0  0  0  # atno 17321 bound_to 7965
  139.7696  144.7481  151.0244 LP  0  0  0  0  0  0  0  0  0  0  0  0  # atno 17342 bound_to 10162
  140.7809  143.4659  151.0212 LP  0  0  0  0  0  0  0  0  0  0  0  0  # atno 17343 bound_to 10162
  156.7253  130.4693  149.5513 LP  0  0  0  0  0  0  0  0  0  0  0  0  # atno 17370 bound_to 10713
  156.1638  130.6392  151.0753 LP  0  0  0  0  0  0  0  0  0  0  0  0  # atno 17371 bound_to 10713
  140.6919  133.9382  155.7971 LP  0  0  0  0  0  0  0  0  0  0  0  0  # atno 17394 bound_to 11000
  141.0435  134.0587  157.3873 LP  0  0  0  0  0  0  0  0  0  0  0  0  # atno 17395 bound_to 11000

$$$$
