#       Name:                AV-unprocessed.smi:210
#       Creating user name   scv26
#       Creation time:       Thu Mar 26 19:53:19 2020


#       File generated by GOLD software.
#

@<TRIPOS>MOLECULE
AV-unprocessed.smi:210
    67    71     1
SMALL
NO_CHARGES


@<TRIPOS>ATOM
      1 ****        -4.9128  -4.3401   1.6401 C.3            1 S1                 0.0000
      2 ****        -3.8502  -3.4380   1.8991 O.3            1 S1                 0.0000
      3 ****        -3.5693  -2.5900   0.7937 C.3            1 S1                 0.0000
      4 ****        -2.1479  -2.0244   0.9042 C.3            1 S1                 0.0000
      5 ****        -2.7423  -0.8447   1.6912 C.3            1 S1                 0.0000
      6 ****        -2.1488   0.4566   1.3803 N.3            1 S1                 0.0000
      7 ****        -2.7702   1.6131   2.0150 C.3            1 S1                 0.0000
      8 ****        -0.8049   0.4835   1.5198 C.ar           1 S1                 0.0000
      9 ****        -0.2455   0.3066   2.7458 N.ar           1 S1                 0.0000
     10 ****         1.0843   0.3286   2.8788 C.ar           1 S1                 0.0000
     11 ****         2.0152   0.5059   1.9379 N.ar           1 S1                 0.0000
     12 ****         1.4526   0.6808   0.7068 C.ar           1 S1                 0.0000
     13 ****         0.0604   0.6853   0.4138 C.ar           1 S1                 0.0000
     14 ****        -0.1438   0.8919  -0.9437 N.2            1 S1                 0.0000
     15 ****         1.0627   1.0063  -1.4282 C.2            1 S1                 0.0000
     16 ****         2.0826   0.8872  -0.5092 N.pl3          1 S1                 0.0000
     17 ****         3.4908   0.9833  -0.7713 C.3            1 S1                 0.0000
     18 ****         4.0861   2.2517  -1.3831 C.3            1 S1                 0.0000
     19 ****         5.1437   1.3948  -2.1145 C.3            1 S1                 0.0000
     20 ****         5.4289   1.8105  -3.5673 C.3            1 S1                 0.0000
     21 ****         5.9931   3.1047  -3.6291 O.3            1 S1                 0.0000
     22 ****         6.4804   1.2253  -1.3645 C.3            1 S1                 0.0000
     23 ****         7.2316   0.1459  -1.8826 O.3            1 S1                 0.0000
     24 ****         4.1367   0.2339  -1.9387 C.3            1 S1                 0.0000
     25 ****        -4.0762  -1.1418   0.9735 C.3            1 S1                 0.0000
     26 ****        -5.4386  -0.8302   1.6110 C.3            1 S1                 0.0000
     27 ****        -5.9931  -0.6181   0.1989 C.3            1 S1                 0.0000
     28 ****        -4.5562  -0.3765  -0.2751 C.3            1 S1                 0.0000
     29 ****        -5.1247  -4.9241   2.5357 H              1 S1                 0.0000
     30 ****        -4.6473  -5.0345   0.8419 H              1 S1                 0.0000
     31 ****        -5.8256  -3.8177   1.3530 H              1 S1                 0.0000
     32 ****        -3.7696  -3.0367  -0.1820 H              1 S1                 0.0000
     33 ****        -1.4477  -2.6410   1.4686 H              1 S1                 0.0000
     34 ****        -1.7393  -1.7404  -0.0675 H              1 S1                 0.0000
     35 ****        -2.8033  -1.0607   2.7596 H              1 S1                 0.0000
     36 ****        -2.2369   2.5312   1.7643 H              1 S1                 0.0000
     37 ****        -2.7752   1.5044   3.1003 H              1 S1                 0.0000
     38 ****        -3.8009   1.7320   1.6843 H              1 S1                 0.0000
     39 ****         1.4553   0.1825   3.8825 H              1 S1                 0.0000
     40 ****         1.2415   1.1842  -2.4787 H              1 S1                 0.0000
     41 ****         4.0049   0.7363   0.1588 H              1 S1                 0.0000
     42 ****         3.3975   2.7515  -2.0670 H              1 S1                 0.0000
     43 ****         4.4909   2.9558  -0.6555 H              1 S1                 0.0000
     44 ****         6.0982   1.1076  -4.0638 H              1 S1                 0.0000
     45 ****         4.5097   1.8215  -4.1536 H              1 S1                 0.0000
     46 ****         6.1517   3.3195  -4.5358 H              1 S1                 0.0000
     47 ****         7.0853   2.1306  -1.4179 H              1 S1                 0.0000
     48 ****         6.3153   1.0361  -0.3037 H              1 S1                 0.0000
     49 ****         8.0408   0.0837  -1.3983 H              1 S1                 0.0000
     50 ****         4.5789  -0.7246  -1.6649 H              1 S1                 0.0000
     51 ****         3.4671   0.1192  -2.7925 H              1 S1                 0.0000
     52 ****        -5.8971  -1.6463   2.1678 H              1 S1                 0.0000
     53 ****        -5.4284   0.0890   2.1979 H              1 S1                 0.0000
     54 ****        -6.4287  -1.5255  -0.2224 H              1 S1                 0.0000
     55 ****        -6.6594   0.2384   0.0941 H              1 S1                 0.0000
     56 ****        -4.2956   0.6818  -0.2788 H              1 S1                 0.0000
     57 ****        -4.3090  -0.8481  -1.2267 H              1 S1                 0.0000
     58 ****        -3.0283  -3.9652   2.1149 LP             1 S1                 0.0000
     59 ****        -4.0971  -2.8695   2.6838 LP             1 S1                 0.0000
     60 ****        -2.3597   0.5552   0.4077 LP             1 S1                 0.0000
     61 ****        -0.8271   0.1604   3.5460 LP             1 S1                 0.0000
     62 ****         2.9998   0.5100   2.1131 LP             1 S1                 0.0000
     63 ****        -1.0129   0.9416  -1.4358 LP             1 S1                 0.0000
     64 ****         6.8552   3.1215  -3.1227 LP             1 S1                 0.0000
     65 ****         5.3597   3.7683  -3.2310 LP             1 S1                 0.0000
     66 ****         7.4289   0.3058  -2.8499 LP             1 S1                 0.0000
     67 ****         6.7135  -0.7036  -1.7841 LP             1 S1                 0.0000
@<TRIPOS>BOND
    1    1    2 1     
    2    1   29 1     
    3    1   30 1     
    4    1   31 1     
    5    2    3 1     
    6    3   25 1     
    7    3    4 1     
    8    3   32 1     
    9    4    5 1     
   10    4   33 1     
   11    4   34 1     
   12    5    6 1     
   13    5   25 1     
   14    5   35 1     
   15    6    7 1     
   16    6    8 1     
   17    7   36 1     
   18    7   37 1     
   19    7   38 1     
   20    8   13 ar    
   21    8    9 ar    
   22    9   10 ar    
   23   10   11 ar    
   24   10   39 1     
   25   11   12 ar    
   26   12   16 1     
   27   12   13 ar    
   28   13   14 1     
   29   14   15 2     
   30   15   16 1     
   31   15   40 1     
   32   16   17 1     
   33   17   24 1     
   34   17   18 1     
   35   17   41 1     
   36   18   19 1     
   37   18   42 1     
   38   18   43 1     
   39   19   20 1     
   40   19   22 1     
   41   19   24 1     
   42   20   21 1     
   43   20   44 1     
   44   20   45 1     
   45   21   46 1     
   46   22   23 1     
   47   22   47 1     
   48   22   48 1     
   49   23   49 1     
   50   24   50 1     
   51   24   51 1     
   52   25   28 1     
   53   25   26 1     
   54   26   27 1     
   55   26   52 1     
   56   26   53 1     
   57   27   28 1     
   58   27   54 1     
   59   27   55 1     
   60   28   56 1     
   61   28   57 1     
   62    2   58 1     
   63    2   59 1     
   64    6   60 1     
   65    9   61 1     
   66   11   62 1     
   67   14   63 1     
   68   21   64 1     
   69   21   65 1     
   70   23   66 1     
   71   23   67 1     
@<TRIPOS>SUBSTRUCTURE
      1 S1             1
@<TRIPOS>SET
LONE_PAIRS      STATIC     ATOMS    <user>   **** ""
10 58 59 60 61 62 63 64 65 66 67
DONOR_HYDROGENS      STATIC     ATOMS    <user>   **** ""
2 46 49
ATOM$BLUE        STATIC     ATOMS    COLORGROUP SYSTEM
10 58 59 60 61 62 63 64 65 66 67
ATOM$RED        STATIC     ATOMS    COLORGROUP SYSTEM
2 46 49
