AV-unprocessed.smi:3094|AV-procd|sdf|11788|dock8
  -GOLD-   2272017163D 1   1.00000     0.00000
 Structure written by MMmdl.
 30 31  0  0  0  0  0  0  0  0  2 V2000
  151.2453  140.3121  155.9288 C   0  0  0  0  0  0  0  0  0  0  0  0
  150.0293  141.2479  155.9019 C   0  0  2  0  0  0  0  0  0  0  0  0
  149.5050  141.4411  154.4625 C   0  0  0  0  0  0  0  0  0  0  0  0
  148.0437  141.5488  154.3960 N   0  0  0  0  0  0  0  0  0  0  0  0
  147.2389  142.3770  155.1354 C   0  0  0  0  0  0  0  0  0  0  0  0
  145.9524  142.1416  154.7241 C   0  0  0  0  0  0  0  0  0  0  0  0
  146.0256  141.1764  153.7556 N   0  3  0  0  0  0  0  0  0  0  0  0
  147.2976  140.8137  153.5609 C   0  0  0  0  0  0  0  0  0  0  0  0
  150.4056  142.5268  156.5038 N   0  0  0  0  0  0  0  0  0  0  0  0
  151.1322  142.6874  157.6214 C   0  0  0  0  0  0  0  0  0  0  0  0
  151.5570  141.7430  158.2890 O   0  0  0  0  0  0  0  0  0  0  0  0
  151.3633  144.1150  157.9929 C   0  0  0  0  0  0  0  0  0  0  0  0
  152.7936  144.6141  158.0222 C   0  0  0  0  0  0  0  0  0  0  0  0
  152.0500  144.3902  159.3149 C   0  0  0  0  0  0  0  0  0  0  0  0
  150.9958  139.3325  155.5205 H   0  0  0  0  0  0  0  0  0  0  0  0
  151.6020  140.1605  156.9483 H   0  0  0  0  0  0  0  0  0  0  0  0
  152.0720  140.7154  155.3426 H   0  0  0  0  0  0  0  0  0  0  0  0
  149.2490  140.7757  156.5018 H   0  0  0  0  0  0  0  0  0  0  0  0
  149.9446  142.3271  154.0013 H   0  0  0  0  0  0  0  0  0  0  0  0
  149.7877  140.5902  153.8412 H   0  0  0  0  0  0  0  0  0  0  0  0
  147.6323  143.0600  155.8744 H   0  0  0  0  0  0  0  0  0  0  0  0
  145.0155  142.5779  155.0387 H   0  0  0  0  0  0  0  0  0  0  0  0
  147.6523  140.0803  152.8588 H   0  0  0  0  0  0  0  0  0  0  0  0
  150.1008  143.3600  156.0209 H   0  0  0  0  0  0  0  0  0  0  0  0
  150.6010  144.8287  157.6828 H   0  0  0  0  0  0  0  0  0  0  0  0
  153.5943  143.9176  157.7788 H   0  0  0  0  0  0  0  0  0  0  0  0
  152.9654  145.6400  157.7026 H   0  0  0  0  0  0  0  0  0  0  0  0
  151.7171  145.2646  159.8703 H   0  0  0  0  0  0  0  0  0  0  0  0
  152.3555  143.5445  159.9284 H   0  0  0  0  0  0  0  0  0  0  0  0
  145.2332  140.7924  153.2561 H   0  0  0  0  0  0  0  0  0  0  0  0
  1  2  1  0  0  0  0
  1 15  1  0  0  0  0
  1 16  1  0  0  0  0
  1 17  1  0  0  0  0
  2  3  1  0  0  0  0
  2  9  1  0  0  0  0
  2 18  1  0  0  0  0
  3  4  1  0  0  0  0
  3 19  1  0  0  0  0
  3 20  1  0  0  0  0
  4  8  1  0  0  0  0
  4  5  1  0  0  0  0
  5  6  2  0  0  0  0
  5 21  1  0  0  0  0
  6  7  1  0  0  0  0
  6 22  1  0  0  0  0
  7  8  2  0  0  0  0
  7 30  1  0  0  0  0
  8 23  1  0  0  0  0
  9 10  1  0  0  0  0
  9 24  1  0  0  0  0
 10 11  2  0  0  0  0
 10 12  1  0  0  0  0
 12 14  1  0  0  0  0
 12 13  1  0  0  0  0
 12 25  1  0  0  0  0
 13 14  1  0  0  0  0
 13 26  1  0  0  0  0
 13 27  1  0  0  0  0
 14 28  1  0  0  0  0
 14 29  1  0  0  0  0
M  CHG  1   7   1
M  END
> <s_m_source_file>
AV-unprocessed.smi

> <i_m_source_file_index>
3094

> <i_lp_mmshare_version>
43012

> <i_f3d_flags>
0

> <s_epik_input>
W0NIMl0xW0NIMl1bQ0hdMUMoPU8pW05IXVtDQEhdKFtDSDNdKVtDSDJdbjJbY0hdW2NIXW5bY0hdMg==

> <s_epik_cmdline>
J2VwaWtfcHl0aG9uJywgJy1waCcsICc3LjAnLCAnLXRuJywgJzgnLCAnLW1hJywgJzIwMCcsICctbWV0YWxfYmluZGluZycsICctaW1hZScsICc8aW5maWxlLm1hZT4nLCAnLW9tYWUnLCAnPG91dGZpbGUubWFlPic=

> <r_lp_tautomer_probability>
1

> <r_epik_Ionization_Penalty>
0.244425

> <r_epik_Ionization_Penalty_Charging>
0

> <r_epik_Ionization_Penalty_Neutral>
0.244425

> <r_epik_State_Penalty>
0.23553

> <r_epik_Charging_Adjusted_Penalty>
0.23553

> <i_epik_Tot_Q>
1

> <i_epik_Tot_abs_Q>
1

> <r_epik_Metal_State_Penalty>
0.528799

> <b_epik_Metal_Only>
0

> <s_lp_Force_Field>
OPLS_2005

> <r_lp_Energy>
8.8376

> <b_lp_Chiralities_Consistent>
1

> <s_lp_Variant>
AV-unprocessed.smi:3094-1

> <Gold.Version>
5.8.1

> <Gold.Id.Protein>
6NUR|6NUR_protein|mol2

> <Gold.PLP.Fitness>
47.9197

> <Gold.PLP.PLP>
-34.4284

> <Gold.PLP.part.hbond>
-2.0000

> <Gold.PLP.part.metal>
0.0000

> <Gold.PLP.part.buried>
-0.4106

> <Gold.PLP.part.nonpolar>
-32.0582

> <Gold.PLP.part.repulsive>
0.0824

> <Gold.PLP.ligand.clash>
0.0000

> <Gold.PLP.ligand.torsion>
0.7974

> <Gold.PLP.Chemscore.Hbond>
3.0000

> <Gold.PLP.Chemscore.CHOScore>
2.0000

> <Gold.PLP.Chemscore.Metal>
0.0000

> <Gold.Chemscore.Hbonds>
donor molecule, donor type, donor heavy atom, donor atom, acceptor molecule, acceptor atom, score
      L1  H     7    30       P1 10175  2.00
      L1  H     9    24       P1  8028  1.00
      L1  C     5    21       P1  8028  0.97
      L1  C     8    23       P1  7957  0.88

> <Gold.PLP.Chemscore.Internal.Correction>
0.0861

> <Gold.Rescore>
     Score         DG    S(hbond)    S(metal)    S(lipo)     H(rot)  DE(clash)    DE(int)     intcor
     13.31     -15.57       1.97        0.00      71.73       1.90       0.11       2.15       ----

> <Gold.Chemscore.Fitness>
13.3095

> <Gold.Chemscore.DG>
-15.5696

> <Gold.Chemscore.ZeroCoef>
-5.4800

> <Gold.Chemscore.Hbond>
1.9657

> <Gold.Chemscore.Metal>
0.0000

> <Gold.Chemscore.Lipo>
71.7349

> <Gold.Chemscore.Internal_Hbond>
0.0000

> <Gold.Chemscore.DEClash>
0.1092

> <Gold.Chemscore.DEInternal>
2.1508

> <Gold.Chemscore.Rot>
1.9019

> <Gold.Chemscore.Internal.Correction>
   9.000000E+99

> <Gold.Chemscore.Hbonds>
donor molecule, donor type, donor heavy atom, donor atom, acceptor molecule, acceptor atom, score
      L1  H     7    30       P1 10175  0.74
      L1  H     9    24       P1  8028  0.98

> <Gold.Chemscore.Hbond.Weighted>
-6.5655

> <Gold.Chemscore.Metal.Weighted>
-0.0000

> <Gold.Chemscore.Lipo.Weighted>
-8.3930

> <Gold.Chemscore.Internal_Hbond.Weighted>
0.0000

> <Gold.Chemscore.DEClash.Weighted>
0.1092

> <Gold.Chemscore.DEInternal.Weighted>
2.1508

> <Gold.Chemscore.Rot.Weighted>
4.8689

> <Gold.Chemscore.Internal.Correction.Weighted>
   9.000000E+99

> <Gold.Protein.RotatedTorsions>
[ 6907 6896 6895 6894 ] final   21.01 input  -60.11 | X-H torsion
[ 7974 7965 7964 7962 ] final   51.27 input  175.53 | X-H torsion
[ 8008 7997 7996 7995 ] final  158.55 input   59.86 | X-H torsion
[ 10167 10162 10161 10158 ] final -123.47 input  -65.29 | X-H torsion
[ 10718 10713 10712 10709 ] final   72.61 input   66.30 | X-H torsion
[ 10763 10752 10751 10750 ] final -113.91 input  -60.55 | X-H torsion
[ 11005 11000 10999 10996 ] final   59.12 input  -57.11 | X-H torsion

> <Gold.Protein.ActiveResidues>
 VAL166  LYS551  ARG553  GLY616  TRP617  ASP618  TYR619  PRO620  LYS621  CYS622 
 ASP623  PHE694  ASN695  SER759  ASP760  ASP761  ALA762  ILE779  LEU786  VAL792 
 PHE793  MET794  SER795  GLU796  ALA797  LYS798  CYS799  TRP800  GLU811  SER814 

> <Gold.Protein.RotatedAtoms>
  151.9051  135.0362  160.0509 H   0  0  0  0  0  0  0  0  0  0  0  0  # atno 6907 bound_to 6896
  152.2326  133.5065  159.5232 H   0  0  0  0  0  0  0  0  0  0  0  0  # atno 6908 bound_to 6896
  150.7030  134.1113  159.4044 H   0  0  0  0  0  0  0  0  0  0  0  0  # atno 6909 bound_to 6896
  145.9930  139.4359  143.0062 H   0  0  0  0  0  0  0  0  0  0  0  0  # atno 7974 bound_to 7965
  156.2295  140.1855  156.7278 H   0  0  0  0  0  0  0  0  0  0  0  0  # atno 8008 bound_to 7997
  154.5998  140.0637  156.9381 H   0  0  0  0  0  0  0  0  0  0  0  0  # atno 8009 bound_to 7997
  155.2193  140.3306  155.4320 H   0  0  0  0  0  0  0  0  0  0  0  0  # atno 8010 bound_to 7997
  140.0031  143.5520  152.2295 H   0  0  0  0  0  0  0  0  0  0  0  0  # atno 10167 bound_to 10162
  157.6509  130.9587  150.0953 H   0  0  0  0  0  0  0  0  0  0  0  0  # atno 10718 bound_to 10713
  154.8417  135.4437  154.1423 H   0  0  0  0  0  0  0  0  0  0  0  0  # atno 10763 bound_to 10752
  153.2605  135.6935  153.7589 H   0  0  0  0  0  0  0  0  0  0  0  0  # atno 10764 bound_to 10752
  153.6867  135.3394  155.3167 H   0  0  0  0  0  0  0  0  0  0  0  0  # atno 10765 bound_to 10752
  140.0327  134.5988  155.9485 H   0  0  0  0  0  0  0  0  0  0  0  0  # atno 11005 bound_to 11000
  145.7602  140.9938  143.1204 LP  0  0  0  0  0  0  0  0  0  0  0  0  # atno 17320 bound_to 7965
  144.6895  139.9321  143.7472 LP  0  0  0  0  0  0  0  0  0  0  0  0  # atno 17321 bound_to 7965
  139.6257  144.7637  151.2643 LP  0  0  0  0  0  0  0  0  0  0  0  0  # atno 17342 bound_to 10162
  140.7411  143.6567  150.8200 LP  0  0  0  0  0  0  0  0  0  0  0  0  # atno 17343 bound_to 10162
  156.1891  130.3654  149.8934 LP  0  0  0  0  0  0  0  0  0  0  0  0  # atno 17370 bound_to 10713
  156.6867  130.8879  151.3583 LP  0  0  0  0  0  0  0  0  0  0  0  0  # atno 17371 bound_to 10713
  141.1840  133.6552  156.5140 LP  0  0  0  0  0  0  0  0  0  0  0  0  # atno 17394 bound_to 11000
  140.4198  134.7197  157.4883 LP  0  0  0  0  0  0  0  0  0  0  0  0  # atno 17395 bound_to 11000

$$$$
