AV-unprocessed.smi:2667|AV-procd|sdf|10336|dock3
  -GOLD-   2272014353D 1   1.00000     0.00000
 Structure written by MMmdl.
 45 47  0  0  0  0  0  0  0  0  2 V2000
  152.4922  129.4456  154.8586 C   0  0  0  0  0  0  0  0  0  0  0  0
  151.7438  130.2381  155.9419 C   0  0  0  0  0  0  0  0  0  0  0  0
  150.4669  130.9296  155.4394 C   0  0  0  0  0  0  0  0  0  0  0  0
  149.5308  130.2512  155.0138 O   0  0  0  0  0  0  0  0  0  0  0  0
  150.4265  132.4199  155.4959 C   0  0  0  0  0  0  0  0  0  0  0  0
  149.4408  133.1691  154.8117 C   0  0  0  0  0  0  0  0  0  0  0  0
  149.4336  134.5751  154.8854 C   0  0  0  0  0  0  0  0  0  0  0  0
  150.4041  135.2656  155.6367 C   0  0  0  0  0  0  0  0  0  0  0  0
  150.3233  136.6404  155.6463 O   0  0  0  0  0  0  0  0  0  0  0  0
  151.3567  137.3774  156.2854 C   0  0  0  0  0  0  0  0  0  0  0  0
  151.1478  138.8936  156.1045 C   0  0  2  0  0  0  0  0  0  0  0  0
  151.6262  139.2774  154.8321 O   0  0  0  0  0  0  0  0  0  0  0  0
  151.6851  139.8043  157.2367 C   0  0  0  0  0  0  0  0  0  0  0  0
  151.2478  141.2086  157.1798 N   0  0  0  0  0  0  0  0  0  0  0  0
  150.3962  141.8193  156.3104 C   0  0  0  0  0  0  0  0  0  0  0  0
  150.3099  143.1301  156.6675 N   0  3  0  0  0  0  0  0  0  0  0  0
  151.1334  143.3674  157.7696 C   0  0  0  0  0  0  0  0  0  0  0  0
  151.3850  144.5355  158.4830 C   0  0  0  0  0  0  0  0  0  0  0  0
  152.2909  144.4373  159.5594 C   0  0  0  0  0  0  0  0  0  0  0  0
  152.9094  143.2139  159.8891 C   0  0  0  0  0  0  0  0  0  0  0  0
  152.6472  142.0363  159.1585 C   0  0  0  0  0  0  0  0  0  0  0  0
  151.7459  142.1393  158.0995 C   0  0  0  0  0  0  0  0  0  0  0  0
  151.3900  134.5184  156.3255 C   0  0  0  0  0  0  0  0  0  0  0  0
  151.3985  133.1121  156.2531 C   0  0  0  0  0  0  0  0  0  0  0  0
  153.3824  128.9745  155.2755 H   0  0  0  0  0  0  0  0  0  0  0  0
  152.8145  130.0932  154.0423 H   0  0  0  0  0  0  0  0  0  0  0  0
  151.8679  128.6557  154.4392 H   0  0  0  0  0  0  0  0  0  0  0  0
  151.4769  129.5658  156.7575 H   0  0  0  0  0  0  0  0  0  0  0  0
  152.4096  130.9955  156.3565 H   0  0  0  0  0  0  0  0  0  0  0  0
  148.6761  132.6872  154.2213 H   0  0  0  0  0  0  0  0  0  0  0  0
  148.6735  135.1316  154.3567 H   0  0  0  0  0  0  0  0  0  0  0  0
  151.3928  137.1310  157.3478 H   0  0  0  0  0  0  0  0  0  0  0  0
  152.3199  137.1061  155.8502 H   0  0  0  0  0  0  0  0  0  0  0  0
  150.0701  139.0548  156.0620 H   0  0  0  0  0  0  0  0  0  0  0  0
  152.4696  138.8748  154.6943 H   0  0  0  0  0  0  0  0  0  0  0  0
  151.4215  139.3999  158.2145 H   0  0  0  0  0  0  0  0  0  0  0  0
  152.7753  139.8128  157.2024 H   0  0  0  0  0  0  0  0  0  0  0  0
  149.8696  141.3442  155.4948 H   0  0  0  0  0  0  0  0  0  0  0  0
  150.9152  145.4748  158.2308 H   0  0  0  0  0  0  0  0  0  0  0  0
  152.5171  145.3183  160.1429 H   0  0  0  0  0  0  0  0  0  0  0  0
  153.5988  143.1775  160.7199 H   0  0  0  0  0  0  0  0  0  0  0  0
  153.1263  141.1050  159.4201 H   0  0  0  0  0  0  0  0  0  0  0  0
  152.1525  134.9999  156.9184 H   0  0  0  0  0  0  0  0  0  0  0  0
  152.1649  132.5711  156.7895 H   0  0  0  0  0  0  0  0  0  0  0  0
  149.7333  143.8108  156.1898 H   0  0  0  0  0  0  0  0  0  0  0  0
  1  2  1  0  0  0  0
  1 25  1  0  0  0  0
  1 26  1  0  0  0  0
  1 27  1  0  0  0  0
  2  3  1  0  0  0  0
  2 28  1  0  0  0  0
  2 29  1  0  0  0  0
  3  4  2  0  0  0  0
  3  5  1  0  0  0  0
  5 24  1  0  0  0  0
  5  6  2  0  0  0  0
  6  7  1  0  0  0  0
  6 30  1  0  0  0  0
  7  8  2  0  0  0  0
  7 31  1  0  0  0  0
  8  9  1  0  0  0  0
  8 23  1  0  0  0  0
  9 10  1  0  0  0  0
 10 11  1  0  0  0  0
 10 32  1  0  0  0  0
 10 33  1  0  0  0  0
 11 12  1  0  0  0  0
 11 13  1  0  0  0  0
 11 34  1  0  0  0  0
 12 35  1  0  0  0  0
 13 14  1  0  0  0  0
 13 36  1  0  0  0  0
 13 37  1  0  0  0  0
 14 22  1  0  0  0  0
 14 15  1  0  0  0  0
 15 16  2  0  0  0  0
 15 38  1  0  0  0  0
 16 17  1  0  0  0  0
 16 45  1  0  0  0  0
 17 22  2  0  0  0  0
 17 18  1  0  0  0  0
 18 19  2  0  0  0  0
 18 39  1  0  0  0  0
 19 20  1  0  0  0  0
 19 40  1  0  0  0  0
 20 21  2  0  0  0  0
 20 41  1  0  0  0  0
 21 22  1  0  0  0  0
 21 42  1  0  0  0  0
 23 24  2  0  0  0  0
 23 43  1  0  0  0  0
 24 44  1  0  0  0  0
M  CHG  1  16   1
M  END
> <s_m_source_file>
AV-unprocessed.smi

> <i_m_source_file_index>
2667

> <i_lp_mmshare_version>
43012

> <i_f3d_flags>
0

> <s_epik_input>
W0NIM11bQ0gyXUMoPU8pYzFbY0hdW2NIXWMoW2NIXVtjSF0xKU9bQ0gyXVtDQEhdKFtPSF0pW0NIMl1uKFtjSF1uMiljKGMyMylbY0hdW2NIXVtjSF1bY0hdMw==

> <s_epik_cmdline>
J2VwaWtfcHl0aG9uJywgJy1waCcsICc3LjAnLCAnLXRuJywgJzgnLCAnLW1hJywgJzIwMCcsICctbWV0YWxfYmluZGluZycsICctaW1hZScsICc8aW5maWxlLm1hZT4nLCAnLW9tYWUnLCAnPG91dGZpbGUubWFlPic=

> <r_lp_tautomer_probability>
0.9999

> <r_epik_Ionization_Penalty>
1.40272

> <r_epik_Ionization_Penalty_Charging>
1.40272

> <r_epik_Ionization_Penalty_Neutral>
2.3993e-06

> <r_epik_State_Penalty>
1.48501

> <r_epik_Charging_Adjusted_Penalty>
2.88772

> <i_epik_Tot_Q>
1

> <i_epik_Tot_abs_Q>
1

> <r_epik_Metal_State_Penalty>
5.5274

> <b_epik_Metal_Only>
0

> <s_lp_Force_Field>
OPLS_2005

> <r_lp_Energy>
30.2491

> <b_lp_Chiralities_Consistent>
1

> <s_lp_Variant>
AV-unprocessed.smi:2667-3

> <Gold.Version>
5.8.1

> <Gold.Id.Protein>
6NUR|6NUR_protein|mol2

> <Gold.PLP.Fitness>
57.3138

> <Gold.PLP.PLP>
-49.0857

> <Gold.PLP.part.hbond>
-1.8366

> <Gold.PLP.part.metal>
0.0000

> <Gold.PLP.part.buried>
-5.7117

> <Gold.PLP.part.nonpolar>
-40.8736

> <Gold.PLP.part.repulsive>
0.2064

> <Gold.PLP.ligand.clash>
0.0000

> <Gold.PLP.ligand.torsion>
0.4741

> <Gold.PLP.Chemscore.Hbond>
2.9920

> <Gold.PLP.Chemscore.CHOScore>
0.0000

> <Gold.PLP.Chemscore.Metal>
0.0000

> <Gold.Chemscore.Hbonds>
donor molecule, donor type, donor heavy atom, donor atom, acceptor molecule, acceptor atom, score
      L1  H    16    45       P1  8028  1.07
      P1  H  7989  7998       L1    12  0.91

> <Gold.PLP.Chemscore.Internal.Correction>
0.2003

> <Gold.Rescore>
     Score         DG    S(hbond)    S(metal)    S(lipo)     H(rot)  DE(clash)    DE(int)     intcor
     19.08     -19.73       1.85        0.00     125.72       2.59       0.13       0.52       ----

> <Gold.Chemscore.Fitness>
19.0805

> <Gold.Chemscore.DG>
-19.7307

> <Gold.Chemscore.ZeroCoef>
-5.4800

> <Gold.Chemscore.Hbond>
1.8458

> <Gold.Chemscore.Metal>
0.0000

> <Gold.Chemscore.Lipo>
125.7198

> <Gold.Chemscore.Internal_Hbond>
0.0000

> <Gold.Chemscore.DEClash>
0.1275

> <Gold.Chemscore.DEInternal>
0.5228

> <Gold.Chemscore.Rot>
2.5873

> <Gold.Chemscore.Internal.Correction>
   9.000000E+99

> <Gold.Chemscore.Hbonds>
donor molecule, donor type, donor heavy atom, donor atom, acceptor molecule, acceptor atom, score
      L1  H    16    45       P1  8028  0.54
      P1  H  7989  7998       L1    12  0.30

> <Gold.Chemscore.Hbond.Weighted>
-6.1651

> <Gold.Chemscore.Metal.Weighted>
-0.0000

> <Gold.Chemscore.Lipo.Weighted>
-14.7092

> <Gold.Chemscore.Internal_Hbond.Weighted>
0.0000

> <Gold.Chemscore.DEClash.Weighted>
0.1275

> <Gold.Chemscore.DEInternal.Weighted>
0.5228

> <Gold.Chemscore.Rot.Weighted>
6.6235

> <Gold.Chemscore.Internal.Correction.Weighted>
   9.000000E+99

> <Gold.Protein.RotatedTorsions>
[ 6907 6896 6895 6894 ] final  132.88 input  -60.11 | X-H torsion
[ 7974 7965 7964 7962 ] final  164.31 input  175.53 | X-H torsion
[ 8008 7997 7996 7995 ] final    1.64 input   59.86 | X-H torsion
[ 10167 10162 10161 10158 ] final  -93.01 input  -65.29 | X-H torsion
[ 10718 10713 10712 10709 ] final  116.99 input   66.30 | X-H torsion
[ 10763 10752 10751 10750 ] final   43.49 input  -60.55 | X-H torsion
[ 11005 11000 10999 10996 ] final  -48.02 input  -57.11 | X-H torsion

> <Gold.Protein.ActiveResidues>
 VAL166  LYS551  ARG553  GLY616  TRP617  ASP618  TYR619  PRO620  LYS621  CYS622 
 ASP623  PHE694  ASN695  SER759  ASP760  ASP761  ALA762  ILE779  LEU786  VAL792 
 PHE793  MET794  SER795  GLU796  ALA797  LYS798  CYS799  TRP800  GLU811  SER814 

> <Gold.Protein.RotatedAtoms>
  152.3278  133.5924  159.5788 H   0  0  0  0  0  0  0  0  0  0  0  0  # atno 6907 bound_to 6896
  150.7406  133.9914  159.3617 H   0  0  0  0  0  0  0  0  0  0  0  0  # atno 6908 bound_to 6896
  151.7792  135.0766  160.0422 H   0  0  0  0  0  0  0  0  0  0  0  0  # atno 6909 bound_to 6896
  144.7550  139.8308  143.6353 H   0  0  0  0  0  0  0  0  0  0  0  0  # atno 7974 bound_to 7965
  154.6821  140.2635  155.6898 H   0  0  0  0  0  0  0  0  0  0  0  0  # atno 8008 bound_to 7997
  156.2701  140.2808  156.1292 H   0  0  0  0  0  0  0  0  0  0  0  0  # atno 8009 bound_to 7997
  155.1016  140.0374  157.2688 H   0  0  0  0  0  0  0  0  0  0  0  0  # atno 8010 bound_to 7997
  140.3290  143.3005  151.9963 H   0  0  0  0  0  0  0  0  0  0  0  0  # atno 10167 bound_to 10162
  157.6125  131.1032  150.7551 H   0  0  0  0  0  0  0  0  0  0  0  0  # atno 10718 bound_to 10713
  152.9859  135.6100  154.3120 H   0  0  0  0  0  0  0  0  0  0  0  0  # atno 10763 bound_to 10752
  154.2834  135.2776  155.2688 H   0  0  0  0  0  0  0  0  0  0  0  0  # atno 10764 bound_to 10752
  154.5017  135.5865  153.6592 H   0  0  0  0  0  0  0  0  0  0  0  0  # atno 10765 bound_to 10752
  141.0676  133.6689  156.3382 H   0  0  0  0  0  0  0  0  0  0  0  0  # atno 11005 bound_to 11000
  146.1550  139.4645  143.0024 LP  0  0  0  0  0  0  0  0  0  0  0  0  # atno 17320 bound_to 7965
  145.6809  141.0191  143.1607 LP  0  0  0  0  0  0  0  0  0  0  0  0  # atno 17321 bound_to 7965
  139.4860  144.6250  151.7182 LP  0  0  0  0  0  0  0  0  0  0  0  0  # atno 17342 bound_to 10162
  140.5414  144.0573  150.6090 LP  0  0  0  0  0  0  0  0  0  0  0  0  # atno 17343 bound_to 10162
  156.7925  130.4895  149.5382 LP  0  0  0  0  0  0  0  0  0  0  0  0  # atno 17370 bound_to 10713
  156.1234  130.6126  151.0227 LP  0  0  0  0  0  0  0  0  0  0  0  0  # atno 17371 bound_to 10713
  140.5741  134.5811  157.5464 LP  0  0  0  0  0  0  0  0  0  0  0  0  # atno 17394 bound_to 11000
  139.9491  134.7648  156.0490 LP  0  0  0  0  0  0  0  0  0  0  0  0  # atno 17395 bound_to 11000

$$$$
