AV-unprocessed.smi:675|AV-procd|sdf|3306|dock2
  -GOLD-   22720 0263D 1   1.00000     0.00000
 Structure written by MMmdl.
 28 29  0  0  0  0  0  0  0  0  2 V2000
  146.5342  139.7674  153.5099 O   0  0  0  0  0  0  0  0  0  0  0  0
  147.5157  140.2493  154.0736 C   0  0  0  0  0  0  0  0  0  0  0  0
  148.7755  139.7468  153.9177 N   0  5  0  0  0  0  0  0  0  0  0  0
  149.8797  140.2687  154.5363 C   0  0  0  0  0  0  0  0  0  0  0  0
  151.0050  139.7950  154.3797 O   0  0  0  0  0  0  0  0  0  0  0  0
  149.7246  141.3519  155.3538 N   0  0  0  0  0  0  0  0  0  0  0  0
  150.8488  141.9739  156.0682 C   0  0  0  0  0  0  0  0  0  0  0  0
  151.4963  141.0054  157.0816 C   0  0  1  0  0  0  0  0  0  0  0  0
  152.5149  140.2744  156.4261 O   0  0  0  0  0  0  0  0  0  0  0  0
  152.0328  141.7677  158.2926 C   0  0  0  0  0  0  0  0  0  0  0  0
  151.7789  143.1534  158.4235 C   0  0  0  0  0  0  0  0  0  0  0  0
  152.2583  143.8702  159.5358 C   0  0  0  0  0  0  0  0  0  0  0  0
  152.9925  143.2077  160.5356 C   0  0  0  0  0  0  0  0  0  0  0  0
  153.2397  141.8273  160.4236 C   0  0  0  0  0  0  0  0  0  0  0  0
  152.7620  141.1038  159.3122 C   0  0  0  0  0  0  0  0  0  0  0  0
  153.0773  139.4047  159.2427 Cl  0  0  0  0  0  0  0  0  0  0  0  0
  148.4482  141.9070  155.5495 C   0  0  0  0  0  0  0  0  0  0  0  0
  147.3505  141.4065  154.9509 C   0  0  0  0  0  0  0  0  0  0  0  0
  145.7940  142.1089  155.2142 Cl  0  0  0  0  0  0  0  0  0  0  0  0
  151.5964  142.3974  155.3949 H   0  0  0  0  0  0  0  0  0  0  0  0
  150.4477  142.8353  156.6049 H   0  0  0  0  0  0  0  0  0  0  0  0
  150.7658  140.2705  157.4183 H   0  0  0  0  0  0  0  0  0  0  0  0
  152.3658  139.3533  156.5732 H   0  0  0  0  0  0  0  0  0  0  0  0
  151.2086  143.6783  157.6711 H   0  0  0  0  0  0  0  0  0  0  0  0
  152.0598  144.9283  159.6227 H   0  0  0  0  0  0  0  0  0  0  0  0
  153.3603  143.7559  161.3902 H   0  0  0  0  0  0  0  0  0  0  0  0
  153.7963  141.3200  161.1979 H   0  0  0  0  0  0  0  0  0  0  0  0
  148.4179  142.7565  156.2160 H   0  0  0  0  0  0  0  0  0  0  0  0
  1  2  2  0  0  0  0
  2 18  1  0  0  0  0
  2  3  1  0  0  0  0
  3  4  1  0  0  0  0
  4  5  2  0  0  0  0
  4  6  1  0  0  0  0
  6  7  1  0  0  0  0
  6 17  1  0  0  0  0
  7  8  1  0  0  0  0
  7 20  1  0  0  0  0
  7 21  1  0  0  0  0
  8  9  1  0  0  0  0
  8 10  1  0  0  0  0
  8 22  1  0  0  0  0
  9 23  1  0  0  0  0
 10 15  1  0  0  0  0
 10 11  2  0  0  0  0
 11 12  1  0  0  0  0
 11 24  1  0  0  0  0
 12 13  2  0  0  0  0
 12 25  1  0  0  0  0
 13 14  1  0  0  0  0
 13 26  1  0  0  0  0
 14 15  2  0  0  0  0
 14 27  1  0  0  0  0
 15 16  1  0  0  0  0
 17 18  2  0  0  0  0
 17 28  1  0  0  0  0
 18 19  1  0  0  0  0
M  CHG  1   3  -1
M  END
> <s_m_source_file>
AV-unprocessed.smi

> <i_m_source_file_index>
675

> <i_lp_mmshare_version>
43012

> <i_f3d_flags>
0

> <s_epik_input>
Tz1jMVtuSF1jKD1PKW4oW2NIXWMxQ2wpW0NIMl1bQ0BIXShbT0hdKWMyW2NIXVtjSF1bY0hdW2NIXWMyQ2w=

> <s_epik_cmdline>
J2VwaWtfcHl0aG9uJywgJy1waCcsICc3LjAnLCAnLXRuJywgJzgnLCAnLW1hJywgJzIwMCcsICctbWV0YWxfYmluZGluZycsICctaW1hZScsICc8aW5maWxlLm1hZT4nLCAnLW9tYWUnLCAnPG91dGZpbGUubWFlPic=

> <r_epik_Ionization_Penalty>
1.79791

> <r_epik_Ionization_Penalty_Charging>
3.23819e-08

> <r_epik_Ionization_Penalty_Neutral>
1.79791

> <r_epik_State_Penalty>
1.91135

> <r_epik_Charging_Adjusted_Penalty>
1.91135

> <i_epik_Tot_Q>
-1

> <i_epik_Tot_abs_Q>
1

> <r_epik_Metal_State_Penalty>
0.014155

> <b_epik_Metal_Only>
0

> <s_lp_Force_Field>
OPLS_2005

> <r_lp_Energy>
23.2972

> <b_lp_Chiralities_Consistent>
1

> <s_lp_Variant>
AV-unprocessed.smi:675-4

> <Gold.Version>
5.8.1

> <Gold.Id.Protein>
6NUR|6NUR_protein|mol2

> <Gold.PLP.Fitness>
44.5538

> <Gold.PLP.PLP>
-37.1145

> <Gold.PLP.part.hbond>
-2.0000

> <Gold.PLP.part.metal>
0.0000

> <Gold.PLP.part.buried>
-3.1125

> <Gold.PLP.part.nonpolar>
-33.7407

> <Gold.PLP.part.repulsive>
1.3629

> <Gold.PLP.ligand.clash>
0.0000

> <Gold.PLP.ligand.torsion>
0.4805

> <Gold.PLP.Chemscore.Hbond>
1.8000

> <Gold.PLP.Chemscore.CHOScore>
0.9948

> <Gold.PLP.Chemscore.Metal>
0.0000

> <Gold.Chemscore.Hbonds>
donor molecule, donor type, donor heavy atom, donor atom, acceptor molecule, acceptor atom, score
      P1  H  7989  7998       L1     5  0.98
      P1  H  7997  8008       L1     9  0.57
      L1  C    17    28       P1  8028  0.90

> <Gold.PLP.Chemscore.Internal.Correction>
0.0158

> <Gold.Rescore>
     Score         DG    S(hbond)    S(metal)    S(lipo)     H(rot)  DE(clash)    DE(int)     intcor
     14.36     -16.35       1.57        0.00      94.63       2.13       0.18       1.80       ----

> <Gold.Chemscore.Fitness>
14.3622

> <Gold.Chemscore.DG>
-16.3470

> <Gold.Chemscore.ZeroCoef>
-5.4800

> <Gold.Chemscore.Hbond>
1.5696

> <Gold.Chemscore.Metal>
0.0000

> <Gold.Chemscore.Lipo>
94.6292

> <Gold.Chemscore.Internal_Hbond>
0.0000

> <Gold.Chemscore.DEClash>
0.1834

> <Gold.Chemscore.DEInternal>
1.8013

> <Gold.Chemscore.Rot>
2.1278

> <Gold.Chemscore.Internal.Correction>
   9.000000E+99

> <Gold.Chemscore.Hbonds>
donor molecule, donor type, donor heavy atom, donor atom, acceptor molecule, acceptor atom, score
      P1  H  7989  7998       L1     5  0.28
      P1  H  7997  8008       L1     9  0.05

> <Gold.Chemscore.Hbond.Weighted>
-5.2424

> <Gold.Chemscore.Metal.Weighted>
-0.0000

> <Gold.Chemscore.Lipo.Weighted>
-11.0716

> <Gold.Chemscore.Internal_Hbond.Weighted>
0.0000

> <Gold.Chemscore.DEClash.Weighted>
0.1834

> <Gold.Chemscore.DEInternal.Weighted>
1.8013

> <Gold.Chemscore.Rot.Weighted>
5.4470

> <Gold.Chemscore.Internal.Correction.Weighted>
   9.000000E+99

> <Gold.Protein.RotatedTorsions>
[ 6907 6896 6895 6894 ] final   12.42 input  -60.11 | X-H torsion
[ 7974 7965 7964 7962 ] final -141.85 input  175.53 | X-H torsion
[ 8008 7997 7996 7995 ] final  -61.00 input   59.86 | X-H torsion
[ 10167 10162 10161 10158 ] final  130.96 input  -65.29 | X-H torsion
[ 10718 10713 10712 10709 ] final -109.01 input   66.30 | X-H torsion
[ 10763 10752 10751 10750 ] final   16.85 input  -60.55 | X-H torsion
[ 11005 11000 10999 10996 ] final   23.68 input  -57.11 | X-H torsion

> <Gold.Protein.ActiveResidues>
 VAL166  LYS551  ARG553  GLY616  TRP617  ASP618  TYR619  PRO620  LYS621  CYS622 
 ASP623  PHE694  ASN695  SER759  ASP760  ASP761  ALA762  ILE779  LEU786  VAL792 
 PHE793  MET794  SER795  GLU796  ALA797  LYS798  CYS799  TRP800  GLU811  SER814 

> <Gold.Protein.RotatedAtoms>
  151.7701  135.0788  160.0358 H   0  0  0  0  0  0  0  0  0  0  0  0  # atno 6907 bound_to 6896
  152.3294  133.5937  159.5808 H   0  0  0  0  0  0  0  0  0  0  0  0  # atno 6908 bound_to 6896
  150.7414  133.9806  159.3617 H   0  0  0  0  0  0  0  0  0  0  0  0  # atno 6909 bound_to 6896
  144.8488  140.6030  143.5404 H   0  0  0  0  0  0  0  0  0  0  0  0  # atno 7974 bound_to 7965
  154.4426  140.1027  156.6362 H   0  0  0  0  0  0  0  0  0  0  0  0  # atno 8008 bound_to 7997
  155.5551  140.3486  155.4459 H   0  0  0  0  0  0  0  0  0  0  0  0  # atno 8009 bound_to 7997
  156.0500  140.1302  157.0049 H   0  0  0  0  0  0  0  0  0  0  0  0  # atno 8010 bound_to 7997
  139.5406  144.6726  151.4638 H   0  0  0  0  0  0  0  0  0  0  0  0  # atno 10167 bound_to 10162
  156.0515  130.5742  150.8040 H   0  0  0  0  0  0  0  0  0  0  0  0  # atno 10718 bound_to 10713
  153.1392  135.6756  153.9054 H   0  0  0  0  0  0  0  0  0  0  0  0  # atno 10763 bound_to 10752
  153.8516  135.3092  155.3434 H   0  0  0  0  0  0  0  0  0  0  0  0  # atno 10764 bound_to 10752
  154.7773  135.4907  153.9855 H   0  0  0  0  0  0  0  0  0  0  0  0  # atno 10765 bound_to 10752
  140.3669  134.2064  155.7669 H   0  0  0  0  0  0  0  0  0  0  0  0  # atno 11005 bound_to 11000
  145.4542  139.1520  143.3902 LP  0  0  0  0  0  0  0  0  0  0  0  0  # atno 17320 bound_to 7965
  146.2767  140.4669  142.8792 LP  0  0  0  0  0  0  0  0  0  0  0  0  # atno 17321 bound_to 7965
  140.6634  143.8450  150.6913 LP  0  0  0  0  0  0  0  0  0  0  0  0  # atno 17342 bound_to 10162
  140.1852  143.4082  152.1904 LP  0  0  0  0  0  0  0  0  0  0  0  0  # atno 17343 bound_to 10162
  157.5445  131.0942  150.9782 LP  0  0  0  0  0  0  0  0  0  0  0  0  # atno 17370 bound_to 10713
  157.0057  130.5617  149.5315 LP  0  0  0  0  0  0  0  0  0  0  0  0  # atno 17371 bound_to 10713
  141.1967  133.8077  157.0662 LP  0  0  0  0  0  0  0  0  0  0  0  0  # atno 17394 bound_to 11000
  140.0582  134.9769  157.1258 LP  0  0  0  0  0  0  0  0  0  0  0  0  # atno 17395 bound_to 11000

$$$$
