#       Name:                AV-unprocessed.smi:2083
#       Creating user name   scv26
#       Creation time:       Fri Mar 27 11:19:50 2020


#       File generated by GOLD software.
#

@<TRIPOS>MOLECULE
AV-unprocessed.smi:2083
    50    51     1
SMALL
NO_CHARGES


@<TRIPOS>ATOM
      1 ****        -3.2258   7.4074   1.9394 C.3            1 S1                 0.0000
      2 ****        -2.7352   6.0289   1.6568 C.2            1 S1                 0.0000
      3 ****        -2.6576   5.2856   0.5128 C.2            1 S1                 0.0000
      4 ****        -2.0967   4.0617   0.9643 C.2            1 S1                 0.0000
      5 ****        -1.8548   2.9959   0.0606 N.am           1 S1                 0.0000
      6 ****        -1.3374   1.7877   0.3394 C.2            1 S1                 0.0000
      7 ****        -0.9653   1.4120   1.4515 O.2            1 S1                 0.0000
      8 ****        -1.2683   1.0216  -0.7589 N.am           1 S1                 0.0000
      9 ****        -0.7678  -0.3498  -0.7910 C.3            1 S1                 0.0000
     10 ****         0.7831  -0.4383  -0.7150 C.3            1 S1                 0.0000
     11 ****         1.4221   0.3957  -1.8486 C.3            1 S1                 0.0000
     12 ****         1.3236  -1.8381  -0.7460 N.4            1 S1                 1.0000
     13 ****         2.6859  -1.9237  -0.1459 C.3            1 S1                 0.0000
     14 ****         3.3155  -3.3066  -0.3663 C.3            1 S1                 0.0000
     15 ****         2.4267  -4.4038   0.2256 C.3            1 S1                 0.0000
     16 ****         1.0169  -4.3114  -0.3752 C.3            1 S1                 0.0000
     17 ****         0.0884  -5.3858   0.2091 C.3            1 S1                 0.0000
     18 ****         0.4333  -2.8960  -0.1818 C.3            1 S1                 0.0000
     19 ****        -1.8508   4.0584   2.2653 N.2            1 S1                 0.0000
     20 ****        -2.2595   5.3193   2.7161 O.3            1 S1                 0.0000
     21 ****        -3.4546   7.9365   1.0140 H              1 S1                 0.0000
     22 ****        -2.4749   7.9830   2.4809 H              1 S1                 0.0000
     23 ****        -4.1318   7.3775   2.5447 H              1 S1                 0.0000
     24 ****        -2.9568   5.5738  -0.4839 H              1 S1                 0.0000
     25 ****        -2.1132   3.1697  -0.8993 H              1 S1                 0.0000
     26 ****        -1.5961   1.4086  -1.6321 H              1 S1                 0.0000
     27 ****        -1.2385  -0.8845   0.0354 H              1 S1                 0.0000
     28 ****        -1.1255  -0.8113  -1.7122 H              1 S1                 0.0000
     29 ****         1.0798   0.0003   0.2391 H              1 S1                 0.0000
     30 ****         1.1041   1.4376  -1.8128 H              1 S1                 0.0000
     31 ****         1.1466   0.0023  -2.8275 H              1 S1                 0.0000
     32 ****         2.5093   0.4119  -1.7968 H              1 S1                 0.0000
     33 ****         3.3496  -1.1739  -0.5726 H              1 S1                 0.0000
     34 ****         2.6253  -1.7104   0.9228 H              1 S1                 0.0000
     35 ****         3.4602  -3.4809  -1.4334 H              1 S1                 0.0000
     36 ****         4.3049  -3.3432   0.0906 H              1 S1                 0.0000
     37 ****         2.8622  -5.3836   0.0260 H              1 S1                 0.0000
     38 ****         2.3800  -4.2958   1.3103 H              1 S1                 0.0000
     39 ****         1.0968  -4.4970  -1.4477 H              1 S1                 0.0000
     40 ****        -0.0426  -5.2551   1.2838 H              1 S1                 0.0000
     41 ****         0.4903  -6.3856   0.0421 H              1 S1                 0.0000
     42 ****        -0.8984  -5.3477  -0.2534 H              1 S1                 0.0000
     43 ****         0.2553  -2.6963   0.8763 H              1 S1                 0.0000
     44 ****        -0.5337  -2.8866  -0.6831 H              1 S1                 0.0000
     45 ****         1.4235  -2.0692  -1.7240 H              1 S1                 0.0000
     46 ****        -1.0375   2.0267   2.2370 LP             1 S1                 0.0000
     47 ****        -0.5909   0.4922   1.5692 LP             1 S1                 0.0000
     48 ****        -1.4582   3.3161   2.8083 LP             1 S1                 0.0000
     49 ****        -2.9800   5.2142   3.4015 LP             1 S1                 0.0000
     50 ****        -1.4818   5.8001   3.1211 LP             1 S1                 0.0000
@<TRIPOS>BOND
    1    1    2 1     
    2    1   21 1     
    3    1   22 1     
    4    1   23 1     
    5    2   20 1     
    6    2    3 2     
    7    3    4 1     
    8    3   24 1     
    9    4    5 1     
   10    4   19 2     
   11    5    6 am    
   12    5   25 1     
   13    6    7 2     
   14    6    8 am    
   15    8    9 1     
   16    8   26 1     
   17    9   10 1     
   18    9   27 1     
   19    9   28 1     
   20   10   11 1     
   21   10   12 1     
   22   10   29 1     
   23   11   30 1     
   24   11   31 1     
   25   11   32 1     
   26   12   18 1     
   27   12   13 1     
   28   12   45 1     
   29   13   14 1     
   30   13   33 1     
   31   13   34 1     
   32   14   15 1     
   33   14   35 1     
   34   14   36 1     
   35   15   16 1     
   36   15   37 1     
   37   15   38 1     
   38   16   17 1     
   39   16   18 1     
   40   16   39 1     
   41   17   40 1     
   42   17   41 1     
   43   17   42 1     
   44   18   43 1     
   45   18   44 1     
   46   19   20 1     
   47    7   46 1     
   48    7   47 1     
   49   19   48 1     
   50   20   49 1     
   51   20   50 1     
@<TRIPOS>SUBSTRUCTURE
      1 S1             1
@<TRIPOS>SET
LONE_PAIRS      STATIC     ATOMS    <user>   **** ""
5 46 47 48 49 50
DONOR_HYDROGENS      STATIC     ATOMS    <user>   **** ""
3 25 26 45
ATOM$BLUE        STATIC     ATOMS    COLORGROUP SYSTEM
5 46 47 48 49 50
ATOM$RED        STATIC     ATOMS    COLORGROUP SYSTEM
3 25 26 45
