AV-unprocessed.smi:1251|AV-procd|sdf|5261|dock6
  -GOLD-   22720 4373D 1   1.00000     0.00000
 Structure written by MMmdl.
 38 39  0  0  0  0  0  0  0  0  2 V2000
  149.2470  141.4456  154.4023 C   0  0  0  0  0  0  0  0  0  0  0  0
  148.7518  140.0007  154.2757 C   0  0  0  0  0  0  0  0  0  0  0  0
  149.8173  139.0616  153.6931 C   0  0  0  0  0  0  0  0  0  0  0  0
  150.9495  138.8252  154.6359 C   0  0  0  0  0  0  0  0  0  0  0  0
  151.8539  139.7620  154.9325 N   0  0  0  0  0  0  0  0  0  0  0  0
  152.8205  139.2953  155.8112 N   0  0  0  0  0  0  0  0  0  0  0  0
  152.6485  138.0090  156.1472 C   0  0  0  0  0  0  0  0  0  0  0  0
  153.4737  137.3672  156.9906 N   0  5  0  0  0  0  0  0  0  0  0  0
  154.0084  138.0244  158.0450 C   0  0  0  0  0  0  0  0  0  0  0  0
  155.1689  138.4307  158.1402 O   0  0  0  0  0  0  0  0  0  0  0  0
  153.1431  138.2225  159.0497 N   0  0  0  0  0  0  0  0  0  0  0  0
  153.4261  138.8912  160.3179 C   0  0  1  0  0  0  0  0  0  0  0  0
  154.6492  138.2359  160.9832 C   0  0  0  0  0  0  0  0  0  0  0  0
  153.6385  140.3940  160.0540 C   0  0  2  0  0  0  0  0  0  0  0  0
  153.6730  141.2697  161.3063 C   0  0  0  0  0  0  0  0  0  0  0  0
  153.3004  142.6456  160.7806 C   0  0  0  0  0  0  0  0  0  0  0  0
  152.6069  142.3575  159.4459 C   0  0  0  0  0  0  0  0  0  0  0  0
  152.5306  140.9412  159.3545 O   0  0  0  0  0  0  0  0  0  0  0  0
  151.2358  137.2690  155.3960 S   0  0  0  0  0  0  0  0  0  0  0  0
  148.4668  142.0888  154.8100 H   0  0  0  0  0  0  0  0  0  0  0  0
  149.5378  141.8483  153.4318 H   0  0  0  0  0  0  0  0  0  0  0  0
  150.1107  141.5089  155.0648 H   0  0  0  0  0  0  0  0  0  0  0  0
  148.4436  139.6392  155.2573 H   0  0  0  0  0  0  0  0  0  0  0  0
  147.8620  139.9797  153.6451 H   0  0  0  0  0  0  0  0  0  0  0  0
  149.3706  138.1008  153.4339 H   0  0  0  0  0  0  0  0  0  0  0  0
  150.2182  139.4781  152.7687 H   0  0  0  0  0  0  0  0  0  0  0  0
  152.2064  137.8675  158.9254 H   0  0  0  0  0  0  0  0  0  0  0  0
  152.5673  138.7810  160.9824 H   0  0  0  0  0  0  0  0  0  0  0  0
  154.8573  138.6789  161.9569 H   0  0  0  0  0  0  0  0  0  0  0  0
  155.5423  138.3470  160.3675 H   0  0  0  0  0  0  0  0  0  0  0  0
  154.4870  137.1695  161.1426 H   0  0  0  0  0  0  0  0  0  0  0  0
  154.5435  140.5550  159.4645 H   0  0  0  0  0  0  0  0  0  0  0  0
  152.9193  140.9346  162.0204 H   0  0  0  0  0  0  0  0  0  0  0  0
  154.6419  141.2573  161.8061 H   0  0  0  0  0  0  0  0  0  0  0  0
  152.6495  143.1753  161.4768 H   0  0  0  0  0  0  0  0  0  0  0  0
  154.1898  143.2561  160.6203 H   0  0  0  0  0  0  0  0  0  0  0  0
  151.6125  142.8003  159.3886 H   0  0  0  0  0  0  0  0  0  0  0  0
  153.1992  142.7419  158.6147 H   0  0  0  0  0  0  0  0  0  0  0  0
  1  2  1  0  0  0  0
  1 20  1  0  0  0  0
  1 21  1  0  0  0  0
  1 22  1  0  0  0  0
  2  3  1  0  0  0  0
  2 23  1  0  0  0  0
  2 24  1  0  0  0  0
  3  4  1  0  0  0  0
  3 25  1  0  0  0  0
  3 26  1  0  0  0  0
  4 19  1  0  0  0  0
  4  5  2  0  0  0  0
  5  6  1  0  0  0  0
  6  7  2  0  0  0  0
  7  8  1  0  0  0  0
  7 19  1  0  0  0  0
  8  9  1  0  0  0  0
  9 10  2  0  0  0  0
  9 11  1  0  0  0  0
 11 12  1  0  0  0  0
 11 27  1  0  0  0  0
 12 13  1  0  0  0  0
 12 14  1  0  0  0  0
 12 28  1  0  0  0  0
 13 29  1  0  0  0  0
 13 30  1  0  0  0  0
 13 31  1  0  0  0  0
 14 18  1  0  0  0  0
 14 15  1  0  0  0  0
 14 32  1  0  0  0  0
 15 16  1  0  0  0  0
 15 33  1  0  0  0  0
 15 34  1  0  0  0  0
 16 17  1  0  0  0  0
 16 35  1  0  0  0  0
 16 36  1  0  0  0  0
 17 18  1  0  0  0  0
 17 37  1  0  0  0  0
 17 38  1  0  0  0  0
M  CHG  1   8  -1
M  END
> <s_m_source_file>
AV-unprocessed.smi

> <i_m_source_file_index>
1251

> <i_lp_mmshare_version>
43012

> <i_f3d_flags>
0

> <s_epik_input>
W0NIM11bQ0gyXVtDSDJdYzFubmMoczEpW05IXUMoPU8pW05IXVtDQEhdKFtDSDNdKVtDQEBIXTJbQ0gyXVtDSDJdW0NIMl1PMg==

> <s_epik_cmdline>
J2VwaWtfcHl0aG9uJywgJy1waCcsICc3LjAnLCAnLXRuJywgJzgnLCAnLW1hJywgJzIwMCcsICctbWV0YWxfYmluZGluZycsICctaW1hZScsICc8aW5maWxlLm1hZT4nLCAnLW9tYWUnLCAnPG91dGZpbGUubWFlPic=

> <r_lp_tautomer_probability>
1

> <r_epik_Ionization_Penalty>
4.22551

> <r_epik_Ionization_Penalty_Charging>
4.21437

> <r_epik_Ionization_Penalty_Neutral>
0.0111434

> <r_epik_State_Penalty>
4.21389

> <r_epik_Charging_Adjusted_Penalty>
8.42826

> <i_epik_Tot_Q>
-1

> <i_epik_Tot_abs_Q>
1

> <r_epik_Metal_State_Penalty>
0.69377

> <b_epik_Metal_Only>
1

> <s_lp_Force_Field>
OPLS_2005

> <r_lp_Energy>
12.2708

> <b_lp_Chiralities_Consistent>
1

> <s_lp_Variant>
AV-unprocessed.smi:1251-6

> <Gold.Version>
5.8.1

> <Gold.Id.Protein>
6NUR|6NUR_protein|mol2

> <Gold.PLP.Fitness>
39.2949

> <Gold.PLP.PLP>
-33.0238

> <Gold.PLP.part.hbond>
-3.0000

> <Gold.PLP.part.metal>
0.0000

> <Gold.PLP.part.buried>
-1.7805

> <Gold.PLP.part.nonpolar>
-28.1751

> <Gold.PLP.part.repulsive>
0.1170

> <Gold.PLP.ligand.clash>
0.0000

> <Gold.PLP.ligand.torsion>
1.2193

> <Gold.PLP.Chemscore.Hbond>
2.8880

> <Gold.PLP.Chemscore.CHOScore>
0.0000

> <Gold.PLP.Chemscore.Metal>
0.0000

> <Gold.Chemscore.Hbonds>
donor molecule, donor type, donor heavy atom, donor atom, acceptor molecule, acceptor atom, score
      P1  H  7989  7998       L1     5  0.98
      P1  H  7997  8009       L1    10  0.88
      P1  H  7997  8010       L1     6  1.00

> <Gold.PLP.Chemscore.Internal.Correction>
0.0456

> <Gold.Rescore>
     Score         DG    S(hbond)    S(metal)    S(lipo)     H(rot)  DE(clash)    DE(int)     intcor
     17.69     -20.26       2.61        0.00      85.69       1.55       0.02       2.56       ----

> <Gold.Chemscore.Fitness>
17.6896

> <Gold.Chemscore.DG>
-20.2646

> <Gold.Chemscore.ZeroCoef>
-5.4800

> <Gold.Chemscore.Hbond>
2.6106

> <Gold.Chemscore.Metal>
0.0000

> <Gold.Chemscore.Lipo>
85.6856

> <Gold.Chemscore.Internal_Hbond>
0.0000

> <Gold.Chemscore.DEClash>
0.0192

> <Gold.Chemscore.DEInternal>
2.5558

> <Gold.Chemscore.Rot>
1.5469

> <Gold.Chemscore.Internal.Correction>
   9.000000E+99

> <Gold.Chemscore.Hbonds>
donor molecule, donor type, donor heavy atom, donor atom, acceptor molecule, acceptor atom, score
      P1  H  7989  7998       L1     5  0.24
      P1  H  7997  8009       L1    10  0.68
      P1  H  7997  8010       L1     6  0.93

> <Gold.Chemscore.Hbond.Weighted>
-8.7194

> <Gold.Chemscore.Metal.Weighted>
-0.0000

> <Gold.Chemscore.Lipo.Weighted>
-10.0252

> <Gold.Chemscore.Internal_Hbond.Weighted>
0.0000

> <Gold.Chemscore.DEClash.Weighted>
0.0192

> <Gold.Chemscore.DEInternal.Weighted>
2.5558

> <Gold.Chemscore.Rot.Weighted>
3.9600

> <Gold.Chemscore.Internal.Correction.Weighted>
   9.000000E+99

> <Gold.Protein.RotatedTorsions>
[ 6907 6896 6895 6894 ] final  -20.17 input  -60.11 | X-H torsion
[ 7974 7965 7964 7962 ] final   59.46 input  175.53 | X-H torsion
[ 8008 7997 7996 7995 ] final  104.75 input   59.86 | X-H torsion
[ 10167 10162 10161 10158 ] final   31.85 input  -65.29 | X-H torsion
[ 10718 10713 10712 10709 ] final -163.78 input   66.30 | X-H torsion
[ 10763 10752 10751 10750 ] final   20.25 input  -60.55 | X-H torsion
[ 11005 11000 10999 10996 ] final  160.79 input  -57.11 | X-H torsion

> <Gold.Protein.ActiveResidues>
 VAL166  LYS551  ARG553  GLY616  TRP617  ASP618  TYR619  PRO620  LYS621  CYS622 
 ASP623  PHE694  ASN695  SER759  ASP760  ASP761  ALA762  ILE779  LEU786  VAL792 
 PHE793  MET794  SER795  GLU796  ALA797  LYS798  CYS799  TRP800  GLU811  SER814 

> <Gold.Protein.RotatedAtoms>
  151.2521  135.0626  159.9065 H   0  0  0  0  0  0  0  0  0  0  0  0  # atno 6907 bound_to 6896
  152.5378  134.0321  159.8039 H   0  0  0  0  0  0  0  0  0  0  0  0  # atno 6908 bound_to 6896
  151.0530  133.5558  159.2672 H   0  0  0  0  0  0  0  0  0  0  0  0  # atno 6909 bound_to 6896
  145.9069  139.3624  143.0559 H   0  0  0  0  0  0  0  0  0  0  0  0  # atno 7974 bound_to 7965
  156.1600  140.3142  155.8791 H   0  0  0  0  0  0  0  0  0  0  0  0  # atno 8008 bound_to 7997
  155.3801  140.0487  157.3061 H   0  0  0  0  0  0  0  0  0  0  0  0  # atno 8009 bound_to 7997
  154.5137  140.2174  155.9117 H   0  0  0  0  0  0  0  0  0  0  0  0  # atno 8010 bound_to 7997
  140.4551  144.0990  150.6200 H   0  0  0  0  0  0  0  0  0  0  0  0  # atno 10167 bound_to 10162
  156.6295  130.8924  151.2974 H   0  0  0  0  0  0  0  0  0  0  0  0  # atno 10718 bound_to 10713
  153.1093  135.6692  153.9529 H   0  0  0  0  0  0  0  0  0  0  0  0  # atno 10763 bound_to 10752
  153.9077  135.3028  155.3450 H   0  0  0  0  0  0  0  0  0  0  0  0  # atno 10764 bound_to 10752
  154.7513  135.5033  153.9372 H   0  0  0  0  0  0  0  0  0  0  0  0  # atno 10765 bound_to 10752
  140.2094  134.8279  157.3104 H   0  0  0  0  0  0  0  0  0  0  0  0  # atno 11005 bound_to 11000
  145.8721  140.9414  143.0645 LP  0  0  0  0  0  0  0  0  0  0  0  0  # atno 17320 bound_to 7965
  144.6740  140.0668  143.7474 LP  0  0  0  0  0  0  0  0  0  0  0  0  # atno 17321 bound_to 7965
  140.4160  143.2634  151.9774 LP  0  0  0  0  0  0  0  0  0  0  0  0  # atno 17342 bound_to 10162
  139.4800  144.5873  151.7832 LP  0  0  0  0  0  0  0  0  0  0  0  0  # atno 17343 bound_to 10162
  157.7204  130.9551  150.1416 LP  0  0  0  0  0  0  0  0  0  0  0  0  # atno 17370 bound_to 10713
  156.2246  130.3677  149.8516 LP  0  0  0  0  0  0  0  0  0  0  0  0  # atno 17371 bound_to 10713
  140.1968  134.4304  155.7685 LP  0  0  0  0  0  0  0  0  0  0  0  0  # atno 17394 bound_to 11000
  141.2226  133.7053  156.8117 LP  0  0  0  0  0  0  0  0  0  0  0  0  # atno 17395 bound_to 11000

$$$$
