AV-unprocessed.smi:3336|AV-procd|sdf|12860|dock10
  -GOLD-   2272019253D 1   1.00000     0.00000
 Structure written by MMmdl.
 41 42  0  0  0  0  0  0  0  0  1 V2000
  145.9691  137.4569  151.7747 C   0  0  0  0  0  0  0  0  0  0  0  0
  145.4464  136.0215  151.9458 C   0  0  1  0  0  0  0  0  0  0  0  0
  144.8461  135.4468  150.6369 C   0  0  0  0  0  0  0  0  0  0  0  0
  144.8540  133.9940  150.5665 N   0  0  0  0  0  0  0  0  0  0  0  0
  143.7799  133.1286  150.5755 C   0  0  0  0  0  0  0  0  0  0  0  0
  144.2782  131.8596  150.4985 C   0  0  0  0  0  0  0  0  0  0  0  0
  145.6871  132.0524  150.4512 C   0  0  0  0  0  0  0  0  0  0  0  0
  146.0286  133.3296  150.4977 N   0  0  0  0  0  0  0  0  0  0  0  0
  146.5561  135.2198  152.4710 N   0  0  0  0  0  0  0  0  0  0  0  0
  146.4983  134.8511  153.9016 C   0  0  1  0  0  0  0  0  0  0  0  0
  145.7236  133.5321  154.0509 C   0  0  0  0  0  0  0  0  0  0  0  0
  147.8854  134.7285  154.5751 C   0  0  0  0  0  0  0  0  0  0  0  0
  148.1393  135.4831  155.5163 O   0  0  0  0  0  0  0  0  0  0  0  0
  148.7880  133.8184  154.1286 N   0  0  0  0  0  0  0  0  0  0  0  0
  150.0750  133.4723  154.7454 C   0  0  0  0  0  0  0  0  0  0  0  0
  150.0210  132.0020  155.1995 C   0  0  0  0  0  0  0  0  0  0  0  0
  149.7248  131.1608  154.0885 O   0  0  0  0  0  0  0  0  0  0  0  0
  148.4883  131.4872  153.4610 C   0  0  0  0  0  0  0  0  0  0  0  0
  148.5290  132.9467  152.9770 C   0  0  0  0  0  0  0  0  0  0  0  0
  145.1928  138.1100  151.3753 H   0  0  0  0  0  0  0  0  0  0  0  0
  146.8220  137.5016  151.0966 H   0  0  0  0  0  0  0  0  0  0  0  0
  146.2868  137.8753  152.7303 H   0  0  0  0  0  0  0  0  0  0  0  0
  144.6489  136.0672  152.6866 H   0  0  0  0  0  0  0  0  0  0  0  0
  143.8301  135.8057  150.4709 H   0  0  0  0  0  0  0  0  0  0  0  0
  145.4216  135.8201  149.7891 H   0  0  0  0  0  0  0  0  0  0  0  0
  142.7619  133.4851  150.6324 H   0  0  0  0  0  0  0  0  0  0  0  0
  143.7212  130.9347  150.4794 H   0  0  0  0  0  0  0  0  0  0  0  0
  146.4665  131.3073  150.3875 H   0  0  0  0  0  0  0  0  0  0  0  0
  147.4296  135.6773  152.2515 H   0  0  0  0  0  0  0  0  0  0  0  0
  145.9205  135.6280  154.3933 H   0  0  0  0  0  0  0  0  0  0  0  0
  145.6134  133.2460  155.0971 H   0  0  0  0  0  0  0  0  0  0  0  0
  146.2254  132.7128  153.5342 H   0  0  0  0  0  0  0  0  0  0  0  0
  144.7202  133.6213  153.6334 H   0  0  0  0  0  0  0  0  0  0  0  0
  150.8725  133.6116  154.0141 H   0  0  0  0  0  0  0  0  0  0  0  0
  150.3455  134.0827  155.6026 H   0  0  0  0  0  0  0  0  0  0  0  0
  150.9801  131.7026  155.6219 H   0  0  0  0  0  0  0  0  0  0  0  0
  149.2711  131.8648  155.9803 H   0  0  0  0  0  0  0  0  0  0  0  0
  148.3322  130.8135  152.6183 H   0  0  0  0  0  0  0  0  0  0  0  0
  147.6616  131.3297  154.1555 H   0  0  0  0  0  0  0  0  0  0  0  0
  147.6010  133.1861  152.4566 H   0  0  0  0  0  0  0  0  0  0  0  0
  149.3251  133.0757  152.2419 H   0  0  0  0  0  0  0  0  0  0  0  0
  1  2  1  0  0  0  0
  1 20  1  0  0  0  0
  1 21  1  0  0  0  0
  1 22  1  0  0  0  0
  2  3  1  0  0  0  0
  2  9  1  0  0  0  0
  2 23  1  0  0  0  0
  3  4  1  0  0  0  0
  3 24  1  0  0  0  0
  3 25  1  0  0  0  0
  4  8  1  0  0  0  0
  4  5  1  0  0  0  0
  5  6  2  0  0  0  0
  5 26  1  0  0  0  0
  6  7  1  0  0  0  0
  6 27  1  0  0  0  0
  7  8  2  0  0  0  0
  7 28  1  0  0  0  0
  9 10  1  0  0  0  0
  9 29  1  0  0  0  0
 10 11  1  0  0  0  0
 10 12  1  0  0  0  0
 10 30  1  0  0  0  0
 11 31  1  0  0  0  0
 11 32  1  0  0  0  0
 11 33  1  0  0  0  0
 12 13  2  0  0  0  0
 12 14  1  0  0  0  0
 14 19  1  0  0  0  0
 14 15  1  0  0  0  0
 15 16  1  0  0  0  0
 15 34  1  0  0  0  0
 15 35  1  0  0  0  0
 16 17  1  0  0  0  0
 16 36  1  0  0  0  0
 16 37  1  0  0  0  0
 17 18  1  0  0  0  0
 18 19  1  0  0  0  0
 18 38  1  0  0  0  0
 18 39  1  0  0  0  0
 19 40  1  0  0  0  0
 19 41  1  0  0  0  0
M  END
> <s_m_source_file>
AV-unprocessed.smi

> <i_m_source_file_index>
3336

> <i_lp_mmshare_version>
43012

> <i_f3d_flags>
0

> <s_epik_input>
bjFbY0hdW2NIXVtjSF1uMVtDSDJdW0NAQEhdKFtDSDNdKVtOSF1bQ0BIXShbQ0gzXSlDKD1PKU4yW0NIMl1bQ0gyXU9bQ0gyXVtDSDJdMg==

> <s_epik_cmdline>
J2VwaWtfcHl0aG9uJywgJy1waCcsICc3LjAnLCAnLXRuJywgJzgnLCAnLW1hJywgJzIwMCcsICctbWV0YWxfYmluZGluZycsICctaW1hZScsICc8aW5maWxlLm1hZT4nLCAnLW9tYWUnLCAnPG91dGZpbGUubWFlPic=

> <r_lp_tautomer_probability>
1

> <r_epik_Ionization_Penalty>
0.739958

> <r_epik_Ionization_Penalty_Charging>
0

> <r_epik_Ionization_Penalty_Neutral>
0.739958

> <r_epik_State_Penalty>
0.765967

> <r_epik_Charging_Adjusted_Penalty>
0.765967

> <i_epik_Tot_Q>
0

> <i_epik_Tot_abs_Q>
0

> <r_epik_Metal_State_Penalty>
0.765947

> <b_epik_Metal_Only>
0

> <s_lp_Force_Field>
OPLS_2005

> <r_lp_Energy>
28.3858

> <b_lp_Chiralities_Consistent>
1

> <s_lp_Variant>
AV-unprocessed.smi:3336-8

> <Gold.Version>
5.8.1

> <Gold.Id.Protein>
6NUR|6NUR_protein|mol2

> <Gold.PLP.Fitness>
40.6091

> <Gold.PLP.PLP>
-34.3377

> <Gold.PLP.part.hbond>
-1.0000

> <Gold.PLP.part.metal>
0.0000

> <Gold.PLP.part.buried>
-1.5581

> <Gold.PLP.part.nonpolar>
-30.8996

> <Gold.PLP.part.repulsive>
0.3189

> <Gold.PLP.ligand.clash>
0.0000

> <Gold.PLP.ligand.torsion>
1.3905

> <Gold.PLP.Chemscore.Hbond>
1.0000

> <Gold.PLP.Chemscore.CHOScore>
2.0000

> <Gold.PLP.Chemscore.Metal>
0.0000

> <Gold.Chemscore.Hbonds>
donor molecule, donor type, donor heavy atom, donor atom, acceptor molecule, acceptor atom, score
      L1  H     9    29       P1  7948  1.00
      L1  C     5    26       P1 10186  1.00
      L1  C     7    28       P1 10747  0.97

> <Gold.PLP.Chemscore.Internal.Correction>
0.0525

> <Gold.Rescore>
     Score         DG    S(hbond)    S(metal)    S(lipo)     H(rot)  DE(clash)    DE(int)     intcor
     10.76     -13.19       1.00        0.00      76.66       1.79       0.10       2.33       ----

> <Gold.Chemscore.Fitness>
10.7618

> <Gold.Chemscore.DG>
-13.1922

> <Gold.Chemscore.ZeroCoef>
-5.4800

> <Gold.Chemscore.Hbond>
0.9983

> <Gold.Chemscore.Metal>
0.0000

> <Gold.Chemscore.Lipo>
76.6596

> <Gold.Chemscore.Internal_Hbond>
0.0000

> <Gold.Chemscore.DEClash>
0.0956

> <Gold.Chemscore.DEInternal>
2.3348

> <Gold.Chemscore.Rot>
1.7935

> <Gold.Chemscore.Internal.Correction>
   9.000000E+99

> <Gold.Chemscore.Hbonds>
donor molecule, donor type, donor heavy atom, donor atom, acceptor molecule, acceptor atom, score
      L1  H     9    29       P1  7948  1.00

> <Gold.Chemscore.Hbond.Weighted>
-3.3342

> <Gold.Chemscore.Metal.Weighted>
-0.0000

> <Gold.Chemscore.Lipo.Weighted>
-8.9692

> <Gold.Chemscore.Internal_Hbond.Weighted>
0.0000

> <Gold.Chemscore.DEClash.Weighted>
0.0956

> <Gold.Chemscore.DEInternal.Weighted>
2.3348

> <Gold.Chemscore.Rot.Weighted>
4.5912

> <Gold.Chemscore.Internal.Correction.Weighted>
   9.000000E+99

> <Gold.Protein.RotatedTorsions>
[ 6907 6896 6895 6894 ] final -119.30 input  -60.11 | X-H torsion
[ 7974 7965 7964 7962 ] final -113.77 input  175.53 | X-H torsion
[ 8008 7997 7996 7995 ] final  138.82 input   59.86 | X-H torsion
[ 10167 10162 10161 10158 ] final  103.94 input  -65.29 | X-H torsion
[ 10718 10713 10712 10709 ] final -142.78 input   66.30 | X-H torsion
[ 10763 10752 10751 10750 ] final -176.40 input  -60.55 | X-H torsion
[ 11005 11000 10999 10996 ] final  -44.22 input  -57.11 | X-H torsion

> <Gold.Protein.ActiveResidues>
 VAL166  LYS551  ARG553  GLY616  TRP617  ASP618  TYR619  PRO620  LYS621  CYS622 
 ASP623  PHE694  ASN695  SER759  ASP760  ASP761  ALA762  ILE779  LEU786  VAL792 
 PHE793  MET794  SER795  GLU796  ALA797  LYS798  CYS799  TRP800  GLU811  SER814 

> <Gold.Protein.RotatedAtoms>
  150.8294  133.8117  159.3104 H   0  0  0  0  0  0  0  0  0  0  0  0  # atno 6907 bound_to 6896
  151.5852  135.1055  160.0036 H   0  0  0  0  0  0  0  0  0  0  0  0  # atno 6908 bound_to 6896
  152.4375  133.7346  159.6663 H   0  0  0  0  0  0  0  0  0  0  0  0  # atno 6909 bound_to 6896
  145.1281  140.8708  143.3774 H   0  0  0  0  0  0  0  0  0  0  0  0  # atno 7974 bound_to 7965
  156.2994  140.2383  156.4136 H   0  0  0  0  0  0  0  0  0  0  0  0  # atno 8008 bound_to 7997
  154.8418  140.0428  157.1567 H   0  0  0  0  0  0  0  0  0  0  0  0  # atno 8009 bound_to 7997
  154.9094  140.2988  155.5278 H   0  0  0  0  0  0  0  0  0  0  0  0  # atno 8010 bound_to 7997
  139.7220  144.7056  151.0857 H   0  0  0  0  0  0  0  0  0  0  0  0  # atno 10167 bound_to 10162
  156.3500  130.7683  151.1834 H   0  0  0  0  0  0  0  0  0  0  0  0  # atno 10718 bound_to 10713
  154.5727  135.2829  155.0811 H   0  0  0  0  0  0  0  0  0  0  0  0  # atno 10763 bound_to 10752
  154.2177  135.6396  153.5138 H   0  0  0  0  0  0  0  0  0  0  0  0  # atno 10764 bound_to 10752
  153.0063  135.5507  154.6356 H   0  0  0  0  0  0  0  0  0  0  0  0  # atno 10765 bound_to 10752
  141.0436  133.6770  156.2842 H   0  0  0  0  0  0  0  0  0  0  0  0  # atno 11005 bound_to 11000
  145.0666  139.3064  143.5853 LP  0  0  0  0  0  0  0  0  0  0  0  0  # atno 17320 bound_to 7965
  146.3516  140.0126  142.8666 LP  0  0  0  0  0  0  0  0  0  0  0  0  # atno 17321 bound_to 7965
  140.7755  143.5154  150.9601 LP  0  0  0  0  0  0  0  0  0  0  0  0  # atno 17342 bound_to 10162
  139.8841  143.7035  152.3153 LP  0  0  0  0  0  0  0  0  0  0  0  0  # atno 17343 bound_to 10162
  157.7460  131.0430  150.4723 LP  0  0  0  0  0  0  0  0  0  0  0  0  # atno 17370 bound_to 10713
  156.4917  130.4097  149.6403 LP  0  0  0  0  0  0  0  0  0  0  0  0  # atno 17371 bound_to 10713
  140.6189  134.5382  157.5544 LP  0  0  0  0  0  0  0  0  0  0  0  0  # atno 17394 bound_to 11000
  139.9294  134.7992  156.0973 LP  0  0  0  0  0  0  0  0  0  0  0  0  # atno 17395 bound_to 11000

$$$$
