AV-unprocessed.smi:1144|AV-procd|sdf|4877|dock5
  -GOLD-   22720 3453D 1   1.00000     0.00000
 Structure written by MMmdl.
 35 36  0  0  0  0  0  0  0  0  2 V2000
  148.0313  141.4282  156.8269 C   0  0  0  0  0  0  0  0  0  0  0  0
  149.0454  141.8366  155.8276 N   0  3  2  0  0  0  0  0  0  0  0  0
  148.8231  141.2572  154.4819 C   0  0  0  0  0  0  0  0  0  0  0  0
  149.3033  139.7960  154.4157 C   0  0  0  0  0  0  0  0  0  0  0  0
  150.6672  139.7262  154.8128 O   0  0  0  0  0  0  0  0  0  0  0  0
  150.8693  140.1505  156.1577 C   0  0  1  0  0  0  0  0  0  0  0  0
  152.3542  139.9654  156.4981 C   0  0  0  0  0  0  0  0  0  0  0  0
  152.5587  139.7389  157.9210 N   0  0  0  0  0  0  0  0  0  0  0  0
  152.7240  140.7510  158.8473 C   0  0  0  0  0  0  0  0  0  0  0  0
  153.5041  140.5162  159.9087 N   0  0  0  0  0  0  0  0  0  0  0  0
  153.6472  141.5212  160.7995 C   0  0  0  0  0  0  0  0  0  0  0  0
  153.0061  142.7633  160.6242 C   0  0  0  0  0  0  0  0  0  0  0  0
  152.2071  142.8987  159.4684 C   0  0  0  0  0  0  0  0  0  0  0  0
  151.4691  144.1970  159.1794 C   0  0  0  0  0  0  0  0  0  0  0  0
  151.9225  144.7220  158.0412 F   0  0  0  0  0  0  0  0  0  0  0  0
  150.1666  143.9474  159.0481 F   0  0  0  0  0  0  0  0  0  0  0  0
  151.6344  145.0920  160.1554 F   0  0  0  0  0  0  0  0  0  0  0  0
  152.0720  141.8845  158.5813 N   0  0  0  0  0  0  0  0  0  0  0  0
  150.4439  141.6306  156.2750 C   0  0  0  0  0  0  0  0  0  0  0  0
  148.0528  140.3552  157.0162 H   0  0  0  0  0  0  0  0  0  0  0  0
  147.0305  141.6910  156.4826 H   0  0  0  0  0  0  0  0  0  0  0  0
  148.1988  141.9429  157.7734 H   0  0  0  0  0  0  0  0  0  0  0  0
  147.7719  141.3349  154.2022 H   0  0  0  0  0  0  0  0  0  0  0  0
  149.3810  141.8518  153.7574 H   0  0  0  0  0  0  0  0  0  0  0  0
  148.6923  139.1461  155.0438 H   0  0  0  0  0  0  0  0  0  0  0  0
  149.2154  139.4206  153.3960 H   0  0  0  0  0  0  0  0  0  0  0  0
  150.2711  139.5373  156.8341 H   0  0  0  0  0  0  0  0  0  0  0  0
  152.7717  139.1321  155.9317 H   0  0  0  0  0  0  0  0  0  0  0  0
  152.9101  140.8587  156.2107 H   0  0  0  0  0  0  0  0  0  0  0  0
  152.6793  138.7907  158.2463 H   0  0  0  0  0  0  0  0  0  0  0  0
  154.2767  141.3332  161.6566 H   0  0  0  0  0  0  0  0  0  0  0  0
  153.1205  143.5675  161.3357 H   0  0  0  0  0  0  0  0  0  0  0  0
  151.0927  142.2459  155.6499 H   0  0  0  0  0  0  0  0  0  0  0  0
  150.5676  141.9913  157.2971 H   0  0  0  0  0  0  0  0  0  0  0  0
  148.9259  142.8348  155.7280 H   0  0  0  0  0  0  0  0  0  0  0  0
  1  2  1  0  0  0  0
  1 20  1  0  0  0  0
  1 21  1  0  0  0  0
  1 22  1  0  0  0  0
  2 19  1  0  0  0  0
  2  3  1  0  0  0  0
  2 35  1  0  0  0  0
  3  4  1  0  0  0  0
  3 23  1  0  0  0  0
  3 24  1  0  0  0  0
  4  5  1  0  0  0  0
  4 25  1  0  0  0  0
  4 26  1  0  0  0  0
  5  6  1  0  0  0  0
  6  7  1  0  0  0  0
  6 19  1  0  0  0  0
  6 27  1  0  0  0  0
  7  8  1  0  0  0  0
  7 28  1  0  0  0  0
  7 29  1  0  0  0  0
  8  9  1  0  0  0  0
  8 30  1  0  0  0  0
  9 18  1  0  0  0  0
  9 10  2  0  0  0  0
 10 11  1  0  0  0  0
 11 12  2  0  0  0  0
 11 31  1  0  0  0  0
 12 13  1  0  0  0  0
 12 32  1  0  0  0  0
 13 14  1  0  0  0  0
 13 18  2  0  0  0  0
 14 15  1  0  0  0  0
 14 16  1  0  0  0  0
 14 17  1  0  0  0  0
 19 33  1  0  0  0  0
 19 34  1  0  0  0  0
M  CHG  1   2   1
M  END
> <s_m_source_file>
AV-unprocessed.smi

> <i_m_source_file_index>
1144

> <i_lp_mmshare_version>
43012

> <i_f3d_flags>
0

> <s_epik_input>
W0NIM11OMVtDSDJdW0NIMl1PW0NASF0oW0NIMl0xKVtDSDJdW05IXWMybltjSF1bY0hdYyhuMilDKEYpKEYpRg==

> <s_epik_cmdline>
J2VwaWtfcHl0aG9uJywgJy1waCcsICc3LjAnLCAnLXRuJywgJzgnLCAnLW1hJywgJzIwMCcsICctbWV0YWxfYmluZGluZycsICctaW1hZScsICc8aW5maWxlLm1hZT4nLCAnLW9tYWUnLCAnPG91dGZpbGUubWFlPic=

> <r_lp_tautomer_probability>
1

> <r_epik_Ionization_Penalty>
0.178506

> <r_epik_Ionization_Penalty_Charging>
0.178504

> <r_epik_Ionization_Penalty_Neutral>
2.47225e-06

> <r_epik_State_Penalty>
0.167974

> <r_epik_Charging_Adjusted_Penalty>
0.346478

> <i_epik_Tot_Q>
1

> <i_epik_Tot_abs_Q>
1

> <r_epik_Metal_State_Penalty>
0.167974

> <b_epik_Metal_Only>
0

> <s_lp_Force_Field>
OPLS_2005

> <r_lp_Energy>
13.0579

> <b_lp_Chiralities_Consistent>
1

> <s_lp_Variant>
AV-unprocessed.smi:1144-2

> <Gold.Version>
5.8.1

> <Gold.Id.Protein>
6NUR|6NUR_protein|mol2

> <Gold.PLP.Fitness>
52.4917

> <Gold.PLP.PLP>
-45.2545

> <Gold.PLP.part.hbond>
-2.0000

> <Gold.PLP.part.metal>
0.0000

> <Gold.PLP.part.buried>
-4.1566

> <Gold.PLP.part.nonpolar>
-39.2044

> <Gold.PLP.part.repulsive>
0.2788

> <Gold.PLP.ligand.clash>
0.2545

> <Gold.PLP.ligand.torsion>
0.7569

> <Gold.PLP.Chemscore.Hbond>
3.0000

> <Gold.PLP.Chemscore.CHOScore>
0.0000

> <Gold.PLP.Chemscore.Metal>
0.0000

> <Gold.Chemscore.Hbonds>
donor molecule, donor type, donor heavy atom, donor atom, acceptor molecule, acceptor atom, score
      L1  H     2    35       P1  8028  2.00
      P1  H  7989  7998       L1     5  1.00

> <Gold.PLP.Chemscore.Internal.Correction>
0.0055

> <Gold.Rescore>
     Score         DG    S(hbond)    S(metal)    S(lipo)     H(rot)  DE(clash)    DE(int)     intcor
     14.94     -17.25       1.68        0.00      81.90       1.34       0.13       2.17       ----

> <Gold.Chemscore.Fitness>
14.9449

> <Gold.Chemscore.DG>
-17.2524

> <Gold.Chemscore.ZeroCoef>
-5.4800

> <Gold.Chemscore.Hbond>
1.6812

> <Gold.Chemscore.Metal>
0.0000

> <Gold.Chemscore.Lipo>
81.8979

> <Gold.Chemscore.Internal_Hbond>
0.0000

> <Gold.Chemscore.DEClash>
0.1334

> <Gold.Chemscore.DEInternal>
2.1742

> <Gold.Chemscore.Rot>
1.3379

> <Gold.Chemscore.Internal.Correction>
   9.000000E+99

> <Gold.Chemscore.Hbonds>
donor molecule, donor type, donor heavy atom, donor atom, acceptor molecule, acceptor atom, score
      L1  H     2    35       P1  8028  1.00
      P1  H  7989  7998       L1     5  0.41

> <Gold.Chemscore.Hbond.Weighted>
-5.6153

> <Gold.Chemscore.Metal.Weighted>
-0.0000

> <Gold.Chemscore.Lipo.Weighted>
-9.5821

> <Gold.Chemscore.Internal_Hbond.Weighted>
0.0000

> <Gold.Chemscore.DEClash.Weighted>
0.1334

> <Gold.Chemscore.DEInternal.Weighted>
2.1742

> <Gold.Chemscore.Rot.Weighted>
3.4250

> <Gold.Chemscore.Internal.Correction.Weighted>
   9.000000E+99

> <Gold.Protein.RotatedTorsions>
[ 6907 6896 6895 6894 ] final  -53.71 input  -60.11 | X-H torsion
[ 7974 7965 7964 7962 ] final  -22.15 input  175.53 | X-H torsion
[ 8008 7997 7996 7995 ] final  -25.02 input   59.86 | X-H torsion
[ 10167 10162 10161 10158 ] final   97.67 input  -65.29 | X-H torsion
[ 10718 10713 10712 10709 ] final -166.31 input   66.30 | X-H torsion
[ 10763 10752 10751 10750 ] final -130.28 input  -60.55 | X-H torsion
[ 11005 11000 10999 10996 ] final -179.68 input  -57.11 | X-H torsion

> <Gold.Protein.ActiveResidues>
 VAL166  LYS551  ARG553  GLY616  TRP617  ASP618  TYR619  PRO620  LYS621  CYS622 
 ASP623  PHE694  ASN695  SER759  ASP760  ASP761  ALA762  ILE779  LEU786  VAL792 
 PHE793  MET794  SER795  GLU796  ALA797  LYS798  CYS799  TRP800  GLU811  SER814 

> <Gold.Protein.RotatedAtoms>
  150.8402  134.7691  159.6925 H   0  0  0  0  0  0  0  0  0  0  0  0  # atno 6907 bound_to 6896
  152.4491  134.5428  159.9854 H   0  0  0  0  0  0  0  0  0  0  0  0  # atno 6908 bound_to 6896
  151.5570  133.3371  159.2999 H   0  0  0  0  0  0  0  0  0  0  0  0  # atno 6909 bound_to 6896
  146.1692  140.4439  142.8539 H   0  0  0  0  0  0  0  0  0  0  0  0  # atno 7974 bound_to 7965
  154.4498  140.1938  156.0554 H   0  0  0  0  0  0  0  0  0  0  0  0  # atno 8008 bound_to 7997
  156.0622  140.3295  155.7448 H   0  0  0  0  0  0  0  0  0  0  0  0  # atno 8009 bound_to 7997
  155.5393  140.0585  157.2864 H   0  0  0  0  0  0  0  0  0  0  0  0  # atno 8010 bound_to 7997
  139.7779  144.6899  151.0063 H   0  0  0  0  0  0  0  0  0  0  0  0  # atno 10167 bound_to 10162
  156.6661  130.9065  151.3036 H   0  0  0  0  0  0  0  0  0  0  0  0  # atno 10718 bound_to 10713
  154.8756  135.3867  154.4058 H   0  0  0  0  0  0  0  0  0  0  0  0  # atno 10763 bound_to 10752
  153.4777  135.7030  153.5961 H   0  0  0  0  0  0  0  0  0  0  0  0  # atno 10764 bound_to 10752
  153.4390  135.3860  155.2184 H   0  0  0  0  0  0  0  0  0  0  0  0  # atno 10765 bound_to 10752
  140.4160  134.6649  157.4639 H   0  0  0  0  0  0  0  0  0  0  0  0  # atno 11005 bound_to 11000
  144.8138  140.6432  143.6398 LP  0  0  0  0  0  0  0  0  0  0  0  0  # atno 17320 bound_to 7965
  145.4385  139.1539  143.3983 LP  0  0  0  0  0  0  0  0  0  0  0  0  # atno 17321 bound_to 7965
  140.7817  143.4515  151.0406 LP  0  0  0  0  0  0  0  0  0  0  0  0  # atno 17342 bound_to 10162
  139.8197  143.7837  152.3176 LP  0  0  0  0  0  0  0  0  0  0  0  0  # atno 17343 bound_to 10162
  157.7093  130.9422  150.1036 LP  0  0  0  0  0  0  0  0  0  0  0  0  # atno 17370 bound_to 10713
  156.1974  130.3658  149.8831 LP  0  0  0  0  0  0  0  0  0  0  0  0  # atno 17371 bound_to 10713
  140.0234  134.6513  155.9207 LP  0  0  0  0  0  0  0  0  0  0  0  0  # atno 17394 bound_to 11000
  141.1803  133.6545  156.4992 LP  0  0  0  0  0  0  0  0  0  0  0  0  # atno 17395 bound_to 11000

$$$$
