AV-unprocessed.smi:3293|AV-procd|sdf|12631|dock1
  -GOLD-   2272018563D 1   1.00000     0.00000
 Structure written by MMmdl.
 44 45  0  0  0  0  0  0  0  0  2 V2000
  141.8497  137.6956  152.7413 C   0  0  0  0  0  0  0  0  0  0  0  0
  142.5417  136.5243  152.0640 C   0  0  0  0  0  0  0  0  0  0  0  0
  141.9400  135.3199  152.0332 C   0  0  0  0  0  0  0  0  0  0  0  0
  142.4986  134.1063  151.3273 C   0  0  0  0  0  0  0  0  0  0  0  0
  143.5139  134.5144  150.2576 C   0  0  0  0  0  0  0  0  0  0  0  0
  144.5612  135.4888  150.8211 C   0  0  1  0  0  0  0  0  0  0  0  0
  145.6088  135.7987  149.7346 C   0  0  0  0  0  0  0  0  0  0  0  0
  143.9165  136.7806  151.4128 C   0  0  2  0  0  0  0  0  0  0  0  0
  144.9144  137.4769  152.3761 C   0  0  0  0  0  0  0  0  0  0  0  0
  145.5395  138.6808  151.7904 N   0  3  0  0  0  0  0  0  0  0  0  0
  146.9681  138.8387  152.1250 C   0  0  0  0  0  0  0  0  0  0  0  0
  147.1466  139.4236  153.5321 C   0  0  0  0  0  0  0  0  0  0  0  0
  148.5868  139.3931  153.9612 C   0  0  0  0  0  0  0  0  0  0  0  0
  149.3365  140.4349  154.5786 C   0  0  0  0  0  0  0  0  0  0  0  0
  150.5855  140.0855  154.8385 N   0  0  0  0  0  0  0  0  0  0  0  0
  150.6781  138.8142  154.3978 N   0  0  0  0  0  0  0  0  0  0  0  0
  151.9323  138.1036  154.5263 C   0  0  0  0  0  0  0  0  0  0  0  0
  149.4889  138.3710  153.8602 C   0  0  0  0  0  0  0  0  0  0  0  0
  141.8207  138.5594  152.0767 H   0  0  0  0  0  0  0  0  0  0  0  0
  142.3621  137.9721  153.6622 H   0  0  0  0  0  0  0  0  0  0  0  0
  140.8209  137.4484  153.0054 H   0  0  0  0  0  0  0  0  0  0  0  0
  140.9874  135.1798  152.5234 H   0  0  0  0  0  0  0  0  0  0  0  0
  142.9559  133.4497  152.0682 H   0  0  0  0  0  0  0  0  0  0  0  0
  141.6810  133.5513  150.8666 H   0  0  0  0  0  0  0  0  0  0  0  0
  143.9974  133.6217  149.8592 H   0  0  0  0  0  0  0  0  0  0  0  0
  142.9928  134.9820  149.4207 H   0  0  0  0  0  0  0  0  0  0  0  0
  145.0717  134.9652  151.6313 H   0  0  0  0  0  0  0  0  0  0  0  0
  145.1599  136.3272  148.8929 H   0  0  0  0  0  0  0  0  0  0  0  0
  146.0501  134.8803  149.3463 H   0  0  0  0  0  0  0  0  0  0  0  0
  146.4294  136.4094  150.1081 H   0  0  0  0  0  0  0  0  0  0  0  0
  143.7201  137.4540  150.5770 H   0  0  0  0  0  0  0  0  0  0  0  0
  144.4039  137.7413  153.3033 H   0  0  0  0  0  0  0  0  0  0  0  0
  145.7244  136.8052  152.6559 H   0  0  0  0  0  0  0  0  0  0  0  0
  145.4431  138.6370  150.7859 H   0  0  0  0  0  0  0  0  0  0  0  0
  147.4590  137.8665  152.0614 H   0  0  0  0  0  0  0  0  0  0  0  0
  147.4399  139.4887  151.3867 H   0  0  0  0  0  0  0  0  0  0  0  0
  146.7668  140.4458  153.5494 H   0  0  0  0  0  0  0  0  0  0  0  0
  146.5277  138.8655  154.2359 H   0  0  0  0  0  0  0  0  0  0  0  0
  149.0108  141.4292  154.8467 H   0  0  0  0  0  0  0  0  0  0  0  0
  151.7820  137.0422  154.3269 H   0  0  0  0  0  0  0  0  0  0  0  0
  152.3250  138.2205  155.5368 H   0  0  0  0  0  0  0  0  0  0  0  0
  152.6543  138.5011  153.8127 H   0  0  0  0  0  0  0  0  0  0  0  0
  149.3830  137.3745  153.4573 H   0  0  0  0  0  0  0  0  0  0  0  0
  145.0424  139.4929  152.1277 H   0  0  0  0  0  0  0  0  0  0  0  0
  1  2  1  0  0  0  0
  1 19  1  0  0  0  0
  1 20  1  0  0  0  0
  1 21  1  0  0  0  0
  2  8  1  0  0  0  0
  2  3  2  0  0  0  0
  3  4  1  0  0  0  0
  3 22  1  0  0  0  0
  4  5  1  0  0  0  0
  4 23  1  0  0  0  0
  4 24  1  0  0  0  0
  5  6  1  0  0  0  0
  5 25  1  0  0  0  0
  5 26  1  0  0  0  0
  6  7  1  0  0  0  0
  6  8  1  0  0  0  0
  6 27  1  0  0  0  0
  7 28  1  0  0  0  0
  7 29  1  0  0  0  0
  7 30  1  0  0  0  0
  8  9  1  0  0  0  0
  8 31  1  0  0  0  0
  9 10  1  0  0  0  0
  9 32  1  0  0  0  0
  9 33  1  0  0  0  0
 10 11  1  0  0  0  0
 10 34  1  0  0  0  0
 10 44  1  0  0  0  0
 11 12  1  0  0  0  0
 11 35  1  0  0  0  0
 11 36  1  0  0  0  0
 12 13  1  0  0  0  0
 12 37  1  0  0  0  0
 12 38  1  0  0  0  0
 13 18  2  0  0  0  0
 13 14  1  0  0  0  0
 14 15  2  0  0  0  0
 14 39  1  0  0  0  0
 15 16  1  0  0  0  0
 16 17  1  0  0  0  0
 16 18  1  0  0  0  0
 17 40  1  0  0  0  0
 17 41  1  0  0  0  0
 17 42  1  0  0  0  0
 18 43  1  0  0  0  0
M  CHG  1  10   1
M  END
> <s_m_source_file>
AV-unprocessed.smi

> <i_m_source_file_index>
3293

> <i_lp_mmshare_version>
43012

> <i_f3d_flags>
0

> <s_epik_input>
W0NIM11DMT1bQ0hdW0NIMl1bQ0gyXVtDQEBIXShbQ0gzXSlbQ0BIXTFbQ0gyXVtOSF1bQ0gyXVtDSDJdYzJbY0hdbm4oW0NIM10pW2NIXTI=

> <s_epik_cmdline>
J2VwaWtfcHl0aG9uJywgJy1waCcsICc3LjAnLCAnLXRuJywgJzgnLCAnLW1hJywgJzIwMCcsICctbWV0YWxfYmluZGluZycsICctaW1hZScsICc8aW5maWxlLm1hZT4nLCAnLW9tYWUnLCAnPG91dGZpbGUubWFlPic=

> <r_lp_tautomer_probability>
1

> <r_epik_Ionization_Penalty>
0.000598621

> <r_epik_Ionization_Penalty_Charging>
0.000582095

> <r_epik_Ionization_Penalty_Neutral>
1.65262e-05

> <r_epik_State_Penalty>
-0

> <r_epik_Charging_Adjusted_Penalty>
0.000582095

> <i_epik_Tot_Q>
1

> <i_epik_Tot_abs_Q>
1

> <r_epik_Metal_State_Penalty>
-0

> <b_epik_Metal_Only>
0

> <s_lp_Force_Field>
OPLS_2005

> <r_lp_Energy>
11.8092

> <b_lp_Chiralities_Consistent>
1

> <s_lp_Variant>
AV-unprocessed.smi:3293-3

> <Gold.Version>
5.8.1

> <Gold.Id.Protein>
6NUR|6NUR_protein|mol2

> <Gold.PLP.Fitness>
49.7094

> <Gold.PLP.PLP>
-37.9330

> <Gold.PLP.part.hbond>
-3.0000

> <Gold.PLP.part.metal>
0.0000

> <Gold.PLP.part.buried>
-0.2401

> <Gold.PLP.part.nonpolar>
-35.4677

> <Gold.PLP.part.repulsive>
0.1107

> <Gold.PLP.ligand.clash>
0.0000

> <Gold.PLP.ligand.torsion>
1.2276

> <Gold.PLP.Chemscore.Hbond>
3.7200

> <Gold.PLP.Chemscore.CHOScore>
0.9975

> <Gold.PLP.Chemscore.Metal>
0.0000

> <Gold.Chemscore.Hbonds>
donor molecule, donor type, donor heavy atom, donor atom, acceptor molecule, acceptor atom, score
      L1  H    10    34       P1 10171  0.56
      L1  H    10    44       P1 10175  2.00
      P1  H  7989  7998       L1    15  0.85
      L1  C    18    43       P1  7948  0.88

> <Gold.PLP.Chemscore.Internal.Correction>
0.0790

> <Gold.Rescore>
     Score         DG    S(hbond)    S(metal)    S(lipo)     H(rot)  DE(clash)    DE(int)     intcor
     16.01     -17.72       1.82        0.00      85.11       1.48       0.56       1.15       ----

> <Gold.Chemscore.Fitness>
16.0072

> <Gold.Chemscore.DG>
-17.7215

> <Gold.Chemscore.ZeroCoef>
-5.4800

> <Gold.Chemscore.Hbond>
1.8217

> <Gold.Chemscore.Metal>
0.0000

> <Gold.Chemscore.Lipo>
85.1086

> <Gold.Chemscore.Internal_Hbond>
0.0000

> <Gold.Chemscore.DEClash>
0.5606

> <Gold.Chemscore.DEInternal>
1.1538

> <Gold.Chemscore.Rot>
1.4847

> <Gold.Chemscore.Internal.Correction>
   9.000000E+99

> <Gold.Chemscore.Hbonds>
donor molecule, donor type, donor heavy atom, donor atom, acceptor molecule, acceptor atom, score
      L1  H    10    34       P1 10171  0.56
      L1  H    10    44       P1 10175  0.97
      P1  H  7989  7998       L1    15  0.08

> <Gold.Chemscore.Hbond.Weighted>
-6.0846

> <Gold.Chemscore.Metal.Weighted>
-0.0000

> <Gold.Chemscore.Lipo.Weighted>
-9.9577

> <Gold.Chemscore.Internal_Hbond.Weighted>
0.0000

> <Gold.Chemscore.DEClash.Weighted>
0.5606

> <Gold.Chemscore.DEInternal.Weighted>
1.1538

> <Gold.Chemscore.Rot.Weighted>
3.8008

> <Gold.Chemscore.Internal.Correction.Weighted>
   9.000000E+99

> <Gold.Protein.RotatedTorsions>
[ 6907 6896 6895 6894 ] final  -93.93 input  -60.11 | X-H torsion
[ 7974 7965 7964 7962 ] final  115.94 input  175.53 | X-H torsion
[ 8008 7997 7996 7995 ] final   58.24 input   59.86 | X-H torsion
[ 10167 10162 10161 10158 ] final  -33.32 input  -65.29 | X-H torsion
[ 10718 10713 10712 10709 ] final   49.88 input   66.30 | X-H torsion
[ 10763 10752 10751 10750 ] final  135.40 input  -60.55 | X-H torsion
[ 11005 11000 10999 10996 ] final -163.93 input  -57.11 | X-H torsion

> <Gold.Protein.ActiveResidues>
 VAL166  LYS551  ARG553  GLY616  TRP617  ASP618  TYR619  PRO620  LYS621  CYS622 
 ASP623  PHE694  ASN695  SER759  ASP760  ASP761  ALA762  ILE779  LEU786  VAL792 
 PHE793  MET794  SER795  GLU796  ALA797  LYS798  CYS799  TRP800  GLU811  SER814 

> <Gold.Protein.RotatedAtoms>
  150.6932  134.1891  159.4278 H   0  0  0  0  0  0  0  0  0  0  0  0  # atno 6907 bound_to 6896
  151.9863  135.0000  160.0569 H   0  0  0  0  0  0  0  0  0  0  0  0  # atno 6908 bound_to 6896
  152.1709  133.4608  159.4945 H   0  0  0  0  0  0  0  0  0  0  0  0  # atno 6909 bound_to 6896
  145.1858  139.3026  143.4394 H   0  0  0  0  0  0  0  0  0  0  0  0  # atno 7974 bound_to 7965
  155.5468  140.3485  155.4459 H   0  0  0  0  0  0  0  0  0  0  0  0  # atno 8008 bound_to 7997
  156.0612  140.1340  156.9965 H   0  0  0  0  0  0  0  0  0  0  0  0  # atno 8009 bound_to 7997
  154.4480  140.0985  156.6504 H   0  0  0  0  0  0  0  0  0  0  0  0  # atno 8010 bound_to 7997
  140.7206  143.3629  151.1928 H   0  0  0  0  0  0  0  0  0  0  0  0  # atno 10167 bound_to 10162
  157.4830  130.8327  149.8115 H   0  0  0  0  0  0  0  0  0  0  0  0  # atno 10718 bound_to 10713
  153.8394  135.3093  155.3425 H   0  0  0  0  0  0  0  0  0  0  0  0  # atno 10763 bound_to 10752
  154.7939  135.4767  154.0118 H   0  0  0  0  0  0  0  0  0  0  0  0  # atno 10764 bound_to 10752
  153.1585  135.6856  153.8869 H   0  0  0  0  0  0  0  0  0  0  0  0  # atno 10765 bound_to 10752
  140.5926  134.5029  157.5195 H   0  0  0  0  0  0  0  0  0  0  0  0  # atno 11005 bound_to 11000
  146.3445  140.2054  142.8589 LP  0  0  0  0  0  0  0  0  0  0  0  0  # atno 17320 bound_to 7965
  145.0090  140.8698  143.5235 LP  0  0  0  0  0  0  0  0  0  0  0  0  # atno 17321 bound_to 7965
  139.7184  143.9262  152.2976 LP  0  0  0  0  0  0  0  0  0  0  0  0  # atno 17342 bound_to 10162
  139.9011  144.6911  150.8664 LP  0  0  0  0  0  0  0  0  0  0  0  0  # atno 17343 bound_to 10162
  156.0132  130.3824  150.2197 LP  0  0  0  0  0  0  0  0  0  0  0  0  # atno 17370 bound_to 10713
  157.0383  131.0028  151.3291 LP  0  0  0  0  0  0  0  0  0  0  0  0  # atno 17371 bound_to 10713
  139.9267  134.8042  156.1047 LP  0  0  0  0  0  0  0  0  0  0  0  0  # atno 17394 bound_to 11000
  141.0925  133.6708  156.2572 LP  0  0  0  0  0  0  0  0  0  0  0  0  # atno 17395 bound_to 11000

$$$$
