AV-unprocessed.smi:1774|AV-procd|sdf|7165|dock1
  -GOLD-   22720 8403D 1   1.00000     0.00000
 Structure written by MMmdl.
 45 46  0  0  0  0  0  0  0  0  1 V2000
  145.2211  135.5324  150.9056 C   0  0  0  0  0  0  0  0  0  0  0  0
  145.1889  134.0303  151.1366 C   0  0  0  0  0  0  0  0  0  0  0  0
  144.2070  133.2529  150.4866 C   0  0  0  0  0  0  0  0  0  0  0  0
  144.1787  131.8642  150.7001 C   0  0  0  0  0  0  0  0  0  0  0  0
  145.1404  131.3081  151.5608 C   0  0  0  0  0  0  0  0  0  0  0  0
  146.0819  132.0431  152.1867 N   0  0  0  0  0  0  0  0  0  0  0  0
  146.1228  133.3854  151.9916 C   0  0  0  0  0  0  0  0  0  0  0  0
  147.0904  134.2232  152.6149 N   0  0  0  0  0  0  0  0  0  0  0  0
  147.5081  134.2121  153.8931 C   0  0  0  0  0  0  0  0  0  0  0  0
  147.0754  133.4729  154.7778 O   0  0  0  0  0  0  0  0  0  0  0  0
  148.4761  135.1191  154.0922 N   0  0  0  0  0  0  0  0  0  0  0  0
  149.1924  135.3291  155.3468 C   0  0  0  0  0  0  0  0  0  0  0  0
  150.5684  135.9818  155.1082 C   0  0  0  0  0  0  0  0  0  0  0  0
  150.6514  137.4054  155.4320 N   0  0  0  0  0  0  0  0  0  0  0  0
  149.6640  138.2066  154.7161 C   0  0  0  0  0  0  0  0  0  0  0  0
  149.7373  139.6905  155.1171 C   0  0  2  0  0  0  0  0  0  0  0  0
  148.7628  140.5546  154.3106 C   0  0  0  0  0  0  0  0  0  0  0  0
  151.0587  140.1791  154.8903 O   0  0  0  0  0  0  0  0  0  0  0  0
  152.1008  139.4329  155.5219 C   0  0  1  0  0  0  0  0  0  0  0  0
  152.1471  139.6886  157.0383 C   0  0  0  0  0  0  0  0  0  0  0  0
  151.9805  137.9390  155.1602 C   0  0  0  0  0  0  0  0  0  0  0  0
  144.4358  135.8454  150.2169 H   0  0  0  0  0  0  0  0  0  0  0  0
  146.1788  135.8330  150.4798 H   0  0  0  0  0  0  0  0  0  0  0  0
  145.0759  136.0664  151.8450 H   0  0  0  0  0  0  0  0  0  0  0  0
  143.4823  133.7121  149.8303 H   0  0  0  0  0  0  0  0  0  0  0  0
  143.4399  131.2422  150.2170 H   0  0  0  0  0  0  0  0  0  0  0  0
  145.1554  130.2452  151.7520 H   0  0  0  0  0  0  0  0  0  0  0  0
  147.5317  134.8975  152.0077 H   0  0  0  0  0  0  0  0  0  0  0  0
  148.7646  135.6845  153.3073 H   0  0  0  0  0  0  0  0  0  0  0  0
  148.5862  135.9992  155.9563 H   0  0  0  0  0  0  0  0  0  0  0  0
  149.2734  134.4044  155.9188 H   0  0  0  0  0  0  0  0  0  0  0  0
  151.2992  135.4368  155.7074 H   0  0  0  0  0  0  0  0  0  0  0  0
  150.8646  135.8280  154.0697 H   0  0  0  0  0  0  0  0  0  0  0  0
  149.8190  138.1087  153.6402 H   0  0  0  0  0  0  0  0  0  0  0  0
  148.6580  137.8419  154.9186 H   0  0  0  0  0  0  0  0  0  0  0  0
  149.4897  139.7923  156.1742 H   0  0  0  0  0  0  0  0  0  0  0  0
  147.7337  140.2276  154.4604 H   0  0  0  0  0  0  0  0  0  0  0  0
  148.9794  140.5031  153.2431 H   0  0  0  0  0  0  0  0  0  0  0  0
  148.8268  141.5999  154.6142 H   0  0  0  0  0  0  0  0  0  0  0  0
  153.0381  139.8044  155.1072 H   0  0  0  0  0  0  0  0  0  0  0  0
  153.0127  139.2006  157.4865 H   0  0  0  0  0  0  0  0  0  0  0  0
  151.2612  139.3081  157.5465 H   0  0  0  0  0  0  0  0  0  0  0  0
  152.2223  140.7553  157.2503 H   0  0  0  0  0  0  0  0  0  0  0  0
  152.7318  137.3708  155.7102 H   0  0  0  0  0  0  0  0  0  0  0  0
  152.2131  137.8105  154.1017 H   0  0  0  0  0  0  0  0  0  0  0  0
  1  2  1  0  0  0  0
  1 22  1  0  0  0  0
  1 23  1  0  0  0  0
  1 24  1  0  0  0  0
  2  7  1  0  0  0  0
  2  3  2  0  0  0  0
  3  4  1  0  0  0  0
  3 25  1  0  0  0  0
  4  5  2  0  0  0  0
  4 26  1  0  0  0  0
  5  6  1  0  0  0  0
  5 27  1  0  0  0  0
  6  7  2  0  0  0  0
  7  8  1  0  0  0  0
  8  9  1  0  0  0  0
  8 28  1  0  0  0  0
  9 10  2  0  0  0  0
  9 11  1  0  0  0  0
 11 12  1  0  0  0  0
 11 29  1  0  0  0  0
 12 13  1  0  0  0  0
 12 30  1  0  0  0  0
 12 31  1  0  0  0  0
 13 14  1  0  0  0  0
 13 32  1  0  0  0  0
 13 33  1  0  0  0  0
 14 21  1  0  0  0  0
 14 15  1  0  0  0  0
 15 16  1  0  0  0  0
 15 34  1  0  0  0  0
 15 35  1  0  0  0  0
 16 17  1  0  0  0  0
 16 18  1  0  0  0  0
 16 36  1  0  0  0  0
 17 37  1  0  0  0  0
 17 38  1  0  0  0  0
 17 39  1  0  0  0  0
 18 19  1  0  0  0  0
 19 20  1  0  0  0  0
 19 21  1  0  0  0  0
 19 40  1  0  0  0  0
 20 41  1  0  0  0  0
 20 42  1  0  0  0  0
 20 43  1  0  0  0  0
 21 44  1  0  0  0  0
 21 45  1  0  0  0  0
M  END
> <s_m_source_file>
AV-unprocessed.smi

> <i_m_source_file_index>
1774

> <i_lp_mmshare_version>
43012

> <i_f3d_flags>
0

> <s_epik_input>
W0NIM11jMVtjSF1bY0hdW2NIXW5jMVtOSF1DKD1PKVtOSF1bQ0gyXVtDSDJdTjJbQ0gyXVtDQEBIXShbQ0gzXSlPW0NAQEhdKFtDSDNdKVtDSDJdMg==

> <s_epik_cmdline>
J2VwaWtfcHl0aG9uJywgJy1waCcsICc3LjAnLCAnLXRuJywgJzgnLCAnLW1hJywgJzIwMCcsICctbWV0YWxfYmluZGluZycsICctaW1hZScsICc8aW5maWxlLm1hZT4nLCAnLW9tYWUnLCAnPG91dGZpbGUubWFlPic=

> <r_epik_Ionization_Penalty>
0.266047

> <r_epik_Ionization_Penalty_Charging>
0

> <r_epik_Ionization_Penalty_Neutral>
0.266047

> <r_epik_State_Penalty>
0.257924

> <r_epik_Charging_Adjusted_Penalty>
0.257924

> <i_epik_Tot_Q>
0

> <i_epik_Tot_abs_Q>
0

> <r_epik_Metal_State_Penalty>
0.257922

> <b_epik_Metal_Only>
0

> <s_lp_Force_Field>
OPLS_2005

> <r_lp_Energy>
29.5878

> <b_lp_Chiralities_Consistent>
1

> <s_lp_Variant>
AV-unprocessed.smi:1774-2

> <Gold.Version>
5.8.1

> <Gold.Id.Protein>
6NUR|6NUR_protein|mol2

> <Gold.PLP.Fitness>
43.8339

> <Gold.PLP.PLP>
-36.7132

> <Gold.PLP.part.hbond>
-2.9412

> <Gold.PLP.part.metal>
0.0000

> <Gold.PLP.part.buried>
-5.5068

> <Gold.PLP.part.nonpolar>
-29.2252

> <Gold.PLP.part.repulsive>
0.3307

> <Gold.PLP.ligand.clash>
0.0000

> <Gold.PLP.ligand.torsion>
0.8462

> <Gold.PLP.Chemscore.Hbond>
2.9280

> <Gold.PLP.Chemscore.CHOScore>
0.0000

> <Gold.PLP.Chemscore.Metal>
0.0000

> <Gold.Chemscore.Hbonds>
donor molecule, donor type, donor heavy atom, donor atom, acceptor molecule, acceptor atom, score
      L1  H     8    28       P1  7948  0.91
      L1  H    11    29       P1  7948  1.00
      P1  H  7989  7998       L1    18  1.00

> <Gold.PLP.Chemscore.Internal.Correction>
0.0292

> <Gold.Rescore>
     Score         DG    S(hbond)    S(metal)    S(lipo)     H(rot)  DE(clash)    DE(int)     intcor
     20.06     -20.98       2.77        0.00      85.37       1.46       0.04       0.89       ----

> <Gold.Chemscore.Fitness>
20.0552

> <Gold.Chemscore.DG>
-20.9826

> <Gold.Chemscore.ZeroCoef>
-5.4800

> <Gold.Chemscore.Hbond>
2.7670

> <Gold.Chemscore.Metal>
0.0000

> <Gold.Chemscore.Lipo>
85.3725

> <Gold.Chemscore.Internal_Hbond>
0.0000

> <Gold.Chemscore.DEClash>
0.0402

> <Gold.Chemscore.DEInternal>
0.8872

> <Gold.Chemscore.Rot>
1.4562

> <Gold.Chemscore.Internal.Correction>
   9.000000E+99

> <Gold.Chemscore.Hbonds>
donor molecule, donor type, donor heavy atom, donor atom, acceptor molecule, acceptor atom, score
      L1  H     8    28       P1  7948  0.73
      L1  H    11    29       P1  7948  0.89
      P1  H  7989  7998       L1    18  0.70

> <Gold.Chemscore.Hbond.Weighted>
-9.2418

> <Gold.Chemscore.Metal.Weighted>
-0.0000

> <Gold.Chemscore.Lipo.Weighted>
-9.9886

> <Gold.Chemscore.Internal_Hbond.Weighted>
0.0000

> <Gold.Chemscore.DEClash.Weighted>
0.0402

> <Gold.Chemscore.DEInternal.Weighted>
0.8872

> <Gold.Chemscore.Rot.Weighted>
3.7278

> <Gold.Chemscore.Internal.Correction.Weighted>
   9.000000E+99

> <Gold.Protein.RotatedTorsions>
[ 6907 6896 6895 6894 ] final -125.39 input  -60.11 | X-H torsion
[ 7974 7965 7964 7962 ] final  -32.26 input  175.53 | X-H torsion
[ 8008 7997 7996 7995 ] final   52.07 input   59.86 | X-H torsion
[ 10167 10162 10161 10158 ] final  148.91 input  -65.29 | X-H torsion
[ 10718 10713 10712 10709 ] final  100.66 input   66.30 | X-H torsion
[ 10763 10752 10751 10750 ] final  -96.82 input  -60.55 | X-H torsion
[ 11005 11000 10999 10996 ] final  -46.46 input  -57.11 | X-H torsion

> <Gold.Protein.ActiveResidues>
 VAL166  LYS551  ARG553  GLY616  TRP617  ASP618  TYR619  PRO620  LYS621  CYS622 
 ASP623  PHE694  ASN695  SER759  ASP760  ASP761  ALA762  ILE779  LEU786  VAL792 
 PHE793  MET794  SER795  GLU796  ALA797  LYS798  CYS799  TRP800  GLU811  SER814 

> <Gold.Protein.RotatedAtoms>
  150.8863  133.7303  159.2917 H   0  0  0  0  0  0  0  0  0  0  0  0  # atno 6907 bound_to 6896
  151.4868  135.1054  159.9802 H   0  0  0  0  0  0  0  0  0  0  0  0  # atno 6908 bound_to 6896
  152.4792  133.8166  159.7087 H   0  0  0  0  0  0  0  0  0  0  0  0  # atno 6909 bound_to 6896
  146.1003  140.5771  142.8824 H   0  0  0  0  0  0  0  0  0  0  0  0  # atno 7974 bound_to 7965
  155.4457  140.3456  155.4295 H   0  0  0  0  0  0  0  0  0  0  0  0  # atno 8008 bound_to 7997
  156.1251  140.1498  156.9178 H   0  0  0  0  0  0  0  0  0  0  0  0  # atno 8009 bound_to 7997
  154.4852  140.0857  156.7450 H   0  0  0  0  0  0  0  0  0  0  0  0  # atno 8010 bound_to 7997
  139.4868  144.5643  151.7174 H   0  0  0  0  0  0  0  0  0  0  0  0  # atno 10167 bound_to 10162
  157.6849  131.0704  150.5134 H   0  0  0  0  0  0  0  0  0  0  0  0  # atno 10718 bound_to 10713
  154.7274  135.5069  153.8908 H   0  0  0  0  0  0  0  0  0  0  0  0  # atno 10763 bound_to 10752
  153.0917  135.6661  153.9849 H   0  0  0  0  0  0  0  0  0  0  0  0  # atno 10764 bound_to 10752
  153.9659  135.3043  155.3410 H   0  0  0  0  0  0  0  0  0  0  0  0  # atno 10765 bound_to 10752
  141.0580  133.6719  156.3158 H   0  0  0  0  0  0  0  0  0  0  0  0  # atno 11005 bound_to 11000
  144.7428  140.4987  143.6857 LP  0  0  0  0  0  0  0  0  0  0  0  0  # atno 17320 bound_to 7965
  145.5867  139.1492  143.3205 LP  0  0  0  0  0  0  0  0  0  0  0  0  # atno 17321 bound_to 7965
  140.5218  144.0867  150.6025 LP  0  0  0  0  0  0  0  0  0  0  0  0  # atno 17342 bound_to 10162
  140.3828  143.2794  152.0151 LP  0  0  0  0  0  0  0  0  0  0  0  0  # atno 17343 bound_to 10162
  156.5450  130.4217  149.6135 LP  0  0  0  0  0  0  0  0  0  0  0  0  # atno 17370 bound_to 10713
  156.2952  130.7146  151.2005 LP  0  0  0  0  0  0  0  0  0  0  0  0  # atno 17371 bound_to 10713
  140.5925  134.5636  157.5502 LP  0  0  0  0  0  0  0  0  0  0  0  0  # atno 17394 bound_to 11000
  139.9407  134.7792  156.0685 LP  0  0  0  0  0  0  0  0  0  0  0  0  # atno 17395 bound_to 11000

$$$$
