AV-unprocessed.smi:2242|AV-procd|sdf|9060|dock3
  -GOLD-   2272012263D 1   1.00000     0.00000
 Structure written by MMmdl.
 43 44  0  0  0  0  0  0  0  0  1 V2000
  145.3706  132.3093  149.9010 C   0  0  0  0  0  0  0  0  0  0  0  0
  144.9153  133.3924  150.8560 C   0  0  0  0  0  0  0  0  0  0  0  0
  143.6152  133.3814  151.3965 C   0  0  0  0  0  0  0  0  0  0  0  0
  143.2533  134.4192  152.2777 C   0  0  0  0  0  0  0  0  0  0  0  0
  141.8727  134.4706  152.8975 C   0  0  0  0  0  0  0  0  0  0  0  0
  144.0929  135.4183  152.6239 N   0  0  0  0  0  0  0  0  0  0  0  0
  145.3472  135.4393  152.1086 C   0  0  0  0  0  0  0  0  0  0  0  0
  146.3043  136.4452  152.4055 N   0  0  0  0  0  0  0  0  0  0  0  0
  146.1659  137.5136  153.2102 C   0  0  0  0  0  0  0  0  0  0  0  0
  145.1503  137.7993  153.8450 O   0  0  0  0  0  0  0  0  0  0  0  0
  147.2928  138.2413  153.2410 N   0  0  0  0  0  0  0  0  0  0  0  0
  147.5064  139.4667  154.0119 C   0  0  2  0  0  0  0  0  0  0  0  0
  147.4951  140.6526  153.0322 C   0  0  0  0  0  0  0  0  0  0  0  0
  148.8146  139.3646  154.8408 C   0  0  0  0  0  0  0  0  0  0  0  0
  149.3440  140.7455  155.2844 C   0  0  0  0  0  0  0  0  0  0  0  0
  150.6780  140.6193  156.0369 C   0  0  0  0  0  0  0  0  0  0  0  0
  151.6357  139.9556  155.2218 O   0  0  0  0  0  0  0  0  0  0  0  0
  151.2482  138.6272  154.8948 C   0  0  0  0  0  0  0  0  0  0  0  0
  149.9449  138.6425  154.0794 C   0  0  0  0  0  0  0  0  0  0  0  0
  145.7910  134.4351  151.2194 C   0  0  0  0  0  0  0  0  0  0  0  0
  144.5798  131.5804  149.7209 H   0  0  0  0  0  0  0  0  0  0  0  0
  146.2334  131.7834  150.3102 H   0  0  0  0  0  0  0  0  0  0  0  0
  145.6560  132.7465  148.9439 H   0  0  0  0  0  0  0  0  0  0  0  0
  142.9143  132.5994  151.1424 H   0  0  0  0  0  0  0  0  0  0  0  0
  141.2570  133.6348  152.5640 H   0  0  0  0  0  0  0  0  0  0  0  0
  141.3678  135.3965  152.6210 H   0  0  0  0  0  0  0  0  0  0  0  0
  141.9436  134.4290  153.9847 H   0  0  0  0  0  0  0  0  0  0  0  0
  147.1984  136.3404  151.9494 H   0  0  0  0  0  0  0  0  0  0  0  0
  148.0722  137.9210  152.6851 H   0  0  0  0  0  0  0  0  0  0  0  0
  146.6786  139.6136  154.7078 H   0  0  0  0  0  0  0  0  0  0  0  0
  147.5135  141.6084  153.5547 H   0  0  0  0  0  0  0  0  0  0  0  0
  146.5917  140.6452  152.4210 H   0  0  0  0  0  0  0  0  0  0  0  0
  148.3516  140.6208  152.3580 H   0  0  0  0  0  0  0  0  0  0  0  0
  148.5985  138.7885  155.7421 H   0  0  0  0  0  0  0  0  0  0  0  0
  149.4797  141.3853  154.4114 H   0  0  0  0  0  0  0  0  0  0  0  0
  148.6237  141.2490  155.9293 H   0  0  0  0  0  0  0  0  0  0  0  0
  151.0587  141.6088  156.2911 H   0  0  0  0  0  0  0  0  0  0  0  0
  150.5451  140.0795  156.9757 H   0  0  0  0  0  0  0  0  0  0  0  0
  152.0458  138.1618  154.3157 H   0  0  0  0  0  0  0  0  0  0  0  0
  151.1308  138.0366  155.8047 H   0  0  0  0  0  0  0  0  0  0  0  0
  149.6638  137.6150  153.8519 H   0  0  0  0  0  0  0  0  0  0  0  0
  150.1226  139.1380  153.1239 H   0  0  0  0  0  0  0  0  0  0  0  0
  146.7932  134.4624  150.8161 H   0  0  0  0  0  0  0  0  0  0  0  0
  1  2  1  0  0  0  0
  1 21  1  0  0  0  0
  1 22  1  0  0  0  0
  1 23  1  0  0  0  0
  2 20  1  0  0  0  0
  2  3  2  0  0  0  0
  3  4  1  0  0  0  0
  3 24  1  0  0  0  0
  4  5  1  0  0  0  0
  4  6  2  0  0  0  0
  5 25  1  0  0  0  0
  5 26  1  0  0  0  0
  5 27  1  0  0  0  0
  6  7  1  0  0  0  0
  7  8  1  0  0  0  0
  7 20  2  0  0  0  0
  8  9  1  0  0  0  0
  8 28  1  0  0  0  0
  9 10  2  0  0  0  0
  9 11  1  0  0  0  0
 11 12  1  0  0  0  0
 11 29  1  0  0  0  0
 12 13  1  0  0  0  0
 12 14  1  0  0  0  0
 12 30  1  0  0  0  0
 13 31  1  0  0  0  0
 13 32  1  0  0  0  0
 13 33  1  0  0  0  0
 14 19  1  0  0  0  0
 14 15  1  0  0  0  0
 14 34  1  0  0  0  0
 15 16  1  0  0  0  0
 15 35  1  0  0  0  0
 15 36  1  0  0  0  0
 16 17  1  0  0  0  0
 16 37  1  0  0  0  0
 16 38  1  0  0  0  0
 17 18  1  0  0  0  0
 18 19  1  0  0  0  0
 18 39  1  0  0  0  0
 18 40  1  0  0  0  0
 19 41  1  0  0  0  0
 19 42  1  0  0  0  0
 20 43  1  0  0  0  0
M  END
> <s_m_source_file>
AV-unprocessed.smi

> <i_m_source_file_index>
2242

> <i_lp_mmshare_version>
43012

> <i_f3d_flags>
0

> <s_epik_input>
W0NIM11jMVtjSF1jKFtDSDNdKW5jKFtjSF0xKVtOSF1DKD1PKVtOSF1bQ0BIXShbQ0gzXSlbQ0hdMltDSDJdW0NIMl1PW0NIMl1bQ0gyXTI=

> <s_epik_cmdline>
J2VwaWtfcHl0aG9uJywgJy1waCcsICc3LjAnLCAnLXRuJywgJzgnLCAnLW1hJywgJzIwMCcsICctbWV0YWxfYmluZGluZycsICctaW1hZScsICc8aW5maWxlLm1hZT4nLCAnLW9tYWUnLCAnPG91dGZpbGUubWFlPic=

> <r_lp_tautomer_probability>
1

> <r_epik_Ionization_Penalty>
0.000270135

> <r_epik_Ionization_Penalty_Charging>
0

> <r_epik_Ionization_Penalty_Neutral>
0.000270135

> <r_epik_State_Penalty>
-0

> <r_epik_Charging_Adjusted_Penalty>
0

> <i_epik_Tot_Q>
0

> <i_epik_Tot_abs_Q>
0

> <r_epik_Metal_State_Penalty>
-0

> <b_epik_Metal_Only>
0

> <s_lp_Force_Field>
OPLS_2005

> <r_lp_Energy>
14.1079

> <b_lp_Chiralities_Consistent>
1

> <s_lp_Variant>
AV-unprocessed.smi:2242-1

> <Gold.Version>
5.8.1

> <Gold.Id.Protein>
6NUR|6NUR_protein|mol2

> <Gold.PLP.Fitness>
43.1160

> <Gold.PLP.PLP>
-35.5917

> <Gold.PLP.part.hbond>
-3.0000

> <Gold.PLP.part.metal>
0.0000

> <Gold.PLP.part.buried>
-3.7752

> <Gold.PLP.part.nonpolar>
-30.0959

> <Gold.PLP.part.repulsive>
0.3560

> <Gold.PLP.ligand.clash>
0.0000

> <Gold.PLP.ligand.torsion>
0.5429

> <Gold.PLP.Chemscore.Hbond>
2.8640

> <Gold.PLP.Chemscore.CHOScore>
0.0000

> <Gold.PLP.Chemscore.Metal>
0.0000

> <Gold.Chemscore.Hbonds>
donor molecule, donor type, donor heavy atom, donor atom, acceptor molecule, acceptor atom, score
      L1  H     8    28       P1  7948  1.00
      L1  H    11    29       P1  7948  0.83
      P1  H  7989  7998       L1    17  1.00

> <Gold.PLP.Chemscore.Internal.Correction>
0.0181

> <Gold.Rescore>
     Score         DG    S(hbond)    S(metal)    S(lipo)     H(rot)  DE(clash)    DE(int)     intcor
     18.20     -21.33       2.41        0.00      92.69       1.19       1.38       1.76       ----

> <Gold.Chemscore.Fitness>
18.1950

> <Gold.Chemscore.DG>
-21.3287

> <Gold.Chemscore.ZeroCoef>
-5.4800

> <Gold.Chemscore.Hbond>
2.4109

> <Gold.Chemscore.Metal>
0.0000

> <Gold.Chemscore.Lipo>
92.6932

> <Gold.Chemscore.Internal_Hbond>
0.0000

> <Gold.Chemscore.DEClash>
1.3772

> <Gold.Chemscore.DEInternal>
1.7565

> <Gold.Chemscore.Rot>
1.1909

> <Gold.Chemscore.Internal.Correction>
   9.000000E+99

> <Gold.Chemscore.Hbonds>
donor molecule, donor type, donor heavy atom, donor atom, acceptor molecule, acceptor atom, score
      L1  H     8    28       P1  7948  0.99
      L1  H    11    29       P1  7948  0.78
      P1  H  7989  7998       L1    17  0.26

> <Gold.Chemscore.Hbond.Weighted>
-8.0523

> <Gold.Chemscore.Metal.Weighted>
-0.0000

> <Gold.Chemscore.Lipo.Weighted>
-10.8451

> <Gold.Chemscore.Internal_Hbond.Weighted>
0.0000

> <Gold.Chemscore.DEClash.Weighted>
1.3772

> <Gold.Chemscore.DEInternal.Weighted>
1.7565

> <Gold.Chemscore.Rot.Weighted>
3.0487

> <Gold.Chemscore.Internal.Correction.Weighted>
   9.000000E+99

> <Gold.Protein.RotatedTorsions>
[ 6907 6896 6895 6894 ] final -155.75 input  -60.11 | X-H torsion
[ 7974 7965 7964 7962 ] final   -7.46 input  175.53 | X-H torsion
[ 8008 7997 7996 7995 ] final -136.65 input   59.86 | X-H torsion
[ 10167 10162 10161 10158 ] final  172.52 input  -65.29 | X-H torsion
[ 10718 10713 10712 10709 ] final -160.89 input   66.30 | X-H torsion
[ 10763 10752 10751 10750 ] final  -87.79 input  -60.55 | X-H torsion
[ 11005 11000 10999 10996 ] final  104.27 input  -57.11 | X-H torsion

> <Gold.Protein.ActiveResidues>
 VAL166  LYS551  ARG553  GLY616  TRP617  ASP618  TYR619  PRO620  LYS621  CYS622 
 ASP623  PHE694  ASN695  SER759  ASP760  ASP761  ALA762  ILE779  LEU786  VAL792 
 PHE793  MET794  SER795  GLU796  ALA797  LYS798  CYS799  TRP800  GLU811  SER814 

> <Gold.Protein.RotatedAtoms>
  151.2773  133.4226  159.2624 H   0  0  0  0  0  0  0  0  0  0  0  0  # atno 6907 bound_to 6896
  151.0392  134.9595  159.8163 H   0  0  0  0  0  0  0  0  0  0  0  0  # atno 6908 bound_to 6896
  152.5361  134.2731  159.9031 H   0  0  0  0  0  0  0  0  0  0  0  0  # atno 6909 bound_to 6896
  146.2306  140.2323  142.8340 H   0  0  0  0  0  0  0  0  0  0  0  0  # atno 7974 bound_to 7965
  155.3988  140.0504  157.3037 H   0  0  0  0  0  0  0  0  0  0  0  0  # atno 8008 bound_to 7997
  154.5000  140.2153  155.9326 H   0  0  0  0  0  0  0  0  0  0  0  0  # atno 8009 bound_to 7997
  156.1455  140.3146  155.8569 H   0  0  0  0  0  0  0  0  0  0  0  0  # atno 8010 bound_to 7997
  139.5079  144.3365  152.0060 H   0  0  0  0  0  0  0  0  0  0  0  0  # atno 10167 bound_to 10162
  156.5885  130.8760  151.2884 H   0  0  0  0  0  0  0  0  0  0  0  0  # atno 10718 bound_to 10713
  154.6375  135.5400  153.7751 H   0  0  0  0  0  0  0  0  0  0  0  0  # atno 10763 bound_to 10752
  153.0316  135.6451  154.1209 H   0  0  0  0  0  0  0  0  0  0  0  0  # atno 10764 bound_to 10752
  154.1135  135.2925  155.3205 H   0  0  0  0  0  0  0  0  0  0  0  0  # atno 10765 bound_to 10752
  139.8790  134.9294  156.5336 H   0  0  0  0  0  0  0  0  0  0  0  0  # atno 11005 bound_to 11000
  144.9548  140.8215  143.5549 LP  0  0  0  0  0  0  0  0  0  0  0  0  # atno 17320 bound_to 7965
  145.2288  139.2125  143.5054 LP  0  0  0  0  0  0  0  0  0  0  0  0  # atno 17321 bound_to 7965
  140.2803  144.3866  150.6121 LP  0  0  0  0  0  0  0  0  0  0  0  0  # atno 17342 bound_to 10162
  140.6023  143.2167  151.7049 LP  0  0  0  0  0  0  0  0  0  0  0  0  # atno 17343 bound_to 10162
  157.7309  130.9692  150.1856 LP  0  0  0  0  0  0  0  0  0  0  0  0  # atno 17370 bound_to 10713
  156.2570  130.3706  149.8171 LP  0  0  0  0  0  0  0  0  0  0  0  0  # atno 17371 bound_to 10713
  140.8362  133.8240  155.9031 LP  0  0  0  0  0  0  0  0  0  0  0  0  # atno 17394 bound_to 11000
  140.9281  134.2056  157.4882 LP  0  0  0  0  0  0  0  0  0  0  0  0  # atno 17395 bound_to 11000

$$$$
