AV-unprocessed.smi:1032|AV-procd|sdf|4485|dock7
  -GOLD-   22720 2463D 1   1.00000     0.00000
 Structure written by MMmdl.
 46 47  0  0  0  0  0  0  0  0  2 V2000
  143.9510  136.2842  152.8290 C   0  0  0  0  0  0  0  0  0  0  0  0
  145.4365  135.9547  152.6005 C   0  0  2  0  0  0  0  0  0  0  0  0
  146.3268  136.3545  153.7913 C   0  0  0  0  0  0  0  0  0  0  0  0
  146.5423  137.8763  153.8747 C   0  0  0  0  0  0  0  0  0  0  0  0
  147.0957  138.4115  152.6026 N   0  3  2  0  0  0  0  0  0  0  0  0
  147.4448  139.8539  152.6744 C   0  0  0  0  0  0  0  0  0  0  0  0
  148.2342  140.2088  153.9511 C   0  0  1  0  0  0  0  0  0  0  0  0
  149.5079  140.6611  153.5348 O   0  0  0  0  0  0  0  0  0  0  0  0
  147.5488  141.3414  154.7429 C   0  0  0  0  0  0  0  0  0  0  0  0
  148.5123  142.1611  155.4704 N   0  0  0  0  0  0  0  0  0  0  0  0
  149.4091  141.6958  156.3517 C   0  0  0  0  0  0  0  0  0  0  0  0
  149.4980  140.5080  156.6615 O   0  0  0  0  0  0  0  0  0  0  0  0
  150.1601  142.6914  156.8538 N   0  0  0  0  0  0  0  0  0  0  0  0
  151.2382  142.6126  157.7770 C   0  0  0  0  0  0  0  0  0  0  0  0
  151.9364  143.8013  158.0745 C   0  0  0  0  0  0  0  0  0  0  0  0
  153.0226  143.7451  158.9705 C   0  0  0  0  0  0  0  0  0  0  0  0
  153.4413  142.6043  159.5579 N   0  0  0  0  0  0  0  0  0  0  0  0
  152.7806  141.4652  159.2616 C   0  0  0  0  0  0  0  0  0  0  0  0
  151.6819  141.4112  158.3807 C   0  0  0  0  0  0  0  0  0  0  0  0
  146.2139  138.1001  151.4486 C   0  0  0  0  0  0  0  0  0  0  0  0
  145.9936  136.5830  151.3103 C   0  0  0  0  0  0  0  0  0  0  0  0
  143.7787  137.3535  152.9486 H   0  0  0  0  0  0  0  0  0  0  0  0
  143.5750  135.7880  153.7240 H   0  0  0  0  0  0  0  0  0  0  0  0
  143.3434  135.9448  151.9897 H   0  0  0  0  0  0  0  0  0  0  0  0
  145.4977  134.8708  152.4924 H   0  0  0  0  0  0  0  0  0  0  0  0
  145.8990  135.9847  154.7240 H   0  0  0  0  0  0  0  0  0  0  0  0
  147.2974  135.8669  153.6907 H   0  0  0  0  0  0  0  0  0  0  0  0
  145.6037  138.3810  154.1074 H   0  0  0  0  0  0  0  0  0  0  0  0
  147.2208  138.0891  154.7001 H   0  0  0  0  0  0  0  0  0  0  0  0
  148.0479  140.1343  151.8088 H   0  0  0  0  0  0  0  0  0  0  0  0
  146.5308  140.4460  152.6078 H   0  0  0  0  0  0  0  0  0  0  0  0
  148.3488  139.3319  154.5885 H   0  0  0  0  0  0  0  0  0  0  0  0
  149.5247  140.6841  152.5891 H   0  0  0  0  0  0  0  0  0  0  0  0
  146.9047  141.9494  154.1044 H   0  0  0  0  0  0  0  0  0  0  0  0
  146.8952  140.9095  155.5012 H   0  0  0  0  0  0  0  0  0  0  0  0
  148.5042  143.1524  155.2786 H   0  0  0  0  0  0  0  0  0  0  0  0
  149.9064  143.6257  156.5683 H   0  0  0  0  0  0  0  0  0  0  0  0
  151.6468  144.7426  157.6305 H   0  0  0  0  0  0  0  0  0  0  0  0
  153.5715  144.6411  159.2202 H   0  0  0  0  0  0  0  0  0  0  0  0
  153.1429  140.5653  159.7365 H   0  0  0  0  0  0  0  0  0  0  0  0
  151.2181  140.4580  158.1792 H   0  0  0  0  0  0  0  0  0  0  0  0
  145.2617  138.6198  151.5627 H   0  0  0  0  0  0  0  0  0  0  0  0
  146.6671  138.4743  150.5298 H   0  0  0  0  0  0  0  0  0  0  0  0
  146.9457  136.1098  151.0655 H   0  0  0  0  0  0  0  0  0  0  0  0
  145.3294  136.3751  150.4707 H   0  0  0  0  0  0  0  0  0  0  0  0
  147.9637  137.9241  152.4285 H   0  0  0  0  0  0  0  0  0  0  0  0
  1  2  1  0  0  0  0
  1 22  1  0  0  0  0
  1 23  1  0  0  0  0
  1 24  1  0  0  0  0
  2 21  1  0  0  0  0
  2  3  1  0  0  0  0
  2 25  1  0  0  0  0
  3  4  1  0  0  0  0
  3 26  1  0  0  0  0
  3 27  1  0  0  0  0
  4  5  1  0  0  0  0
  4 28  1  0  0  0  0
  4 29  1  0  0  0  0
  5  6  1  0  0  0  0
  5 20  1  0  0  0  0
  5 46  1  0  0  0  0
  6  7  1  0  0  0  0
  6 30  1  0  0  0  0
  6 31  1  0  0  0  0
  7  8  1  0  0  0  0
  7  9  1  0  0  0  0
  7 32  1  0  0  0  0
  8 33  1  0  0  0  0
  9 10  1  0  0  0  0
  9 34  1  0  0  0  0
  9 35  1  0  0  0  0
 10 11  1  0  0  0  0
 10 36  1  0  0  0  0
 11 12  2  0  0  0  0
 11 13  1  0  0  0  0
 13 14  1  0  0  0  0
 13 37  1  0  0  0  0
 14 19  1  0  0  0  0
 14 15  2  0  0  0  0
 15 16  1  0  0  0  0
 15 38  1  0  0  0  0
 16 17  2  0  0  0  0
 16 39  1  0  0  0  0
 17 18  1  0  0  0  0
 18 19  2  0  0  0  0
 18 40  1  0  0  0  0
 19 41  1  0  0  0  0
 20 21  1  0  0  0  0
 20 42  1  0  0  0  0
 20 43  1  0  0  0  0
 21 44  1  0  0  0  0
 21 45  1  0  0  0  0
M  CHG  1   5   1
M  END
> <s_m_source_file>
AV-unprocessed.smi

> <i_m_source_file_index>
1032

> <i_lp_mmshare_version>
43012

> <i_f3d_flags>
0

> <s_epik_input>
W0NIM11bQ0hdMVtDSDJdW0NIMl1OKFtDSDJdW0NIMl0xKVtDSDJdW0NASF0oW09IXSlbQ0gyXVtOSF1DKD1PKVtOSF1jMltjSF1bY0hdbltjSF1bY0hdMg==

> <s_epik_cmdline>
J2VwaWtfcHl0aG9uJywgJy1waCcsICc3LjAnLCAnLXRuJywgJzgnLCAnLW1hJywgJzIwMCcsICctbWV0YWxfYmluZGluZycsICctaW1hZScsICc8aW5maWxlLm1hZT4nLCAnLW9tYWUnLCAnPG91dGZpbGUubWFlPic=

> <r_epik_Ionization_Penalty>
0.11743

> <r_epik_Ionization_Penalty_Charging>
0.00147689

> <r_epik_Ionization_Penalty_Neutral>
0.115954

> <r_epik_State_Penalty>
0.105552

> <r_epik_Charging_Adjusted_Penalty>
0.107029

> <i_epik_Tot_Q>
1

> <i_epik_Tot_abs_Q>
1

> <r_epik_Metal_State_Penalty>
0.0881315

> <b_epik_Metal_Only>
0

> <s_lp_Force_Field>
OPLS_2005

> <r_lp_Energy>
26.5428

> <b_lp_Chiralities_Consistent>
1

> <s_lp_Variant>
AV-unprocessed.smi:1032-4

> <Gold.Version>
5.8.1

> <Gold.Id.Protein>
6NUR|6NUR_protein|mol2

> <Gold.PLP.Fitness>
48.9032

> <Gold.PLP.PLP>
-35.8304

> <Gold.PLP.part.hbond>
-5.4535

> <Gold.PLP.part.metal>
0.0000

> <Gold.PLP.part.buried>
2.2400

> <Gold.PLP.part.nonpolar>
-33.1522

> <Gold.PLP.part.repulsive>
0.2564

> <Gold.PLP.ligand.clash>
0.0000

> <Gold.PLP.ligand.torsion>
1.1709

> <Gold.PLP.Chemscore.Hbond>
5.1207

> <Gold.PLP.Chemscore.CHOScore>
0.0000

> <Gold.PLP.Chemscore.Metal>
0.0000

> <Gold.Chemscore.Hbonds>
donor molecule, donor type, donor heavy atom, donor atom, acceptor molecule, acceptor atom, score
      L1  H     5    46       P1  7948  2.00
      L1  H     8    33       P1  7957  1.00
      L1  H    10    36       P1  8028  1.00
      L1  H    13    37       P1  8028  1.00
      P1  H  7989  7998       L1     8  0.12

> <Gold.PLP.Chemscore.Internal.Correction>
0.0525

> <Gold.Rescore>
     Score         DG    S(hbond)    S(metal)    S(lipo)     H(rot)  DE(clash)    DE(int)     intcor
     18.08     -23.33       3.84        0.00      92.98       2.29       1.06       4.20       ----

> <Gold.Chemscore.Fitness>
18.0817

> <Gold.Chemscore.DG>
-23.3348

> <Gold.Chemscore.ZeroCoef>
-5.4800

> <Gold.Chemscore.Hbond>
3.8411

> <Gold.Chemscore.Metal>
0.0000

> <Gold.Chemscore.Lipo>
92.9842

> <Gold.Chemscore.Internal_Hbond>
0.0000

> <Gold.Chemscore.DEClash>
1.0569

> <Gold.Chemscore.DEInternal>
4.1962

> <Gold.Chemscore.Rot>
2.2865

> <Gold.Chemscore.Internal.Correction>
   9.000000E+99

> <Gold.Chemscore.Hbonds>
donor molecule, donor type, donor heavy atom, donor atom, acceptor molecule, acceptor atom, score
      L1  H     5    46       P1  7948  0.89
      L1  H     8    33       P1  7957  0.94
      L1  H    10    36       P1  8028  0.97
      L1  H    13    37       P1  8028  0.96

> <Gold.Chemscore.Hbond.Weighted>
-12.8292

> <Gold.Chemscore.Metal.Weighted>
-0.0000

> <Gold.Chemscore.Lipo.Weighted>
-10.8791

> <Gold.Chemscore.Internal_Hbond.Weighted>
0.0000

> <Gold.Chemscore.DEClash.Weighted>
1.0569

> <Gold.Chemscore.DEInternal.Weighted>
4.1962

> <Gold.Chemscore.Rot.Weighted>
5.8536

> <Gold.Chemscore.Internal.Correction.Weighted>
   9.000000E+99

> <Gold.Protein.RotatedTorsions>
[ 6907 6896 6895 6894 ] final    5.19 input  -60.11 | X-H torsion
[ 7974 7965 7964 7962 ] final -147.09 input  175.53 | X-H torsion
[ 8008 7997 7996 7995 ] final  158.25 input   59.86 | X-H torsion
[ 10167 10162 10161 10158 ] final  -59.81 input  -65.29 | X-H torsion
[ 10718 10713 10712 10709 ] final  -53.30 input   66.30 | X-H torsion
[ 10763 10752 10751 10750 ] final   78.58 input  -60.55 | X-H torsion
[ 11005 11000 10999 10996 ] final   10.59 input  -57.11 | X-H torsion

> <Gold.Protein.ActiveResidues>
 VAL166  LYS551  ARG553  GLY616  TRP617  ASP618  TYR619  PRO620  LYS621  CYS622 
 ASP623  PHE694  ASN695  SER759  ASP760  ASP761  ALA762  ILE779  LEU786  VAL792 
 PHE793  MET794  SER795  GLU796  ALA797  LYS798  CYS799  TRP800  GLU811  SER814 

> <Gold.Protein.RotatedAtoms>
  151.6535  135.0998  160.0165 H   0  0  0  0  0  0  0  0  0  0  0  0  # atno 6907 bound_to 6896
  152.3987  133.6781  159.6307 H   0  0  0  0  0  0  0  0  0  0  0  0  # atno 6908 bound_to 6896
  150.7890  133.8745  159.3309 H   0  0  0  0  0  0  0  0  0  0  0  0  # atno 6909 bound_to 6896
  144.8116  140.5372  143.5638 H   0  0  0  0  0  0  0  0  0  0  0  0  # atno 7974 bound_to 7965
  156.2314  140.1863  156.7232 H   0  0  0  0  0  0  0  0  0  0  0  0  # atno 8008 bound_to 7997
  154.6030  140.0633  156.9421 H   0  0  0  0  0  0  0  0  0  0  0  0  # atno 8009 bound_to 7997
  155.2143  140.3302  155.4327 H   0  0  0  0  0  0  0  0  0  0  0  0  # atno 8010 bound_to 7997
  140.6111  143.2388  151.5706 H   0  0  0  0  0  0  0  0  0  0  0  0  # atno 10167 bound_to 10162
  156.1547  130.4150  149.9888 H   0  0  0  0  0  0  0  0  0  0  0  0  # atno 10718 bound_to 10713
  153.0885  135.4871  154.8644 H   0  0  0  0  0  0  0  0  0  0  0  0  # atno 10763 bound_to 10752
  154.7241  135.3045  154.9002 H   0  0  0  0  0  0  0  0  0  0  0  0  # atno 10764 bound_to 10752
  153.9658  135.6807  153.4799 H   0  0  0  0  0  0  0  0  0  0  0  0  # atno 10765 bound_to 10752
  140.5128  134.0635  155.7823 H   0  0  0  0  0  0  0  0  0  0  0  0  # atno 11005 bound_to 11000
  145.5310  139.1475  143.3500 LP  0  0  0  0  0  0  0  0  0  0  0  0  # atno 17320 bound_to 7965
  146.2415  140.5450  142.8932 LP  0  0  0  0  0  0  0  0  0  0  0  0  # atno 17321 bound_to 7965
  139.5362  144.2774  152.1257 LP  0  0  0  0  0  0  0  0  0  0  0  0  # atno 17342 bound_to 10162
  140.1973  144.4692  150.6449 LP  0  0  0  0  0  0  0  0  0  0  0  0  # atno 17343 bound_to 10162
  156.7736  130.9195  151.3645 LP  0  0  0  0  0  0  0  0  0  0  0  0  # atno 17370 bound_to 10713
  157.6685  130.9029  149.9986 LP  0  0  0  0  0  0  0  0  0  0  0  0  # atno 17371 bound_to 10713
  141.1376  133.9194  157.2398 LP  0  0  0  0  0  0  0  0  0  0  0  0  # atno 17394 bound_to 11000
  139.9649  135.0144  156.9361 LP  0  0  0  0  0  0  0  0  0  0  0  0  # atno 17395 bound_to 11000

$$$$
