AV-unprocessed.smi:169|AV-procd|sdf|1400|dock8
  -GOLD-   2262019153D 1   1.00000     0.00000
 Structure written by MMmdl.
 56 60  0  0  0  0  0  0  0  0  2 V2000
  146.6759  142.4877  154.1418 C   0  0  0  0  0  0  0  0  0  0  0  0
  147.0544  141.0101  153.9361 C   0  0  0  0  0  0  0  0  0  0  0  0
  148.2915  140.5973  154.6483 N   0  3  2  0  0  0  0  0  0  0  0  0
  149.3775  141.6397  154.6247 C   0  0  0  0  0  0  0  0  0  0  0  0
  150.2846  141.6710  155.9021 C   0  0  0  0  0  0  0  0  0  0  0  0
  150.9721  140.3625  156.4167 C   0  0  2  0  0  0  0  0  0  0  0  0
  152.1121  139.7506  155.5385 C   0  0  0  0  0  0  0  0  0  0  0  0
  151.4511  138.5366  154.8052 C   0  0  0  0  0  0  0  0  0  0  0  0
  149.9700  138.7792  155.1279 C   0  0  3  0  0  0  0  0  0  0  0  0
  148.7236  139.1922  154.3103 C   0  0  0  0  0  0  0  0  0  0  0  0
  149.9685  139.3090  156.4834 N   0  0  0  0  0  0  0  0  0  0  0  0
  149.9891  138.3775  157.4774 C   0  0  0  0  0  0  0  0  0  0  0  0
  151.0505  138.3090  158.3246 N   0  0  0  0  0  0  0  0  0  0  0  0
  151.0907  137.3907  159.2934 C   0  0  0  0  0  0  0  0  0  0  0  0
  150.1862  136.4591  159.5954 N   0  0  0  0  0  0  0  0  0  0  0  0
  149.1080  136.5285  158.7648 C   0  0  0  0  0  0  0  0  0  0  0  0
  148.9306  137.4460  157.6897 C   0  0  0  0  0  0  0  0  0  0  0  0
  147.7076  137.2112  157.0726 N   0  0  0  0  0  0  0  0  0  0  0  0
  147.1975  136.2109  157.7373 C   0  0  0  0  0  0  0  0  0  0  0  0
  147.9651  135.7461  158.7809 N   0  0  0  0  0  0  0  0  0  0  0  0
  147.6431  134.6450  159.6784 C   0  0  0  0  0  0  0  0  0  0  0  0
  147.1016  135.0802  161.0580 C   0  0  0  0  0  0  0  0  0  0  0  0
  146.4640  133.8878  161.7897 C   0  0  0  0  0  0  0  0  0  0  0  0
  145.9148  134.2854  163.0294 O   0  0  0  0  0  0  0  0  0  0  0  0
  148.0572  135.9306  161.9089 C   0  0  0  0  0  0  0  0  0  0  0  0
  147.3340  137.1457  161.6229 O   0  0  0  0  0  0  0  0  0  0  0  0
  146.2657  136.3675  161.0440 C   0  0  0  0  0  0  0  0  0  0  0  0
  145.7524  142.7195  153.6107 H   0  0  0  0  0  0  0  0  0  0  0  0
  147.4418  143.1634  153.7627 H   0  0  0  0  0  0  0  0  0  0  0  0
  146.5105  142.7218  155.1934 H   0  0  0  0  0  0  0  0  0  0  0  0
  146.2324  140.3766  154.2714 H   0  0  0  0  0  0  0  0  0  0  0  0
  147.1724  140.8062  152.8711 H   0  0  0  0  0  0  0  0  0  0  0  0
  149.9791  141.5338  153.7204 H   0  0  0  0  0  0  0  0  0  0  0  0
  148.9157  142.6249  154.5445 H   0  0  0  0  0  0  0  0  0  0  0  0
  151.0526  142.4322  155.7623 H   0  0  0  0  0  0  0  0  0  0  0  0
  149.6654  142.0438  156.7190 H   0  0  0  0  0  0  0  0  0  0  0  0
  151.3841  140.6030  157.3967 H   0  0  0  0  0  0  0  0  0  0  0  0
  152.5053  140.4860  154.8358 H   0  0  0  0  0  0  0  0  0  0  0  0
  152.9428  139.4079  156.1565 H   0  0  0  0  0  0  0  0  0  0  0  0
  151.6998  138.4742  153.7411 H   0  0  0  0  0  0  0  0  0  0  0  0
  151.7776  137.6034  155.2664 H   0  0  0  0  0  0  0  0  0  0  0  0
  150.2762  139.5587  154.4500 H   0  0  0  0  0  0  0  0  0  0  0  0
  147.8997  138.5275  154.5689 H   0  0  0  0  0  0  0  0  0  0  0  0
  148.8766  139.0600  153.2351 H   0  0  0  0  0  0  0  0  0  0  0  0
  151.9735  137.4042  159.9159 H   0  0  0  0  0  0  0  0  0  0  0  0
  146.2407  135.7817  157.4784 H   0  0  0  0  0  0  0  0  0  0  0  0
  146.9127  134.0129  159.1713 H   0  0  0  0  0  0  0  0  0  0  0  0
  148.5317  134.0228  159.7903 H   0  0  0  0  0  0  0  0  0  0  0  0
  145.6914  133.4095  161.1884 H   0  0  0  0  0  0  0  0  0  0  0  0
  147.2081  133.1167  161.9912 H   0  0  0  0  0  0  0  0  0  0  0  0
  145.9395  135.2287  163.0817 H   0  0  0  0  0  0  0  0  0  0  0  0
  148.0374  135.6907  162.9732 H   0  0  0  0  0  0  0  0  0  0  0  0
  149.0823  135.9677  161.5435 H   0  0  0  0  0  0  0  0  0  0  0  0
  145.9937  136.7089  160.0444 H   0  0  0  0  0  0  0  0  0  0  0  0
  145.3899  136.3362  161.6941 H   0  0  0  0  0  0  0  0  0  0  0  0
  148.0150  140.5513  155.6189 H   0  0  0  0  0  0  0  0  0  0  0  0
  1  2  1  0  0  0  0
  1 28  1  0  0  0  0
  1 29  1  0  0  0  0
  1 30  1  0  0  0  0
  2  3  1  0  0  0  0
  2 31  1  0  0  0  0
  2 32  1  0  0  0  0
  3 10  1  0  0  0  0
  3  4  1  0  0  0  0
  3 56  1  0  0  0  0
  4  5  1  0  0  0  0
  4 33  1  0  0  0  0
  4 34  1  0  0  0  0
  5  6  1  0  0  0  0
  5 35  1  0  0  0  0
  5 36  1  0  0  0  0
  6 11  1  0  0  0  0
  6  7  1  0  0  0  0
  6 37  1  0  0  0  0
  7  8  1  0  0  0  0
  7 38  1  0  0  0  0
  7 39  1  0  0  0  0
  8  9  1  0  0  0  0
  8 40  1  0  0  0  0
  8 41  1  0  0  0  0
  9 10  1  0  0  0  0
  9 11  1  0  0  0  0
  9 42  1  0  0  0  0
 10 43  1  0  0  0  0
 10 44  1  0  0  0  0
 11 12  1  0  0  0  0
 12 17  1  0  0  0  0
 12 13  2  0  0  0  0
 13 14  1  0  0  0  0
 14 15  2  0  0  0  0
 14 45  1  0  0  0  0
 15 16  1  0  0  0  0
 16 20  1  0  0  0  0
 16 17  2  0  0  0  0
 17 18  1  0  0  0  0
 18 19  2  0  0  0  0
 19 20  1  0  0  0  0
 19 46  1  0  0  0  0
 20 21  1  0  0  0  0
 21 22  1  0  0  0  0
 21 47  1  0  0  0  0
 21 48  1  0  0  0  0
 22 27  1  0  0  0  0
 22 23  1  0  0  0  0
 22 25  1  0  0  0  0
 23 24  1  0  0  0  0
 23 49  1  0  0  0  0
 23 50  1  0  0  0  0
 24 51  1  0  0  0  0
 25 26  1  0  0  0  0
 25 52  1  0  0  0  0
 25 53  1  0  0  0  0
 26 27  1  0  0  0  0
 27 54  1  0  0  0  0
 27 55  1  0  0  0  0
M  CHG  1   3   1
M  END
> <s_m_source_file>
AV-unprocessed.smi

> <i_m_source_file_index>
169

> <i_lp_mmshare_version>
43012

> <i_f3d_flags>
0

> <s_epik_input>
W0NASF0xMltDSDJdW0NIMl1OKFtDSDJdW0NIM10pW0NIMl1bQ0BIXShbQ0gyXVtDSDJdMSlOMmMobltjSF1uMyljKGMzNCluW2NIXW40W0NIMl1DNShbQ0gyXVtPSF0pW0NIMl1PW0NIMl01

> <s_epik_cmdline>
J2VwaWtfcHl0aG9uJywgJy1waCcsICc3LjAnLCAnLXRuJywgJzgnLCAnLW1hJywgJzIwMCcsICctbWV0YWxfYmluZGluZycsICctaW1hZScsICc8aW5maWxlLm1hZT4nLCAnLW9tYWUnLCAnPG91dGZpbGUubWFlPic=

> <r_lp_tautomer_probability>
1

> <r_epik_Ionization_Penalty>
0.00274162

> <r_epik_Ionization_Penalty_Charging>
0.00243722

> <r_epik_Ionization_Penalty_Neutral>
0.000304399

> <r_epik_State_Penalty>
-0

> <r_epik_Charging_Adjusted_Penalty>
0.00243722

> <i_epik_Tot_Q>
1

> <i_epik_Tot_abs_Q>
1

> <r_epik_Metal_State_Penalty>
-0

> <b_epik_Metal_Only>
0

> <s_lp_Force_Field>
OPLS_2005

> <r_lp_Energy>
131.332

> <b_lp_Chiralities_Consistent>
1

> <s_lp_Variant>
AV-unprocessed.smi:169-3

> <Gold.Version>
5.8.1

> <Gold.Id.Protein>
6NUR|6NUR_protein|mol2

> <Gold.PLP.Fitness>
47.7409

> <Gold.PLP.PLP>
-41.9699

> <Gold.PLP.part.hbond>
-4.0000

> <Gold.PLP.part.metal>
0.0000

> <Gold.PLP.part.buried>
-3.6166

> <Gold.PLP.part.nonpolar>
-33.8591

> <Gold.PLP.part.repulsive>
0.0843

> <Gold.PLP.ligand.clash>
0.0000

> <Gold.PLP.ligand.torsion>
0.7730

> <Gold.PLP.Chemscore.Hbond>
2.2960

> <Gold.PLP.Chemscore.CHOScore>
0.0000

> <Gold.PLP.Chemscore.Metal>
0.0000

> <Gold.Chemscore.Hbonds>
donor molecule, donor type, donor heavy atom, donor atom, acceptor molecule, acceptor atom, score
      P1  H  6896  6907       L1    15  1.00
      P1  H  6931  6943       L1    26  0.49
      P1  H  6934  6947       L1    26  0.88

> <Gold.PLP.Chemscore.Internal.Correction>
0.4290

> <Gold.Rescore>
     Score         DG    S(hbond)    S(metal)    S(lipo)     H(rot)  DE(clash)    DE(int)     intcor
     14.88     -15.83       1.73        0.00      96.52       2.62       0.13       0.82       ----

> <Gold.Chemscore.Fitness>
14.8802

> <Gold.Chemscore.DG>
-15.8271

> <Gold.Chemscore.ZeroCoef>
-5.4800

> <Gold.Chemscore.Hbond>
1.7258

> <Gold.Chemscore.Metal>
0.0000

> <Gold.Chemscore.Lipo>
96.5223

> <Gold.Chemscore.Internal_Hbond>
0.0000

> <Gold.Chemscore.DEClash>
0.1300

> <Gold.Chemscore.DEInternal>
0.8169

> <Gold.Chemscore.Rot>
2.6212

> <Gold.Chemscore.Internal.Correction>
   9.000000E+99

> <Gold.Chemscore.Hbonds>
donor molecule, donor type, donor heavy atom, donor atom, acceptor molecule, acceptor atom, score
      P1  H  6896  6907       L1    15  0.55
      P1  H  6931  6943       L1    26  0.03
      P1  H  6934  6947       L1    26  0.58

> <Gold.Chemscore.Hbond.Weighted>
-5.7642

> <Gold.Chemscore.Metal.Weighted>
-0.0000

> <Gold.Chemscore.Lipo.Weighted>
-11.2931

> <Gold.Chemscore.Internal_Hbond.Weighted>
0.0000

> <Gold.Chemscore.DEClash.Weighted>
0.1300

> <Gold.Chemscore.DEInternal.Weighted>
0.8169

> <Gold.Chemscore.Rot.Weighted>
6.7102

> <Gold.Chemscore.Internal.Correction.Weighted>
   9.000000E+99

> <Gold.Protein.RotatedTorsions>
[ 6907 6896 6895 6894 ] final  -32.33 input  -60.11 | X-H torsion
[ 7974 7965 7964 7962 ] final -143.34 input  175.53 | X-H torsion
[ 8008 7997 7996 7995 ] final   -2.52 input   59.86 | X-H torsion
[ 10167 10162 10161 10158 ] final -149.91 input  -65.29 | X-H torsion
[ 10718 10713 10712 10709 ] final -166.74 input   66.30 | X-H torsion
[ 10763 10752 10751 10750 ] final -137.90 input  -60.55 | X-H torsion
[ 11005 11000 10999 10996 ] final   12.04 input  -57.11 | X-H torsion

> <Gold.Protein.ActiveResidues>
 VAL166  LYS551  ARG553  GLY616  TRP617  ASP618  TYR619  PRO620  LYS621  CYS622 
 ASP623  PHE694  ASN695  SER759  ASP760  ASP761  ALA762  ILE779  LEU786  VAL792 
 PHE793  MET794  SER795  GLU796  ALA797  LYS798  CYS799  TRP800  GLU811  SER814 

> <Gold.Protein.RotatedAtoms>
  151.0801  134.9853  159.8351 H   0  0  0  0  0  0  0  0  0  0  0  0  # atno 6907 bound_to 6896
  152.5418  134.2192  159.8791 H   0  0  0  0  0  0  0  0  0  0  0  0  # atno 6908 bound_to 6896
  151.2222  133.4453  159.2634 H   0  0  0  0  0  0  0  0  0  0  0  0  # atno 6909 bound_to 6896
  144.8377  140.5847  143.5473 H   0  0  0  0  0  0  0  0  0  0  0  0  # atno 7974 bound_to 7965
  154.6349  140.2532  155.7390 H   0  0  0  0  0  0  0  0  0  0  0  0  # atno 8008 bound_to 7997
  156.2499  140.2899  156.0637 H   0  0  0  0  0  0  0  0  0  0  0  0  # atno 8009 bound_to 7997
  155.1687  140.0386  157.2848 H   0  0  0  0  0  0  0  0  0  0  0  0  # atno 8010 bound_to 7997
  139.7401  143.8676  152.2560 H   0  0  0  0  0  0  0  0  0  0  0  0  # atno 10167 bound_to 10162
  156.6722  130.9089  151.3045 H   0  0  0  0  0  0  0  0  0  0  0  0  # atno 10718 bound_to 10713
  154.8650  135.3628  154.5298 H   0  0  0  0  0  0  0  0  0  0  0  0  # atno 10763 bound_to 10752
  153.5924  135.7015  153.5422 H   0  0  0  0  0  0  0  0  0  0  0  0  # atno 10764 bound_to 10752
  153.3362  135.4111  155.1497 H   0  0  0  0  0  0  0  0  0  0  0  0  # atno 10765 bound_to 10752
  140.4964  134.0789  155.7783 H   0  0  0  0  0  0  0  0  0  0  0  0  # atno 11005 bound_to 11000
  145.4761  139.1499  143.3788 LP  0  0  0  0  0  0  0  0  0  0  0  0  # atno 17320 bound_to 7965
  146.2673  140.4895  142.8829 LP  0  0  0  0  0  0  0  0  0  0  0  0  # atno 17321 bound_to 7965
  139.8624  144.7110  150.9084 LP  0  0  0  0  0  0  0  0  0  0  0  0  # atno 17342 bound_to 10162
  140.7784  143.3806  151.1483 LP  0  0  0  0  0  0  0  0  0  0  0  0  # atno 17343 bound_to 10162
  157.7073  130.9399  150.0972 LP  0  0  0  0  0  0  0  0  0  0  0  0  # atno 17370 bound_to 10713
  156.1930  130.3656  149.8886 LP  0  0  0  0  0  0  0  0  0  0  0  0  # atno 17371 bound_to 10713
  141.1458  133.9058  157.2219 LP  0  0  0  0  0  0  0  0  0  0  0  0  # atno 17394 bound_to 11000
  139.9739  135.0120  156.9581 LP  0  0  0  0  0  0  0  0  0  0  0  0  # atno 17395 bound_to 11000

$$$$
