AV-unprocessed.smi:1261|AV-procd|sdf|5305|dock1
  -GOLD-   22720 4423D 1   1.00000     0.00000
 Structure written by MMmdl.
 50 51  0  0  0  0  0  0  0  0  2 V2000
  146.3631  129.7076  151.4367 C   0  0  0  0  0  0  0  0  0  0  0  0
  145.8785  130.7369  152.4733 C   0  0  2  0  0  0  0  0  0  0  0  0
  145.2594  131.9920  151.8300 C   0  0  0  0  0  0  0  0  0  0  0  0
  146.3347  132.9082  151.2182 C   0  0  1  0  0  0  0  0  0  0  0  0
  145.7152  134.1871  150.6372 C   0  0  0  0  0  0  0  0  0  0  0  0
  147.4193  133.2315  152.2641 C   0  0  0  0  0  0  0  0  0  0  0  0
  148.0189  131.9915  152.8209 N   0  3  1  0  0  0  0  0  0  0  0  0
  149.1831  132.2692  153.6997 C   0  0  0  0  0  0  0  0  0  0  0  0
  148.8759  133.3554  154.7442 C   0  0  0  0  0  0  0  0  0  0  0  0
  147.8965  132.8703  155.8250 C   0  0  0  0  0  0  0  0  0  0  0  0
  147.6198  133.9197  156.7978 N   0  0  0  0  0  0  0  0  0  0  0  0
  148.4918  134.3798  157.7116 C   0  0  0  0  0  0  0  0  0  0  0  0
  149.6312  133.9299  157.8273 O   0  0  0  0  0  0  0  0  0  0  0  0
  148.0423  135.5249  158.6361 C   0  0  0  0  0  0  0  0  0  0  0  0
  147.6764  135.1147  160.0018 N   0  0  0  0  0  0  0  0  0  0  0  0
  147.6779  133.7423  160.2006 N   0  0  0  0  0  0  0  0  0  0  0  0
  147.3728  133.2575  161.3568 C   0  0  0  0  0  0  0  0  0  0  0  0
  147.3833  131.8927  161.5088 O   0  0  0  0  0  0  0  0  0  0  0  0
  147.0281  134.1227  162.4639 C   0  0  0  0  0  0  0  0  0  0  0  0
  147.0282  135.4585  162.2604 C   0  0  0  0  0  0  0  0  0  0  0  0
  147.3639  136.0411  160.9598 C   0  0  0  0  0  0  0  0  0  0  0  0
  147.3557  137.2523  160.7414 O   0  0  0  0  0  0  0  0  0  0  0  0
  146.9904  131.1312  153.4653 C   0  0  0  0  0  0  0  0  0  0  0  0
  148.2955  131.6474  161.5251 H   0  0  0  0  0  0  0  0  0  0  0  0
  147.1844  130.0912  150.8315 H   0  0  0  0  0  0  0  0  0  0  0  0
  145.5567  129.4235  150.7598 H   0  0  0  0  0  0  0  0  0  0  0  0
  146.7138  128.7982  151.9255 H   0  0  0  0  0  0  0  0  0  0  0  0
  145.0909  130.2454  153.0458 H   0  0  0  0  0  0  0  0  0  0  0  0
  144.5270  131.7065  151.0737 H   0  0  0  0  0  0  0  0  0  0  0  0
  144.7085  132.5452  152.5920 H   0  0  0  0  0  0  0  0  0  0  0  0
  146.8096  132.3778  150.3921 H   0  0  0  0  0  0  0  0  0  0  0  0
  145.2160  134.7737  151.4091 H   0  0  0  0  0  0  0  0  0  0  0  0
  144.9777  133.9521  149.8692 H   0  0  0  0  0  0  0  0  0  0  0  0
  146.4758  134.8198  150.1787 H   0  0  0  0  0  0  0  0  0  0  0  0
  148.1979  133.8338  151.7940 H   0  0  0  0  0  0  0  0  0  0  0  0
  147.0022  133.8299  153.0758 H   0  0  0  0  0  0  0  0  0  0  0  0
  149.4558  131.3590  154.2356 H   0  0  0  0  0  0  0  0  0  0  0  0
  150.0496  132.5416  153.0952 H   0  0  0  0  0  0  0  0  0  0  0  0
  149.7964  133.6871  155.2239 H   0  0  0  0  0  0  0  0  0  0  0  0
  148.4572  134.2304  154.2449 H   0  0  0  0  0  0  0  0  0  0  0  0
  146.9512  132.5757  155.3682 H   0  0  0  0  0  0  0  0  0  0  0  0
  148.2879  131.9849  156.3294 H   0  0  0  0  0  0  0  0  0  0  0  0
  146.7012  134.3389  156.7708 H   0  0  0  0  0  0  0  0  0  0  0  0
  148.8502  136.2577  158.6739 H   0  0  0  0  0  0  0  0  0  0  0  0
  147.2063  136.0458  158.1656 H   0  0  0  0  0  0  0  0  0  0  0  0
  146.7785  133.7026  163.4272 H   0  0  0  0  0  0  0  0  0  0  0  0
  146.7736  136.1163  163.0784 H   0  0  0  0  0  0  0  0  0  0  0  0
  146.5566  131.6687  154.3101 H   0  0  0  0  0  0  0  0  0  0  0  0
  147.4418  130.2283  153.8751 H   0  0  0  0  0  0  0  0  0  0  0  0
  148.3789  131.4771  152.0298 H   0  0  0  0  0  0  0  0  0  0  0  0
  1  2  1  0  0  0  0
  1 25  1  0  0  0  0
  1 26  1  0  0  0  0
  1 27  1  0  0  0  0
  2 23  1  0  0  0  0
  2  3  1  0  0  0  0
  2 28  1  0  0  0  0
  3  4  1  0  0  0  0
  3 29  1  0  0  0  0
  3 30  1  0  0  0  0
  4  5  1  0  0  0  0
  4  6  1  0  0  0  0
  4 31  1  0  0  0  0
  5 32  1  0  0  0  0
  5 33  1  0  0  0  0
  5 34  1  0  0  0  0
  6  7  1  0  0  0  0
  6 35  1  0  0  0  0
  6 36  1  0  0  0  0
  7  8  1  0  0  0  0
  7 23  1  0  0  0  0
  7 50  1  0  0  0  0
  8  9  1  0  0  0  0
  8 37  1  0  0  0  0
  8 38  1  0  0  0  0
  9 10  1  0  0  0  0
  9 39  1  0  0  0  0
  9 40  1  0  0  0  0
 10 11  1  0  0  0  0
 10 41  1  0  0  0  0
 10 42  1  0  0  0  0
 11 12  1  0  0  0  0
 11 43  1  0  0  0  0
 12 13  2  0  0  0  0
 12 14  1  0  0  0  0
 14 44  1  0  0  0  0
 14 45  1  0  0  0  0
 14 15  1  0  0  0  0
 15 16  1  0  0  0  0
 15 21  1  0  0  0  0
 16 17  2  0  0  0  0
 17 18  1  0  0  0  0
 17 19  1  0  0  0  0
 18 24  1  0  0  0  0
 19 46  1  0  0  0  0
 19 20  2  0  0  0  0
 20 47  1  0  0  0  0
 20 21  1  0  0  0  0
 21 22  2  0  0  0  0
 23 48  1  0  0  0  0
 23 49  1  0  0  0  0
M  CHG  1   7   1
M  END
> <s_m_source_file>
AV-unprocessed.smi

> <i_m_source_file_index>
1261

> <i_lp_mmshare_version>
43012

> <i_f3d_flags>
0

> <s_epik_input>
W0NIM11bQ0BASF0xW0NIMl1bQ0BASF0oW0NIM10pW0NIMl1OKFtDSDJdMSlbQ0gyXVtDSDJdW0NIMl1bTkhdQyg9TylbQ0gyXW4yW25IXWMoPU8pW2NIXVtjSF1jMj1P

> <s_epik_cmdline>
J2VwaWtfcHl0aG9uJywgJy1waCcsICc3LjAnLCAnLXRuJywgJzgnLCAnLW1hJywgJzIwMCcsICctbWV0YWxfYmluZGluZycsICctaW1hZScsICc8aW5maWxlLm1hZT4nLCAnLW9tYWUnLCAnPG91dGZpbGUubWFlPic=

> <r_lp_tautomer_probability>
0.9996

> <r_epik_Ionization_Penalty>
2.1425

> <r_epik_Ionization_Penalty_Charging>
0.000312112

> <r_epik_Ionization_Penalty_Neutral>
2.14218

> <r_epik_State_Penalty>
1.71978

> <r_epik_Charging_Adjusted_Penalty>
1.72009

> <i_epik_Tot_Q>
1

> <i_epik_Tot_abs_Q>
1

> <r_epik_Metal_State_Penalty>
1.71978

> <b_epik_Metal_Only>
0

> <s_lp_Force_Field>
OPLS_2005

> <r_lp_Energy>
29.6525

> <b_lp_Chiralities_Consistent>
1

> <s_lp_Variant>
AV-unprocessed.smi:1261-5

> <Gold.Version>
5.8.1

> <Gold.Id.Protein>
6NUR|6NUR_protein|mol2

> <Gold.PLP.Fitness>
52.3717

> <Gold.PLP.PLP>
-42.0965

> <Gold.PLP.part.hbond>
-4.0000

> <Gold.PLP.part.metal>
0.0000

> <Gold.PLP.part.buried>
-5.0036

> <Gold.PLP.part.nonpolar>
-32.6937

> <Gold.PLP.part.repulsive>
0.0075

> <Gold.PLP.ligand.clash>
0.0000

> <Gold.PLP.ligand.torsion>
0.4611

> <Gold.PLP.Chemscore.Hbond>
3.6880

> <Gold.PLP.Chemscore.CHOScore>
0.0000

> <Gold.PLP.Chemscore.Metal>
0.0000

> <Gold.Chemscore.Hbonds>
donor molecule, donor type, donor heavy atom, donor atom, acceptor molecule, acceptor atom, score
      L1  H     7    50       P1 10747  1.00
      P1  H  6896  6908       L1    13  0.88
      P1  H  6931  6943       L1    22  0.31
      P1  H  6934  6947       L1    22  1.00

> <Gold.PLP.Chemscore.Internal.Correction>
0.1334

> <Gold.Rescore>
     Score         DG    S(hbond)    S(metal)    S(lipo)     H(rot)  DE(clash)    DE(int)     intcor
     18.97     -19.58       3.70        0.00      83.57       3.14       0.04       0.57       ----

> <Gold.Chemscore.Fitness>
18.9688

> <Gold.Chemscore.DG>
-19.5758

> <Gold.Chemscore.ZeroCoef>
-5.4800

> <Gold.Chemscore.Hbond>
3.6960

> <Gold.Chemscore.Metal>
0.0000

> <Gold.Chemscore.Lipo>
83.5652

> <Gold.Chemscore.Internal_Hbond>
0.0000

> <Gold.Chemscore.DEClash>
0.0416

> <Gold.Chemscore.DEInternal>
0.5654

> <Gold.Chemscore.Rot>
3.1352

> <Gold.Chemscore.Internal.Correction>
   9.000000E+99

> <Gold.Chemscore.Hbonds>
donor molecule, donor type, donor heavy atom, donor atom, acceptor molecule, acceptor atom, score
      L1  H     7    50       P1 10747  0.99
      P1  H  6896  6908       L1    13  0.86
      P1  H  6931  6943       L1    22  0.23
      P1  H  6934  6947       L1    22  0.99

> <Gold.Chemscore.Hbond.Weighted>
-12.3447

> <Gold.Chemscore.Metal.Weighted>
-0.0000

> <Gold.Chemscore.Lipo.Weighted>
-9.7771

> <Gold.Chemscore.Internal_Hbond.Weighted>
0.0000

> <Gold.Chemscore.DEClash.Weighted>
0.0416

> <Gold.Chemscore.DEInternal.Weighted>
0.5654

> <Gold.Chemscore.Rot.Weighted>
8.0260

> <Gold.Chemscore.Internal.Correction.Weighted>
   9.000000E+99

> <Gold.Protein.RotatedTorsions>
[ 6907 6896 6895 6894 ] final  106.73 input  -60.11 | X-H torsion
[ 7974 7965 7964 7962 ] final   28.96 input  175.53 | X-H torsion
[ 8008 7997 7996 7995 ] final  -47.19 input   59.86 | X-H torsion
[ 10167 10162 10161 10158 ] final -115.45 input  -65.29 | X-H torsion
[ 10718 10713 10712 10709 ] final  -64.21 input   66.30 | X-H torsion
[ 10763 10752 10751 10750 ] final    6.60 input  -60.55 | X-H torsion
[ 11005 11000 10999 10996 ] final  158.71 input  -57.11 | X-H torsion

> <Gold.Protein.ActiveResidues>
 VAL166  LYS551  ARG553  GLY616  TRP617  ASP618  TYR619  PRO620  LYS621  CYS622 
 ASP623  PHE694  ASN695  SER759  ASP760  ASP761  ALA762  ILE779  LEU786  VAL792 
 PHE793  MET794  SER795  GLU796  ALA797  LYS798  CYS799  TRP800  GLU811  SER814 

> <Gold.Protein.RotatedAtoms>
  152.5182  133.9338  159.7593 H   0  0  0  0  0  0  0  0  0  0  0  0  # atno 6907 bound_to 6896
  150.9683  133.6363  159.2749 H   0  0  0  0  0  0  0  0  0  0  0  0  # atno 6908 bound_to 6896
  151.3583  135.0904  159.9479 H   0  0  0  0  0  0  0  0  0  0  0  0  # atno 6909 bound_to 6896
  146.1699  139.6985  142.8975 H   0  0  0  0  0  0  0  0  0  0  0  0  # atno 7974 bound_to 7965
  154.4014  140.1352  156.4135 H   0  0  0  0  0  0  0  0  0  0  0  0  # atno 8008 bound_to 7997
  155.7710  140.3484  155.5227 H   0  0  0  0  0  0  0  0  0  0  0  0  # atno 8009 bound_to 7997
  155.8766  140.0980  157.1504 H   0  0  0  0  0  0  0  0  0  0  0  0  # atno 8010 bound_to 7997
  140.0900  143.4709  152.1876 H   0  0  0  0  0  0  0  0  0  0  0  0  # atno 10167 bound_to 10162
  156.0743  130.4230  150.1387 H   0  0  0  0  0  0  0  0  0  0  0  0  # atno 10718 bound_to 10713
  153.2458  135.6908  153.7733 H   0  0  0  0  0  0  0  0  0  0  0  0  # atno 10763 bound_to 10752
  153.6845  135.3323  155.3187 H   0  0  0  0  0  0  0  0  0  0  0  0  # atno 10764 bound_to 10752
  154.8374  135.4530  154.1397 H   0  0  0  0  0  0  0  0  0  0  0  0  # atno 10765 bound_to 10752
  140.1892  134.8420  157.2892 H   0  0  0  0  0  0  0  0  0  0  0  0  # atno 11005 bound_to 11000
  145.4369  141.0419  143.2879 LP  0  0  0  0  0  0  0  0  0  0  0  0  # atno 17320 bound_to 7965
  144.8147  139.5898  143.7014 LP  0  0  0  0  0  0  0  0  0  0  0  0  # atno 17321 bound_to 7965
  139.5730  144.7473  151.3839 LP  0  0  0  0  0  0  0  0  0  0  0  0  # atno 17342 bound_to 10162
  140.7033  143.7576  150.7440 LP  0  0  0  0  0  0  0  0  0  0  0  0  # atno 17343 bound_to 10162
  156.9432  130.9751  151.3512 LP  0  0  0  0  0  0  0  0  0  0  0  0  # atno 17370 bound_to 10713
  157.5830  130.8390  149.8550 LP  0  0  0  0  0  0  0  0  0  0  0  0  # atno 17371 bound_to 10713
  140.2179  134.4059  155.7580 LP  0  0  0  0  0  0  0  0  0  0  0  0  # atno 17394 bound_to 11000
  141.2226  133.7151  156.8443 LP  0  0  0  0  0  0  0  0  0  0  0  0  # atno 17395 bound_to 11000

$$$$
