AV-unprocessed.smi:3092|AV-procd|sdf|11785|dock8
  -GOLD-   2272017163D 1   1.00000     0.00000
 Structure written by MMmdl.
 26 27  0  0  0  0  0  0  0  0  3 V2000
  153.5988  141.8605  160.0293 C   0  0  0  0  0  0  0  0  0  0  0  0
  153.1442  142.6490  161.1765 N   0  0  0  0  0  0  0  0  0  0  0  0
  153.4946  142.4462  162.4868 C   0  0  0  0  0  0  0  0  0  0  0  0
  152.8437  143.4019  163.2209 C   0  0  0  0  0  0  0  0  0  0  0  0
  152.1236  144.1489  162.3292 N   0  3  0  0  0  0  0  0  0  0  0  0
  152.3046  143.6957  161.0815 C   0  0  0  0  0  0  0  0  0  0  0  0
  151.6682  144.2684  159.8450 C   0  0  1  0  0  0  0  0  0  0  0  0
  152.6390  144.7617  158.7749 C   0  0  0  0  0  0  0  0  0  0  0  0
  151.7683  144.8231  157.5113 C   0  0  0  0  0  0  0  0  0  0  0  0
  150.6209  143.9180  157.7410 N   0  3  0  0  0  0  0  0  0  0  0  0
  150.7956  143.2876  159.0621 C   0  0  0  0  0  0  0  0  0  0  0  0
  154.2655  141.0682  160.3713 H   0  0  0  0  0  0  0  0  0  0  0  0
  154.1363  142.5079  159.3358 H   0  0  0  0  0  0  0  0  0  0  0  0
  152.7369  141.4145  159.5318 H   0  0  0  0  0  0  0  0  0  0  0  0
  154.1645  141.6556  162.7941 H   0  0  0  0  0  0  0  0  0  0  0  0
  152.8386  143.6006  164.2829 H   0  0  0  0  0  0  0  0  0  0  0  0
  151.0452  145.1073  160.1557 H   0  0  0  0  0  0  0  0  0  0  0  0
  153.1019  145.7168  159.0254 H   0  0  0  0  0  0  0  0  0  0  0  0
  153.4372  144.0334  158.6238 H   0  0  0  0  0  0  0  0  0  0  0  0
  151.3870  145.8324  157.3524 H   0  0  0  0  0  0  0  0  0  0  0  0
  152.3265  144.5314  156.6212 H   0  0  0  0  0  0  0  0  0  0  0  0
  149.7754  144.4711  157.7487 H   0  0  0  0  0  0  0  0  0  0  0  0
  151.3135  142.3380  158.9184 H   0  0  0  0  0  0  0  0  0  0  0  0
  149.8410  143.0836  159.5478 H   0  0  0  0  0  0  0  0  0  0  0  0
  150.5594  143.2169  157.0159 H   0  0  0  0  0  0  0  0  0  0  0  0
  151.5338  144.9328  162.5790 H   0  0  0  0  0  0  0  0  0  0  0  0
  1  2  1  0  0  0  0
  1 12  1  0  0  0  0
  1 13  1  0  0  0  0
  1 14  1  0  0  0  0
  2  6  1  0  0  0  0
  2  3  1  0  0  0  0
  3  4  2  0  0  0  0
  3 15  1  0  0  0  0
  4  5  1  0  0  0  0
  4 16  1  0  0  0  0
  5  6  2  0  0  0  0
  5 26  1  0  0  0  0
  6  7  1  0  0  0  0
  7 11  1  0  0  0  0
  7  8  1  0  0  0  0
  7 17  1  0  0  0  0
  8  9  1  0  0  0  0
  8 18  1  0  0  0  0
  8 19  1  0  0  0  0
  9 10  1  0  0  0  0
  9 20  1  0  0  0  0
  9 21  1  0  0  0  0
 10 11  1  0  0  0  0
 10 22  1  0  0  0  0
 10 25  1  0  0  0  0
 11 23  1  0  0  0  0
 11 24  1  0  0  0  0
M  CHG  1   5   1
M  CHG  1  10   1
M  END
> <s_m_source_file>
AV-unprocessed.smi

> <i_m_source_file_index>
3092

> <i_lp_mmshare_version>
43012

> <i_f3d_flags>
0

> <s_epik_input>
W0NIM11uMVtjSF1bY0hdbmMxW0NAQEhdMltDSDJdW0NIMl1bTkhdW0NIMl0y

> <s_epik_cmdline>
J2VwaWtfcHl0aG9uJywgJy1waCcsICc3LjAnLCAnLXRuJywgJzgnLCAnLW1hJywgJzIwMCcsICctbWV0YWxfYmluZGluZycsICctaW1hZScsICc8aW5maWxlLm1hZT4nLCAnLW9tYWUnLCAnPG91dGZpbGUubWFlPic=

> <r_lp_tautomer_probability>
1

> <r_epik_Ionization_Penalty>
0.803493

> <r_epik_Ionization_Penalty_Charging>
0.000689375

> <r_epik_Ionization_Penalty_Neutral>
0.802804

> <r_epik_State_Penalty>
0.834355

> <r_epik_Charging_Adjusted_Penalty>
0.835044

> <i_epik_Tot_Q>
2

> <i_epik_Tot_abs_Q>
2

> <r_epik_Metal_State_Penalty>
4.76097

> <b_epik_Metal_Only>
0

> <s_lp_Force_Field>
OPLS_2005

> <r_lp_Energy>
35.9538

> <b_lp_Chiralities_Consistent>
1

> <s_lp_Variant>
AV-unprocessed.smi:3092-4

> <Gold.Version>
5.8.1

> <Gold.Id.Protein>
6NUR|6NUR_protein|mol2

> <Gold.PLP.Fitness>
40.6653

> <Gold.PLP.PLP>
-33.8062

> <Gold.PLP.part.hbond>
-3.6458

> <Gold.PLP.part.metal>
0.0000

> <Gold.PLP.part.buried>
-2.9229

> <Gold.PLP.part.nonpolar>
-27.0277

> <Gold.PLP.part.repulsive>
0.1758

> <Gold.PLP.ligand.clash>
0.0000

> <Gold.PLP.ligand.torsion>
0.0014

> <Gold.PLP.Chemscore.Hbond>
2.2864

> <Gold.PLP.Chemscore.CHOScore>
0.0000

> <Gold.PLP.Chemscore.Metal>
0.0000

> <Gold.Chemscore.Hbonds>
donor molecule, donor type, donor heavy atom, donor atom, acceptor molecule, acceptor atom, score
      L1  H    10    22       P1  8028  0.17

> <Gold.PLP.Chemscore.Internal.Correction>
0.0025

> <Gold.Rescore>
     Score         DG    S(hbond)    S(metal)    S(lipo)     H(rot)  DE(clash)    DE(int)     intcor
     13.18     -15.00       0.77        0.00      81.34       1.00       1.82       0.01       ----

> <Gold.Chemscore.Fitness>
13.1780

> <Gold.Chemscore.DG>
-15.0037

> <Gold.Chemscore.ZeroCoef>
-5.4800

> <Gold.Chemscore.Hbond>
0.7686

> <Gold.Chemscore.Metal>
0.0000

> <Gold.Chemscore.Lipo>
81.3388

> <Gold.Chemscore.Internal_Hbond>
0.0000

> <Gold.Chemscore.DEClash>
1.8166

> <Gold.Chemscore.DEInternal>
0.0091

> <Gold.Chemscore.Rot>
1.0000

> <Gold.Chemscore.Internal.Correction>
   9.000000E+99

> <Gold.Chemscore.Hbonds>
donor molecule, donor type, donor heavy atom, donor atom, acceptor molecule, acceptor atom, score
      L1  H    10    22       P1  8028  0.01

> <Gold.Chemscore.Hbond.Weighted>
-2.5670

> <Gold.Chemscore.Metal.Weighted>
-0.0000

> <Gold.Chemscore.Lipo.Weighted>
-9.5166

> <Gold.Chemscore.Internal_Hbond.Weighted>
0.0000

> <Gold.Chemscore.DEClash.Weighted>
1.8166

> <Gold.Chemscore.DEInternal.Weighted>
0.0091

> <Gold.Chemscore.Rot.Weighted>
2.5600

> <Gold.Chemscore.Internal.Correction.Weighted>
   9.000000E+99

> <Gold.Protein.RotatedTorsions>
[ 6907 6896 6895 6894 ] final   60.77 input  -60.11 | X-H torsion
[ 7974 7965 7964 7962 ] final   27.38 input  175.53 | X-H torsion
[ 8008 7997 7996 7995 ] final  115.95 input   59.86 | X-H torsion
[ 10167 10162 10161 10158 ] final   31.65 input  -65.29 | X-H torsion
[ 10718 10713 10712 10709 ] final   26.98 input   66.30 | X-H torsion
[ 10763 10752 10751 10750 ] final -137.89 input  -60.55 | X-H torsion
[ 11005 11000 10999 10996 ] final  139.50 input  -57.11 | X-H torsion

> <Gold.Protein.ActiveResidues>
 VAL166  LYS551  ARG553  GLY616  TRP617  ASP618  TYR619  PRO620  LYS621  CYS622 
 ASP623  PHE694  ASN695  SER759  ASP760  ASP761  ALA762  ILE779  LEU786  VAL792 
 PHE793  MET794  SER795  GLU796  ALA797  LYS798  CYS799  TRP800  GLU811  SER814 

> <Gold.Protein.RotatedAtoms>
  152.4031  134.6252  160.0060 H   0  0  0  0  0  0  0  0  0  0  0  0  # atno 6907 bound_to 6896
  151.6451  133.3318  159.3147 H   0  0  0  0  0  0  0  0  0  0  0  0  # atno 6908 bound_to 6896
  150.7929  134.7009  159.6594 H   0  0  0  0  0  0  0  0  0  0  0  0  # atno 6909 bound_to 6896
  146.1787  139.7199  142.8916 H   0  0  0  0  0  0  0  0  0  0  0  0  # atno 7974 bound_to 7965
  156.2411  140.2927  156.0448 H   0  0  0  0  0  0  0  0  0  0  0  0  # atno 8008 bound_to 7997
  155.1946  140.0408  157.2924 H   0  0  0  0  0  0  0  0  0  0  0  0  # atno 8009 bound_to 7997
  154.6171  140.2466  155.7603 H   0  0  0  0  0  0  0  0  0  0  0  0  # atno 8010 bound_to 7997
  140.4570  144.0964  150.6204 H   0  0  0  0  0  0  0  0  0  0  0  0  # atno 10167 bound_to 10162
  157.2141  130.6948  149.6241 H   0  0  0  0  0  0  0  0  0  0  0  0  # atno 10718 bound_to 10713
  154.8650  135.3628  154.5297 H   0  0  0  0  0  0  0  0  0  0  0  0  # atno 10763 bound_to 10752
  153.5923  135.7015  153.5423 H   0  0  0  0  0  0  0  0  0  0  0  0  # atno 10764 bound_to 10752
  153.3362  135.4110  155.1497 H   0  0  0  0  0  0  0  0  0  0  0  0  # atno 10765 bound_to 10752
  140.0259  134.9375  157.0567 H   0  0  0  0  0  0  0  0  0  0  0  0  # atno 11005 bound_to 11000
  145.4138  141.0399  143.3002 LP  0  0  0  0  0  0  0  0  0  0  0  0  # atno 17320 bound_to 7965
  144.8279  139.5679  143.6957 LP  0  0  0  0  0  0  0  0  0  0  0  0  # atno 17321 bound_to 7965
  140.4140  143.2643  151.9798 LP  0  0  0  0  0  0  0  0  0  0  0  0  # atno 17342 bound_to 10162
  139.4802  144.5890  151.7803 LP  0  0  0  0  0  0  0  0  0  0  0  0  # atno 17343 bound_to 10162
  155.9688  130.4541  150.5839 LP  0  0  0  0  0  0  0  0  0  0  0  0  # atno 17370 bound_to 10713
  157.3643  131.0755  151.1611 LP  0  0  0  0  0  0  0  0  0  0  0  0  # atno 17371 bound_to 10713
  140.4307  134.1783  155.7168 LP  0  0  0  0  0  0  0  0  0  0  0  0  # atno 17394 bound_to 11000
  141.1802  133.8429  157.1283 LP  0  0  0  0  0  0  0  0  0  0  0  0  # atno 17395 bound_to 11000

$$$$
