AV-unprocessed.smi:2822|AV-procd|sdf|10876|dock6
  -GOLD-   2272015313D 1   1.00000     0.00000
 Structure written by MMmdl.
 40 42  0  0  0  0  0  0  0  0  2 V2000
  152.8923  138.4761  155.5904 Cl  0  0  0  0  0  0  0  0  0  0  0  0
  151.3636  138.9677  154.9494 C   0  0  0  0  0  0  0  0  0  0  0  0
  150.6982  138.1261  154.0341 C   0  0  0  0  0  0  0  0  0  0  0  0
  149.5043  138.4935  153.5226 N   0  3  0  0  0  0  0  0  0  0  0  0
  148.8972  139.6537  153.8499 C   0  0  0  0  0  0  0  0  0  0  0  0
  149.5124  140.5368  154.7601 C   0  0  0  0  0  0  0  0  0  0  0  0
  150.7678  140.1974  155.3244 C   0  0  0  0  0  0  0  0  0  0  0  0
  151.4301  141.0329  156.2368 N   0  0  0  0  0  0  0  0  0  0  0  0
  150.8789  142.3264  156.6113 C   0  0  0  0  0  0  0  0  0  0  0  0
  151.6458  142.9446  157.7877 C   0  0  2  0  0  0  0  0  0  0  0  0
  151.9477  141.9044  158.8822 C   0  0  0  0  0  0  0  0  0  0  0  0
  152.6143  142.5038  160.0310 N   0  0  0  0  0  0  0  0  0  0  0  0
  152.8937  141.5076  161.0637 C   0  0  0  0  0  0  0  0  0  0  0  0
  153.6289  142.1075  162.2726 C   0  0  0  0  0  0  0  0  0  0  0  0
  152.8239  143.2748  162.8617 C   0  0  0  0  0  0  0  0  0  0  0  0
  152.4846  144.2919  161.7610 C   0  0  0  0  0  0  0  0  0  0  0  0
  151.8007  143.6017  160.5626 C   0  0  1  0  0  0  0  0  0  0  0  0
  151.4726  144.6270  159.4578 C   0  0  0  0  0  0  0  0  0  0  0  0
  150.8431  143.9742  158.3598 O   0  0  0  0  0  0  0  0  0  0  0  0
  151.0842  137.1747  153.6979 H   0  0  0  0  0  0  0  0  0  0  0  0
  147.9433  139.8401  153.3783 H   0  0  0  0  0  0  0  0  0  0  0  0
  149.0102  141.4589  155.0120 H   0  0  0  0  0  0  0  0  0  0  0  0
  152.3905  140.8345  156.4814 H   0  0  0  0  0  0  0  0  0  0  0  0
  150.8972  143.0012  155.7544 H   0  0  0  0  0  0  0  0  0  0  0  0
  149.8350  142.1873  156.8948 H   0  0  0  0  0  0  0  0  0  0  0  0
  152.5838  143.3708  157.4263 H   0  0  0  0  0  0  0  0  0  0  0  0
  151.0169  141.4321  159.2009 H   0  0  0  0  0  0  0  0  0  0  0  0
  152.5728  141.1123  158.4682 H   0  0  0  0  0  0  0  0  0  0  0  0
  151.9618  141.0486  161.3976 H   0  0  0  0  0  0  0  0  0  0  0  0
  153.4995  140.7045  160.6424 H   0  0  0  0  0  0  0  0  0  0  0  0
  153.7912  141.3420  163.0318 H   0  0  0  0  0  0  0  0  0  0  0  0
  154.6153  142.4572  161.9651 H   0  0  0  0  0  0  0  0  0  0  0  0
  151.9025  142.8960  163.3057 H   0  0  0  0  0  0  0  0  0  0  0  0
  153.3840  143.7559  163.6639 H   0  0  0  0  0  0  0  0  0  0  0  0
  151.8386  145.0711  162.1669 H   0  0  0  0  0  0  0  0  0  0  0  0
  153.3982  144.7871  161.4291 H   0  0  0  0  0  0  0  0  0  0  0  0
  150.8537  143.1889  160.9155 H   0  0  0  0  0  0  0  0  0  0  0  0
  150.8014  145.3969  159.8389 H   0  0  0  0  0  0  0  0  0  0  0  0
  152.3765  145.1327  159.1139 H   0  0  0  0  0  0  0  0  0  0  0  0
  149.0419  137.8680  152.8620 H   0  0  0  0  0  0  0  0  0  0  0  0
  1  2  1  0  0  0  0
  2  7  1  0  0  0  0
  2  3  2  0  0  0  0
  3  4  1  0  0  0  0
  3 20  1  0  0  0  0
  4  5  2  0  0  0  0
  4 40  1  0  0  0  0
  5  6  1  0  0  0  0
  5 21  1  0  0  0  0
  6  7  2  0  0  0  0
  6 22  1  0  0  0  0
  7  8  1  0  0  0  0
  8  9  1  0  0  0  0
  8 23  1  0  0  0  0
  9 10  1  0  0  0  0
  9 24  1  0  0  0  0
  9 25  1  0  0  0  0
 10 19  1  0  0  0  0
 10 11  1  0  0  0  0
 10 26  1  0  0  0  0
 11 12  1  0  0  0  0
 11 27  1  0  0  0  0
 11 28  1  0  0  0  0
 12 17  1  0  0  0  0
 12 13  1  0  0  0  0
 13 14  1  0  0  0  0
 13 29  1  0  0  0  0
 13 30  1  0  0  0  0
 14 15  1  0  0  0  0
 14 31  1  0  0  0  0
 14 32  1  0  0  0  0
 15 16  1  0  0  0  0
 15 33  1  0  0  0  0
 15 34  1  0  0  0  0
 16 17  1  0  0  0  0
 16 35  1  0  0  0  0
 16 36  1  0  0  0  0
 17 18  1  0  0  0  0
 17 37  1  0  0  0  0
 18 19  1  0  0  0  0
 18 38  1  0  0  0  0
 18 39  1  0  0  0  0
M  CHG  1   4   1
M  END
> <s_m_source_file>
AV-unprocessed.smi

> <i_m_source_file_index>
2822

> <i_lp_mmshare_version>
43012

> <i_f3d_flags>
0

> <s_epik_input>
Q2xjMVtjSF1uW2NIXVtjSF1jMVtOSF1bQ0gyXVtDQEhdKFtDSDJdMilPW0NIMl1bQ0BASF0oTjIzKVtDSDJdW0NIMl1bQ0gyXVtDSDJdMw==

> <s_epik_cmdline>
J2VwaWtfcHl0aG9uJywgJy1waCcsICc3LjAnLCAnLXRuJywgJzgnLCAnLW1hJywgJzIwMCcsICctbWV0YWxfYmluZGluZycsICctaW1hZScsICc8aW5maWxlLm1hZT4nLCAnLW9tYWUnLCAnPG91dGZpbGUubWFlPic=

> <r_epik_Ionization_Penalty>
1.37653

> <r_epik_Ionization_Penalty_Charging>
0.152973

> <r_epik_Ionization_Penalty_Neutral>
1.22356

> <r_epik_State_Penalty>
1.42693

> <r_epik_Charging_Adjusted_Penalty>
1.5799

> <i_epik_Tot_Q>
1

> <i_epik_Tot_abs_Q>
1

> <r_epik_Metal_State_Penalty>
4.59822

> <b_epik_Metal_Only>
0

> <s_lp_Force_Field>
OPLS_2005

> <r_lp_Energy>
43.1836

> <b_lp_Chiralities_Consistent>
1

> <s_lp_Variant>
AV-unprocessed.smi:2822-17

> <Gold.Version>
5.8.1

> <Gold.Id.Protein>
6NUR|6NUR_protein|mol2

> <Gold.PLP.Fitness>
48.6634

> <Gold.PLP.PLP>
-43.0313

> <Gold.PLP.part.hbond>
-2.0000

> <Gold.PLP.part.metal>
0.0000

> <Gold.PLP.part.buried>
-1.0075

> <Gold.PLP.part.nonpolar>
-39.6701

> <Gold.PLP.part.repulsive>
0.3609

> <Gold.PLP.ligand.clash>
0.0000

> <Gold.PLP.ligand.torsion>
0.1845

> <Gold.PLP.Chemscore.Hbond>
2.0000

> <Gold.PLP.Chemscore.CHOScore>
0.0000

> <Gold.PLP.Chemscore.Metal>
0.0000

> <Gold.Chemscore.Hbonds>
donor molecule, donor type, donor heavy atom, donor atom, acceptor molecule, acceptor atom, score
      L1  H     4    40       P1  7948  2.00

> <Gold.PLP.Chemscore.Internal.Correction>
0.0011

> <Gold.Rescore>
     Score         DG    S(hbond)    S(metal)    S(lipo)     H(rot)  DE(clash)    DE(int)     intcor
     21.12     -21.76       0.95        0.00     137.86       1.18       0.40       0.24       ----

> <Gold.Chemscore.Fitness>
21.1198

> <Gold.Chemscore.DG>
-21.7598

> <Gold.Chemscore.ZeroCoef>
-5.4800

> <Gold.Chemscore.Hbond>
0.9486

> <Gold.Chemscore.Metal>
0.0000

> <Gold.Chemscore.Lipo>
137.8554

> <Gold.Chemscore.Internal_Hbond>
0.0000

> <Gold.Chemscore.DEClash>
0.3954

> <Gold.Chemscore.DEInternal>
0.2446

> <Gold.Chemscore.Rot>
1.1788

> <Gold.Chemscore.Internal.Correction>
   9.000000E+99

> <Gold.Chemscore.Hbonds>
donor molecule, donor type, donor heavy atom, donor atom, acceptor molecule, acceptor atom, score
      L1  H     4    40       P1  7948  0.95

> <Gold.Chemscore.Hbond.Weighted>
-3.1684

> <Gold.Chemscore.Metal.Weighted>
-0.0000

> <Gold.Chemscore.Lipo.Weighted>
-16.1291

> <Gold.Chemscore.Internal_Hbond.Weighted>
0.0000

> <Gold.Chemscore.DEClash.Weighted>
0.3954

> <Gold.Chemscore.DEInternal.Weighted>
0.2446

> <Gold.Chemscore.Rot.Weighted>
3.0177

> <Gold.Chemscore.Internal.Correction.Weighted>
   9.000000E+99

> <Gold.Protein.RotatedTorsions>
[ 6907 6896 6895 6894 ] final   78.06 input  -60.11 | X-H torsion
[ 7974 7965 7964 7962 ] final    3.22 input  175.53 | X-H torsion
[ 8008 7997 7996 7995 ] final   80.99 input   59.86 | X-H torsion
[ 10167 10162 10161 10158 ] final   13.03 input  -65.29 | X-H torsion
[ 10718 10713 10712 10709 ] final    8.36 input   66.30 | X-H torsion
[ 10763 10752 10751 10750 ] final   67.00 input  -60.55 | X-H torsion
[ 11005 11000 10999 10996 ] final   74.60 input  -57.11 | X-H torsion

> <Gold.Protein.ActiveResidues>
 VAL166  LYS551  ARG553  GLY616  TRP617  ASP618  TYR619  PRO620  LYS621  CYS622 
 ASP623  PHE694  ASN695  SER759  ASP760  ASP761  ALA762  ILE779  LEU786  VAL792 
 PHE793  MET794  SER795  GLU796  ALA797  LYS798  CYS799  TRP800  GLU811  SER814 

> <Gold.Protein.RotatedAtoms>
  152.5144  134.3722  159.9321 H   0  0  0  0  0  0  0  0  0  0  0  0  # atno 6907 bound_to 6896
  151.3676  133.3860  159.2704 H   0  0  0  0  0  0  0  0  0  0  0  0  # atno 6908 bound_to 6896
  150.9602  134.9011  159.7784 H   0  0  0  0  0  0  0  0  0  0  0  0  # atno 6909 bound_to 6896
  146.2445  140.0718  142.8362 H   0  0  0  0  0  0  0  0  0  0  0  0  # atno 7974 bound_to 7965
  155.8911  140.3439  155.5957 H   0  0  0  0  0  0  0  0  0  0  0  0  # atno 8008 bound_to 7997
  155.7610  140.0832  157.2174 H   0  0  0  0  0  0  0  0  0  0  0  0  # atno 8009 bound_to 7997
  154.4033  140.1536  156.2819 H   0  0  0  0  0  0  0  0  0  0  0  0  # atno 8010 bound_to 7997
  140.6029  143.8567  150.6984 H   0  0  0  0  0  0  0  0  0  0  0  0  # atno 10167 bound_to 10162
  156.9505  130.5895  149.5656 H   0  0  0  0  0  0  0  0  0  0  0  0  # atno 10718 bound_to 10713
  153.0166  135.5300  154.6911 H   0  0  0  0  0  0  0  0  0  0  0  0  # atno 10763 bound_to 10752
  154.6045  135.2872  155.0501 H   0  0  0  0  0  0  0  0  0  0  0  0  # atno 10764 bound_to 10752
  154.1546  135.6557  153.5024 H   0  0  0  0  0  0  0  0  0  0  0  0  # atno 10765 bound_to 10752
  139.9383  134.7447  156.1168 H   0  0  0  0  0  0  0  0  0  0  0  0  # atno 11005 bound_to 11000
  145.0809  140.9220  143.4826 LP  0  0  0  0  0  0  0  0  0  0  0  0  # atno 17320 bound_to 7965
  145.0871  139.2917  143.5754 LP  0  0  0  0  0  0  0  0  0  0  0  0  # atno 17321 bound_to 7965
  140.2117  143.3878  152.1713 LP  0  0  0  0  0  0  0  0  0  0  0  0  # atno 17342 bound_to 10162
  139.5304  144.7152  151.5077 LP  0  0  0  0  0  0  0  0  0  0  0  0  # atno 17343 bound_to 10162
  156.0365  130.5452  150.8666 LP  0  0  0  0  0  0  0  0  0  0  0  0  # atno 17370 bound_to 10713
  157.5725  131.0946  150.9396 LP  0  0  0  0  0  0  0  0  0  0  0  0  # atno 17371 bound_to 10713
  141.1007  133.6678  156.2747 LP  0  0  0  0  0  0  0  0  0  0  0  0  # atno 17394 bound_to 11000
  140.6017  134.5548  157.5518 LP  0  0  0  0  0  0  0  0  0  0  0  0  # atno 17395 bound_to 11000

$$$$
