AV-unprocessed.smi:2797|AV-procd|sdf|10784|dock5
  -GOLD-   2272015223D 1   1.00000     0.00000
 Structure written by MMmdl.
 38 39  0  0  0  0  0  0  0  0  2 V2000
  143.5399  133.3654  151.1518 C   0  0  0  0  0  0  0  0  0  0  0  0
  144.5050  133.4773  152.1911 O   0  0  0  0  0  0  0  0  0  0  0  0
  145.6334  134.3254  151.9491 C   0  0  0  0  0  0  0  0  0  0  0  0
  145.2288  135.8056  151.9237 C   0  0  0  0  0  0  0  0  0  0  0  0
  146.3668  136.6672  152.2295 N   0  0  0  0  0  0  0  0  0  0  0  0
  146.2998  137.8668  152.8229 C   0  0  0  0  0  0  0  0  0  0  0  0
  145.2440  138.4165  153.1345 O   0  0  0  0  0  0  0  0  0  0  0  0
  147.5260  138.3829  153.0116 N   0  0  0  0  0  0  0  0  0  0  0  0
  147.8861  139.6176  153.6214 C   0  0  0  0  0  0  0  0  0  0  0  0
  147.0936  140.7894  153.5236 C   0  0  0  0  0  0  0  0  0  0  0  0
  147.5135  141.9661  154.1734 C   0  0  0  0  0  0  0  0  0  0  0  0
  148.6557  141.9675  154.8912 N   0  3  0  0  0  0  0  0  0  0  0  0
  149.4393  140.8755  155.0302 C   0  0  0  0  0  0  0  0  0  0  0  0
  150.6929  141.0103  155.8726 C   0  0  0  0  0  0  0  0  0  0  0  0
  149.0702  139.6638  154.3992 C   0  0  0  0  0  0  0  0  0  0  0  0
  150.0635  138.2562  154.5755 Cl  0  0  0  0  0  0  0  0  0  0  0  0
  146.7262  133.8955  152.9471 C   0  0  0  0  0  0  0  0  0  0  0  0
  147.2556  132.9127  151.9013 C   0  0  0  0  0  0  0  0  0  0  0  0
  146.5604  133.7717  150.8440 C   0  0  0  0  0  0  0  0  0  0  0  0
  142.7167  132.7439  151.5037 H   0  0  0  0  0  0  0  0  0  0  0  0
  143.9448  132.8861  150.2621 H   0  0  0  0  0  0  0  0  0  0  0  0
  143.1171  134.3267  150.8655 H   0  0  0  0  0  0  0  0  0  0  0  0
  144.8852  136.0760  150.9250 H   0  0  0  0  0  0  0  0  0  0  0  0
  144.3819  136.0078  152.5794 H   0  0  0  0  0  0  0  0  0  0  0  0
  147.2795  136.3011  152.0014 H   0  0  0  0  0  0  0  0  0  0  0  0
  148.2923  137.8557  152.6189 H   0  0  0  0  0  0  0  0  0  0  0  0
  146.1648  140.8065  152.9743 H   0  0  0  0  0  0  0  0  0  0  0  0
  146.9687  142.8987  154.1461 H   0  0  0  0  0  0  0  0  0  0  0  0
  151.5771  140.7854  155.2757 H   0  0  0  0  0  0  0  0  0  0  0  0
  150.6600  140.3186  156.7148 H   0  0  0  0  0  0  0  0  0  0  0  0
  150.8010  142.0207  156.2690 H   0  0  0  0  0  0  0  0  0  0  0  0
  147.4383  134.6935  153.1646 H   0  0  0  0  0  0  0  0  0  0  0  0
  146.3586  133.4327  153.8638 H   0  0  0  0  0  0  0  0  0  0  0  0
  148.3419  132.8734  151.8172 H   0  0  0  0  0  0  0  0  0  0  0  0
  146.8170  131.9180  151.9945 H   0  0  0  0  0  0  0  0  0  0  0  0
  146.0893  133.2037  150.0437 H   0  0  0  0  0  0  0  0  0  0  0  0
  147.2240  134.5356  150.4352 H   0  0  0  0  0  0  0  0  0  0  0  0
  148.9379  142.8314  155.3551 H   0  0  0  0  0  0  0  0  0  0  0  0
  1  2  1  0  0  0  0
  1 20  1  0  0  0  0
  1 21  1  0  0  0  0
  1 22  1  0  0  0  0
  2  3  1  0  0  0  0
  3 19  1  0  0  0  0
  3  4  1  0  0  0  0
  3 17  1  0  0  0  0
  4  5  1  0  0  0  0
  4 23  1  0  0  0  0
  4 24  1  0  0  0  0
  5  6  1  0  0  0  0
  5 25  1  0  0  0  0
  6  7  2  0  0  0  0
  6  8  1  0  0  0  0
  8  9  1  0  0  0  0
  8 26  1  0  0  0  0
  9 15  1  0  0  0  0
  9 10  2  0  0  0  0
 10 11  1  0  0  0  0
 10 27  1  0  0  0  0
 11 12  2  0  0  0  0
 11 28  1  0  0  0  0
 12 13  1  0  0  0  0
 12 38  1  0  0  0  0
 13 14  1  0  0  0  0
 13 15  2  0  0  0  0
 14 29  1  0  0  0  0
 14 30  1  0  0  0  0
 14 31  1  0  0  0  0
 15 16  1  0  0  0  0
 17 18  1  0  0  0  0
 17 32  1  0  0  0  0
 17 33  1  0  0  0  0
 18 19  1  0  0  0  0
 18 34  1  0  0  0  0
 18 35  1  0  0  0  0
 19 36  1  0  0  0  0
 19 37  1  0  0  0  0
M  CHG  1  12   1
M  END
> <s_m_source_file>
AV-unprocessed.smi

> <i_m_source_file_index>
2797

> <i_lp_mmshare_version>
43012

> <i_f3d_flags>
0

> <s_epik_input>
W0NIMl0xW0NIMl1bQ0gyXUMxKE9bQ0gzXSlbQ0gyXVtOSF1DKD1PKVtOSF1jMltjSF1bY0hdbmMoW0NIM10pYzJDbA==

> <s_epik_cmdline>
J2VwaWtfcHl0aG9uJywgJy1waCcsICc3LjAnLCAnLXRuJywgJzgnLCAnLW1hJywgJzIwMCcsICctbWV0YWxfYmluZGluZycsICctaW1hZScsICc8aW5maWxlLm1hZT4nLCAnLW9tYWUnLCAnPG91dGZpbGUubWFlPic=

> <r_epik_Ionization_Penalty>
2.42651

> <r_epik_Ionization_Penalty_Charging>
2.42649

> <r_epik_Ionization_Penalty_Neutral>
1.93283e-05

> <r_epik_State_Penalty>
2.58622

> <r_epik_Charging_Adjusted_Penalty>
5.01271

> <i_epik_Tot_Q>
1

> <i_epik_Tot_abs_Q>
1

> <r_epik_Metal_State_Penalty>
2.59605

> <b_epik_Metal_Only>
0

> <s_lp_Force_Field>
OPLS_2005

> <r_lp_Energy>
25.6694

> <b_lp_Chiralities_Consistent>
1

> <s_lp_Variant>
AV-unprocessed.smi:2797-2

> <Gold.Version>
5.8.1

> <Gold.Id.Protein>
6NUR|6NUR_protein|mol2

> <Gold.PLP.Fitness>
42.6327

> <Gold.PLP.PLP>
-32.0825

> <Gold.PLP.part.hbond>
-3.3730

> <Gold.PLP.part.metal>
0.0000

> <Gold.PLP.part.buried>
-3.1601

> <Gold.PLP.part.nonpolar>
-29.4475

> <Gold.PLP.part.repulsive>
3.3666

> <Gold.PLP.ligand.clash>
0.0000

> <Gold.PLP.ligand.torsion>
0.8698

> <Gold.PLP.Chemscore.Hbond>
4.0000

> <Gold.PLP.Chemscore.CHOScore>
0.0000

> <Gold.PLP.Chemscore.Metal>
0.0000

> <Gold.Chemscore.Hbonds>
donor molecule, donor type, donor heavy atom, donor atom, acceptor molecule, acceptor atom, score
      L1  H     5    25       P1  7948  1.00
      L1  H     8    26       P1  7948  1.00
      L1  H    12    38       P1  8028  2.00

> <Gold.PLP.Chemscore.Internal.Correction>
0.2897

> <Gold.Rescore>
     Score         DG    S(hbond)    S(metal)    S(lipo)     H(rot)  DE(clash)    DE(int)     intcor
     17.62     -21.23       2.96        0.00      81.51       1.44       1.81       1.80       ----

> <Gold.Chemscore.Fitness>
17.6234

> <Gold.Chemscore.DG>
-21.2318

> <Gold.Chemscore.ZeroCoef>
-5.4800

> <Gold.Chemscore.Hbond>
2.9627

> <Gold.Chemscore.Metal>
0.0000

> <Gold.Chemscore.Lipo>
81.5068

> <Gold.Chemscore.Internal_Hbond>
0.0000

> <Gold.Chemscore.DEClash>
1.8106

> <Gold.Chemscore.DEInternal>
1.7978

> <Gold.Chemscore.Rot>
1.4375

> <Gold.Chemscore.Internal.Correction>
   9.000000E+99

> <Gold.Chemscore.Hbonds>
donor molecule, donor type, donor heavy atom, donor atom, acceptor molecule, acceptor atom, score
      L1  H     5    25       P1  7948  0.99
      L1  H     8    26       P1  7948  0.94
      L1  H    12    38       P1  8028  0.97

> <Gold.Chemscore.Hbond.Weighted>
-9.8955

> <Gold.Chemscore.Metal.Weighted>
-0.0000

> <Gold.Chemscore.Lipo.Weighted>
-9.5363

> <Gold.Chemscore.Internal_Hbond.Weighted>
0.0000

> <Gold.Chemscore.DEClash.Weighted>
1.8106

> <Gold.Chemscore.DEInternal.Weighted>
1.7978

> <Gold.Chemscore.Rot.Weighted>
3.6800

> <Gold.Chemscore.Internal.Correction.Weighted>
   9.000000E+99

> <Gold.Protein.RotatedTorsions>
[ 6907 6896 6895 6894 ] final  -29.52 input  -60.11 | X-H torsion
[ 7974 7965 7964 7962 ] final    9.22 input  175.53 | X-H torsion
[ 8008 7997 7996 7995 ] final    9.97 input   59.86 | X-H torsion
[ 10167 10162 10161 10158 ] final -112.16 input  -65.29 | X-H torsion
[ 10718 10713 10712 10709 ] final   47.77 input   66.30 | X-H torsion
[ 10763 10752 10751 10750 ] final   49.09 input  -60.55 | X-H torsion
[ 11005 11000 10999 10996 ] final   74.41 input  -57.11 | X-H torsion

> <Gold.Protein.ActiveResidues>
 VAL166  LYS551  ARG553  GLY616  TRP617  ASP618  TYR619  PRO620  LYS621  CYS622 
 ASP623  PHE694  ASN695  SER759  ASP760  ASP761  ALA762  ILE779  LEU786  VAL792 
 PHE793  MET794  SER795  GLU796  ALA797  LYS798  CYS799  TRP800  GLU811  SER814 

> <Gold.Protein.RotatedAtoms>
  151.1181  135.0064  159.8525 H   0  0  0  0  0  0  0  0  0  0  0  0  # atno 6907 bound_to 6896
  152.5446  134.1755  159.8624 H   0  0  0  0  0  0  0  0  0  0  0  0  # atno 6908 bound_to 6896
  151.1811  133.4680  159.2627 H   0  0  0  0  0  0  0  0  0  0  0  0  # atno 6909 bound_to 6896
  146.2406  139.9815  142.8435 H   0  0  0  0  0  0  0  0  0  0  0  0  # atno 7974 bound_to 7965
  154.7871  140.2829  155.6019 H   0  0  0  0  0  0  0  0  0  0  0  0  # atno 8008 bound_to 7997
  156.2959  140.2612  156.2639 H   0  0  0  0  0  0  0  0  0  0  0  0  # atno 8009 bound_to 7997
  154.9714  140.0376  157.2226 H   0  0  0  0  0  0  0  0  0  0  0  0  # atno 8010 bound_to 7997
  140.1257  143.4404  152.1661 H   0  0  0  0  0  0  0  0  0  0  0  0  # atno 10167 bound_to 10162
  157.4619  130.8202  149.7895 H   0  0  0  0  0  0  0  0  0  0  0  0  # atno 10718 bound_to 10713
  152.9788  135.5923  154.4032 H   0  0  0  0  0  0  0  0  0  0  0  0  # atno 10763 bound_to 10752
  154.3675  135.2767  155.2287 H   0  0  0  0  0  0  0  0  0  0  0  0  # atno 10764 bound_to 10752
  154.4257  135.6048  153.6092 H   0  0  0  0  0  0  0  0  0  0  0  0  # atno 10765 bound_to 10752
  139.9392  134.7430  156.1144 H   0  0  0  0  0  0  0  0  0  0  0  0  # atno 11005 bound_to 11000
  145.1587  140.9661  143.4390 LP  0  0  0  0  0  0  0  0  0  0  0  0  # atno 17320 bound_to 7965
  145.0136  139.3487  143.6107 LP  0  0  0  0  0  0  0  0  0  0  0  0  # atno 17321 bound_to 7965
  139.5545  144.7363  151.4334 LP  0  0  0  0  0  0  0  0  0  0  0  0  # atno 17342 bound_to 10162
  140.6846  143.8003  150.7168 LP  0  0  0  0  0  0  0  0  0  0  0  0  # atno 17343 bound_to 10162
  156.0032  130.3869  150.2525 LP  0  0  0  0  0  0  0  0  0  0  0  0  # atno 17370 bound_to 10713
  157.0703  131.0115  151.3192 LP  0  0  0  0  0  0  0  0  0  0  0  0  # atno 17371 bound_to 10713
  141.1020  133.6674  156.2776 LP  0  0  0  0  0  0  0  0  0  0  0  0  # atno 17394 bound_to 11000
  140.5995  134.5569  157.5515 LP  0  0  0  0  0  0  0  0  0  0  0  0  # atno 17395 bound_to 11000

$$$$
