AV-unprocessed.smi:2902|AV-procd|sdf|11157|dock6
  -GOLD-   2272016 43D 1   1.00000     0.00000
 Structure written by MMmdl.
 47 48  0  0  0  0  0  0  0  0  1 V2000
  148.2491  140.7539  154.6939 C   0  0  0  0  0  0  0  0  0  0  0  0
  149.4353  141.7085  154.8790 C   0  0  0  0  0  0  0  0  0  0  0  0
  150.1862  141.4742  156.2032 C   0  0  2  0  0  0  0  0  0  0  0  0
  151.0294  142.6038  156.4349 O   0  0  0  0  0  0  0  0  0  0  0  0
  151.1228  143.0818  157.7758 C   0  0  0  0  0  0  0  0  0  0  0  0
  151.8609  144.4178  157.9035 C   0  0  0  0  0  0  0  0  0  0  0  0
  152.3897  144.4406  159.3424 C   0  0  0  0  0  0  0  0  0  0  0  0
  152.4397  142.9763  159.8070 C   0  0  0  0  0  0  0  0  0  0  0  0
  151.9805  142.1343  158.6122 C   0  0  0  0  0  0  0  0  0  0  0  0
  151.0209  140.1842  156.1536 C   0  0  0  0  0  0  0  0  0  0  0  0
  152.2465  140.2294  156.2611 O   0  0  0  0  0  0  0  0  0  0  0  0
  150.3337  139.0405  156.0096 N   0  0  0  0  0  0  0  0  0  0  0  0
  150.9095  137.6986  155.9667 C   0  0  1  0  0  0  0  0  0  0  0  0
  152.1016  137.6874  154.9896 C   0  0  0  0  0  0  0  0  0  0  0  0
  151.2838  137.2416  157.3997 C   0  0  1  0  0  0  0  0  0  0  0  0
  152.4278  138.0686  158.0154 C   0  0  0  0  0  0  0  0  0  0  0  0
  150.1309  137.2531  158.2893 N   0  0  0  0  0  0  0  0  0  0  0  0
  149.4034  138.2684  158.7620 C   0  0  0  0  0  0  0  0  0  0  0  0
  148.4183  137.8941  159.5661 N   0  0  0  0  0  0  0  0  0  0  0  0
  148.6109  136.5418  159.5479 C   0  0  0  0  0  0  0  0  0  0  0  0
  149.6253  136.1058  158.8010 N   0  0  0  0  0  0  0  0  0  0  0  0
  147.7472  140.9380  153.7439 H   0  0  0  0  0  0  0  0  0  0  0  0
  147.5129  140.8799  155.4881 H   0  0  0  0  0  0  0  0  0  0  0  0
  148.5756  139.7138  154.7015 H   0  0  0  0  0  0  0  0  0  0  0  0
  150.1198  141.5797  154.0391 H   0  0  0  0  0  0  0  0  0  0  0  0
  149.0787  142.7382  154.8283 H   0  0  0  0  0  0  0  0  0  0  0  0
  149.4468  141.3913  157.0016 H   0  0  0  0  0  0  0  0  0  0  0  0
  150.1403  143.1554  158.2443 H   0  0  0  0  0  0  0  0  0  0  0  0
  152.7011  144.4396  157.2078 H   0  0  0  0  0  0  0  0  0  0  0  0
  151.2241  145.2747  157.6819 H   0  0  0  0  0  0  0  0  0  0  0  0
  153.3683  144.9184  159.3966 H   0  0  0  0  0  0  0  0  0  0  0  0
  151.7141  145.0079  159.9836 H   0  0  0  0  0  0  0  0  0  0  0  0
  153.4362  142.6856  160.1414 H   0  0  0  0  0  0  0  0  0  0  0  0
  151.7597  142.8351  160.6481 H   0  0  0  0  0  0  0  0  0  0  0  0
  151.4428  141.2344  158.9122 H   0  0  0  0  0  0  0  0  0  0  0  0
  152.8513  141.8217  158.0338 H   0  0  0  0  0  0  0  0  0  0  0  0
  149.3286  139.1037  155.9357 H   0  0  0  0  0  0  0  0  0  0  0  0
  150.1575  137.0061  155.5834 H   0  0  0  0  0  0  0  0  0  0  0  0
  152.5099  136.6851  154.8605 H   0  0  0  0  0  0  0  0  0  0  0  0
  152.9073  138.3321  155.3425 H   0  0  0  0  0  0  0  0  0  0  0  0
  151.8045  138.0393  154.0010 H   0  0  0  0  0  0  0  0  0  0  0  0
  151.6312  136.2084  157.3354 H   0  0  0  0  0  0  0  0  0  0  0  0
  153.3449  137.9842  157.4323 H   0  0  0  0  0  0  0  0  0  0  0  0
  152.6553  137.7272  159.0259 H   0  0  0  0  0  0  0  0  0  0  0  0
  152.1672  139.1258  158.0727 H   0  0  0  0  0  0  0  0  0  0  0  0
  149.5976  139.3011  158.5115 H   0  0  0  0  0  0  0  0  0  0  0  0
  147.9859  135.8581  160.1032 H   0  0  0  0  0  0  0  0  0  0  0  0
  1  2  1  0  0  0  0
  1 22  1  0  0  0  0
  1 23  1  0  0  0  0
  1 24  1  0  0  0  0
  2  3  1  0  0  0  0
  2 25  1  0  0  0  0
  2 26  1  0  0  0  0
  3  4  1  0  0  0  0
  3 10  1  0  0  0  0
  3 27  1  0  0  0  0
  4  5  1  0  0  0  0
  5  9  1  0  0  0  0
  5  6  1  0  0  0  0
  5 28  1  0  0  0  0
  6  7  1  0  0  0  0
  6 29  1  0  0  0  0
  6 30  1  0  0  0  0
  7  8  1  0  0  0  0
  7 31  1  0  0  0  0
  7 32  1  0  0  0  0
  8  9  1  0  0  0  0
  8 33  1  0  0  0  0
  8 34  1  0  0  0  0
  9 35  1  0  0  0  0
  9 36  1  0  0  0  0
 10 11  2  0  0  0  0
 10 12  1  0  0  0  0
 12 13  1  0  0  0  0
 12 37  1  0  0  0  0
 13 14  1  0  0  0  0
 13 15  1  0  0  0  0
 13 38  1  0  0  0  0
 14 39  1  0  0  0  0
 14 40  1  0  0  0  0
 14 41  1  0  0  0  0
 15 16  1  0  0  0  0
 15 17  1  0  0  0  0
 15 42  1  0  0  0  0
 16 43  1  0  0  0  0
 16 44  1  0  0  0  0
 16 45  1  0  0  0  0
 17 21  1  0  0  0  0
 17 18  1  0  0  0  0
 18 19  2  0  0  0  0
 18 46  1  0  0  0  0
 19 20  1  0  0  0  0
 20 21  2  0  0  0  0
 20 47  1  0  0  0  0
M  END
> <s_m_source_file>
AV-unprocessed.smi

> <i_m_source_file_index>
2902

> <i_lp_mmshare_version>
43012

> <i_f3d_flags>
0

> <s_epik_input>
W0NIMl0xW0NIMl1bQ0gyXVtDSDJdW0NIXTFPW0NAQEhdKFtDSDJdW0NIM10pQyg9TylbTkhdW0NASF0oW0NIM10pW0NASF0oW0NIM10pbjJbY0hdbltjSF1uMg==

> <s_epik_cmdline>
J2VwaWtfcHl0aG9uJywgJy1waCcsICc3LjAnLCAnLXRuJywgJzgnLCAnLW1hJywgJzIwMCcsICctbWV0YWxfYmluZGluZycsICctaW1hZScsICc8aW5maWxlLm1hZT4nLCAnLW9tYWUnLCAnPG91dGZpbGUubWFlPic=

> <r_lp_tautomer_probability>
1

> <r_epik_Ionization_Penalty>
6.95617e-05

> <r_epik_Ionization_Penalty_Charging>
0

> <r_epik_Ionization_Penalty_Neutral>
6.95617e-05

> <r_epik_State_Penalty>
-0

> <r_epik_Charging_Adjusted_Penalty>
0

> <i_epik_Tot_Q>
0

> <i_epik_Tot_abs_Q>
0

> <r_epik_Metal_State_Penalty>
-0

> <b_epik_Metal_Only>
0

> <s_lp_Force_Field>
OPLS_2005

> <r_lp_Energy>
29.96

> <b_lp_Chiralities_Consistent>
1

> <s_lp_Variant>
AV-unprocessed.smi:2902-7

> <Gold.Version>
5.8.1

> <Gold.Id.Protein>
6NUR|6NUR_protein|mol2

> <Gold.PLP.Fitness>
41.1218

> <Gold.PLP.PLP>
-36.9559

> <Gold.PLP.part.hbond>
-3.9538

> <Gold.PLP.part.metal>
0.0000

> <Gold.PLP.part.buried>
0.0839

> <Gold.PLP.part.nonpolar>
-33.6602

> <Gold.PLP.part.repulsive>
0.3688

> <Gold.PLP.ligand.clash>
0.0000

> <Gold.PLP.ligand.torsion>
0.9756

> <Gold.PLP.Chemscore.Hbond>
1.9913

> <Gold.PLP.Chemscore.CHOScore>
0.0000

> <Gold.PLP.Chemscore.Metal>
0.0000

> <Gold.Chemscore.Hbonds>
donor molecule, donor type, donor heavy atom, donor atom, acceptor molecule, acceptor atom, score
      P1  H  6896  6909       L1    21  1.00
      P1  H  6931  6943       L1    19  0.01
      P1  H  6934  6947       L1    19  0.22
      P1  H  7997  8010       L1    11  0.83

> <Gold.PLP.Chemscore.Internal.Correction>
0.1433

> <Gold.Rescore>
     Score         DG    S(hbond)    S(metal)    S(lipo)     H(rot)  DE(clash)    DE(int)     intcor
     10.93     -16.73       2.05        0.00      96.67       2.69       0.69       5.11       ----

> <Gold.Chemscore.Fitness>
10.9273

> <Gold.Chemscore.DG>
-16.7305

> <Gold.Chemscore.ZeroCoef>
-5.4800

> <Gold.Chemscore.Hbond>
2.0464

> <Gold.Chemscore.Metal>
0.0000

> <Gold.Chemscore.Lipo>
96.6738

> <Gold.Chemscore.Internal_Hbond>
0.0000

> <Gold.Chemscore.DEClash>
0.6888

> <Gold.Chemscore.DEInternal>
5.1143

> <Gold.Chemscore.Rot>
2.6935

> <Gold.Chemscore.Internal.Correction>
   9.000000E+99

> <Gold.Chemscore.Hbonds>
donor molecule, donor type, donor heavy atom, donor atom, acceptor molecule, acceptor atom, score
      P1  H  6896  6909       L1    21  0.89
      P1  H  6934  6947       L1    19  0.21
      P1  H  7997  8010       L1    11  0.80

> <Gold.Chemscore.Hbond.Weighted>
-6.8350

> <Gold.Chemscore.Metal.Weighted>
-0.0000

> <Gold.Chemscore.Lipo.Weighted>
-11.3108

> <Gold.Chemscore.Internal_Hbond.Weighted>
0.0000

> <Gold.Chemscore.DEClash.Weighted>
0.6888

> <Gold.Chemscore.DEInternal.Weighted>
5.1143

> <Gold.Chemscore.Rot.Weighted>
6.8954

> <Gold.Chemscore.Internal.Correction.Weighted>
   9.000000E+99

> <Gold.Protein.RotatedTorsions>
[ 6907 6896 6895 6894 ] final   62.40 input  -60.11 | X-H torsion
[ 7974 7965 7964 7962 ] final   26.08 input  175.53 | X-H torsion
[ 8008 7997 7996 7995 ] final   85.79 input   59.86 | X-H torsion
[ 10167 10162 10161 10158 ] final   60.01 input  -65.29 | X-H torsion
[ 10718 10713 10712 10709 ] final   32.42 input   66.30 | X-H torsion
[ 10763 10752 10751 10750 ] final  -52.29 input  -60.55 | X-H torsion
[ 11005 11000 10999 10996 ] final -144.04 input  -57.11 | X-H torsion

> <Gold.Protein.ActiveResidues>
 VAL166  LYS551  ARG553  GLY616  TRP617  ASP618  TYR619  PRO620  LYS621  CYS622 
 ASP623  PHE694  ASN695  SER759  ASP760  ASP761  ALA762  ILE779  LEU786  VAL792 
 PHE793  MET794  SER795  GLU796  ALA797  LYS798  CYS799  TRP800  GLU811  SER814 

> <Gold.Protein.RotatedAtoms>
  152.4169  134.6025  160.0003 H   0  0  0  0  0  0  0  0  0  0  0  0  # atno 6907 bound_to 6896
  151.6186  133.3335  159.3091 H   0  0  0  0  0  0  0  0  0  0  0  0  # atno 6908 bound_to 6896
  150.8057  134.7220  159.6708 H   0  0  0  0  0  0  0  0  0  0  0  0  # atno 6909 bound_to 6896
  146.1856  139.7378  142.8869 H   0  0  0  0  0  0  0  0  0  0  0  0  # atno 7974 bound_to 7965
  155.9545  140.3398  155.6437 H   0  0  0  0  0  0  0  0  0  0  0  0  # atno 8008 bound_to 7997
  155.6877  140.0745  157.2478 H   0  0  0  0  0  0  0  0  0  0  0  0  # atno 8009 bound_to 7997
  154.4129  140.1663  156.2039 H   0  0  0  0  0  0  0  0  0  0  0  0  # atno 8010 bound_to 7997
  140.1702  144.4284  150.6665 H   0  0  0  0  0  0  0  0  0  0  0  0  # atno 10167 bound_to 10162
  157.2850  130.7274  149.6578 H   0  0  0  0  0  0  0  0  0  0  0  0  # atno 10718 bound_to 10713
  154.1404  135.6506  153.4941 H   0  0  0  0  0  0  0  0  0  0  0  0  # atno 10763 bound_to 10752
  153.0168  135.5314  154.6911 H   0  0  0  0  0  0  0  0  0  0  0  0  # atno 10764 bound_to 10752
  154.6171  135.2960  155.0339 H   0  0  0  0  0  0  0  0  0  0  0  0  # atno 10765 bound_to 10752
  140.8064  134.2796  157.4958 H   0  0  0  0  0  0  0  0  0  0  0  0  # atno 11005 bound_to 11000
  145.3948  141.0377  143.3103 LP  0  0  0  0  0  0  0  0  0  0  0  0  # atno 17320 bound_to 7965
  144.8391  139.5501  143.6908 LP  0  0  0  0  0  0  0  0  0  0  0  0  # atno 17321 bound_to 7965
  140.6587  143.2245  151.5907 LP  0  0  0  0  0  0  0  0  0  0  0  0  # atno 17342 bound_to 10162
  139.5341  144.2830  152.1214 LP  0  0  0  0  0  0  0  0  0  0  0  0  # atno 17343 bound_to 10162
  155.9665  130.4326  150.4972 LP  0  0  0  0  0  0  0  0  0  0  0  0  # atno 17370 bound_to 10713
  157.2923  131.0628  151.2125 LP  0  0  0  0  0  0  0  0  0  0  0  0  # atno 17371 bound_to 10713
  139.8717  134.9459  156.3922 LP  0  0  0  0  0  0  0  0  0  0  0  0  # atno 17394 bound_to 11000
  140.9242  133.7624  155.9944 LP  0  0  0  0  0  0  0  0  0  0  0  0  # atno 17395 bound_to 11000

$$$$
