AV-unprocessed.smi:1570|AV-procd|sdf|6312|dock2
  -GOLD-   22720 6513D 1   1.00000     0.00000
 Structure written by MMmdl.
 51 53  0  0  0  0  0  0  0  0  1 V2000
  150.9371  140.7733  155.9487 C   0  0  0  0  0  0  0  0  0  0  0  0
  150.4335  140.8630  157.3946 C   0  0  0  0  0  0  0  0  0  0  0  0
  151.4211  141.5033  158.2600 N   0  0  0  0  0  0  0  0  0  0  0  0
  152.6284  141.0021  158.6119 C   0  0  0  0  0  0  0  0  0  0  0  0
  153.0944  139.9213  158.2513 O   0  0  0  0  0  0  0  0  0  0  0  0
  153.2227  141.8840  159.4504 N   0  0  0  0  0  0  0  0  0  0  0  0
  154.5191  141.7280  160.1101 C   0  0  0  0  0  0  0  0  0  0  0  0
  154.5074  140.5843  161.1442 C   0  0  2  0  0  0  0  0  0  0  0  0
  155.6754  140.7004  161.9290 O   0  0  0  0  0  0  0  0  0  0  0  0
  154.4955  139.1801  160.5003 C   0  0  0  0  0  0  0  0  0  0  0  0
  154.9638  138.0927  161.3597 N   0  0  0  0  0  0  0  0  0  0  0  0
  154.1765  137.9735  162.5862 C   0  0  0  0  0  0  0  0  0  0  0  0
  154.6548  136.8060  163.4698 C   0  0  1  0  0  0  0  0  0  0  0  0
  153.7788  136.6277  164.7140 C   0  0  0  0  0  0  0  0  0  0  0  0
  154.6107  135.5992  162.7136 O   0  0  0  0  0  0  0  0  0  0  0  0
  155.4018  135.6487  161.5297 C   0  0  1  0  0  0  0  0  0  0  0  0
  155.2839  134.2983  160.8154 C   0  0  0  0  0  0  0  0  0  0  0  0
  154.9163  136.8180  160.6519 C   0  0  0  0  0  0  0  0  0  0  0  0
  152.3659  142.9767  159.6468 C   0  0  0  0  0  0  0  0  0  0  0  0
  152.5125  144.1378  160.4256 C   0  0  0  0  0  0  0  0  0  0  0  0
  151.4401  145.0602  160.4200 C   0  0  0  0  0  0  0  0  0  0  0  0
  150.2709  144.8102  159.6556 C   0  0  0  0  0  0  0  0  0  0  0  0
  150.1496  143.6334  158.8800 C   0  0  0  0  0  0  0  0  0  0  0  0
  151.2311  142.7355  158.9014 C   0  0  0  0  0  0  0  0  0  0  0  0
  150.1940  140.2970  155.3089 H   0  0  0  0  0  0  0  0  0  0  0  0
  151.8547  140.1877  155.8858 H   0  0  0  0  0  0  0  0  0  0  0  0
  151.1416  141.7629  155.5390 H   0  0  0  0  0  0  0  0  0  0  0  0
  149.4972  141.4220  157.4267 H   0  0  0  0  0  0  0  0  0  0  0  0
  150.2027  139.8670  157.7726 H   0  0  0  0  0  0  0  0  0  0  0  0
  155.3072  141.5649  159.3732 H   0  0  0  0  0  0  0  0  0  0  0  0
  154.7600  142.6717  160.6017 H   0  0  0  0  0  0  0  0  0  0  0  0
  153.6550  140.7254  161.8061 H   0  0  0  0  0  0  0  0  0  0  0  0
  155.7531  139.9230  162.4614 H   0  0  0  0  0  0  0  0  0  0  0  0
  153.4878  138.9368  160.1644 H   0  0  0  0  0  0  0  0  0  0  0  0
  155.0996  139.2188  159.5923 H   0  0  0  0  0  0  0  0  0  0  0  0
  154.2321  138.8916  163.1687 H   0  0  0  0  0  0  0  0  0  0  0  0
  153.1242  137.8289  162.3350 H   0  0  0  0  0  0  0  0  0  0  0  0
  155.6832  136.9860  163.7879 H   0  0  0  0  0  0  0  0  0  0  0  0
  153.7952  137.5227  165.3365 H   0  0  0  0  0  0  0  0  0  0  0  0
  154.1306  135.7937  165.3217 H   0  0  0  0  0  0  0  0  0  0  0  0
  152.7422  136.4281  164.4412 H   0  0  0  0  0  0  0  0  0  0  0  0
  156.4450  135.8084  161.8075 H   0  0  0  0  0  0  0  0  0  0  0  0
  155.8871  134.2812  159.9074 H   0  0  0  0  0  0  0  0  0  0  0  0
  154.2513  134.0882  160.5359 H   0  0  0  0  0  0  0  0  0  0  0  0
  155.6271  133.4868  161.4576 H   0  0  0  0  0  0  0  0  0  0  0  0
  153.8965  136.6211  160.3166 H   0  0  0  0  0  0  0  0  0  0  0  0
  155.5330  136.8729  159.7539 H   0  0  0  0  0  0  0  0  0  0  0  0
  153.4042  144.3208  161.0070 H   0  0  0  0  0  0  0  0  0  0  0  0
  151.5118  145.9648  161.0054 H   0  0  0  0  0  0  0  0  0  0  0  0
  149.4633  145.5272  159.6664 H   0  0  0  0  0  0  0  0  0  0  0  0
  149.2608  143.4371  158.2990 H   0  0  0  0  0  0  0  0  0  0  0  0
  1  2  1  0  0  0  0
  1 25  1  0  0  0  0
  1 26  1  0  0  0  0
  1 27  1  0  0  0  0
  2  3  1  0  0  0  0
  2 28  1  0  0  0  0
  2 29  1  0  0  0  0
  3 24  1  0  0  0  0
  3  4  1  0  0  0  0
  4  5  2  0  0  0  0
  4  6  1  0  0  0  0
  6  7  1  0  0  0  0
  6 19  1  0  0  0  0
  7  8  1  0  0  0  0
  7 30  1  0  0  0  0
  7 31  1  0  0  0  0
  8  9  1  0  0  0  0
  8 10  1  0  0  0  0
  8 32  1  0  0  0  0
  9 33  1  0  0  0  0
 10 11  1  0  0  0  0
 10 34  1  0  0  0  0
 10 35  1  0  0  0  0
 11 18  1  0  0  0  0
 11 12  1  0  0  0  0
 12 13  1  0  0  0  0
 12 36  1  0  0  0  0
 12 37  1  0  0  0  0
 13 14  1  0  0  0  0
 13 15  1  0  0  0  0
 13 38  1  0  0  0  0
 14 39  1  0  0  0  0
 14 40  1  0  0  0  0
 14 41  1  0  0  0  0
 15 16  1  0  0  0  0
 16 17  1  0  0  0  0
 16 18  1  0  0  0  0
 16 42  1  0  0  0  0
 17 43  1  0  0  0  0
 17 44  1  0  0  0  0
 17 45  1  0  0  0  0
 18 46  1  0  0  0  0
 18 47  1  0  0  0  0
 19 24  2  0  0  0  0
 19 20  1  0  0  0  0
 20 21  2  0  0  0  0
 20 48  1  0  0  0  0
 21 22  1  0  0  0  0
 21 49  1  0  0  0  0
 22 23  2  0  0  0  0
 22 50  1  0  0  0  0
 23 24  1  0  0  0  0
 23 51  1  0  0  0  0
M  END
> <s_m_source_file>
AV-unprocessed.smi

> <i_m_source_file_index>
1570

> <i_lp_mmshare_version>
43012

> <i_f3d_flags>
0

> <s_epik_input>
W2NIXTFbY0hdW2NIXVtjSF1jKGMxMiluKFtDSDJdW0NIM10pYyg9TyluMltDSDJdW0NASF0oW09IXSlbQ0gyXU4zW0NIMl1bQ0BASF0oW0NIM10pT1tDQEBIXShbQ0gzXSlbQ0gyXTM=

> <s_epik_cmdline>
J2VwaWtfcHl0aG9uJywgJy1waCcsICc3LjAnLCAnLXRuJywgJzgnLCAnLW1hJywgJzIwMCcsICctbWV0YWxfYmluZGluZycsICctaW1hZScsICc8aW5maWxlLm1hZT4nLCAnLW9tYWUnLCAnPG91dGZpbGUubWFlPic=

> <r_epik_Ionization_Penalty>
0.214359

> <r_epik_Ionization_Penalty_Charging>
2.30976e-09

> <r_epik_Ionization_Penalty_Neutral>
0.214359

> <r_epik_State_Penalty>
0.204533

> <r_epik_Charging_Adjusted_Penalty>
0.204533

> <i_epik_Tot_Q>
0

> <i_epik_Tot_abs_Q>
0

> <r_epik_Metal_State_Penalty>
0.204533

> <b_epik_Metal_Only>
0

> <s_lp_Force_Field>
OPLS_2005

> <r_lp_Energy>
58.4553

> <b_lp_Chiralities_Consistent>
1

> <s_lp_Variant>
AV-unprocessed.smi:1570-1

> <Gold.Version>
5.8.1

> <Gold.Id.Protein>
6NUR|6NUR_protein|mol2

> <Gold.PLP.Fitness>
51.6449

> <Gold.PLP.PLP>
-49.3476

> <Gold.PLP.part.hbond>
-2.0000

> <Gold.PLP.part.metal>
0.0000

> <Gold.PLP.part.buried>
-6.5711

> <Gold.PLP.part.nonpolar>
-40.9236

> <Gold.PLP.part.repulsive>
0.0000

> <Gold.PLP.ligand.clash>
0.0000

> <Gold.PLP.ligand.torsion>
0.3954

> <Gold.PLP.Chemscore.Hbond>
0.9920

> <Gold.PLP.Chemscore.CHOScore>
0.0000

> <Gold.PLP.Chemscore.Metal>
0.0000

> <Gold.Chemscore.Hbonds>
donor molecule, donor type, donor heavy atom, donor atom, acceptor molecule, acceptor atom, score
      P1  H  7997  8009       L1     5  1.00

> <Gold.PLP.Chemscore.Internal.Correction>
0.1121

> <Gold.Rescore>
     Score         DG    S(hbond)    S(metal)    S(lipo)     H(rot)  DE(clash)    DE(int)     intcor
     16.71     -18.56       0.93        0.00     130.43       2.06       0.07       1.79       ----

> <Gold.Chemscore.Fitness>
16.7071

> <Gold.Chemscore.DG>
-18.5638

> <Gold.Chemscore.ZeroCoef>
-5.4800

> <Gold.Chemscore.Hbond>
0.9254

> <Gold.Chemscore.Metal>
0.0000

> <Gold.Chemscore.Lipo>
130.4271

> <Gold.Chemscore.Internal_Hbond>
0.0000

> <Gold.Chemscore.DEClash>
0.0700

> <Gold.Chemscore.DEInternal>
1.7866

> <Gold.Chemscore.Rot>
2.0574

> <Gold.Chemscore.Internal.Correction>
   9.000000E+99

> <Gold.Chemscore.Hbonds>
donor molecule, donor type, donor heavy atom, donor atom, acceptor molecule, acceptor atom, score
      P1  H  7997  8009       L1     5  0.84

> <Gold.Chemscore.Hbond.Weighted>
-3.0907

> <Gold.Chemscore.Metal.Weighted>
-0.0000

> <Gold.Chemscore.Lipo.Weighted>
-15.2600

> <Gold.Chemscore.Internal_Hbond.Weighted>
0.0000

> <Gold.Chemscore.DEClash.Weighted>
0.0700

> <Gold.Chemscore.DEInternal.Weighted>
1.7866

> <Gold.Chemscore.Rot.Weighted>
5.2669

> <Gold.Chemscore.Internal.Correction.Weighted>
   9.000000E+99

> <Gold.Protein.RotatedTorsions>
[ 6907 6896 6895 6894 ] final  -50.26 input  -60.11 | X-H torsion
[ 7974 7965 7964 7962 ] final  -13.96 input  175.53 | X-H torsion
[ 8008 7997 7996 7995 ] final  143.32 input   59.86 | X-H torsion
[ 10167 10162 10161 10158 ] final -118.41 input  -65.29 | X-H torsion
[ 10718 10713 10712 10709 ] final  118.58 input   66.30 | X-H torsion
[ 10763 10752 10751 10750 ] final  175.11 input  -60.55 | X-H torsion
[ 11005 11000 10999 10996 ] final  -98.84 input  -57.11 | X-H torsion

> <Gold.Protein.ActiveResidues>
 VAL166  LYS551  ARG553  GLY616  TRP617  ASP618  TYR619  PRO620  LYS621  CYS622 
 ASP623  PHE694  ASN695  SER759  ASP760  ASP761  ALA762  ILE779  LEU786  VAL792 
 PHE793  MET794  SER795  GLU796  ALA797  LYS798  CYS799  TRP800  GLU811  SER814 

> <Gold.Protein.RotatedAtoms>
  150.8724  134.8100  159.7164 H   0  0  0  0  0  0  0  0  0  0  0  0  # atno 6907 bound_to 6896
  152.4723  134.4925  159.9710 H   0  0  0  0  0  0  0  0  0  0  0  0  # atno 6908 bound_to 6896
  151.5012  133.3465  159.2905 H   0  0  0  0  0  0  0  0  0  0  0  0  # atno 6909 bound_to 6896
  146.2093  140.3280  142.8396 H   0  0  0  0  0  0  0  0  0  0  0  0  # atno 7974 bound_to 7965
  156.2932  140.2265  156.4871 H   0  0  0  0  0  0  0  0  0  0  0  0  # atno 8008 bound_to 7997
  154.7803  140.0460  157.1143 H   0  0  0  0  0  0  0  0  0  0  0  0  # atno 8009 bound_to 7997
  154.9767  140.3073  155.4967 H   0  0  0  0  0  0  0  0  0  0  0  0  # atno 8010 bound_to 7997
  140.0578  143.4997  152.2048 H   0  0  0  0  0  0  0  0  0  0  0  0  # atno 10167 bound_to 10162
  157.6021  131.1049  150.7776 H   0  0  0  0  0  0  0  0  0  0  0  0  # atno 10718 bound_to 10713
  154.4632  135.2768  155.1698 H   0  0  0  0  0  0  0  0  0  0  0  0  # atno 10763 bound_to 10752
  154.3477  135.6156  153.5631 H   0  0  0  0  0  0  0  0  0  0  0  0  # atno 10764 bound_to 10752
  152.9857  135.5804  154.4998 H   0  0  0  0  0  0  0  0  0  0  0  0  # atno 10765 bound_to 10752
  141.1330  133.8275  157.0892 H   0  0  0  0  0  0  0  0  0  0  0  0  # atno 11005 bound_to 11000
  144.8873  140.7478  143.5949 LP  0  0  0  0  0  0  0  0  0  0  0  0  # atno 17320 bound_to 7965
  145.3201  139.1791  143.4592 LP  0  0  0  0  0  0  0  0  0  0  0  0  # atno 17321 bound_to 7965
  139.5912  144.7551  151.3395 LP  0  0  0  0  0  0  0  0  0  0  0  0  # atno 17342 bound_to 10162
  140.7186  143.7198  150.7705 LP  0  0  0  0  0  0  0  0  0  0  0  0  # atno 17343 bound_to 10162
  156.8172  130.4972  149.5348 LP  0  0  0  0  0  0  0  0  0  0  0  0  # atno 17370 bound_to 10713
  156.1096  130.6031  151.0027 LP  0  0  0  0  0  0  0  0  0  0  0  0  # atno 17371 bound_to 10713
  140.0403  134.9858  157.0948 LP  0  0  0  0  0  0  0  0  0  0  0  0  # atno 17394 bound_to 11000
  140.4146  134.1945  155.7163 LP  0  0  0  0  0  0  0  0  0  0  0  0  # atno 17395 bound_to 11000

$$$$
