AV-unprocessed.smi:383|AV-procd|sdf|2464|dock2
  -GOLD-   2262022403D 1   1.00000     0.00000
 Structure written by MMmdl.
 40 41  0  0  0  0  0  0  0  0  1 V2000
  146.9808  145.9629  160.8838 C   0  0  0  0  0  0  0  0  0  0  0  0
  146.0577  144.8532  160.3544 C   0  0  0  0  0  0  0  0  0  0  0  0
  145.0724  144.3826  161.4370 C   0  0  0  0  0  0  0  0  0  0  0  0
  146.8767  143.6705  159.8221 C   0  0  0  0  0  0  0  0  0  0  0  0
  146.7308  142.5481  160.3073 O   0  0  0  0  0  0  0  0  0  0  0  0
  147.7319  143.9360  158.8222 N   0  0  0  0  0  0  0  0  0  0  0  0
  148.5740  142.9492  158.1573 C   0  0  0  0  0  0  0  0  0  0  0  0
  150.0373  143.0551  158.5748 C   0  0  0  0  0  0  0  0  0  0  0  0
  150.3958  143.9901  159.5691 C   0  0  0  0  0  0  0  0  0  0  0  0
  151.7459  144.1193  159.9406 C   0  0  0  0  0  0  0  0  0  0  0  0
  152.6936  143.3044  159.2960 C   0  0  0  0  0  0  0  0  0  0  0  0
  152.3692  142.4082  158.3416 N   0  0  0  0  0  0  0  0  0  0  0  0
  151.0690  142.2800  157.9793 C   0  0  0  0  0  0  0  0  0  0  0  0
  150.7702  141.3333  156.9846 N   0  0  0  0  0  0  0  0  0  0  0  0
  151.8879  140.4596  156.6552 C   0  0  0  0  0  0  0  0  0  0  0  0
  151.3996  139.3054  155.7629 C   0  0  0  0  0  0  0  0  0  0  0  0
  150.7529  139.8316  154.6070 O   0  0  0  0  0  0  0  0  0  0  0  0
  149.6181  140.6270  154.9410 C   0  0  0  0  0  0  0  0  0  0  0  0
  150.0616  141.8187  155.8061 C   0  0  0  0  0  0  0  0  0  0  0  0
  147.6790  146.2983  160.1158 H   0  0  0  0  0  0  0  0  0  0  0  0
  147.5647  145.6261  161.7414 H   0  0  0  0  0  0  0  0  0  0  0  0
  146.4027  146.8315  161.2004 H   0  0  0  0  0  0  0  0  0  0  0  0
  145.4762  145.2676  159.5292 H   0  0  0  0  0  0  0  0  0  0  0  0
  144.4218  143.5906  161.0633 H   0  0  0  0  0  0  0  0  0  0  0  0
  144.4329  145.2026  161.7646 H   0  0  0  0  0  0  0  0  0  0  0  0
  145.5934  143.9990  162.3155 H   0  0  0  0  0  0  0  0  0  0  0  0
  147.7921  144.8870  158.4887 H   0  0  0  0  0  0  0  0  0  0  0  0
  148.2113  141.9594  158.4349 H   0  0  0  0  0  0  0  0  0  0  0  0
  148.4414  143.0157  157.0775 H   0  0  0  0  0  0  0  0  0  0  0  0
  149.6438  144.6065  160.0397 H   0  0  0  0  0  0  0  0  0  0  0  0
  152.0479  144.8272  160.6980 H   0  0  0  0  0  0  0  0  0  0  0  0
  153.7404  143.3746  159.5517 H   0  0  0  0  0  0  0  0  0  0  0  0
  152.6539  141.0372  156.1360 H   0  0  0  0  0  0  0  0  0  0  0  0
  152.3455  140.0636  157.5624 H   0  0  0  0  0  0  0  0  0  0  0  0
  152.2423  138.6891  155.4496 H   0  0  0  0  0  0  0  0  0  0  0  0
  150.7147  138.6555  156.3103 H   0  0  0  0  0  0  0  0  0  0  0  0
  149.1495  140.9820  154.0233 H   0  0  0  0  0  0  0  0  0  0  0  0
  148.8769  140.0214  155.4653 H   0  0  0  0  0  0  0  0  0  0  0  0
  149.1943  142.4060  156.1107 H   0  0  0  0  0  0  0  0  0  0  0  0
  150.7127  142.4732  155.2247 H   0  0  0  0  0  0  0  0  0  0  0  0
  1  2  1  0  0  0  0
  1 20  1  0  0  0  0
  1 21  1  0  0  0  0
  1 22  1  0  0  0  0
  2  3  1  0  0  0  0
  2  4  1  0  0  0  0
  2 23  1  0  0  0  0
  3 24  1  0  0  0  0
  3 25  1  0  0  0  0
  3 26  1  0  0  0  0
  4  5  2  0  0  0  0
  4  6  1  0  0  0  0
  6  7  1  0  0  0  0
  6 27  1  0  0  0  0
  7  8  1  0  0  0  0
  7 28  1  0  0  0  0
  7 29  1  0  0  0  0
  8 13  1  0  0  0  0
  8  9  2  0  0  0  0
  9 10  1  0  0  0  0
  9 30  1  0  0  0  0
 10 11  2  0  0  0  0
 10 31  1  0  0  0  0
 11 12  1  0  0  0  0
 11 32  1  0  0  0  0
 12 13  2  0  0  0  0
 13 14  1  0  0  0  0
 14 19  1  0  0  0  0
 14 15  1  0  0  0  0
 15 16  1  0  0  0  0
 15 33  1  0  0  0  0
 15 34  1  0  0  0  0
 16 17  1  0  0  0  0
 16 35  1  0  0  0  0
 16 36  1  0  0  0  0
 17 18  1  0  0  0  0
 18 19  1  0  0  0  0
 18 37  1  0  0  0  0
 18 38  1  0  0  0  0
 19 39  1  0  0  0  0
 19 40  1  0  0  0  0
M  END
> <s_m_source_file>
AV-unprocessed.smi

> <i_m_source_file_index>
383

> <i_lp_mmshare_version>
43012

> <i_f3d_flags>
0

> <s_epik_input>
W0NIM11bQ0hdKFtDSDNdKUMoPU8pW05IXVtDSDJdYzFbY0hdW2NIXVtjSF1uYzFOMltDSDJdW0NIMl1PW0NIMl1bQ0gyXTI=

> <s_epik_cmdline>
J2VwaWtfcHl0aG9uJywgJy1waCcsICc3LjAnLCAnLXRuJywgJzgnLCAnLW1hJywgJzIwMCcsICctbWV0YWxfYmluZGluZycsICctaW1hZScsICc8aW5maWxlLm1hZT4nLCAnLW9tYWUnLCAnPG91dGZpbGUubWFlPic=

> <r_lp_tautomer_probability>
1

> <r_epik_Ionization_Penalty>
0.00505534

> <r_epik_Ionization_Penalty_Charging>
0

> <r_epik_Ionization_Penalty_Neutral>
0.00505534

> <r_epik_State_Penalty>
0.00367784

> <r_epik_Charging_Adjusted_Penalty>
0.00367784

> <i_epik_Tot_Q>
0

> <i_epik_Tot_abs_Q>
0

> <r_epik_Metal_State_Penalty>
-0

> <b_epik_Metal_Only>
0

> <s_lp_Force_Field>
OPLS_2005

> <r_lp_Energy>
19.0793

> <b_lp_Chiralities_Consistent>
1

> <s_lp_Variant>
AV-unprocessed.smi:383-1

> <Gold.Version>
5.8.1

> <Gold.Id.Protein>
6NUR|6NUR_protein|mol2

> <Gold.PLP.Fitness>
43.7836

> <Gold.PLP.PLP>
-32.9962

> <Gold.PLP.part.hbond>
-4.0000

> <Gold.PLP.part.metal>
0.0000

> <Gold.PLP.part.buried>
-0.9786

> <Gold.PLP.part.nonpolar>
-27.8706

> <Gold.PLP.part.repulsive>
0.2314

> <Gold.PLP.ligand.clash>
0.0000

> <Gold.PLP.ligand.torsion>
0.2394

> <Gold.PLP.Chemscore.Hbond>
3.6720

> <Gold.PLP.Chemscore.CHOScore>
0.0000

> <Gold.PLP.Chemscore.Metal>
0.0000

> <Gold.Chemscore.Hbonds>
donor molecule, donor type, donor heavy atom, donor atom, acceptor molecule, acceptor atom, score
      L1  H     6    27       P1  8029  1.00
      P1  H  6933  6944       L1     5  0.61
      P1  H  6934  6946       L1     5  1.00
      P1  H  7989  7998       L1    17  1.00

> <Gold.PLP.Chemscore.Internal.Correction>
0.2502

> <Gold.Rescore>
     Score         DG    S(hbond)    S(metal)    S(lipo)     H(rot)  DE(clash)    DE(int)     intcor
     17.72     -18.16       2.13        0.00      81.76       1.56       0.11       0.34       ----

> <Gold.Chemscore.Fitness>
17.7159

> <Gold.Chemscore.DG>
-18.1623

> <Gold.Chemscore.ZeroCoef>
-5.4800

> <Gold.Chemscore.Hbond>
2.1274

> <Gold.Chemscore.Metal>
0.0000

> <Gold.Chemscore.Lipo>
81.7642

> <Gold.Chemscore.Internal_Hbond>
0.0000

> <Gold.Chemscore.DEClash>
0.1058

> <Gold.Chemscore.DEInternal>
0.3406

> <Gold.Chemscore.Rot>
1.5584

> <Gold.Chemscore.Internal.Correction>
   9.000000E+99

> <Gold.Chemscore.Hbonds>
donor molecule, donor type, donor heavy atom, donor atom, acceptor molecule, acceptor atom, score
      L1  H     6    27       P1  8029  0.93
      P1  H  6933  6944       L1     5  0.21
      P1  H  6934  6946       L1     5  0.95
      P1  H  7989  7998       L1    17  0.39

> <Gold.Chemscore.Hbond.Weighted>
-7.1054

> <Gold.Chemscore.Metal.Weighted>
-0.0000

> <Gold.Chemscore.Lipo.Weighted>
-9.5664

> <Gold.Chemscore.Internal_Hbond.Weighted>
0.0000

> <Gold.Chemscore.DEClash.Weighted>
0.1058

> <Gold.Chemscore.DEInternal.Weighted>
0.3406

> <Gold.Chemscore.Rot.Weighted>
3.9895

> <Gold.Chemscore.Internal.Correction.Weighted>
   9.000000E+99

> <Gold.Protein.RotatedTorsions>
[ 6907 6896 6895 6894 ] final -123.78 input  -60.11 | X-H torsion
[ 7974 7965 7964 7962 ] final -119.80 input  175.53 | X-H torsion
[ 8008 7997 7996 7995 ] final   59.31 input   59.86 | X-H torsion
[ 10167 10162 10161 10158 ] final  -73.57 input  -65.29 | X-H torsion
[ 10718 10713 10712 10709 ] final   78.09 input   66.30 | X-H torsion
[ 10763 10752 10751 10750 ] final -134.76 input  -60.55 | X-H torsion
[ 11005 11000 10999 10996 ] final   86.63 input  -57.11 | X-H torsion

> <Gold.Protein.ActiveResidues>
 VAL166  LYS551  ARG553  GLY616  TRP617  ASP618  TYR619  PRO620  LYS621  CYS622 
 ASP623  PHE694  ASN695  SER759  ASP760  ASP761  ALA762  ILE779  LEU786  VAL792 
 PHE793  MET794  SER795  GLU796  ALA797  LYS798  CYS799  TRP800  GLU811  SER814 

> <Gold.Protein.RotatedAtoms>
  150.8704  133.7514  159.2963 H   0  0  0  0  0  0  0  0  0  0  0  0  # atno 6907 bound_to 6896
  151.5128  135.1064  159.9868 H   0  0  0  0  0  0  0  0  0  0  0  0  # atno 6908 bound_to 6896
  152.4691  133.7943  159.6975 H   0  0  0  0  0  0  0  0  0  0  0  0  # atno 6909 bound_to 6896
  145.0585  140.8272  143.4166 H   0  0  0  0  0  0  0  0  0  0  0  0  # atno 7974 bound_to 7965
  155.5642  140.3489  155.4499 H   0  0  0  0  0  0  0  0  0  0  0  0  # atno 8008 bound_to 7997
  156.0492  140.1314  157.0095 H   0  0  0  0  0  0  0  0  0  0  0  0  # atno 8009 bound_to 7997
  154.4426  140.1008  156.6336 H   0  0  0  0  0  0  0  0  0  0  0  0  # atno 8010 bound_to 7997
  140.5099  143.2346  151.7610 H   0  0  0  0  0  0  0  0  0  0  0  0  # atno 10167 bound_to 10162
  157.6733  130.9852  150.1736 H   0  0  0  0  0  0  0  0  0  0  0  0  # atno 10718 bound_to 10713
  154.8714  135.3724  154.4788 H   0  0  0  0  0  0  0  0  0  0  0  0  # atno 10763 bound_to 10752
  153.5443  135.7026  153.5626 H   0  0  0  0  0  0  0  0  0  0  0  0  # atno 10764 bound_to 10752
  153.3774  135.4005  155.1797 H   0  0  0  0  0  0  0  0  0  0  0  0  # atno 10765 bound_to 10752
  139.8940  134.8368  156.2747 H   0  0  0  0  0  0  0  0  0  0  0  0  # atno 11005 bound_to 11000
  145.1438  139.2556  143.5476 LP  0  0  0  0  0  0  0  0  0  0  0  0  # atno 17320 bound_to 7965
  146.3523  140.1122  142.8603 LP  0  0  0  0  0  0  0  0  0  0  0  0  # atno 17321 bound_to 7965
  139.4893  144.4405  151.9770 LP  0  0  0  0  0  0  0  0  0  0  0  0  # atno 17342 bound_to 10162
  140.3497  144.3104  150.5951 LP  0  0  0  0  0  0  0  0  0  0  0  0  # atno 17343 bound_to 10162
  156.2484  130.3698  149.8259 LP  0  0  0  0  0  0  0  0  0  0  0  0  # atno 17370 bound_to 10713
  156.6039  130.8558  151.3438 LP  0  0  0  0  0  0  0  0  0  0  0  0  # atno 17371 bound_to 10713
  141.0078  133.7113  156.1062 LP  0  0  0  0  0  0  0  0  0  0  0  0  # atno 17394 bound_to 11000
  140.7410  134.4150  157.5555 LP  0  0  0  0  0  0  0  0  0  0  0  0  # atno 17395 bound_to 11000

$$$$
