#       Name:                AV-unprocessed.smi:817
#       Creating user name   scv26
#       Creation time:       Fri Mar 27 01:27:15 2020


#       File generated by GOLD software.
#

@<TRIPOS>MOLECULE
AV-unprocessed.smi:817
    51    52     1
SMALL
NO_CHARGES


@<TRIPOS>ATOM
      1 ****        -4.8336   3.0819   2.9336 C.3            1 S1                 0.0000
      2 ****        -3.6028   2.7373   2.0823 C.3            1 S1                 0.0000
      3 ****        -3.7772   3.2225   0.6326 C.3            1 S1                 0.0000
      4 ****        -2.5664   2.8599  -0.2372 C.3            1 S1                 0.0000
      5 ****        -2.2826   1.3485  -0.1805 C.3            1 S1                 0.0000
      6 ****        -2.0724   0.7911   1.2652 C.3            1 S1                 0.0000
      7 ****        -0.7680   1.4053   1.8620 C.3            1 S1                 0.0000
      8 ****         0.4391   0.9240   1.1864 N.am           1 S1                 0.0000
      9 ****         1.7165   1.1825   1.5147 C.2            1 S1                 0.0000
     10 ****         1.9894   1.8831   2.4861 O.2            1 S1                 0.0000
     11 ****         2.6200   0.5975   0.7036 N.am           1 S1                 0.0000
     12 ****         4.0394   0.6562   0.7479 C.ar           1 S1                 0.0000
     13 ****         4.7840   1.6198   1.4710 C.ar           1 S1                 0.0000
     14 ****         6.1905   1.5732   1.4157 C.ar           1 S1                 0.0000
     15 ****         6.8012   0.5717   0.6364 C.ar           1 S1                 0.0000
     16 ****         6.1046  -0.3458  -0.0664 N.ar           1 S1                 0.0000
     17 ****         4.7569  -0.2950  -0.0082 C.ar           1 S1                 0.0000
     18 ****        -1.9248  -0.7142   1.2430 N.4            1 S1                 1.0000
     19 ****        -2.8555  -1.4587   0.3548 C.3            1 S1                 0.0000
     20 ****        -1.8528  -1.3680   2.5767 C.3            1 S1                 0.0000
     21 ****        -3.2990   1.2220   2.1253 C.3            1 S1                 0.0000
     22 ****        -5.7298   2.5882   2.5568 H              1 S1                 0.0000
     23 ****        -5.0216   4.1559   2.9349 H              1 S1                 0.0000
     24 ****        -4.6938   2.7725   3.9697 H              1 S1                 0.0000
     25 ****        -2.7609   3.2743   2.5191 H              1 S1                 0.0000
     26 ****        -4.6762   2.7785   0.2025 H              1 S1                 0.0000
     27 ****        -3.9295   4.3021   0.6140 H              1 S1                 0.0000
     28 ****        -2.7636   3.1521  -1.2691 H              1 S1                 0.0000
     29 ****        -1.6941   3.4364   0.0682 H              1 S1                 0.0000
     30 ****        -3.1474   0.8811  -0.6499 H              1 S1                 0.0000
     31 ****        -1.4287   1.1098  -0.8156 H              1 S1                 0.0000
     32 ****        -0.7719   2.4922   1.8072 H              1 S1                 0.0000
     33 ****        -0.6960   1.1833   2.9267 H              1 S1                 0.0000
     34 ****         0.2941   0.3438   0.3728 H              1 S1                 0.0000
     35 ****         2.2404  -0.0038  -0.0130 H              1 S1                 0.0000
     36 ****         4.3148   2.3967   2.0532 H              1 S1                 0.0000
     37 ****         6.7880   2.2923   1.9563 H              1 S1                 0.0000
     38 ****         7.8774   0.5090   0.5719 H              1 S1                 0.0000
     39 ****         4.2330  -1.0432  -0.5852 H              1 S1                 0.0000
     40 ****        -3.8978  -1.2332   0.5796 H              1 S1                 0.0000
     41 ****        -2.7200  -2.5349   0.4660 H              1 S1                 0.0000
     42 ****        -2.6658  -1.2452  -0.6966 H              1 S1                 0.0000
     43 ****        -2.8145  -1.3401   3.0896 H              1 S1                 0.0000
     44 ****        -1.1020  -0.9212   3.2254 H              1 S1                 0.0000
     45 ****        -1.5741  -2.4164   2.4655 H              1 S1                 0.0000
     46 ****        -3.1500   0.9354   3.1666 H              1 S1                 0.0000
     47 ****        -4.1883   0.6865   1.7920 H              1 S1                 0.0000
     48 ****        -1.0146  -0.8709   0.8345 H              1 S1                 0.0000
     49 ****         1.2562   2.2701   3.0452 LP             1 S1                 0.0000
     50 ****         2.9448   2.0665   2.7177 LP             1 S1                 0.0000
     51 ****         6.5717  -1.0410  -0.6128 LP             1 S1                 0.0000
@<TRIPOS>BOND
    1    1    2 1     
    2    1   22 1     
    3    1   23 1     
    4    1   24 1     
    5    2   21 1     
    6    2    3 1     
    7    2   25 1     
    8    3    4 1     
    9    3   26 1     
   10    3   27 1     
   11    4    5 1     
   12    4   28 1     
   13    4   29 1     
   14    5    6 1     
   15    5   30 1     
   16    5   31 1     
   17    6    7 1     
   18    6   18 1     
   19    6   21 1     
   20    7    8 1     
   21    7   32 1     
   22    7   33 1     
   23    8    9 am    
   24    8   34 1     
   25    9   10 2     
   26    9   11 am    
   27   11   12 1     
   28   11   35 1     
   29   12   17 ar    
   30   12   13 ar    
   31   13   14 ar    
   32   13   36 1     
   33   14   15 ar    
   34   14   37 1     
   35   15   16 ar    
   36   15   38 1     
   37   16   17 ar    
   38   17   39 1     
   39   18   19 1     
   40   18   20 1     
   41   18   48 1     
   42   19   40 1     
   43   19   41 1     
   44   19   42 1     
   45   20   43 1     
   46   20   44 1     
   47   20   45 1     
   48   21   46 1     
   49   21   47 1     
   50   10   49 1     
   51   10   50 1     
   52   16   51 1     
@<TRIPOS>SUBSTRUCTURE
      1 S1             1
@<TRIPOS>SET
LONE_PAIRS      STATIC     ATOMS    <user>   **** ""
3 49 50 51
DONOR_HYDROGENS      STATIC     ATOMS    <user>   **** ""
3 34 35 48
ATOM$BLUE        STATIC     ATOMS    COLORGROUP SYSTEM
3 49 50 51
ATOM$RED        STATIC     ATOMS    COLORGROUP SYSTEM
3 34 35 48
