AV-unprocessed.smi:265|AV-procd|sdf|2025|dock9
  -GOLD-   2262021233D 1   1.00000     0.00000
 Structure written by MMmdl.
 52 56  0  0  0  0  0  0  0  0  1 V2000
  147.2392  133.2988  151.6269 C   0  0  0  0  0  0  0  0  0  0  0  0
  145.7275  133.0195  151.6137 C   0  0  2  0  0  0  0  0  0  0  0  0
  145.4397  131.8580  150.8484 O   0  0  0  0  0  0  0  0  0  0  0  0
  144.0546  131.8880  150.5559 C   0  0  0  0  0  0  0  0  0  0  0  0
  143.8280  133.3398  150.1523 C   0  0  0  0  0  0  0  0  0  0  0  0
  144.8083  134.1254  151.0292 C   0  0  2  0  0  0  0  0  0  0  0  0
  145.5261  135.0198  150.1943 O   0  0  0  0  0  0  0  0  0  0  0  0
  144.0815  134.9545  152.1168 C   0  0  0  0  0  0  0  0  0  0  0  0
  144.9221  135.9723  152.7298 N   0  0  0  0  0  0  0  0  0  0  0  0
  144.7930  137.3370  152.6004 C   0  0  0  0  0  0  0  0  0  0  0  0
  145.6813  138.0441  153.2432 N   0  0  0  0  0  0  0  0  0  0  0  0
  146.4756  137.0966  153.8778 C   0  0  0  0  0  0  0  0  0  0  0  0
  147.6153  137.1679  154.7280 C   0  0  0  0  0  0  0  0  0  0  0  0
  148.1666  138.3458  155.1162 N   0  0  0  0  0  0  0  0  0  0  0  0
  148.3716  139.3714  154.0937 C   0  0  0  0  0  0  0  0  0  0  0  0
  148.6110  140.7440  154.7410 C   0  0  0  0  0  0  0  0  0  0  0  0
  149.7502  140.6999  155.7727 C   0  0  2  0  0  0  0  0  0  0  0  0
  150.9958  140.4832  155.1225 O   0  0  0  0  0  0  0  0  0  0  0  0
  152.1264  140.6082  155.9870 C   0  0  0  0  0  0  0  0  0  0  0  0
  151.9606  139.8023  157.2891 C   0  0  0  0  0  0  0  0  0  0  0  0
  152.9392  139.5695  157.9946 O   0  0  0  0  0  0  0  0  0  0  0  0
  150.7247  139.4099  157.6376 N   0  0  0  0  0  0  0  0  0  0  0  0
  149.5478  139.5535  156.7873 C   0  0  2  0  0  0  0  0  0  0  0  0
  149.2585  138.2148  156.0788 C   0  0  0  0  0  0  0  0  0  0  0  0
  148.1512  135.9928  155.1548 N   0  0  0  0  0  0  0  0  0  0  0  0
  147.6072  134.8294  154.7864 C   0  0  0  0  0  0  0  0  0  0  0  0
  146.5459  134.6145  154.0072 N   0  0  0  0  0  0  0  0  0  0  0  0
  146.0096  135.7881  153.5663 C   0  0  0  0  0  0  0  0  0  0  0  0
  149.7874  141.6604  156.2905 H   0  0  0  0  0  0  0  0  0  0  0  0
  148.6992  139.7980  157.4278 H   0  0  0  0  0  0  0  0  0  0  0  0
  147.4690  134.1941  152.2051 H   0  0  0  0  0  0  0  0  0  0  0  0
  147.6312  133.4370  150.6190 H   0  0  0  0  0  0  0  0  0  0  0  0
  147.7805  132.4670  152.0775 H   0  0  0  0  0  0  0  0  0  0  0  0
  145.4113  132.7888  152.6316 H   0  0  0  0  0  0  0  0  0  0  0  0
  143.7931  131.1842  149.7655 H   0  0  0  0  0  0  0  0  0  0  0  0
  143.4820  131.6348  151.4497 H   0  0  0  0  0  0  0  0  0  0  0  0
  144.0718  133.4501  149.0942 H   0  0  0  0  0  0  0  0  0  0  0  0
  142.7885  133.6451  150.2787 H   0  0  0  0  0  0  0  0  0  0  0  0
  145.5831  134.6435  149.3296 H   0  0  0  0  0  0  0  0  0  0  0  0
  143.2018  135.4450  151.6979 H   0  0  0  0  0  0  0  0  0  0  0  0
  143.7135  134.2953  152.9042 H   0  0  0  0  0  0  0  0  0  0  0  0
  144.0194  137.7953  152.0017 H   0  0  0  0  0  0  0  0  0  0  0  0
  149.2260  139.0967  153.4732 H   0  0  0  0  0  0  0  0  0  0  0  0
  147.5016  139.4296  153.4382 H   0  0  0  0  0  0  0  0  0  0  0  0
  148.8262  141.4886  153.9745 H   0  0  0  0  0  0  0  0  0  0  0  0
  147.6945  141.0671  155.2360 H   0  0  0  0  0  0  0  0  0  0  0  0
  153.0178  140.2730  155.4560 H   0  0  0  0  0  0  0  0  0  0  0  0
  152.2759  141.6586  156.2391 H   0  0  0  0  0  0  0  0  0  0  0  0
  150.6082  138.9125  158.5083 H   0  0  0  0  0  0  0  0  0  0  0  0
  149.0421  137.4516  156.8259 H   0  0  0  0  0  0  0  0  0  0  0  0
  150.1461  137.8767  155.5418 H   0  0  0  0  0  0  0  0  0  0  0  0
  148.0920  133.9443  155.1714 H   0  0  0  0  0  0  0  0  0  0  0  0
  1  2  1  0  0  0  0
  1 31  1  0  0  0  0
  1 32  1  0  0  0  0
  1 33  1  0  0  0  0
  2  6  1  0  0  0  0
  2  3  1  0  0  0  0
  2 34  1  0  0  0  0
  3  4  1  0  0  0  0
  4  5  1  0  0  0  0
  4 35  1  0  0  0  0
  4 36  1  0  0  0  0
  5  6  1  0  0  0  0
  5 37  1  0  0  0  0
  5 38  1  0  0  0  0
  6  7  1  0  0  0  0
  6  8  1  0  0  0  0
  7 39  1  0  0  0  0
  8  9  1  0  0  0  0
  8 40  1  0  0  0  0
  8 41  1  0  0  0  0
  9 28  1  0  0  0  0
  9 10  1  0  0  0  0
 10 11  2  0  0  0  0
 10 42  1  0  0  0  0
 11 12  1  0  0  0  0
 12 28  2  0  0  0  0
 12 13  1  0  0  0  0
 13 14  1  0  0  0  0
 13 25  2  0  0  0  0
 14 24  1  0  0  0  0
 14 15  1  0  0  0  0
 15 16  1  0  0  0  0
 15 43  1  0  0  0  0
 15 44  1  0  0  0  0
 16 17  1  0  0  0  0
 16 45  1  0  0  0  0
 16 46  1  0  0  0  0
 17 29  1  0  0  0  0
 17 23  1  0  0  0  0
 17 18  1  0  0  0  0
 18 19  1  0  0  0  0
 19 20  1  0  0  0  0
 19 47  1  0  0  0  0
 19 48  1  0  0  0  0
 20 21  2  0  0  0  0
 20 22  1  0  0  0  0
 22 23  1  0  0  0  0
 22 49  1  0  0  0  0
 23 30  1  0  0  0  0
 23 24  1  0  0  0  0
 24 50  1  0  0  0  0
 24 51  1  0  0  0  0
 25 26  1  0  0  0  0
 26 27  2  0  0  0  0
 26 52  1  0  0  0  0
 27 28  1  0  0  0  0
M  END
> <s_m_source_file>
AV-unprocessed.smi

> <i_m_source_file_index>
265

> <i_lp_mmshare_version>
43012

> <i_f3d_flags>
0

> <s_epik_input>
W0NIMl0xW0NIMl1PW0NAQEhdKFtDSDNdKVtDQEBdMShbT0hdKVtDSDJdbihbY0hdbjIpYyhjMjMpbltjSF1uYzNOKFtDSDJdW0NIMl00KVtDSDJdW0NAQEhdKFtDQEhdNDUpW05IXUMoPU8pW0NIMl1PNQ==

> <s_epik_cmdline>
J2VwaWtfcHl0aG9uJywgJy1waCcsICc3LjAnLCAnLXRuJywgJzgnLCAnLW1hJywgJzIwMCcsICctbWV0YWxfYmluZGluZycsICctaW1hZScsICc8aW5maWxlLm1hZT4nLCAnLW9tYWUnLCAnPG91dGZpbGUubWFlPic=

> <r_lp_tautomer_probability>
1

> <r_epik_Ionization_Penalty>
0.00221504

> <r_epik_Ionization_Penalty_Charging>
0

> <r_epik_Ionization_Penalty_Neutral>
0.00221504

> <r_epik_State_Penalty>
-0

> <r_epik_Charging_Adjusted_Penalty>
0

> <i_epik_Tot_Q>
0

> <i_epik_Tot_abs_Q>
0

> <r_epik_Metal_State_Penalty>
-0

> <b_epik_Metal_Only>
0

> <s_lp_Force_Field>
OPLS_2005

> <r_lp_Energy>
44.0403

> <b_lp_Chiralities_Consistent>
1

> <s_lp_Variant>
AV-unprocessed.smi:265-11

> <Gold.Version>
5.8.1

> <Gold.Id.Protein>
6NUR|6NUR_protein|mol2

> <Gold.PLP.Fitness>
41.1939

> <Gold.PLP.PLP>
-28.6881

> <Gold.PLP.part.hbond>
-3.0000

> <Gold.PLP.part.metal>
0.0000

> <Gold.PLP.part.buried>
-2.6884

> <Gold.PLP.part.nonpolar>
-22.1187

> <Gold.PLP.part.repulsive>
0.6619

> <Gold.PLP.ligand.clash>
0.0000

> <Gold.PLP.ligand.torsion>
0.4674

> <Gold.PLP.Chemscore.Hbond>
2.9600

> <Gold.PLP.Chemscore.CHOScore>
1.3994

> <Gold.PLP.Chemscore.Metal>
0.0000

> <Gold.Chemscore.Hbonds>
donor molecule, donor type, donor heavy atom, donor atom, acceptor molecule, acceptor atom, score
      L1  H     7    39       P1  7921  0.96
      P1  H  7989  7998       L1    18  1.00
      P1  H  7997  8009       L1    21  1.00
      L1  C    10    42       P1 10171  1.00
      L1  C    10    42       P1 10175  0.41

> <Gold.PLP.Chemscore.Internal.Correction>
0.3624

> <Gold.Rescore>
     Score         DG    S(hbond)    S(metal)    S(lipo)     H(rot)  DE(clash)    DE(int)     intcor
     13.46     -16.16       2.39        0.00      72.16       2.25       2.05       0.64       ----

> <Gold.Chemscore.Fitness>
13.4630

> <Gold.Chemscore.DG>
-16.1572

> <Gold.Chemscore.ZeroCoef>
-5.4800

> <Gold.Chemscore.Hbond>
2.3898

> <Gold.Chemscore.Metal>
0.0000

> <Gold.Chemscore.Lipo>
72.1633

> <Gold.Chemscore.Internal_Hbond>
0.0000

> <Gold.Chemscore.DEClash>
2.0534

> <Gold.Chemscore.DEInternal>
0.6407

> <Gold.Chemscore.Rot>
2.2453

> <Gold.Chemscore.Internal.Correction>
   9.000000E+99

> <Gold.Chemscore.Hbonds>
donor molecule, donor type, donor heavy atom, donor atom, acceptor molecule, acceptor atom, score
      L1  H     7    39       P1  7921  0.89
      P1  H  7989  7998       L1    18  0.42
      P1  H  7997  8009       L1    21  0.69

> <Gold.Chemscore.Hbond.Weighted>
-7.9820

> <Gold.Chemscore.Metal.Weighted>
-0.0000

> <Gold.Chemscore.Lipo.Weighted>
-8.4431

> <Gold.Chemscore.Internal_Hbond.Weighted>
0.0000

> <Gold.Chemscore.DEClash.Weighted>
2.0534

> <Gold.Chemscore.DEInternal.Weighted>
0.6407

> <Gold.Chemscore.Rot.Weighted>
5.7479

> <Gold.Chemscore.Internal.Correction.Weighted>
   9.000000E+99

> <Gold.Protein.RotatedTorsions>
[ 6907 6896 6895 6894 ] final  140.09 input  -60.11 | X-H torsion
[ 7974 7965 7964 7962 ] final -179.43 input  175.53 | X-H torsion
[ 8008 7997 7996 7995 ] final  156.40 input   59.86 | X-H torsion
[ 10167 10162 10161 10158 ] final -172.15 input  -65.29 | X-H torsion
[ 10718 10713 10712 10709 ] final  -21.88 input   66.30 | X-H torsion
[ 10763 10752 10751 10750 ] final   57.83 input  -60.55 | X-H torsion
[ 11005 11000 10999 10996 ] final -107.68 input  -57.11 | X-H torsion

> <Gold.Protein.ActiveResidues>
 VAL166  LYS551  ARG553  GLY616  TRP617  ASP618  TYR619  PRO620  LYS621  CYS622 
 ASP623  PHE694  ASN695  SER759  ASP760  ASP761  ALA762  ILE779  LEU786  VAL792 
 PHE793  MET794  SER795  GLU796  ALA797  LYS798  CYS799  TRP800  GLU811  SER814 

> <Gold.Protein.RotatedAtoms>
  152.2472  133.5184  159.5303 H   0  0  0  0  0  0  0  0  0  0  0  0  # atno 6907 bound_to 6896
  150.7082  134.1010  159.3974 H   0  0  0  0  0  0  0  0  0  0  0  0  # atno 6908 bound_to 6896
  151.8930  135.0409  160.0550 H   0  0  0  0  0  0  0  0  0  0  0  0  # atno 6909 bound_to 6896
  144.7136  140.0719  143.6429 H   0  0  0  0  0  0  0  0  0  0  0  0  # atno 7974 bound_to 7965
  156.2424  140.1913  156.6950 H   0  0  0  0  0  0  0  0  0  0  0  0  # atno 8008 bound_to 7997
  154.6223  140.0607  156.9657 H   0  0  0  0  0  0  0  0  0  0  0  0  # atno 8009 bound_to 7997
  155.1841  140.3279  155.4372 H   0  0  0  0  0  0  0  0  0  0  0  0  # atno 8010 bound_to 7997
  139.5761  144.1530  152.1452 H   0  0  0  0  0  0  0  0  0  0  0  0  # atno 10167 bound_to 10162
  156.5121  130.4612  149.6642 H   0  0  0  0  0  0  0  0  0  0  0  0  # atno 10718 bound_to 10713
  152.9858  135.5628  154.5454 H   0  0  0  0  0  0  0  0  0  0  0  0  # atno 10763 bound_to 10752
  154.4901  135.2792  155.1505 H   0  0  0  0  0  0  0  0  0  0  0  0  # atno 10764 bound_to 10752
  154.2978  135.6313  153.5465 H   0  0  0  0  0  0  0  0  0  0  0  0  # atno 10765 bound_to 10752
  141.0941  133.9002  157.2004 H   0  0  0  0  0  0  0  0  0  0  0  0  # atno 11005 bound_to 11000
  145.9776  139.2917  143.1061 LP  0  0  0  0  0  0  0  0  0  0  0  0  # atno 17320 bound_to 7965
  145.9047  140.9220  143.0485 LP  0  0  0  0  0  0  0  0  0  0  0  0  # atno 17321 bound_to 7965
  140.1073  144.5488  150.6948 LP  0  0  0  0  0  0  0  0  0  0  0  0  # atno 17342 bound_to 10162
  140.7043  143.2457  151.4772 LP  0  0  0  0  0  0  0  0  0  0  0  0  # atno 17343 bound_to 10162
  156.3230  130.7291  151.2206 LP  0  0  0  0  0  0  0  0  0  0  0  0  # atno 17370 bound_to 10713
  157.7449  131.0450  150.4823 LP  0  0  0  0  0  0  0  0  0  0  0  0  # atno 17371 bound_to 10713
  139.9774  135.0109  156.9665 LP  0  0  0  0  0  0  0  0  0  0  0  0  # atno 17394 bound_to 11000
  140.5181  134.0935  155.7285 LP  0  0  0  0  0  0  0  0  0  0  0  0  # atno 17395 bound_to 11000

$$$$
