AV-unprocessed.smi:824|AV-procd|sdf|3850|dock3
  -GOLD-   22720 1293D 1   1.00000     0.00000
 Structure written by MMmdl.
 51 52  0  0  0  0  0  0  0  0  2 V2000
  147.9084  138.8829  157.0987 C   0  0  0  0  0  0  0  0  0  0  0  0
  149.2369  138.8748  157.8339 C   0  0  0  0  0  0  0  0  0  0  0  0
  149.8137  140.1350  158.0472 N   0  0  0  0  0  0  0  0  0  0  0  0
  150.9566  140.2362  158.6551 C   0  0  0  0  0  0  0  0  0  0  0  0
  151.5828  141.4678  158.8531 N   0  0  0  0  0  0  0  0  0  0  0  0
  152.9904  141.5269  159.2522 C   0  0  0  0  0  0  0  0  0  0  0  0
  153.3281  142.8739  159.9120 C   0  0  0  0  0  0  0  0  0  0  0  0
  152.9819  143.9383  159.0357 O   0  0  0  0  0  0  0  0  0  0  0  0
  151.5892  143.9429  158.7528 C   0  0  0  0  0  0  0  0  0  0  0  0
  151.1986  142.6305  158.0534 C   0  0  0  0  0  0  0  0  0  0  0  0
  151.6367  139.1355  159.1494 N   0  5  0  0  0  0  0  0  0  0  0  0
  151.1301  137.8810  158.9889 C   0  0  0  0  0  0  0  0  0  0  0  0
  151.7021  136.8869  159.4343 O   0  0  0  0  0  0  0  0  0  0  0  0
  149.8588  137.7365  158.2574 C   0  0  0  0  0  0  0  0  0  0  0  0
  149.3024  136.3264  158.0306 C   0  0  0  0  0  0  0  0  0  0  0  0
  147.8118  136.1638  158.4110 C   0  0  0  0  0  0  0  0  0  0  0  0
  147.5779  136.1772  159.9334 C   0  0  0  0  0  0  0  0  0  0  0  0
  147.9416  137.1774  160.5536 O   0  0  0  0  0  0  0  0  0  0  0  0
  146.9720  135.1301  160.5481 N   0  0  0  0  0  0  0  0  0  0  0  0
  146.6528  133.8689  159.8723 C   0  0  0  0  0  0  0  0  0  0  0  0
  146.6068  135.1980  161.9727 C   0  0  0  0  0  0  0  0  0  0  0  0
  145.0757  135.2200  162.1944 C   0  0  0  0  0  0  0  0  0  0  0  0
  144.6179  136.5981  162.6933 C   0  0  0  0  0  0  0  0  0  0  0  0
  144.6021  134.1150  163.1542 C   0  0  0  0  0  0  0  0  0  0  0  0
  147.9800  138.3327  156.1621 H   0  0  0  0  0  0  0  0  0  0  0  0
  147.5959  139.9004  156.8611 H   0  0  0  0  0  0  0  0  0  0  0  0
  147.1287  138.4309  157.7117 H   0  0  0  0  0  0  0  0  0  0  0  0
  153.2440  140.7216  159.9420 H   0  0  0  0  0  0  0  0  0  0  0  0
  153.6088  141.3829  158.3653 H   0  0  0  0  0  0  0  0  0  0  0  0
  152.8037  142.9826  160.8627 H   0  0  0  0  0  0  0  0  0  0  0  0
  154.3948  142.9273  160.1293 H   0  0  0  0  0  0  0  0  0  0  0  0
  151.0184  144.0775  159.6731 H   0  0  0  0  0  0  0  0  0  0  0  0
  151.3606  144.7925  158.1095 H   0  0  0  0  0  0  0  0  0  0  0  0
  151.6852  142.5667  157.0793 H   0  0  0  0  0  0  0  0  0  0  0  0
  150.1224  142.6275  157.8742 H   0  0  0  0  0  0  0  0  0  0  0  0
  149.4374  136.0649  156.9806 H   0  0  0  0  0  0  0  0  0  0  0  0
  149.8902  135.5908  158.5778 H   0  0  0  0  0  0  0  0  0  0  0  0
  147.2130  136.9028  157.8834 H   0  0  0  0  0  0  0  0  0  0  0  0
  147.4601  135.2023  158.0361 H   0  0  0  0  0  0  0  0  0  0  0  0
  147.5566  133.4036  159.4773 H   0  0  0  0  0  0  0  0  0  0  0  0
  145.9588  134.0344  159.0492 H   0  0  0  0  0  0  0  0  0  0  0  0
  146.1792  133.1433  160.5333 H   0  0  0  0  0  0  0  0  0  0  0  0
  147.0449  134.3674  162.5274 H   0  0  0  0  0  0  0  0  0  0  0  0
  147.0551  136.0884  162.4175 H   0  0  0  0  0  0  0  0  0  0  0  0
  144.5871  135.0496  161.2344 H   0  0  0  0  0  0  0  0  0  0  0  0
  145.0538  136.8331  163.6646 H   0  0  0  0  0  0  0  0  0  0  0  0
  143.5333  136.6382  162.7965 H   0  0  0  0  0  0  0  0  0  0  0  0
  144.9102  137.3851  161.9975 H   0  0  0  0  0  0  0  0  0  0  0  0
  145.0547  134.2243  164.1401 H   0  0  0  0  0  0  0  0  0  0  0  0
  144.8578  133.1241  162.7812 H   0  0  0  0  0  0  0  0  0  0  0  0
  143.5192  134.1396  163.2790 H   0  0  0  0  0  0  0  0  0  0  0  0
  1  2  1  0  0  0  0
  1 25  1  0  0  0  0
  1 26  1  0  0  0  0
  1 27  1  0  0  0  0
  2 14  2  0  0  0  0
  2  3  1  0  0  0  0
  3  4  2  0  0  0  0
  4  5  1  0  0  0  0
  4 11  1  0  0  0  0
  5 10  1  0  0  0  0
  5  6  1  0  0  0  0
  6  7  1  0  0  0  0
  6 28  1  0  0  0  0
  6 29  1  0  0  0  0
  7  8  1  0  0  0  0
  7 30  1  0  0  0  0
  7 31  1  0  0  0  0
  8  9  1  0  0  0  0
  9 10  1  0  0  0  0
  9 32  1  0  0  0  0
  9 33  1  0  0  0  0
 10 34  1  0  0  0  0
 10 35  1  0  0  0  0
 11 12  1  0  0  0  0
 12 13  2  0  0  0  0
 12 14  1  0  0  0  0
 14 15  1  0  0  0  0
 15 16  1  0  0  0  0
 15 36  1  0  0  0  0
 15 37  1  0  0  0  0
 16 17  1  0  0  0  0
 16 38  1  0  0  0  0
 16 39  1  0  0  0  0
 17 18  2  0  0  0  0
 17 19  1  0  0  0  0
 19 20  1  0  0  0  0
 19 21  1  0  0  0  0
 20 40  1  0  0  0  0
 20 41  1  0  0  0  0
 20 42  1  0  0  0  0
 21 22  1  0  0  0  0
 21 43  1  0  0  0  0
 21 44  1  0  0  0  0
 22 23  1  0  0  0  0
 22 24  1  0  0  0  0
 22 45  1  0  0  0  0
 23 46  1  0  0  0  0
 23 47  1  0  0  0  0
 23 48  1  0  0  0  0
 24 49  1  0  0  0  0
 24 50  1  0  0  0  0
 24 51  1  0  0  0  0
M  CHG  1  11  -1
M  END
> <s_m_source_file>
AV-unprocessed.smi

> <i_m_source_file_index>
824

> <i_lp_mmshare_version>
43012

> <i_f3d_flags>
0

> <s_epik_input>
W0NIMl0xW0NIMl1PW0NIMl1bQ0gyXU4xYyhuYzJbQ0gzXSlbbkhdYyg9TyljMltDSDJdW0NIMl1DKD1PKU4oW0NIM10pW0NIMl1bQ0hdKFtDSDNdKVtDSDNd

> <s_epik_cmdline>
J2VwaWtfcHl0aG9uJywgJy1waCcsICc3LjAnLCAnLXRuJywgJzgnLCAnLW1hJywgJzIwMCcsICctbWV0YWxfYmluZGluZycsICctaW1hZScsICc8aW5maWxlLm1hZT4nLCAnLW9tYWUnLCAnPG91dGZpbGUubWFlPic=

> <r_lp_tautomer_probability>
1

> <r_epik_Ionization_Penalty>
5.09891

> <r_epik_Ionization_Penalty_Charging>
4.43024e-08

> <r_epik_Ionization_Penalty_Neutral>
5.09891

> <r_epik_State_Penalty>
2.55975

> <r_epik_Charging_Adjusted_Penalty>
2.55975

> <i_epik_Tot_Q>
-1

> <i_epik_Tot_abs_Q>
1

> <r_epik_Metal_State_Penalty>
0.115808

> <b_epik_Metal_Only>
0

> <s_lp_Force_Field>
OPLS_2005

> <r_lp_Energy>
31.6324

> <b_lp_Chiralities_Consistent>
1

> <s_lp_Variant>
AV-unprocessed.smi:824-3

> <Gold.Version>
5.8.1

> <Gold.Id.Protein>
6NUR|6NUR_protein|mol2

> <Gold.PLP.Fitness>
44.3789

> <Gold.PLP.PLP>
-38.5163

> <Gold.PLP.part.hbond>
-3.0000

> <Gold.PLP.part.metal>
0.0000

> <Gold.PLP.part.buried>
-7.0373

> <Gold.PLP.part.nonpolar>
-29.2897

> <Gold.PLP.part.repulsive>
0.0000

> <Gold.PLP.ligand.clash>
0.0025

> <Gold.PLP.ligand.torsion>
1.0805

> <Gold.PLP.Chemscore.Hbond>
2.5453

> <Gold.PLP.Chemscore.CHOScore>
0.0000

> <Gold.PLP.Chemscore.Metal>
0.0000

> <Gold.Chemscore.Hbonds>
donor molecule, donor type, donor heavy atom, donor atom, acceptor molecule, acceptor atom, score
      P1  H  6896  6907       L1    13  1.00
      P1  H  6931  6943       L1    18  0.78
      P1  H  6934  6947       L1    18  0.80

> <Gold.PLP.Chemscore.Internal.Correction>
0.3903

> <Gold.Rescore>
     Score         DG    S(hbond)    S(metal)    S(lipo)     H(rot)  DE(clash)    DE(int)     intcor
     17.30     -19.78       2.63        0.00      83.60       1.66       0.05       2.43       ----

> <Gold.Chemscore.Fitness>
17.3025

> <Gold.Chemscore.DG>
-19.7832

> <Gold.Chemscore.ZeroCoef>
-5.4800

> <Gold.Chemscore.Hbond>
2.6289

> <Gold.Chemscore.Metal>
0.0000

> <Gold.Chemscore.Lipo>
83.5994

> <Gold.Chemscore.Internal_Hbond>
0.0000

> <Gold.Chemscore.DEClash>
0.0473

> <Gold.Chemscore.DEInternal>
2.4334

> <Gold.Chemscore.Rot>
1.6635

> <Gold.Chemscore.Internal.Correction>
   9.000000E+99

> <Gold.Chemscore.Hbonds>
donor molecule, donor type, donor heavy atom, donor atom, acceptor molecule, acceptor atom, score
      P1  H  6896  6907       L1    13  1.00
      P1  H  6931  6943       L1    18  0.72
      P1  H  6934  6947       L1    18  0.74

> <Gold.Chemscore.Hbond.Weighted>
-8.7806

> <Gold.Chemscore.Metal.Weighted>
-0.0000

> <Gold.Chemscore.Lipo.Weighted>
-9.7811

> <Gold.Chemscore.Internal_Hbond.Weighted>
0.0000

> <Gold.Chemscore.DEClash.Weighted>
0.0473

> <Gold.Chemscore.DEInternal.Weighted>
2.4334

> <Gold.Chemscore.Rot.Weighted>
4.2585

> <Gold.Chemscore.Internal.Correction.Weighted>
   9.000000E+99

> <Gold.Protein.RotatedTorsions>
[ 6907 6896 6895 6894 ] final    1.65 input  -60.11 | X-H torsion
[ 7974 7965 7964 7962 ] final   59.87 input  175.53 | X-H torsion
[ 8008 7997 7996 7995 ] final   67.97 input   59.86 | X-H torsion
[ 10167 10162 10161 10158 ] final  -43.94 input  -65.29 | X-H torsion
[ 10718 10713 10712 10709 ] final  -35.06 input   66.30 | X-H torsion
[ 10763 10752 10751 10750 ] final  -24.57 input  -60.55 | X-H torsion
[ 11005 11000 10999 10996 ] final -156.34 input  -57.11 | X-H torsion

> <Gold.Protein.ActiveResidues>
 VAL166  LYS551  ARG553  GLY616  TRP617  ASP618  TYR619  PRO620  LYS621  CYS622 
 ASP623  PHE694  ASN695  SER759  ASP760  ASP761  ALA762  ILE779  LEU786  VAL792 
 PHE793  MET794  SER795  GLU796  ALA797  LYS798  CYS799  TRP800  GLU811  SER814 

> <Gold.Protein.RotatedAtoms>
  151.5961  135.1050  160.0049 H   0  0  0  0  0  0  0  0  0  0  0  0  # atno 6907 bound_to 6896
  152.4281  133.7226  159.6553 H   0  0  0  0  0  0  0  0  0  0  0  0  # atno 6908 bound_to 6896
  150.8172  133.8245  159.3178 H   0  0  0  0  0  0  0  0  0  0  0  0  # atno 6909 bound_to 6896
  145.9023  139.3591  143.0585 H   0  0  0  0  0  0  0  0  0  0  0  0  # atno 7974 bound_to 7965
  155.7010  140.3495  155.4933 H   0  0  0  0  0  0  0  0  0  0  0  0  # atno 8008 bound_to 7997
  155.9440  140.1107  157.1054 H   0  0  0  0  0  0  0  0  0  0  0  0  # atno 8009 bound_to 7997
  154.4108  140.1207  156.4951 H   0  0  0  0  0  0  0  0  0  0  0  0  # atno 8010 bound_to 7997
  140.6915  143.2956  151.3424 H   0  0  0  0  0  0  0  0  0  0  0  0  # atno 10167 bound_to 10162
  156.3431  130.4296  149.7770 H   0  0  0  0  0  0  0  0  0  0  0  0  # atno 10718 bound_to 10713
  153.6859  135.6964  153.5104 H   0  0  0  0  0  0  0  0  0  0  0  0  # atno 10763 bound_to 10752
  153.2450  135.4293  155.0737 H   0  0  0  0  0  0  0  0  0  0  0  0  # atno 10764 bound_to 10752
  154.8387  135.3517  154.6401 H   0  0  0  0  0  0  0  0  0  0  0  0  # atno 10765 bound_to 10752
  140.6766  134.4190  157.5229 H   0  0  0  0  0  0  0  0  0  0  0  0  # atno 11005 bound_to 11000
  145.8775  140.9383  143.0618 LP  0  0  0  0  0  0  0  0  0  0  0  0  # atno 17320 bound_to 7965
  144.6737  140.0736  143.7472 LP  0  0  0  0  0  0  0  0  0  0  0  0  # atno 17321 bound_to 7965
  139.6323  144.0696  152.2487 LP  0  0  0  0  0  0  0  0  0  0  0  0  # atno 17342 bound_to 10162
  140.0175  144.6178  150.7594 LP  0  0  0  0  0  0  0  0  0  0  0  0  # atno 17343 bound_to 10162
  156.4999  130.8124  151.3128 LP  0  0  0  0  0  0  0  0  0  0  0  0  # atno 17370 bound_to 10713
  157.7450  130.9948  150.2721 LP  0  0  0  0  0  0  0  0  0  0  0  0  # atno 17371 bound_to 10713
  139.8965  134.8659  156.2086 LP  0  0  0  0  0  0  0  0  0  0  0  0  # atno 17394 bound_to 11000
  141.0350  133.6968  156.1497 LP  0  0  0  0  0  0  0  0  0  0  0  0  # atno 17395 bound_to 11000

$$$$
