AV-unprocessed.smi:54|AV-procd|sdf|532|dock6
  -GOLD-   2262016413D 1   1.00000     0.00000
 Structure written by MMmdl.
 44 46  0  0  0  0  0  0  0  0  1 V2000
  145.7525  132.9863  150.1904 C   0  0  0  0  0  0  0  0  0  0  0  0
  146.2505  131.9307  151.1903 C   0  0  0  0  0  0  0  0  0  0  0  0
  145.1366  130.9335  151.5493 C   0  0  0  0  0  0  0  0  0  0  0  0
  146.8040  132.6017  152.4526 C   0  0  0  0  0  0  0  0  0  0  0  0
  146.1033  133.3111  153.1756 O   0  0  0  0  0  0  0  0  0  0  0  0
  148.2064  132.3461  152.7296 N   0  0  0  0  0  0  0  0  0  0  0  0
  148.9323  132.8003  153.7775 C   0  0  0  0  0  0  0  0  0  0  0  0
  149.0663  134.0877  154.0627 N   0  0  0  0  0  0  0  0  0  0  0  0
  149.8283  134.3492  155.1671 C   0  0  0  0  0  0  0  0  0  0  0  0
  150.4429  133.4211  155.9811 C   0  0  0  0  0  0  0  0  0  0  0  0
  151.1317  134.0624  157.0043 N   0  0  0  0  0  0  0  0  0  0  0  0
  150.9177  135.3296  156.7836 C   0  0  0  0  0  0  0  0  0  0  0  0
  150.1398  135.5905  155.6795 N   0  0  0  0  0  0  0  0  0  0  0  0
  149.6899  136.9074  155.1229 C   0  0  1  0  0  0  0  0  0  0  0  0
  149.1915  137.6622  156.1872 O   0  0  0  0  0  0  0  0  0  0  0  0
  149.9194  138.8810  156.3381 C   0  0  1  0  0  0  0  0  0  0  0  0
  149.9980  139.2984  157.8172 C   0  0  0  0  0  0  0  0  0  0  0  0
  148.7191  139.2249  158.4096 O   0  0  0  0  0  0  0  0  0  0  0  0
  151.2669  138.6266  155.6471 C   0  0  1  0  0  0  0  0  0  0  0  0
  152.2033  138.0298  156.5296 O   0  0  0  0  0  0  0  0  0  0  0  0
  150.8588  137.7008  154.5100 C   0  0  1  0  0  0  0  0  0  0  0  0
  151.9331  136.9239  154.0089 O   0  0  0  0  0  0  0  0  0  0  0  0
  150.3017  132.0237  155.6901 C   0  0  0  0  0  0  0  0  0  0  0  0
  150.7719  131.0668  156.3015 O   0  0  0  0  0  0  0  0  0  0  0  0
  149.5156  131.7978  154.5526 N   0  0  0  0  0  0  0  0  0  0  0  0
  148.9052  136.6552  154.4088 H   0  0  0  0  0  0  0  0  0  0  0  0
  149.3967  139.6480  155.7634 H   0  0  0  0  0  0  0  0  0  0  0  0
  151.7044  139.5525  155.2721 H   0  0  0  0  0  0  0  0  0  0  0  0
  150.4500  138.3010  153.6959 H   0  0  0  0  0  0  0  0  0  0  0  0
  146.5417  133.6944  149.9346 H   0  0  0  0  0  0  0  0  0  0  0  0
  144.9123  133.5545  150.5920 H   0  0  0  0  0  0  0  0  0  0  0  0
  145.4210  132.5181  149.2632 H   0  0  0  0  0  0  0  0  0  0  0  0
  147.0609  131.3732  150.7185 H   0  0  0  0  0  0  0  0  0  0  0  0
  145.4831  130.1934  152.2718 H   0  0  0  0  0  0  0  0  0  0  0  0
  144.7982  130.3929  150.6650 H   0  0  0  0  0  0  0  0  0  0  0  0
  144.2699  131.4374  151.9788 H   0  0  0  0  0  0  0  0  0  0  0  0
  148.6954  131.7840  152.0488 H   0  0  0  0  0  0  0  0  0  0  0  0
  151.3227  136.1027  157.4198 H   0  0  0  0  0  0  0  0  0  0  0  0
  150.7062  138.6794  158.3686 H   0  0  0  0  0  0  0  0  0  0  0  0
  150.3349  140.3323  157.8990 H   0  0  0  0  0  0  0  0  0  0  0  0
  148.3670  140.0995  158.4732 H   0  0  0  0  0  0  0  0  0  0  0  0
  153.0722  138.2831  156.2569 H   0  0  0  0  0  0  0  0  0  0  0  0
  151.8148  136.8241  153.0763 H   0  0  0  0  0  0  0  0  0  0  0  0
  149.3730  130.8344  154.2876 H   0  0  0  0  0  0  0  0  0  0  0  0
  1  2  1  0  0  0  0
  1 30  1  0  0  0  0
  1 31  1  0  0  0  0
  1 32  1  0  0  0  0
  2  3  1  0  0  0  0
  2  4  1  0  0  0  0
  2 33  1  0  0  0  0
  3 34  1  0  0  0  0
  3 35  1  0  0  0  0
  3 36  1  0  0  0  0
  4  5  2  0  0  0  0
  4  6  1  0  0  0  0
  6 37  1  0  0  0  0
  6  7  1  0  0  0  0
  7 25  1  0  0  0  0
  7  8  2  0  0  0  0
  8  9  1  0  0  0  0
  9 13  1  0  0  0  0
  9 10  2  0  0  0  0
 10 11  1  0  0  0  0
 10 23  1  0  0  0  0
 11 12  2  0  0  0  0
 12 13  1  0  0  0  0
 12 38  1  0  0  0  0
 13 14  1  0  0  0  0
 14 26  1  0  0  0  0
 14 21  1  0  0  0  0
 14 15  1  0  0  0  0
 15 16  1  0  0  0  0
 16 27  1  0  0  0  0
 16 17  1  0  0  0  0
 16 19  1  0  0  0  0
 17 18  1  0  0  0  0
 17 39  1  0  0  0  0
 17 40  1  0  0  0  0
 18 41  1  0  0  0  0
 19 28  1  0  0  0  0
 19 20  1  0  0  0  0
 19 21  1  0  0  0  0
 20 42  1  0  0  0  0
 21 29  1  0  0  0  0
 21 22  1  0  0  0  0
 22 43  1  0  0  0  0
 23 24  2  0  0  0  0
 23 25  1  0  0  0  0
 25 44  1  0  0  0  0
M  END
> <s_m_source_file>
AV-unprocessed.smi

> <i_m_source_file_index>
54

> <i_lp_mmshare_version>
43012

> <i_f3d_flags>
0

> <s_epik_input>
W0NIM11bQ0hdKFtDSDNdKUMoPU8pW05IXWMobjEpW25IXWMoPU8pYyhjMTIpbltjSF1uMltDQEBIXTNPW0NASF0oW0NIMl1bT0hdKVtDQEBIXShbT0hdKVtDQEhdM1tPSF0=

> <s_epik_cmdline>
J2VwaWtfcHl0aG9uJywgJy1waCcsICc3LjAnLCAnLXRuJywgJzgnLCAnLW1hJywgJzIwMCcsICctbWV0YWxfYmluZGluZycsICctaW1hZScsICc8aW5maWxlLm1hZT4nLCAnLW9tYWUnLCAnPG91dGZpbGUubWFlPic=

> <r_lp_tautomer_probability>
0.85571

> <r_epik_Ionization_Penalty>
0.0316551

> <r_epik_Ionization_Penalty_Charging>
0.0316043

> <r_epik_Ionization_Penalty_Neutral>
5.07097e-05

> <r_epik_State_Penalty>
3.15494e-07

> <r_epik_Charging_Adjusted_Penalty>
0.0316047

> <i_epik_Tot_Q>
0

> <i_epik_Tot_abs_Q>
0

> <r_epik_Metal_State_Penalty>
0.421206

> <b_epik_Metal_Only>
0

> <s_epik_Chemistry_Notes>
This compound contains an acetal/aminal-like group ( X-CH(R)-Y where X, Y are N, S, or O) that may be acid/base labile, releasing an aldehyde.

> <s_lp_Force_Field>
OPLS_2005

> <r_lp_Energy>
45.6479

> <b_lp_Chiralities_Consistent>
1

> <s_lp_Variant>
AV-unprocessed.smi:54-4

> <Gold.Version>
5.8.1

> <Gold.Id.Protein>
6NUR|6NUR_protein|mol2

> <Gold.PLP.Fitness>
42.7659

> <Gold.PLP.PLP>
-34.6158

> <Gold.PLP.part.hbond>
-4.9043

> <Gold.PLP.part.metal>
0.0000

> <Gold.PLP.part.buried>
-6.4478

> <Gold.PLP.part.nonpolar>
-25.0219

> <Gold.PLP.part.repulsive>
1.2133

> <Gold.PLP.ligand.clash>
0.0000

> <Gold.PLP.ligand.torsion>
0.8221

> <Gold.PLP.Chemscore.Hbond>
3.1165

> <Gold.PLP.Chemscore.CHOScore>
0.0000

> <Gold.PLP.Chemscore.Metal>
0.0000

> <Gold.Chemscore.Hbonds>
donor molecule, donor type, donor heavy atom, donor atom, acceptor molecule, acceptor atom, score
      L1  H     6    37       P1 10747  1.00
      L1  H    22    43       P1  7949  1.00
      P1  H  6896  6907       L1    11  0.22
      P1  H 10752 10765       L1    22  1.00

> <Gold.PLP.Chemscore.Internal.Correction>
0.4449

> <Gold.Rescore>
     Score         DG    S(hbond)    S(metal)    S(lipo)     H(rot)  DE(clash)    DE(int)     intcor
      8.28     -10.58       2.82        0.00      51.83       4.05       0.40       1.90       ----

> <Gold.Chemscore.Fitness>
8.2832

> <Gold.Chemscore.DG>
-10.5846

> <Gold.Chemscore.ZeroCoef>
-5.4800

> <Gold.Chemscore.Hbond>
2.8164

> <Gold.Chemscore.Metal>
0.0000

> <Gold.Chemscore.Lipo>
51.8287

> <Gold.Chemscore.Internal_Hbond>
0.0000

> <Gold.Chemscore.DEClash>
0.4006

> <Gold.Chemscore.DEInternal>
1.9008

> <Gold.Chemscore.Rot>
4.0493

> <Gold.Chemscore.Internal.Correction>
   9.000000E+99

> <Gold.Chemscore.Hbonds>
donor molecule, donor type, donor heavy atom, donor atom, acceptor molecule, acceptor atom, score
      L1  H     6    37       P1 10747  0.93
      L1  H    22    43       P1  7949  0.98
      P1  H  6896  6907       L1    11  0.16
      P1  H 10752 10765       L1    22  0.29

> <Gold.Chemscore.Hbond.Weighted>
-9.4069

> <Gold.Chemscore.Metal.Weighted>
-0.0000

> <Gold.Chemscore.Lipo.Weighted>
-6.0640

> <Gold.Chemscore.Internal_Hbond.Weighted>
0.0000

> <Gold.Chemscore.DEClash.Weighted>
0.4006

> <Gold.Chemscore.DEInternal.Weighted>
1.9008

> <Gold.Chemscore.Rot.Weighted>
10.3662

> <Gold.Chemscore.Internal.Correction.Weighted>
   9.000000E+99

> <Gold.Protein.RotatedTorsions>
[ 6907 6896 6895 6894 ] final -134.64 input  -60.11 | X-H torsion
[ 7974 7965 7964 7962 ] final   86.44 input  175.53 | X-H torsion
[ 8008 7997 7996 7995 ] final   50.16 input   59.86 | X-H torsion
[ 10167 10162 10161 10158 ] final  -20.68 input  -65.29 | X-H torsion
[ 10718 10713 10712 10709 ] final   49.89 input   66.30 | X-H torsion
[ 10763 10752 10751 10750 ] final  165.70 input  -60.55 | X-H torsion
[ 11005 11000 10999 10996 ] final   32.35 input  -57.11 | X-H torsion

> <Gold.Protein.ActiveResidues>
 VAL166  LYS551  ARG553  GLY616  TRP617  ASP618  TYR619  PRO620  LYS621  CYS622 
 ASP623  PHE694  ASN695  SER759  ASP760  ASP761  ALA762  ILE779  LEU786  VAL792 
 PHE793  MET794  SER795  GLU796  ALA797  LYS798  CYS799  TRP800  GLU811  SER814 

> <Gold.Protein.RotatedAtoms>
  150.9883  133.6175  159.2711 H   0  0  0  0  0  0  0  0  0  0  0  0  # atno 6907 bound_to 6896
  151.3405  135.0861  159.9379 H   0  0  0  0  0  0  0  0  0  0  0  0  # atno 6908 bound_to 6896
  152.5238  133.9495  159.7719 H   0  0  0  0  0  0  0  0  0  0  0  0  # atno 6909 bound_to 6896
  145.5722  139.2315  143.2400 H   0  0  0  0  0  0  0  0  0  0  0  0  # atno 7974 bound_to 7965
  155.4141  140.3443  155.4266 H   0  0  0  0  0  0  0  0  0  0  0  0  # atno 8008 bound_to 7997
  156.1431  140.1548  156.8920 H   0  0  0  0  0  0  0  0  0  0  0  0  # atno 8009 bound_to 7997
  154.4988  140.0820  156.7734 H   0  0  0  0  0  0  0  0  0  0  0  0  # atno 8010 bound_to 7997
  140.7277  143.4699  151.0261 H   0  0  0  0  0  0  0  0  0  0  0  0  # atno 10167 bound_to 10162
  157.4831  130.8328  149.8115 H   0  0  0  0  0  0  0  0  0  0  0  0  # atno 10718 bound_to 10713
  154.3280  135.2755  155.2486 H   0  0  0  0  0  0  0  0  0  0  0  0  # atno 10763 bound_to 10752
  154.4811  135.5858  153.6393 H   0  0  0  0  0  0  0  0  0  0  0  0  # atno 10764 bound_to 10752
  152.9869  135.6111  154.3470 H   0  0  0  0  0  0  0  0  0  0  0  0  # atno 10765 bound_to 10752
  140.2743  134.3046  155.7818 H   0  0  0  0  0  0  0  0  0  0  0  0  # atno 11005 bound_to 11000
  146.1776  140.6548  142.9204 LP  0  0  0  0  0  0  0  0  0  0  0  0  # atno 17320 bound_to 7965
  144.7432  140.4999  143.6854 LP  0  0  0  0  0  0  0  0  0  0  0  0  # atno 17321 bound_to 7965
  139.8390  143.7589  152.3180 LP  0  0  0  0  0  0  0  0  0  0  0  0  # atno 17342 bound_to 10162
  139.7731  144.7470  151.0196 LP  0  0  0  0  0  0  0  0  0  0  0  0  # atno 17343 bound_to 10162
  156.0132  130.3824  150.2196 LP  0  0  0  0  0  0  0  0  0  0  0  0  # atno 17370 bound_to 10713
  157.0382  131.0027  151.3291 LP  0  0  0  0  0  0  0  0  0  0  0  0  # atno 17371 bound_to 10713
  141.2172  133.7486  156.9383 LP  0  0  0  0  0  0  0  0  0  0  0  0  # atno 17394 bound_to 11000
  140.1343  134.9335  157.2380 LP  0  0  0  0  0  0  0  0  0  0  0  0  # atno 17395 bound_to 11000

$$$$
