#       Name:                AV-unprocessed.smi:1721
#       Creating user name   scv26
#       Creation time:       Fri Mar 27 08:14:46 2020


#       File generated by GOLD software.
#

@<TRIPOS>MOLECULE
AV-unprocessed.smi:1721
    49    51     1
SMALL
NO_CHARGES


@<TRIPOS>ATOM
      1 ****        -2.0056   5.6651  -0.2643 C.3            1 S1                 0.0000
      2 ****        -1.2498   4.4624  -0.3582 O.3            1 S1                 0.0000
      3 ****         0.1213   4.5293  -0.1981 C.ar           1 S1                 0.0000
      4 ****         0.6832   5.7421   0.0338 N.ar           1 S1                 0.0000
      5 ****         2.0203   5.8114   0.1923 C.ar           1 S1                 0.0000
      6 ****         2.8613   4.6863   0.1289 C.ar           1 S1                 0.0000
      7 ****         2.2815   3.4269  -0.1117 C.ar           1 S1                 0.0000
      8 ****         0.8773   3.3357  -0.2818 C.ar           1 S1                 0.0000
      9 ****         0.1687   2.1242  -0.5271 N.am           1 S1                 0.0000
     10 ****         0.6300   0.8711  -0.6819 C.2            1 S1                 0.0000
     11 ****         1.8101   0.5271  -0.6377 O.2            1 S1                 0.0000
     12 ****        -0.3767   0.0119  -0.8954 N.am           1 S1                 0.0000
     13 ****        -0.2242  -1.4248  -1.1078 C.3            1 S1                 0.0000
     14 ****        -1.3555  -2.0292  -1.9578 C.3            1 S1                 0.0000
     15 ****        -1.6209  -3.4223  -1.3534 C.3            1 S1                 0.0000
     16 ****        -0.6191  -3.5818  -0.2819 N.4            1 S1                 1.0000
     17 ****        -0.9472  -4.5182   0.8150 C.3            1 S1                 0.0000
     18 ****         0.2525  -4.6117   1.7790 C.3            1 S1                 0.0000
     19 ****         0.7030  -3.2203   2.2689 C.3            1 S1                 0.0000
     20 ****         0.9388  -2.2626   1.0851 C.3            1 S1                 0.0000
     21 ****        -0.3149  -2.2239   0.1948 C.3            1 S1                 0.0000
     22 ****        -3.0613   5.4390  -0.4133 H              1 S1                 0.0000
     23 ****        -1.7103   6.3835  -1.0303 H              1 S1                 0.0000
     24 ****        -1.9017   6.1262   0.7190 H              1 S1                 0.0000
     25 ****         2.4317   6.7930   0.3767 H              1 S1                 0.0000
     26 ****         3.9281   4.7863   0.2635 H              1 S1                 0.0000
     27 ****         2.9324   2.5692  -0.1562 H              1 S1                 0.0000
     28 ****        -0.8324   2.2328  -0.6011 H              1 S1                 0.0000
     29 ****        -1.3169   0.3795  -0.9171 H              1 S1                 0.0000
     30 ****         0.7261  -1.6406  -1.6013 H              1 S1                 0.0000
     31 ****        -2.2625  -1.4255  -1.8997 H              1 S1                 0.0000
     32 ****        -1.0694  -2.0889  -3.0084 H              1 S1                 0.0000
     33 ****        -2.6287  -3.4644  -0.9371 H              1 S1                 0.0000
     34 ****        -1.5248  -4.2196  -2.0911 H              1 S1                 0.0000
     35 ****        -1.8374  -4.1747   1.3443 H              1 S1                 0.0000
     36 ****        -1.1755  -5.5011   0.4014 H              1 S1                 0.0000
     37 ****         0.0000  -5.2442   2.6306 H              1 S1                 0.0000
     38 ****         1.0855  -5.0992   1.2707 H              1 S1                 0.0000
     39 ****        -0.0611  -2.8030   2.9261 H              1 S1                 0.0000
     40 ****         1.6104  -3.3078   2.8672 H              1 S1                 0.0000
     41 ****         1.1724  -1.2651   1.4578 H              1 S1                 0.0000
     42 ****         1.8023  -2.5918   0.5056 H              1 S1                 0.0000
     43 ****        -1.1641  -1.8615   0.7793 H              1 S1                 0.0000
     44 ****         0.2224  -3.9217  -0.7254 H              1 S1                 0.0000
     45 ****        -1.4224   4.0756  -1.2641 LP             1 S1                 0.0000
     46 ****        -1.5984   3.8396   0.3421 LP             1 S1                 0.0000
     47 ****         0.1186   6.5658   0.0859 LP             1 S1                 0.0000
     48 ****         2.5237   1.2083  -0.4742 LP             1 S1                 0.0000
     49 ****         2.0559  -0.4338  -0.7653 LP             1 S1                 0.0000
@<TRIPOS>BOND
    1    1    2 1     
    2    1   22 1     
    3    1   23 1     
    4    1   24 1     
    5    2    3 1     
    6    3    8 ar    
    7    3    4 ar    
    8    4    5 ar    
    9    5    6 ar    
   10    5   25 1     
   11    6    7 ar    
   12    6   26 1     
   13    7    8 ar    
   14    7   27 1     
   15    8    9 1     
   16    9   10 am    
   17    9   28 1     
   18   10   11 2     
   19   10   12 am    
   20   12   13 1     
   21   12   29 1     
   22   13   21 1     
   23   13   14 1     
   24   13   30 1     
   25   14   15 1     
   26   14   31 1     
   27   14   32 1     
   28   15   16 1     
   29   15   33 1     
   30   15   34 1     
   31   16   21 1     
   32   16   17 1     
   33   16   44 1     
   34   17   18 1     
   35   17   35 1     
   36   17   36 1     
   37   18   19 1     
   38   18   37 1     
   39   18   38 1     
   40   19   20 1     
   41   19   39 1     
   42   19   40 1     
   43   20   21 1     
   44   20   41 1     
   45   20   42 1     
   46   21   43 1     
   47    2   45 1     
   48    2   46 1     
   49    4   47 1     
   50   11   48 1     
   51   11   49 1     
@<TRIPOS>SUBSTRUCTURE
      1 S1             1
@<TRIPOS>SET
LONE_PAIRS      STATIC     ATOMS    <user>   **** ""
5 45 46 47 48 49
DONOR_HYDROGENS      STATIC     ATOMS    <user>   **** ""
3 28 29 44
ATOM$BLUE        STATIC     ATOMS    COLORGROUP SYSTEM
5 45 46 47 48 49
ATOM$RED        STATIC     ATOMS    COLORGROUP SYSTEM
3 28 29 44
