AV-unprocessed.smi:2928|AV-procd|sdf|11238|dock10
  -GOLD-   2272016133D 1   1.00000     0.00000
 Structure written by MMmdl.
 56 59  0  0  0  0  0  0  0  0  3 V2000
  141.7683  133.9406  153.4786 C   0  0  0  0  0  0  0  0  0  0  0  0
  141.9364  135.1593  154.3055 N   0  3  2  0  0  0  0  0  0  0  0  0
  141.4720  136.4139  153.6673 C   0  0  1  0  0  0  0  0  0  0  0  0
  141.2991  137.4994  154.7544 C   0  0  0  0  0  0  0  0  0  0  0  0
  142.5466  137.7067  155.6342 C   0  0  0  0  0  0  0  0  0  0  0  0
  143.2235  136.3776  156.0219 C   0  0  0  0  0  0  0  0  0  0  0  0
  143.2939  135.3480  154.8700 C   0  0  2  0  0  0  0  0  0  0  0  0
  144.3301  135.6669  153.7627 C   0  0  0  0  0  0  0  0  0  0  0  0
  143.9087  136.7417  152.7300 C   0  0  2  0  0  0  0  0  0  0  0  0
  144.5026  138.0413  153.0368 N   0  0  0  0  0  0  0  0  0  0  0  0
  145.7334  138.2454  153.5286 C   0  0  0  0  0  0  0  0  0  0  0  0
  146.5203  137.3367  153.7922 O   0  0  0  0  0  0  0  0  0  0  0  0
  145.9898  139.5567  153.6656 N   0  0  0  0  0  0  0  0  0  0  0  0
  147.2034  140.1768  154.0777 C   0  0  0  0  0  0  0  0  0  0  0  0
  148.4495  139.4996  154.0739 C   0  0  0  0  0  0  0  0  0  0  0  0
  149.6094  140.1691  154.5121 C   0  0  0  0  0  0  0  0  0  0  0  0
  149.5055  141.4996  154.9579 C   0  0  0  0  0  0  0  0  0  0  0  0
  148.3023  142.1107  154.9646 N   0  3  0  0  0  0  0  0  0  0  0  0
  147.1577  141.5123  154.5530 C   0  0  0  0  0  0  0  0  0  0  0  0
  145.9549  142.2380  154.5992 N   0  0  0  0  0  0  0  0  0  0  0  0
  145.5701  142.7240  155.9136 C   0  0  0  0  0  0  0  0  0  0  0  0
  144.4887  143.7771  155.6581 C   0  0  0  0  0  0  0  0  0  0  0  0
  144.6957  144.2110  154.2015 C   0  0  0  0  0  0  0  0  0  0  0  0
  145.8876  143.3856  153.7103 C   0  0  0  0  0  0  0  0  0  0  0  0
  142.3782  136.8152  152.4765 C   0  0  0  0  0  0  0  0  0  0  0  0
  142.3744  133.9682  152.5733 H   0  0  0  0  0  0  0  0  0  0  0  0
  140.7255  133.8237  153.1830 H   0  0  0  0  0  0  0  0  0  0  0  0
  142.0508  133.0540  154.0468 H   0  0  0  0  0  0  0  0  0  0  0  0
  140.4756  136.2290  153.2629 H   0  0  0  0  0  0  0  0  0  0  0  0
  140.9971  138.4456  154.3042 H   0  0  0  0  0  0  0  0  0  0  0  0
  140.4732  137.2024  155.4023 H   0  0  0  0  0  0  0  0  0  0  0  0
  143.2535  138.3617  155.1368 H   0  0  0  0  0  0  0  0  0  0  0  0
  142.2667  138.2484  156.5385 H   0  0  0  0  0  0  0  0  0  0  0  0
  144.2185  136.5675  156.4258 H   0  0  0  0  0  0  0  0  0  0  0  0
  142.6519  135.9334  156.8380 H   0  0  0  0  0  0  0  0  0  0  0  0
  143.5945  134.4037  155.3268 H   0  0  0  0  0  0  0  0  0  0  0  0
  145.2942  135.9159  154.2087 H   0  0  0  0  0  0  0  0  0  0  0  0
  144.5148  134.7428  153.2139 H   0  0  0  0  0  0  0  0  0  0  0  0
  144.3705  136.4453  151.7859 H   0  0  0  0  0  0  0  0  0  0  0  0
  143.9295  138.8517  152.8524 H   0  0  0  0  0  0  0  0  0  0  0  0
  145.2728  140.1858  153.3350 H   0  0  0  0  0  0  0  0  0  0  0  0
  148.5349  138.4721  153.7547 H   0  0  0  0  0  0  0  0  0  0  0  0
  150.5649  139.6652  154.5111 H   0  0  0  0  0  0  0  0  0  0  0  0
  150.3399  142.0875  155.3123 H   0  0  0  0  0  0  0  0  0  0  0  0
  145.1999  141.9116  156.5397 H   0  0  0  0  0  0  0  0  0  0  0  0
  146.4230  143.1783  156.4197 H   0  0  0  0  0  0  0  0  0  0  0  0
  143.4966  143.3399  155.7776 H   0  0  0  0  0  0  0  0  0  0  0  0
  144.5699  144.6115  156.3554 H   0  0  0  0  0  0  0  0  0  0  0  0
  143.8059  143.9785  153.6149 H   0  0  0  0  0  0  0  0  0  0  0  0
  144.8836  145.2812  154.1095 H   0  0  0  0  0  0  0  0  0  0  0  0
  146.8035  143.9748  153.7750 H   0  0  0  0  0  0  0  0  0  0  0  0
  145.7604  143.0736  152.6732 H   0  0  0  0  0  0  0  0  0  0  0  0
  142.1548  136.1357  151.6532 H   0  0  0  0  0  0  0  0  0  0  0  0
  142.0859  137.7970  152.1027 H   0  0  0  0  0  0  0  0  0  0  0  0
  141.3286  135.0162  155.0995 H   0  0  0  0  0  0  0  0  0  0  0  0
  148.2527  143.0738  155.2974 H   0  0  0  0  0  0  0  0  0  0  0  0
  1  2  1  0  0  0  0
  1 26  1  0  0  0  0
  1 27  1  0  0  0  0
  1 28  1  0  0  0  0
  2  7  1  0  0  0  0
  2  3  1  0  0  0  0
  2 55  1  0  0  0  0
  3 25  1  0  0  0  0
  3  4  1  0  0  0  0
  3 29  1  0  0  0  0
  4  5  1  0  0  0  0
  4 30  1  0  0  0  0
  4 31  1  0  0  0  0
  5  6  1  0  0  0  0
  5 32  1  0  0  0  0
  5 33  1  0  0  0  0
  6  7  1  0  0  0  0
  6 34  1  0  0  0  0
  6 35  1  0  0  0  0
  7  8  1  0  0  0  0
  7 36  1  0  0  0  0
  8  9  1  0  0  0  0
  8 37  1  0  0  0  0
  8 38  1  0  0  0  0
  9 10  1  0  0  0  0
  9 25  1  0  0  0  0
  9 39  1  0  0  0  0
 10 11  1  0  0  0  0
 10 40  1  0  0  0  0
 11 12  2  0  0  0  0
 11 13  1  0  0  0  0
 13 14  1  0  0  0  0
 13 41  1  0  0  0  0
 14 19  1  0  0  0  0
 14 15  2  0  0  0  0
 15 16  1  0  0  0  0
 15 42  1  0  0  0  0
 16 17  2  0  0  0  0
 16 43  1  0  0  0  0
 17 18  1  0  0  0  0
 17 44  1  0  0  0  0
 18 19  2  0  0  0  0
 18 56  1  0  0  0  0
 19 20  1  0  0  0  0
 20 24  1  0  0  0  0
 20 21  1  0  0  0  0
 21 22  1  0  0  0  0
 21 45  1  0  0  0  0
 21 46  1  0  0  0  0
 22 23  1  0  0  0  0
 22 47  1  0  0  0  0
 22 48  1  0  0  0  0
 23 24  1  0  0  0  0
 23 49  1  0  0  0  0
 23 50  1  0  0  0  0
 24 51  1  0  0  0  0
 24 52  1  0  0  0  0
 25 53  1  0  0  0  0
 25 54  1  0  0  0  0
M  CHG  1   2   1
M  CHG  1  18   1
M  END
> <s_m_source_file>
AV-unprocessed.smi

> <i_m_source_file_index>
2928

> <i_lp_mmshare_version>
43012

> <i_f3d_flags>
0

> <s_epik_input>
W0NIMl0xW0NIMl1bQ0gyXVtDQEhdKE4oW0NIM10pW0NIXTEyKVtDSDJdW0NASF0oW0NIMl0yKVtOSF1DKD1PKVtOSF1jM1tjSF1bY0hdW2NIXW5jM040W0NIMl1bQ0gyXVtDSDJdW0NIMl00

> <s_epik_cmdline>
J2VwaWtfcHl0aG9uJywgJy1waCcsICc3LjAnLCAnLXRuJywgJzgnLCAnLW1hJywgJzIwMCcsICctbWV0YWxfYmluZGluZycsICctaW1hZScsICc8aW5maWxlLm1hZT4nLCAnLW9tYWUnLCAnPG91dGZpbGUubWFlPic=

> <r_lp_tautomer_probability>
0.999994

> <r_epik_Ionization_Penalty>
1.2404

> <r_epik_Ionization_Penalty_Charging>
1.24038

> <r_epik_Ionization_Penalty_Neutral>
1.86539e-05

> <r_epik_State_Penalty>
1.30821

> <r_epik_Charging_Adjusted_Penalty>
2.54859

> <i_epik_Tot_Q>
2

> <i_epik_Tot_abs_Q>
2

> <r_epik_Metal_State_Penalty>
1.3782

> <b_epik_Metal_Only>
0

> <s_lp_Force_Field>
OPLS_2005

> <r_lp_Energy>
76.0972

> <b_lp_Chiralities_Consistent>
1

> <s_lp_Variant>
AV-unprocessed.smi:2928-8

> <Gold.Version>
5.8.1

> <Gold.Id.Protein>
6NUR|6NUR_protein|mol2

> <Gold.PLP.Fitness>
46.2813

> <Gold.PLP.PLP>
-32.8140

> <Gold.PLP.part.hbond>
-4.0554

> <Gold.PLP.part.metal>
0.0000

> <Gold.PLP.part.buried>
-5.0036

> <Gold.PLP.part.nonpolar>
-25.8343

> <Gold.PLP.part.repulsive>
0.5227

> <Gold.PLP.ligand.clash>
0.0000

> <Gold.PLP.ligand.torsion>
0.3403

> <Gold.PLP.Chemscore.Hbond>
4.6908

> <Gold.PLP.Chemscore.CHOScore>
0.0000

> <Gold.PLP.Chemscore.Metal>
0.0000

> <Gold.Chemscore.Hbonds>
donor molecule, donor type, donor heavy atom, donor atom, acceptor molecule, acceptor atom, score
      L1  H     2    55       P1 11000  0.98
      L1  H    10    40       P1 10175  1.00
      L1  H    13    41       P1 10175  1.00
      L1  H    18    56       P1  8028  2.00

> <Gold.PLP.Chemscore.Internal.Correction>
0.0755

> <Gold.Rescore>
     Score         DG    S(hbond)    S(metal)    S(lipo)     H(rot)  DE(clash)    DE(int)     intcor
     17.24     -22.66       3.45        0.00      74.45       1.19       2.26       3.17       ----

> <Gold.Chemscore.Fitness>
17.2397

> <Gold.Chemscore.DG>
-22.6635

> <Gold.Chemscore.ZeroCoef>
-5.4800

> <Gold.Chemscore.Hbond>
3.4474

> <Gold.Chemscore.Metal>
0.0000

> <Gold.Chemscore.Lipo>
74.4453

> <Gold.Chemscore.Internal_Hbond>
0.0000

> <Gold.Chemscore.DEClash>
2.2585

> <Gold.Chemscore.DEInternal>
3.1653

> <Gold.Chemscore.Rot>
1.1879

> <Gold.Chemscore.Internal.Correction>
   9.000000E+99

> <Gold.Chemscore.Hbonds>
donor molecule, donor type, donor heavy atom, donor atom, acceptor molecule, acceptor atom, score
      L1  H     2    55       P1 11000  0.24
      L1  H    10    40       P1 10175  0.98
      L1  H    13    41       P1 10175  0.95
      L1  H    18    56       P1  8028  0.97

> <Gold.Chemscore.Hbond.Weighted>
-11.5145

> <Gold.Chemscore.Metal.Weighted>
-0.0000

> <Gold.Chemscore.Lipo.Weighted>
-8.7101

> <Gold.Chemscore.Internal_Hbond.Weighted>
0.0000

> <Gold.Chemscore.DEClash.Weighted>
2.2585

> <Gold.Chemscore.DEInternal.Weighted>
3.1653

> <Gold.Chemscore.Rot.Weighted>
3.0410

> <Gold.Chemscore.Internal.Correction.Weighted>
   9.000000E+99

> <Gold.Protein.RotatedTorsions>
[ 6907 6896 6895 6894 ] final  109.88 input  -60.11 | X-H torsion
[ 7974 7965 7964 7962 ] final  -68.99 input  175.53 | X-H torsion
[ 8008 7997 7996 7995 ] final -171.90 input   59.86 | X-H torsion
[ 10167 10162 10161 10158 ] final  -48.08 input  -65.29 | X-H torsion
[ 10718 10713 10712 10709 ] final   74.41 input   66.30 | X-H torsion
[ 10763 10752 10751 10750 ] final -131.74 input  -60.55 | X-H torsion
[ 11005 11000 10999 10996 ] final  154.52 input  -57.11 | X-H torsion

> <Gold.Protein.ActiveResidues>
 VAL166  LYS551  ARG553  GLY616  TRP617  ASP618  TYR619  PRO620  LYS621  CYS622 
 ASP623  PHE694  ASN695  SER759  ASP760  ASP761  ALA762  ILE779  LEU786  VAL792 
 PHE793  MET794  SER795  GLU796  ALA797  LYS798  CYS799  TRP800  GLU811  SER814 

> <Gold.Protein.RotatedAtoms>
  152.5046  133.8881  159.7379 H   0  0  0  0  0  0  0  0  0  0  0  0  # atno 6907 bound_to 6896
  150.9326  133.6740  159.2814 H   0  0  0  0  0  0  0  0  0  0  0  0  # atno 6908 bound_to 6896
  151.4079  135.0985  159.9628 H   0  0  0  0  0  0  0  0  0  0  0  0  # atno 6909 bound_to 6896
  145.7094  140.9084  143.0688 H   0  0  0  0  0  0  0  0  0  0  0  0  # atno 7974 bound_to 7965
  155.9376  140.1102  157.1082 H   0  0  0  0  0  0  0  0  0  0  0  0  # atno 8008 bound_to 7997
  154.4083  140.1225  156.4950 H   0  0  0  0  0  0  0  0  0  0  0  0  # atno 8009 bound_to 7997
  155.7002  140.3472  155.4932 H   0  0  0  0  0  0  0  0  0  0  0  0  # atno 8010 bound_to 7997
  140.6747  143.2756  151.4019 H   0  0  0  0  0  0  0  0  0  0  0  0  # atno 10167 bound_to 10162
  157.6591  130.9676  150.1207 H   0  0  0  0  0  0  0  0  0  0  0  0  # atno 10718 bound_to 10713
  154.8748  135.3820  154.4296 H   0  0  0  0  0  0  0  0  0  0  0  0  # atno 10763 bound_to 10752
  153.4991  135.7030  153.5847 H   0  0  0  0  0  0  0  0  0  0  0  0  # atno 10764 bound_to 10752
  153.4186  135.3907  155.2063 H   0  0  0  0  0  0  0  0  0  0  0  0  # atno 10765 bound_to 10752
  140.1497  134.8683  157.2438 H   0  0  0  0  0  0  0  0  0  0  0  0  # atno 11005 bound_to 11000
  144.6946  139.9055  143.7461 LP  0  0  0  0  0  0  0  0  0  0  0  0  # atno 17320 bound_to 7965
  146.0726  139.3714  143.0514 LP  0  0  0  0  0  0  0  0  0  0  0  0  # atno 17321 bound_to 7965
  139.6033  144.1250  152.2221 LP  0  0  0  0  0  0  0  0  0  0  0  0  # atno 17342 bound_to 10162
  140.0641  144.5832  150.7240 LP  0  0  0  0  0  0  0  0  0  0  0  0  # atno 17343 bound_to 10162
  156.2079  130.3664  149.8706 LP  0  0  0  0  0  0  0  0  0  0  0  0  # atno 17370 bound_to 10713
  156.6593  130.8775  151.3544 LP  0  0  0  0  0  0  0  0  0  0  0  0  # atno 17371 bound_to 10713
  140.2620  134.3560  155.7403 LP  0  0  0  0  0  0  0  0  0  0  0  0  # atno 17394 bound_to 11000
  141.2197  133.7375  156.9094 LP  0  0  0  0  0  0  0  0  0  0  0  0  # atno 17395 bound_to 11000

$$$$
