AV-unprocessed.smi:3110|AV-procd|sdf|11828|dock5
  -GOLD-   2272017203D 1   1.00000     0.00000
 Structure written by MMmdl.
 34 35  0  0  0  0  0  0  0  0  2 V2000
  152.4979  139.9203  156.2736 O   0  0  0  0  0  0  0  0  0  0  0  0
  151.6259  140.1831  157.1026 C   0  0  0  0  0  0  0  0  0  0  0  0
  152.0066  140.6660  158.5065 C   0  0  0  0  0  0  0  0  0  0  0  0
  151.4631  142.0703  158.8444 C   0  0  2  0  0  0  0  0  0  0  0  0
  151.3310  142.9397  157.6208 C   0  0  0  0  0  0  0  0  0  0  0  0
  151.9114  144.1287  157.7679 C   0  0  0  0  0  0  0  0  0  0  0  0
  152.5496  144.2935  159.1190 C   0  0  0  0  0  0  0  0  0  0  0  0
  152.3772  142.9077  159.7791 C   0  0  0  0  0  0  0  0  0  0  0  0
  150.3135  140.0652  156.8486 N   0  0  0  0  0  0  0  0  0  0  0  0
  149.7456  139.6343  155.5770 C   0  0  0  0  0  0  0  0  0  0  0  0
  149.5567  140.8161  154.6112 C   0  0  0  0  0  0  0  0  0  0  0  0
  148.1412  141.1275  154.4083 N   0  0  0  0  0  0  0  0  0  0  0  0
  147.3941  142.0729  155.0624 C   0  0  0  0  0  0  0  0  0  0  0  0
  146.1296  142.0034  154.5361 C   0  0  0  0  0  0  0  0  0  0  0  0
  146.1592  141.0196  153.5841 N   0  3  0  0  0  0  0  0  0  0  0  0
  147.3839  140.4884  153.5076 C   0  0  0  0  0  0  0  0  0  0  0  0
  151.6520  139.9479  159.2479 H   0  0  0  0  0  0  0  0  0  0  0  0
  153.0950  140.6674  158.5749 H   0  0  0  0  0  0  0  0  0  0  0  0
  150.4662  141.9877  159.2804 H   0  0  0  0  0  0  0  0  0  0  0  0
  150.8011  142.6132  156.7378 H   0  0  0  0  0  0  0  0  0  0  0  0
  151.9250  144.9122  157.0243 H   0  0  0  0  0  0  0  0  0  0  0  0
  153.5999  144.5693  159.0204 H   0  0  0  0  0  0  0  0  0  0  0  0
  152.0335  145.0745  159.6783 H   0  0  0  0  0  0  0  0  0  0  0  0
  151.9538  142.9905  160.7807 H   0  0  0  0  0  0  0  0  0  0  0  0
  153.3560  142.4379  159.8850 H   0  0  0  0  0  0  0  0  0  0  0  0
  149.6640  140.3009  157.5853 H   0  0  0  0  0  0  0  0  0  0  0  0
  150.4185  138.8978  155.1367 H   0  0  0  0  0  0  0  0  0  0  0  0
  148.7969  139.1232  155.7499 H   0  0  0  0  0  0  0  0  0  0  0  0
  150.0482  141.7151  154.9863 H   0  0  0  0  0  0  0  0  0  0  0  0
  149.9953  140.5930  153.6376 H   0  0  0  0  0  0  0  0  0  0  0  0
  147.8061  142.7081  155.8332 H   0  0  0  0  0  0  0  0  0  0  0  0
  145.2347  142.5651  154.7618 H   0  0  0  0  0  0  0  0  0  0  0  0
  147.6993  139.6997  152.8475 H   0  0  0  0  0  0  0  0  0  0  0  0
  145.3699  140.7332  153.0185 H   0  0  0  0  0  0  0  0  0  0  0  0
  1  2  2  0  0  0  0
  2  3  1  0  0  0  0
  2  9  1  0  0  0  0
  3  4  1  0  0  0  0
  3 17  1  0  0  0  0
  3 18  1  0  0  0  0
  4  8  1  0  0  0  0
  4  5  1  0  0  0  0
  4 19  1  0  0  0  0
  5  6  2  0  0  0  0
  5 20  1  0  0  0  0
  6  7  1  0  0  0  0
  6 21  1  0  0  0  0
  7  8  1  0  0  0  0
  7 22  1  0  0  0  0
  7 23  1  0  0  0  0
  8 24  1  0  0  0  0
  8 25  1  0  0  0  0
  9 10  1  0  0  0  0
  9 26  1  0  0  0  0
 10 11  1  0  0  0  0
 10 27  1  0  0  0  0
 10 28  1  0  0  0  0
 11 12  1  0  0  0  0
 11 29  1  0  0  0  0
 11 30  1  0  0  0  0
 12 16  1  0  0  0  0
 12 13  1  0  0  0  0
 13 14  2  0  0  0  0
 13 31  1  0  0  0  0
 14 15  1  0  0  0  0
 14 32  1  0  0  0  0
 15 16  2  0  0  0  0
 15 34  1  0  0  0  0
 16 33  1  0  0  0  0
M  CHG  1  15   1
M  END
> <s_m_source_file>
AV-unprocessed.smi

> <i_m_source_file_index>
3110

> <i_lp_mmshare_version>
43012

> <i_f3d_flags>
0

> <s_epik_input>
W0NIMl0xW0NIMl1bQ0hdPVtDSF1bQ0BIXTFbQ0gyXUMoPU8pW05IXVtDSDJdW0NIMl1uMltjSF1bY0hdbltjSF0y

> <s_epik_cmdline>
J2VwaWtfcHl0aG9uJywgJy1waCcsICc3LjAnLCAnLXRuJywgJzgnLCAnLW1hJywgJzIwMCcsICctbWV0YWxfYmluZGluZycsICctaW1hZScsICc8aW5maWxlLm1hZT4nLCAnLW9tYWUnLCAnPG91dGZpbGUubWFlPic=

> <r_lp_tautomer_probability>
1

> <r_epik_Ionization_Penalty>
0.271094

> <r_epik_Ionization_Penalty_Charging>
0

> <r_epik_Ionization_Penalty_Neutral>
0.271094

> <r_epik_State_Penalty>
0.263241

> <r_epik_Charging_Adjusted_Penalty>
0.263241

> <i_epik_Tot_Q>
1

> <i_epik_Tot_abs_Q>
1

> <r_epik_Metal_State_Penalty>
0.547832

> <b_epik_Metal_Only>
0

> <s_lp_Force_Field>
OPLS_2005

> <r_lp_Energy>
18.4695

> <b_lp_Chiralities_Consistent>
1

> <s_lp_Variant>
AV-unprocessed.smi:3110-1

> <Gold.Version>
5.8.1

> <Gold.Id.Protein>
6NUR|6NUR_protein|mol2

> <Gold.PLP.Fitness>
48.3185

> <Gold.PLP.PLP>
-36.3478

> <Gold.PLP.part.hbond>
-2.0000

> <Gold.PLP.part.metal>
0.0000

> <Gold.PLP.part.buried>
-1.1457

> <Gold.PLP.part.nonpolar>
-33.4708

> <Gold.PLP.part.repulsive>
0.0329

> <Gold.PLP.ligand.clash>
0.0000

> <Gold.PLP.ligand.torsion>
1.2796

> <Gold.PLP.Chemscore.Hbond>
3.0000

> <Gold.PLP.Chemscore.CHOScore>
1.8358

> <Gold.PLP.Chemscore.Metal>
0.0000

> <Gold.Chemscore.Hbonds>
donor molecule, donor type, donor heavy atom, donor atom, acceptor molecule, acceptor atom, score
      L1  H    15    34       P1 10175  2.00
      P1  H  7997  8009       L1     1  1.00
      L1  C    13    31       P1  8028  0.99
      L1  C    16    33       P1  7957  0.78

> <Gold.PLP.Chemscore.Internal.Correction>
0.0226

> <Gold.Rescore>
     Score         DG    S(hbond)    S(metal)    S(lipo)     H(rot)  DE(clash)    DE(int)     intcor
     15.95     -17.20       1.98        0.00      89.58       2.10       0.06       1.19       ----

> <Gold.Chemscore.Fitness>
15.9515

> <Gold.Chemscore.DG>
-17.1987

> <Gold.Chemscore.ZeroCoef>
-5.4800

> <Gold.Chemscore.Hbond>
1.9773

> <Gold.Chemscore.Metal>
0.0000

> <Gold.Chemscore.Lipo>
89.5810

> <Gold.Chemscore.Internal_Hbond>
0.0000

> <Gold.Chemscore.DEClash>
0.0578

> <Gold.Chemscore.DEInternal>
1.1894

> <Gold.Chemscore.Rot>
2.0963

> <Gold.Chemscore.Internal.Correction>
   9.000000E+99

> <Gold.Chemscore.Hbonds>
donor molecule, donor type, donor heavy atom, donor atom, acceptor molecule, acceptor atom, score
      L1  H    15    34       P1 10175  0.65
      P1  H  7997  8009       L1     1  0.99

> <Gold.Chemscore.Hbond.Weighted>
-6.6042

> <Gold.Chemscore.Metal.Weighted>
-0.0000

> <Gold.Chemscore.Lipo.Weighted>
-10.4810

> <Gold.Chemscore.Internal_Hbond.Weighted>
0.0000

> <Gold.Chemscore.DEClash.Weighted>
0.0578

> <Gold.Chemscore.DEInternal.Weighted>
1.1894

> <Gold.Chemscore.Rot.Weighted>
5.3665

> <Gold.Chemscore.Internal.Correction.Weighted>
   9.000000E+99

> <Gold.Protein.RotatedTorsions>
[ 6907 6896 6895 6894 ] final -178.61 input  -60.11 | X-H torsion
[ 7974 7965 7964 7962 ] final -137.69 input  175.53 | X-H torsion
[ 8008 7997 7996 7995 ] final -153.14 input   59.86 | X-H torsion
[ 10167 10162 10161 10158 ] final  114.04 input  -65.29 | X-H torsion
[ 10718 10713 10712 10709 ] final   33.33 input   66.30 | X-H torsion
[ 10763 10752 10751 10750 ] final  -99.68 input  -60.55 | X-H torsion
[ 11005 11000 10999 10996 ] final -114.19 input  -57.11 | X-H torsion

> <Gold.Protein.ActiveResidues>
 VAL166  LYS551  ARG553  GLY616  TRP617  ASP618  TYR619  PRO620  LYS621  CYS622 
 ASP623  PHE694  ASN695  SER759  ASP760  ASP761  ALA762  ILE779  LEU786  VAL792 
 PHE793  MET794  SER795  GLU796  ALA797  LYS798  CYS799  TRP800  GLU811  SER814 

> <Gold.Protein.RotatedAtoms>
  151.6400  133.3326  159.3127 H   0  0  0  0  0  0  0  0  0  0  0  0  # atno 6907 bound_to 6896
  150.8013  134.7112  159.6614 H   0  0  0  0  0  0  0  0  0  0  0  0  # atno 6908 bound_to 6896
  152.4105  134.6137  160.0084 H   0  0  0  0  0  0  0  0  0  0  0  0  # atno 6909 bound_to 6896
  144.8821  140.6522  143.5199 H   0  0  0  0  0  0  0  0  0  0  0  0  # atno 7974 bound_to 7965
  155.6662  140.0728  157.2536 H   0  0  0  0  0  0  0  0  0  0  0  0  # atno 8008 bound_to 7997
  154.4132  140.1707  156.1881 H   0  0  0  0  0  0  0  0  0  0  0  0  # atno 8009 bound_to 7997
  155.9655  140.3366  155.6532 H   0  0  0  0  0  0  0  0  0  0  0  0  # atno 8010 bound_to 7997
  139.6417  144.7124  151.2223 H   0  0  0  0  0  0  0  0  0  0  0  0  # atno 10167 bound_to 10162
  157.2965  130.7329  149.6641 H   0  0  0  0  0  0  0  0  0  0  0  0  # atno 10718 bound_to 10713
  154.7518  135.4963  153.9302 H   0  0  0  0  0  0  0  0  0  0  0  0  # atno 10763 bound_to 10752
  153.1151  135.6718  153.9439 H   0  0  0  0  0  0  0  0  0  0  0  0  # atno 10764 bound_to 10752
  153.9188  135.3090  155.3427 H   0  0  0  0  0  0  0  0  0  0  0  0  # atno 10765 bound_to 10752
  141.0567  133.9601  157.2741 H   0  0  0  0  0  0  0  0  0  0  0  0  # atno 11005 bound_to 11000
  145.3935  139.1612  143.4216 LP  0  0  0  0  0  0  0  0  0  0  0  0  # atno 17320 bound_to 7965
  146.3001  140.4026  142.8707 LP  0  0  0  0  0  0  0  0  0  0  0  0  # atno 17321 bound_to 7965
  140.7494  143.6300  150.8432 LP  0  0  0  0  0  0  0  0  0  0  0  0  # atno 17342 bound_to 10162
  139.9938  143.5818  152.2900 LP  0  0  0  0  0  0  0  0  0  0  0  0  # atno 17343 bound_to 10162
  155.9669  130.4293  150.4825 LP  0  0  0  0  0  0  0  0  0  0  0  0  # atno 17370 bound_to 10713
  157.2798  131.0604  151.2205 LP  0  0  0  0  0  0  0  0  0  0  0  0  # atno 17371 bound_to 10713
  139.9396  135.0192  156.8667 LP  0  0  0  0  0  0  0  0  0  0  0  0  # atno 17394 bound_to 11000
  140.5949  134.0226  155.7514 LP  0  0  0  0  0  0  0  0  0  0  0  0  # atno 17395 bound_to 11000

$$$$
