AV-unprocessed.smi:1813|AV-procd|sdf|7344|dock4
  -GOLD-   22720 9 03D 1   1.00000     0.00000
 Structure written by MMmdl.
 39 40  0  0  0  0  0  0  0  0  3 V2000
  139.2588  147.2699  160.3752 C   0  0  0  0  0  0  0  0  0  0  0  0
  140.2494  146.3416  160.9074 N   0  5  0  0  0  0  0  0  0  0  0  0
  140.8543  145.3798  160.1600 C   0  0  0  0  0  0  0  0  0  0  0  0
  140.7932  145.1422  158.9491 O   0  0  0  0  0  0  0  0  0  0  0  0
  141.7674  144.5013  161.0226 C   0  0  0  0  0  0  0  0  0  0  0  0
  143.1679  144.6027  160.5422 N   0  3  2  0  0  0  0  0  0  0  0  0
  144.1446  144.0651  161.5225 C   0  0  0  0  0  0  0  0  0  0  0  0
  145.5636  144.0370  160.9310 C   0  0  0  0  0  0  0  0  0  0  0  0
  145.9960  145.4313  160.4493 C   0  0  1  0  0  0  0  0  0  0  0  0
  147.3036  145.3471  159.8056 N   0  0  0  0  0  0  0  0  0  0  0  0
  148.3875  144.7570  160.3299 C   0  0  0  0  0  0  0  0  0  0  0  0
  148.3952  144.2084  161.4324 O   0  0  0  0  0  0  0  0  0  0  0  0
  149.4415  144.8523  159.5007 N   0  0  0  0  0  0  0  0  0  0  0  0
  150.7514  144.3365  159.6829 C   0  0  0  0  0  0  0  0  0  0  0  0
  151.1671  143.7053  160.7872 N   0  0  0  0  0  0  0  0  0  0  0  0
  152.5004  143.2999  160.6883 C   0  0  0  0  0  0  0  0  0  0  0  0
  153.0888  143.6336  159.4938 C   0  0  0  0  0  0  0  0  0  0  0  0
  151.9849  144.4746  158.4387 S   0  0  0  0  0  0  0  0  0  0  0  0
  144.9442  145.9909  159.4740 C   0  0  0  0  0  0  0  0  0  0  0  0
  143.5395  145.9730  160.0979 C   0  0  0  0  0  0  0  0  0  0  0  0
  138.8346  147.9013  161.1554 H   0  0  0  0  0  0  0  0  0  0  0  0
  138.4200  146.7606  159.8999 H   0  0  0  0  0  0  0  0  0  0  0  0
  139.6826  147.9435  159.6297 H   0  0  0  0  0  0  0  0  0  0  0  0
  141.7071  144.7396  162.0870 H   0  0  0  0  0  0  0  0  0  0  0  0
  141.4094  143.4761  160.9173 H   0  0  0  0  0  0  0  0  0  0  0  0
  144.1240  144.6719  162.4293 H   0  0  0  0  0  0  0  0  0  0  0  0
  143.8591  143.0527  161.8105 H   0  0  0  0  0  0  0  0  0  0  0  0
  146.2663  143.6641  161.6769 H   0  0  0  0  0  0  0  0  0  0  0  0
  145.5921  143.3312  160.0993 H   0  0  0  0  0  0  0  0  0  0  0  0
  146.0620  146.0887  161.3186 H   0  0  0  0  0  0  0  0  0  0  0  0
  147.3894  145.7706  158.8932 H   0  0  0  0  0  0  0  0  0  0  0  0
  149.2886  145.3451  158.6333 H   0  0  0  0  0  0  0  0  0  0  0  0
  152.9530  142.7769  161.5177 H   0  0  0  0  0  0  0  0  0  0  0  0
  154.1002  143.4353  159.1717 H   0  0  0  0  0  0  0  0  0  0  0  0
  145.2023  147.0103  159.1843 H   0  0  0  0  0  0  0  0  0  0  0  0
  144.9380  145.4019  158.5553 H   0  0  0  0  0  0  0  0  0  0  0  0
  142.8235  146.3412  159.3632 H   0  0  0  0  0  0  0  0  0  0  0  0
  143.4966  146.6562  160.9476 H   0  0  0  0  0  0  0  0  0  0  0  0
  143.2213  144.0051  159.7295 H   0  0  0  0  0  0  0  0  0  0  0  0
  1  2  1  0  0  0  0
  1 21  1  0  0  0  0
  1 22  1  0  0  0  0
  1 23  1  0  0  0  0
  2  3  1  0  0  0  0
  3  4  2  0  0  0  0
  3  5  1  0  0  0  0
  5  6  1  0  0  0  0
  5 24  1  0  0  0  0
  5 25  1  0  0  0  0
  6 20  1  0  0  0  0
  6  7  1  0  0  0  0
  6 39  1  0  0  0  0
  7  8  1  0  0  0  0
  7 26  1  0  0  0  0
  7 27  1  0  0  0  0
  8  9  1  0  0  0  0
  8 28  1  0  0  0  0
  8 29  1  0  0  0  0
  9 10  1  0  0  0  0
  9 19  1  0  0  0  0
  9 30  1  0  0  0  0
 10 11  1  0  0  0  0
 10 31  1  0  0  0  0
 11 12  2  0  0  0  0
 11 13  1  0  0  0  0
 13 14  1  0  0  0  0
 13 32  1  0  0  0  0
 14 18  1  0  0  0  0
 14 15  2  0  0  0  0
 15 16  1  0  0  0  0
 16 17  2  0  0  0  0
 16 33  1  0  0  0  0
 17 18  1  0  0  0  0
 17 34  1  0  0  0  0
 19 20  1  0  0  0  0
 19 35  1  0  0  0  0
 19 36  1  0  0  0  0
 20 37  1  0  0  0  0
 20 38  1  0  0  0  0
M  CHG  1   2  -1
M  CHG  1   6   1
M  END
> <s_m_source_file>
AV-unprocessed.smi

> <i_m_source_file_index>
1813

> <i_lp_mmshare_version>
43012

> <i_f3d_flags>
0

> <s_epik_input>
W0NIM11bTkhdQyg9TylbQ0gyXU4xW0NIMl1bQ0gyXVtDSF0oW0NIMl1bQ0gyXTEpW05IXUMoPU8pW05IXWMybltjSF1bY0hdczI=

> <s_epik_cmdline>
J2VwaWtfcHl0aG9uJywgJy1waCcsICc3LjAnLCAnLXRuJywgJzgnLCAnLW1hJywgJzIwMCcsICctbWV0YWxfYmluZGluZycsICctaW1hZScsICc8aW5maWxlLm1hZT4nLCAnLW9tYWUnLCAnPG91dGZpbGUubWFlPic=

> <r_lp_tautomer_probability>
0.999

> <r_epik_Ionization_Penalty>
6.14232

> <r_epik_Ionization_Penalty_Charging>
6.14218

> <r_epik_Ionization_Penalty_Neutral>
0.000139308

> <r_epik_State_Penalty>
6.98503

> <r_epik_Charging_Adjusted_Penalty>
13.1272

> <i_epik_Tot_Q>
0

> <i_epik_Tot_abs_Q>
2

> <r_epik_Metal_State_Penalty>
2.95036

> <b_epik_Metal_Only>
1

> <s_lp_Force_Field>
OPLS_2005

> <r_lp_Energy>
7.46639

> <b_lp_Chiralities_Consistent>
1

> <s_lp_Variant>
AV-unprocessed.smi:1813-5

> <Gold.Version>
5.8.1

> <Gold.Id.Protein>
6NUR|6NUR_protein|mol2

> <Gold.PLP.Fitness>
43.5020

> <Gold.PLP.PLP>
-35.4162

> <Gold.PLP.part.hbond>
-3.8663

> <Gold.PLP.part.metal>
0.0000

> <Gold.PLP.part.buried>
-5.7712

> <Gold.PLP.part.nonpolar>
-27.2683

> <Gold.PLP.part.repulsive>
0.6919

> <Gold.PLP.ligand.clash>
0.0000

> <Gold.PLP.ligand.torsion>
0.2480

> <Gold.PLP.Chemscore.Hbond>
2.8240

> <Gold.PLP.Chemscore.CHOScore>
0.0000

> <Gold.PLP.Chemscore.Metal>
0.0000

> <Gold.Chemscore.Hbonds>
donor molecule, donor type, donor heavy atom, donor atom, acceptor molecule, acceptor atom, score
      L1  H    10    31       P1  8029  1.00
      L1  H    13    32       P1  8029  0.93
      P1  H  6933  6944       L1    12  0.88

> <Gold.PLP.Chemscore.Internal.Correction>
0.1097

> <Gold.Rescore>
     Score         DG    S(hbond)    S(metal)    S(lipo)     H(rot)  DE(clash)    DE(int)     intcor
     16.66     -19.50       2.83        0.00      76.91       1.73       0.04       2.80       ----

> <Gold.Chemscore.Fitness>
16.6576

> <Gold.Chemscore.DG>
-19.4981

> <Gold.Chemscore.ZeroCoef>
-5.4800

> <Gold.Chemscore.Hbond>
2.8297

> <Gold.Chemscore.Metal>
0.0000

> <Gold.Chemscore.Lipo>
76.9120

> <Gold.Chemscore.Internal_Hbond>
0.0000

> <Gold.Chemscore.DEClash>
0.0402

> <Gold.Chemscore.DEInternal>
2.8002

> <Gold.Chemscore.Rot>
1.7312

> <Gold.Chemscore.Internal.Correction>
   9.000000E+99

> <Gold.Chemscore.Hbonds>
donor molecule, donor type, donor heavy atom, donor atom, acceptor molecule, acceptor atom, score
      L1  H    10    31       P1  8029  0.99
      L1  H    13    32       P1  8029  0.79
      P1  H  6933  6944       L1    12  0.83

> <Gold.Chemscore.Hbond.Weighted>
-9.4513

> <Gold.Chemscore.Metal.Weighted>
-0.0000

> <Gold.Chemscore.Lipo.Weighted>
-8.9987

> <Gold.Chemscore.Internal_Hbond.Weighted>
0.0000

> <Gold.Chemscore.DEClash.Weighted>
0.0402

> <Gold.Chemscore.DEInternal.Weighted>
2.8002

> <Gold.Chemscore.Rot.Weighted>
4.4319

> <Gold.Chemscore.Internal.Correction.Weighted>
   9.000000E+99

> <Gold.Protein.RotatedTorsions>
[ 6907 6896 6895 6894 ] final   23.80 input  -60.11 | X-H torsion
[ 7974 7965 7964 7962 ] final -127.40 input  175.53 | X-H torsion
[ 8008 7997 7996 7995 ] final  107.86 input   59.86 | X-H torsion
[ 10167 10162 10161 10158 ] final  150.51 input  -65.29 | X-H torsion
[ 10718 10713 10712 10709 ] final  178.15 input   66.30 | X-H torsion
[ 10763 10752 10751 10750 ] final  -70.12 input  -60.55 | X-H torsion
[ 11005 11000 10999 10996 ] final    8.90 input  -57.11 | X-H torsion

> <Gold.Protein.ActiveResidues>
 VAL166  LYS551  ARG553  GLY616  TRP617  ASP618  TYR619  PRO620  LYS621  CYS622 
 ASP623  PHE694  ASN695  SER759  ASP760  ASP761  ALA762  ILE779  LEU786  VAL792 
 PHE793  MET794  SER795  GLU796  ALA797  LYS798  CYS799  TRP800  GLU811  SER814 

> <Gold.Protein.RotatedAtoms>
  151.9479  135.0183  160.0539 H   0  0  0  0  0  0  0  0  0  0  0  0  # atno 6907 bound_to 6896
  152.1979  133.4815  159.5051 H   0  0  0  0  0  0  0  0  0  0  0  0  # atno 6908 bound_to 6896
  150.6948  134.1546  159.4196 H   0  0  0  0  0  0  0  0  0  0  0  0  # atno 6909 bound_to 6896
  144.9775  140.7607  143.4632 H   0  0  0  0  0  0  0  0  0  0  0  0  # atno 7974 bound_to 7965
  156.1857  140.3087  155.9234 H   0  0  0  0  0  0  0  0  0  0  0  0  # atno 8008 bound_to 7997
  155.3285  140.0459  157.3059 H   0  0  0  0  0  0  0  0  0  0  0  0  # atno 8009 bound_to 7997
  154.5393  140.2256  155.8677 H   0  0  0  0  0  0  0  0  0  0  0  0  # atno 8010 bound_to 7997
  139.4849  144.5516  151.7391 H   0  0  0  0  0  0  0  0  0  0  0  0  # atno 10167 bound_to 10162
  156.8948  130.9859  151.3044 H   0  0  0  0  0  0  0  0  0  0  0  0  # atno 10718 bound_to 10713
  154.4132  135.6004  153.5965 H   0  0  0  0  0  0  0  0  0  0  0  0  # atno 10763 bound_to 10752
  152.9791  135.5934  154.4045 H   0  0  0  0  0  0  0  0  0  0  0  0  # atno 10764 bound_to 10752
  154.3860  135.2841  155.2161 H   0  0  0  0  0  0  0  0  0  0  0  0  # atno 10765 bound_to 10752
  140.5318  134.0459  155.7876 H   0  0  0  0  0  0  0  0  0  0  0  0  # atno 11005 bound_to 11000
  145.2469  139.2048  143.4963 LP  0  0  0  0  0  0  0  0  0  0  0  0  # atno 17320 bound_to 7965
  146.3399  140.2375  142.8595 LP  0  0  0  0  0  0  0  0  0  0  0  0  # atno 17321 bound_to 7965
  140.5071  144.1082  150.5985 LP  0  0  0  0  0  0  0  0  0  0  0  0  # atno 17342 bound_to 10162
  140.3995  143.2711  151.9965 LP  0  0  0  0  0  0  0  0  0  0  0  0  # atno 17343 bound_to 10162
  157.6062  130.8548  149.8878 LP  0  0  0  0  0  0  0  0  0  0  0  0  # atno 17370 bound_to 10713
  156.0611  130.3700  150.0981 LP  0  0  0  0  0  0  0  0  0  0  0  0  # atno 17371 bound_to 10713
  141.1277  133.9355  157.2601 LP  0  0  0  0  0  0  0  0  0  0  0  0  # atno 17394 bound_to 11000
  139.9550  135.0167  156.9102 LP  0  0  0  0  0  0  0  0  0  0  0  0  # atno 17395 bound_to 11000

$$$$
