AV-unprocessed.smi:1644|AV-procd|sdf|6598|dock10
  -GOLD-   22720 7303D 1   1.00000     0.00000
 Structure written by MMmdl.
 49 51  0  0  0  0  0  0  0  0  3 V2000
  152.9492  142.3877  159.6061 C   0  0  0  0  0  0  0  0  0  0  0  0
  152.0388  141.2455  160.0706 C   0  0  0  0  0  0  0  0  0  0  0  0
  151.2046  140.6536  158.9228 C   0  0  0  0  0  0  0  0  0  0  0  0
  151.9121  139.4937  158.1897 C   0  0  2  0  0  0  0  0  0  0  0  0
  152.2964  139.8706  156.8448 N   0  5  0  0  0  0  0  0  0  0  0  0
  151.6909  139.0351  155.9696 C   0  0  0  0  0  0  0  0  0  0  0  0
  151.8010  139.0506  154.7440 O   0  0  0  0  0  0  0  0  0  0  0  0
  150.9228  138.1345  156.6126 N   0  0  0  0  0  0  0  0  0  0  0  0
  150.1277  137.0811  155.9707 C   0  0  0  0  0  0  0  0  0  0  0  0
  148.9064  137.6401  155.2122 C   0  0  1  0  0  0  0  0  0  0  0  0
  149.3028  137.8897  153.8782 O   0  0  0  0  0  0  0  0  0  0  0  0
  147.6834  136.6988  155.2407 C   0  0  0  0  0  0  0  0  0  0  0  0
  146.7224  136.9739  154.1642 N   0  0  0  0  0  0  0  0  0  0  0  0
  146.0420  138.1168  153.8803 C   0  0  0  0  0  0  0  0  0  0  0  0
  145.2676  137.8725  152.7870 N   0  3  0  0  0  0  0  0  0  0  0  0
  145.4574  136.5540  152.3670 C   0  0  0  0  0  0  0  0  0  0  0  0
  144.8963  135.8452  151.3112 C   0  0  0  0  0  0  0  0  0  0  0  0
  145.3042  134.5020  151.1468 C   0  0  0  0  0  0  0  0  0  0  0  0
  144.7092  133.6977  150.0034 C   0  0  0  0  0  0  0  0  0  0  0  0
  146.2497  133.9134  152.0259 C   0  0  0  0  0  0  0  0  0  0  0  0
  146.6853  132.4703  151.8375 C   0  0  0  0  0  0  0  0  0  0  0  0
  146.8079  134.6510  153.0940 C   0  0  0  0  0  0  0  0  0  0  0  0
  146.3922  135.9719  153.2447 C   0  0  0  0  0  0  0  0  0  0  0  0
  150.9817  138.3253  157.9342 C   0  0  0  0  0  0  0  0  0  0  0  0
  150.4064  137.6827  158.8132 O   0  0  0  0  0  0  0  0  0  0  0  0
  153.5252  142.7889  160.4402 H   0  0  0  0  0  0  0  0  0  0  0  0
  152.3683  143.2052  159.1784 H   0  0  0  0  0  0  0  0  0  0  0  0
  153.6549  142.0446  158.8491 H   0  0  0  0  0  0  0  0  0  0  0  0
  152.6504  140.4648  160.5244 H   0  0  0  0  0  0  0  0  0  0  0  0
  151.3743  141.6105  160.8544 H   0  0  0  0  0  0  0  0  0  0  0  0
  150.2601  140.2956  159.3352 H   0  0  0  0  0  0  0  0  0  0  0  0
  150.9427  141.4420  158.2148 H   0  0  0  0  0  0  0  0  0  0  0  0
  152.7565  139.1362  158.7805 H   0  0  0  0  0  0  0  0  0  0  0  0
  150.7703  136.5330  155.2792 H   0  0  0  0  0  0  0  0  0  0  0  0
  149.8036  136.3438  156.7073 H   0  0  0  0  0  0  0  0  0  0  0  0
  148.6233  138.6008  155.6442 H   0  0  0  0  0  0  0  0  0  0  0  0
  149.2504  137.0789  153.3954 H   0  0  0  0  0  0  0  0  0  0  0  0
  147.9882  135.6532  155.1953 H   0  0  0  0  0  0  0  0  0  0  0  0
  147.1419  136.8155  156.1800 H   0  0  0  0  0  0  0  0  0  0  0  0
  146.1049  139.0478  154.4250 H   0  0  0  0  0  0  0  0  0  0  0  0
  144.1791  136.3008  150.6444 H   0  0  0  0  0  0  0  0  0  0  0  0
  144.2009  132.8106  150.3824 H   0  0  0  0  0  0  0  0  0  0  0  0
  145.4899  133.3808  149.3114 H   0  0  0  0  0  0  0  0  0  0  0  0
  143.9809  134.2823  149.4402 H   0  0  0  0  0  0  0  0  0  0  0  0
  147.4274  132.1777  152.5812 H   0  0  0  0  0  0  0  0  0  0  0  0
  147.1288  132.3289  150.8515 H   0  0  0  0  0  0  0  0  0  0  0  0
  145.8328  131.7977  151.9352 H   0  0  0  0  0  0  0  0  0  0  0  0
  147.5318  134.2044  153.7597 H   0  0  0  0  0  0  0  0  0  0  0  0
  144.6562  138.5573  152.3615 H   0  0  0  0  0  0  0  0  0  0  0  0
  1  2  1  0  0  0  0
  1 26  1  0  0  0  0
  1 27  1  0  0  0  0
  1 28  1  0  0  0  0
  2  3  1  0  0  0  0
  2 29  1  0  0  0  0
  2 30  1  0  0  0  0
  3  4  1  0  0  0  0
  3 31  1  0  0  0  0
  3 32  1  0  0  0  0
  4 24  1  0  0  0  0
  4  5  1  0  0  0  0
  4 33  1  0  0  0  0
  5  6  1  0  0  0  0
  6  7  2  0  0  0  0
  6  8  1  0  0  0  0
  8  9  1  0  0  0  0
  8 24  1  0  0  0  0
  9 10  1  0  0  0  0
  9 34  1  0  0  0  0
  9 35  1  0  0  0  0
 10 11  1  0  0  0  0
 10 12  1  0  0  0  0
 10 36  1  0  0  0  0
 11 37  1  0  0  0  0
 12 13  1  0  0  0  0
 12 38  1  0  0  0  0
 12 39  1  0  0  0  0
 13 23  1  0  0  0  0
 13 14  1  0  0  0  0
 14 15  2  0  0  0  0
 14 40  1  0  0  0  0
 15 16  1  0  0  0  0
 15 49  1  0  0  0  0
 16 23  2  0  0  0  0
 16 17  1  0  0  0  0
 17 18  2  0  0  0  0
 17 41  1  0  0  0  0
 18 19  1  0  0  0  0
 18 20  1  0  0  0  0
 19 42  1  0  0  0  0
 19 43  1  0  0  0  0
 19 44  1  0  0  0  0
 20 21  1  0  0  0  0
 20 22  2  0  0  0  0
 21 45  1  0  0  0  0
 21 46  1  0  0  0  0
 21 47  1  0  0  0  0
 22 23  1  0  0  0  0
 22 48  1  0  0  0  0
 24 25  2  0  0  0  0
M  CHG  1   5  -1
M  CHG  1  15   1
M  END
> <s_m_source_file>
AV-unprocessed.smi

> <i_m_source_file_index>
1644

> <i_lp_mmshare_version>
43012

> <i_f3d_flags>
0

> <s_epik_input>
W0NIM11bQ0gyXVtDSDJdW0NAQEhdMVtOSF1DKD1PKU4oQzE9TylbQ0gyXVtDQEhdKFtPSF0pW0NIMl1uKFtjSF1uMiljKGMyMylbY0hdYyhbQ0gzXSljKFtjSF0zKVtDSDNd

> <s_epik_cmdline>
J2VwaWtfcHl0aG9uJywgJy1waCcsICc3LjAnLCAnLXRuJywgJzgnLCAnLW1hJywgJzIwMCcsICctbWV0YWxfYmluZGluZycsICctaW1hZScsICc8aW5maWxlLm1hZT4nLCAnLW9tYWUnLCAnPG91dGZpbGUubWFlPic=

> <r_lp_tautomer_probability>
1

> <r_epik_Ionization_Penalty>
6.86868

> <r_epik_Ionization_Penalty_Charging>
6.86868

> <r_epik_Ionization_Penalty_Neutral>
5.84798e-07

> <r_epik_State_Penalty>
6.92818

> <r_epik_Charging_Adjusted_Penalty>
13.7969

> <i_epik_Tot_Q>
0

> <i_epik_Tot_abs_Q>
2

> <r_epik_Metal_State_Penalty>
2.98017

> <b_epik_Metal_Only>
1

> <s_lp_Force_Field>
OPLS_2005

> <r_lp_Energy>
19.1239

> <b_lp_Chiralities_Consistent>
1

> <s_lp_Variant>
AV-unprocessed.smi:1644-15

> <Gold.Version>
5.8.1

> <Gold.Id.Protein>
6NUR|6NUR_protein|mol2

> <Gold.PLP.Fitness>
47.3170

> <Gold.PLP.PLP>
-32.4002

> <Gold.PLP.part.hbond>
-4.0000

> <Gold.PLP.part.metal>
0.0000

> <Gold.PLP.part.buried>
-2.5537

> <Gold.PLP.part.nonpolar>
-25.2350

> <Gold.PLP.part.repulsive>
0.0953

> <Gold.PLP.ligand.clash>
0.0000

> <Gold.PLP.ligand.torsion>
1.5864

> <Gold.PLP.Chemscore.Hbond>
6.0000

> <Gold.PLP.Chemscore.CHOScore>
0.0000

> <Gold.PLP.Chemscore.Metal>
0.0000

> <Gold.Chemscore.Hbonds>
donor molecule, donor type, donor heavy atom, donor atom, acceptor molecule, acceptor atom, score
      L1  H    11    37       P1  7948  0.98
      L1  H    15    49       P1 10175  1.48
      P1  H  7989  7998       L1     7  0.59
      P1  H  7997  8008       L1     5  1.59

> <Gold.PLP.Chemscore.Internal.Correction>
0.0895

> <Gold.Rescore>
     Score         DG    S(hbond)    S(metal)    S(lipo)     H(rot)  DE(clash)    DE(int)     intcor
     16.97     -18.79       3.61        0.00      70.20       2.72       0.12       1.70       ----

> <Gold.Chemscore.Fitness>
16.9715

> <Gold.Chemscore.DG>
-18.7915

> <Gold.Chemscore.ZeroCoef>
-5.4800

> <Gold.Chemscore.Hbond>
3.6147

> <Gold.Chemscore.Metal>
0.0000

> <Gold.Chemscore.Lipo>
70.1971

> <Gold.Chemscore.Internal_Hbond>
0.0000

> <Gold.Chemscore.DEClash>
0.1222

> <Gold.Chemscore.DEInternal>
1.6978

> <Gold.Chemscore.Rot>
2.7245

> <Gold.Chemscore.Internal.Correction>
   9.000000E+99

> <Gold.Chemscore.Hbonds>
donor molecule, donor type, donor heavy atom, donor atom, acceptor molecule, acceptor atom, score
      L1  H    11    37       P1  7948  0.92
      L1  H    15    49       P1 10175  0.71
      P1  H  7989  7998       L1     7  0.55
      P1  H  7997  8008       L1     5  0.60

> <Gold.Chemscore.Hbond.Weighted>
-12.0732

> <Gold.Chemscore.Metal.Weighted>
-0.0000

> <Gold.Chemscore.Lipo.Weighted>
-8.2131

> <Gold.Chemscore.Internal_Hbond.Weighted>
0.0000

> <Gold.Chemscore.DEClash.Weighted>
0.1222

> <Gold.Chemscore.DEInternal.Weighted>
1.6978

> <Gold.Chemscore.Rot.Weighted>
6.9748

> <Gold.Chemscore.Internal.Correction.Weighted>
   9.000000E+99

> <Gold.Protein.RotatedTorsions>
[ 6907 6896 6895 6894 ] final  109.97 input  -60.11 | X-H torsion
[ 7974 7965 7964 7962 ] final  117.38 input  175.53 | X-H torsion
[ 8008 7997 7996 7995 ] final  -42.22 input   59.86 | X-H torsion
[ 10167 10162 10161 10158 ] final  148.56 input  -65.29 | X-H torsion
[ 10718 10713 10712 10709 ] final   97.48 input   66.30 | X-H torsion
[ 10763 10752 10751 10750 ] final  156.38 input  -60.55 | X-H torsion
[ 11005 11000 10999 10996 ] final   26.55 input  -57.11 | X-H torsion

> <Gold.Protein.ActiveResidues>
 VAL166  LYS551  ARG553  GLY616  TRP617  ASP618  TYR619  PRO620  LYS621  CYS622 
 ASP623  PHE694  ASN695  SER759  ASP760  ASP761  ALA762  ILE779  LEU786  VAL792 
 PHE793  MET794  SER795  GLU796  ALA797  LYS798  CYS799  TRP800  GLU811  SER814 

> <Gold.Protein.RotatedAtoms>
  152.5042  133.8867  159.7373 H   0  0  0  0  0  0  0  0  0  0  0  0  # atno 6907 bound_to 6896
  150.9316  133.6751  159.2816 H   0  0  0  0  0  0  0  0  0  0  0  0  # atno 6908 bound_to 6896
  151.4094  135.0987  159.9633 H   0  0  0  0  0  0  0  0  0  0  0  0  # atno 6909 bound_to 6896
  145.1680  139.3117  143.4482 H   0  0  0  0  0  0  0  0  0  0  0  0  # atno 7974 bound_to 7965
  154.4000  140.1479  156.3319 H   0  0  0  0  0  0  0  0  0  0  0  0  # atno 8008 bound_to 7997
  155.8436  140.3461  155.5626 H   0  0  0  0  0  0  0  0  0  0  0  0  # atno 8009 bound_to 7997
  155.8061  140.0877  157.1921 H   0  0  0  0  0  0  0  0  0  0  0  0  # atno 8010 bound_to 7997
  139.4873  144.5670  151.7127 H   0  0  0  0  0  0  0  0  0  0  0  0  # atno 10167 bound_to 10162
  157.6912  131.0611  150.4651 H   0  0  0  0  0  0  0  0  0  0  0  0  # atno 10718 bound_to 10713
  154.1834  135.2798  155.3045 H   0  0  0  0  0  0  0  0  0  0  0  0  # atno 10763 bound_to 10752
  154.5985  135.5537  153.7353 H   0  0  0  0  0  0  0  0  0  0  0  0  # atno 10764 bound_to 10752
  153.0132  135.6386  154.1973 H   0  0  0  0  0  0  0  0  0  0  0  0  # atno 10765 bound_to 10752
  140.3358  134.2387  155.7696 H   0  0  0  0  0  0  0  0  0  0  0  0  # atno 11005 bound_to 11000
  146.3473  140.1815  142.8589 LP  0  0  0  0  0  0  0  0  0  0  0  0  # atno 17320 bound_to 7965
  145.0262  140.8834  143.5137 LP  0  0  0  0  0  0  0  0  0  0  0  0  # atno 17321 bound_to 7965
  140.5250  144.0820  150.6034 LP  0  0  0  0  0  0  0  0  0  0  0  0  # atno 17342 bound_to 10162
  140.3791  143.2812  152.0191 LP  0  0  0  0  0  0  0  0  0  0  0  0  # atno 17343 bound_to 10162
  156.4992  130.4113  149.6362 LP  0  0  0  0  0  0  0  0  0  0  0  0  # atno 17370 bound_to 10713
  156.3344  130.7348  151.2283 LP  0  0  0  0  0  0  0  0  0  0  0  0  # atno 17371 bound_to 10713
  141.2051  133.7868  157.0248 LP  0  0  0  0  0  0  0  0  0  0  0  0  # atno 17394 bound_to 11000
  140.0822  134.9641  157.1643 LP  0  0  0  0  0  0  0  0  0  0  0  0  # atno 17395 bound_to 11000

$$$$
