AV-unprocessed.smi:175|AV-procd|sdf|1429|dock2
  -GOLD-   2262019203D 1   1.00000     0.00000
 Structure written by MMmdl.
 47 50  0  0  0  0  0  0  0  0  1 V2000
  144.6458  135.3800  151.2791 C   0  0  0  0  0  0  0  0  0  0  0  0
  145.1974  134.1753  150.5008 C   0  0  2  0  0  0  0  0  0  0  0  0
  144.0837  133.4719  149.9551 O   0  0  0  0  0  0  0  0  0  0  0  0
  144.3919  132.0904  149.8958 C   0  0  0  0  0  0  0  0  0  0  0  0
  145.1489  131.8661  151.1955 C   0  0  0  0  0  0  0  0  0  0  0  0
  146.0032  133.1248  151.3163 C   0  0  1  0  0  0  0  0  0  0  0  0
  147.2211  132.8901  150.6285 O   0  0  0  0  0  0  0  0  0  0  0  0
  146.3499  133.5042  152.7799 C   0  0  0  0  0  0  0  0  0  0  0  0
  147.5542  132.8547  153.2756 N   0  0  0  0  0  0  0  0  0  0  0  0
  148.6974  133.4736  153.7253 C   0  0  0  0  0  0  0  0  0  0  0  0
  149.6454  132.6689  154.1199 N   0  0  0  0  0  0  0  0  0  0  0  0
  149.1179  131.3947  153.9375 C   0  0  0  0  0  0  0  0  0  0  0  0
  149.5979  130.0690  154.1585 C   0  0  0  0  0  0  0  0  0  0  0  0
  150.8233  129.7623  154.6578 N   0  0  0  0  0  0  0  0  0  0  0  0
  151.3832  128.4188  154.6786 C   0  0  0  0  0  0  0  0  0  0  0  0
  152.7815  128.6838  155.2063 C   0  0  0  0  0  0  0  0  0  0  0  0
  153.6030  127.7911  155.4086 O   0  0  0  0  0  0  0  0  0  0  0  0
  152.9642  129.9930  155.4118 N   0  0  0  0  0  0  0  0  0  0  0  0
  154.1725  130.6389  155.9202 C   0  0  0  0  0  0  0  0  0  0  0  0
  155.4099  130.3327  155.0571 C   0  0  0  0  0  0  0  0  0  0  0  0
  155.0625  130.3743  153.7716 F   0  0  0  0  0  0  0  0  0  0  0  0
  156.3751  131.2281  155.2625 F   0  0  0  0  0  0  0  0  0  0  0  0
  155.8768  129.1145  155.3312 F   0  0  0  0  0  0  0  0  0  0  0  0
  151.7782  130.7727  155.0988 C   0  0  0  0  0  0  0  0  0  0  0  0
  148.7619  129.0452  153.8408 N   0  0  0  0  0  0  0  0  0  0  0  0
  147.5436  129.2884  153.3507 C   0  0  0  0  0  0  0  0  0  0  0  0
  146.9665  130.4636  153.0995 N   0  0  0  0  0  0  0  0  0  0  0  0
  147.7987  131.4988  153.4077 C   0  0  0  0  0  0  0  0  0  0  0  0
  145.4481  135.9732  151.7182 H   0  0  0  0  0  0  0  0  0  0  0  0
  143.9740  135.0668  152.0787 H   0  0  0  0  0  0  0  0  0  0  0  0
  144.0806  136.0372  150.6180 H   0  0  0  0  0  0  0  0  0  0  0  0
  145.7943  134.5497  149.6667 H   0  0  0  0  0  0  0  0  0  0  0  0
  143.4925  131.4793  149.8198 H   0  0  0  0  0  0  0  0  0  0  0  0
  145.0244  131.8884  149.0299 H   0  0  0  0  0  0  0  0  0  0  0  0
  144.4285  131.8211  152.0130 H   0  0  0  0  0  0  0  0  0  0  0  0
  145.7231  130.9384  151.2064 H   0  0  0  0  0  0  0  0  0  0  0  0
  147.6006  132.0896  150.9577 H   0  0  0  0  0  0  0  0  0  0  0  0
  146.4844  134.5828  152.8719 H   0  0  0  0  0  0  0  0  0  0  0  0
  145.5318  133.2374  153.4490 H   0  0  0  0  0  0  0  0  0  0  0  0
  148.8084  134.5481  153.7461 H   0  0  0  0  0  0  0  0  0  0  0  0
  150.8318  127.7625  155.3529 H   0  0  0  0  0  0  0  0  0  0  0  0
  151.4269  127.9818  153.6802 H   0  0  0  0  0  0  0  0  0  0  0  0
  154.0091  131.7167  155.9552 H   0  0  0  0  0  0  0  0  0  0  0  0
  154.3477  130.3252  156.9505 H   0  0  0  0  0  0  0  0  0  0  0  0
  151.9905  131.4935  154.3080 H   0  0  0  0  0  0  0  0  0  0  0  0
  151.4132  131.2989  155.9821 H   0  0  0  0  0  0  0  0  0  0  0  0
  146.9463  128.4167  153.1281 H   0  0  0  0  0  0  0  0  0  0  0  0
  1  2  1  0  0  0  0
  1 29  1  0  0  0  0
  1 30  1  0  0  0  0
  1 31  1  0  0  0  0
  2  6  1  0  0  0  0
  2  3  1  0  0  0  0
  2 32  1  0  0  0  0
  3  4  1  0  0  0  0
  4  5  1  0  0  0  0
  4 33  1  0  0  0  0
  4 34  1  0  0  0  0
  5  6  1  0  0  0  0
  5 35  1  0  0  0  0
  5 36  1  0  0  0  0
  6  7  1  0  0  0  0
  6  8  1  0  0  0  0
  7 37  1  0  0  0  0
  8  9  1  0  0  0  0
  8 38  1  0  0  0  0
  8 39  1  0  0  0  0
  9 28  1  0  0  0  0
  9 10  1  0  0  0  0
 10 11  2  0  0  0  0
 10 40  1  0  0  0  0
 11 12  1  0  0  0  0
 12 28  2  0  0  0  0
 12 13  1  0  0  0  0
 13 14  1  0  0  0  0
 13 25  2  0  0  0  0
 14 24  1  0  0  0  0
 14 15  1  0  0  0  0
 15 16  1  0  0  0  0
 15 41  1  0  0  0  0
 15 42  1  0  0  0  0
 16 17  2  0  0  0  0
 16 18  1  0  0  0  0
 18 19  1  0  0  0  0
 18 24  1  0  0  0  0
 19 20  1  0  0  0  0
 19 43  1  0  0  0  0
 19 44  1  0  0  0  0
 20 21  1  0  0  0  0
 20 22  1  0  0  0  0
 20 23  1  0  0  0  0
 24 45  1  0  0  0  0
 24 46  1  0  0  0  0
 25 26  1  0  0  0  0
 26 27  2  0  0  0  0
 26 47  1  0  0  0  0
 27 28  1  0  0  0  0
M  END
> <s_m_source_file>
AV-unprocessed.smi

> <i_m_source_file_index>
175

> <i_lp_mmshare_version>
43012

> <i_f3d_flags>
0

> <s_epik_input>
W0NIMl0xW0NIMl1PW0NAQEhdKFtDSDNdKVtDQEBdMShbT0hdKVtDSDJdbihbY0hdbjIpYyhjMjMpbltjSF1uYzNONFtDSDJdQyg9TylOKFtDSDJdNClbQ0gyXUMoRikoRilG

> <s_epik_cmdline>
J2VwaWtfcHl0aG9uJywgJy1waCcsICc3LjAnLCAnLXRuJywgJzgnLCAnLW1hJywgJzIwMCcsICctbWV0YWxfYmluZGluZycsICctaW1hZScsICc8aW5maWxlLm1hZT4nLCAnLW9tYWUnLCAnPG91dGZpbGUubWFlPic=

> <r_lp_tautomer_probability>
1

> <r_epik_Ionization_Penalty>
0.000307802

> <r_epik_Ionization_Penalty_Charging>
0

> <r_epik_Ionization_Penalty_Neutral>
0.000307802

> <r_epik_State_Penalty>
-0

> <r_epik_Charging_Adjusted_Penalty>
0

> <i_epik_Tot_Q>
0

> <i_epik_Tot_abs_Q>
0

> <r_epik_Metal_State_Penalty>
-0

> <b_epik_Metal_Only>
0

> <s_epik_Chemistry_Notes>
This compound contains an acetal/aminal-like group ( X-CH(R)-Y where X, Y are N, S, or O) that may be acid/base labile, releasing an aldehyde.

> <s_lp_Force_Field>
OPLS_2005

> <r_lp_Energy>
32.9701

> <b_lp_Chiralities_Consistent>
1

> <s_lp_Variant>
AV-unprocessed.smi:175-1

> <Gold.Version>
5.8.1

> <Gold.Id.Protein>
6NUR|6NUR_protein|mol2

> <Gold.PLP.Fitness>
47.9724

> <Gold.PLP.PLP>
-44.3878

> <Gold.PLP.part.hbond>
-1.0000

> <Gold.PLP.part.metal>
0.0000

> <Gold.PLP.part.buried>
-4.5975

> <Gold.PLP.part.nonpolar>
-39.1767

> <Gold.PLP.part.repulsive>
0.5893

> <Gold.PLP.ligand.clash>
0.0000

> <Gold.PLP.ligand.torsion>
0.7890

> <Gold.PLP.Chemscore.Hbond>
0.6560

> <Gold.PLP.Chemscore.CHOScore>
1.0000

> <Gold.PLP.Chemscore.Metal>
0.0000

> <Gold.Chemscore.Hbonds>
donor molecule, donor type, donor heavy atom, donor atom, acceptor molecule, acceptor atom, score
      L1  H     7    37       P1 10747  0.66
      L1  C    10    40       P1  7948  1.00

> <Gold.PLP.Chemscore.Internal.Correction>
0.1945

> <Gold.Rescore>
     Score         DG    S(hbond)    S(metal)    S(lipo)     H(rot)  DE(clash)    DE(int)     intcor
      4.61      -8.09       0.62        0.00      60.23       2.54       0.08       3.39       ----

> <Gold.Chemscore.Fitness>
4.6139

> <Gold.Chemscore.DG>
-8.0882

> <Gold.Chemscore.ZeroCoef>
-5.4800

> <Gold.Chemscore.Hbond>
0.6161

> <Gold.Chemscore.Metal>
0.0000

> <Gold.Chemscore.Lipo>
60.2265

> <Gold.Chemscore.Internal_Hbond>
0.0000

> <Gold.Chemscore.DEClash>
0.0819

> <Gold.Chemscore.DEInternal>
3.3924

> <Gold.Chemscore.Rot>
2.5375

> <Gold.Chemscore.Internal.Correction>
   9.000000E+99

> <Gold.Chemscore.Hbonds>
donor molecule, donor type, donor heavy atom, donor atom, acceptor molecule, acceptor atom, score
      L1  H     7    37       P1 10747  0.65

> <Gold.Chemscore.Hbond.Weighted>
-2.0578

> <Gold.Chemscore.Metal.Weighted>
-0.0000

> <Gold.Chemscore.Lipo.Weighted>
-7.0465

> <Gold.Chemscore.Internal_Hbond.Weighted>
0.0000

> <Gold.Chemscore.DEClash.Weighted>
0.0819

> <Gold.Chemscore.DEInternal.Weighted>
3.3924

> <Gold.Chemscore.Rot.Weighted>
6.4961

> <Gold.Chemscore.Internal.Correction.Weighted>
   9.000000E+99

> <Gold.Protein.RotatedTorsions>
[ 6907 6896 6895 6894 ] final   40.54 input  -60.11 | X-H torsion
[ 7974 7965 7964 7962 ] final  148.03 input  175.53 | X-H torsion
[ 8008 7997 7996 7995 ] final -115.55 input   59.86 | X-H torsion
[ 10167 10162 10161 10158 ] final  161.50 input  -65.29 | X-H torsion
[ 10718 10713 10712 10709 ] final  -78.05 input   66.30 | X-H torsion
[ 10763 10752 10751 10750 ] final -120.14 input  -60.55 | X-H torsion
[ 11005 11000 10999 10996 ] final  115.02 input  -57.11 | X-H torsion

> <Gold.Protein.ActiveResidues>
 VAL166  LYS551  ARG553  GLY616  TRP617  ASP618  TYR619  PRO620  LYS621  CYS622 
 ASP623  PHE694  ASN695  SER759  ASP760  ASP761  ALA762  ILE779  LEU786  VAL792 
 PHE793  MET794  SER795  GLU796  ALA797  LYS798  CYS799  TRP800  GLU811  SER814 

> <Gold.Protein.RotatedAtoms>
  152.1838  134.8731  160.0523 H   0  0  0  0  0  0  0  0  0  0  0  0  # atno 6907 bound_to 6896
  151.9646  133.3701  159.4056 H   0  0  0  0  0  0  0  0  0  0  0  0  # atno 6908 bound_to 6896
  150.6922  134.4128  159.5213 H   0  0  0  0  0  0  0  0  0  0  0  0  # atno 6909 bound_to 6896
  144.8545  139.6102  143.5958 H   0  0  0  0  0  0  0  0  0  0  0  0  # atno 7974 bound_to 7965
  155.0539  140.0393  157.2553 H   0  0  0  0  0  0  0  0  0  0  0  0  # atno 8008 bound_to 7997
  154.7115  140.2693  155.6601 H   0  0  0  0  0  0  0  0  0  0  0  0  # atno 8009 bound_to 7997
  156.2791  140.2720  156.1758 H   0  0  0  0  0  0  0  0  0  0  0  0  # atno 8010 bound_to 7997
  139.4850  144.4530  151.8805 H   0  0  0  0  0  0  0  0  0  0  0  0  # atno 10167 bound_to 10162
  156.0128  130.4507  150.3437 H   0  0  0  0  0  0  0  0  0  0  0  0  # atno 10718 bound_to 10713
  154.8636  135.4213  154.2412 H   0  0  0  0  0  0  0  0  0  0  0  0  # atno 10763 bound_to 10752
  153.3377  135.6992  153.6899 H   0  0  0  0  0  0  0  0  0  0  0  0  # atno 10764 bound_to 10752
  153.5890  135.3558  155.2877 H   0  0  0  0  0  0  0  0  0  0  0  0  # atno 10765 bound_to 10752
  139.8997  134.9577  156.6982 H   0  0  0  0  0  0  0  0  0  0  0  0  # atno 11005 bound_to 11000
  146.2812  139.6882  142.9227 LP  0  0  0  0  0  0  0  0  0  0  0  0  # atno 17320 bound_to 7965
  145.4433  141.0424  143.2845 LP  0  0  0  0  0  0  0  0  0  0  0  0  # atno 17321 bound_to 7965
  140.3988  144.2520  150.5894 LP  0  0  0  0  0  0  0  0  0  0  0  0  # atno 17342 bound_to 10162
  140.5077  143.2299  151.8583 LP  0  0  0  0  0  0  0  0  0  0  0  0  # atno 17343 bound_to 10162
  157.1532  131.0326  151.2875 LP  0  0  0  0  0  0  0  0  0  0  0  0  # atno 17370 bound_to 10713
  157.4374  130.7525  149.7041 LP  0  0  0  0  0  0  0  0  0  0  0  0  # atno 17371 bound_to 10713
  140.7171  133.9172  155.8122 LP  0  0  0  0  0  0  0  0  0  0  0  0  # atno 17394 bound_to 11000
  141.0256  134.0829  157.4072 LP  0  0  0  0  0  0  0  0  0  0  0  0  # atno 17395 bound_to 11000

$$$$
