AV-unprocessed.smi:1464|AV-procd|sdf|5941|dock2
  -GOLD-   22720 6 23D 1   1.00000     0.00000
 Structure written by MMmdl.
 40 41  0  0  0  0  0  0  0  0  2 V2000
  151.9550  145.8688  160.3732 C   0  0  0  0  0  0  0  0  0  0  0  0
  151.6535  144.3773  160.1502 C   0  0  2  0  0  0  0  0  0  0  0  0
  152.7344  143.4747  160.7790 C   0  0  0  0  0  0  0  0  0  0  0  0
  152.3762  141.9867  160.6406 C   0  0  0  0  0  0  0  0  0  0  0  0
  152.1036  141.6051  159.1778 C   0  0  0  0  0  0  0  0  0  0  0  0
  151.0193  142.5072  158.5575 C   0  0  2  0  0  0  0  0  0  0  0  0
  150.7594  142.0925  157.1805 N   0  0  0  0  0  0  0  0  0  0  0  0
  149.5592  141.7596  156.6809 C   0  0  0  0  0  0  0  0  0  0  0  0
  148.5254  141.7729  157.3516 O   0  0  0  0  0  0  0  0  0  0  0  0
  149.5460  141.3626  155.1960 C   0  0  0  0  0  0  0  0  0  0  0  0
  150.1918  140.0727  154.9109 N   0  0  0  0  0  0  0  0  0  0  0  0
  151.6509  140.1226  154.9488 N   0  5  0  0  0  0  0  0  0  0  0  0
  152.3598  138.9973  154.6677 C   0  0  0  0  0  0  0  0  0  0  0  0
  153.5882  138.9677  154.6616 O   0  0  0  0  0  0  0  0  0  0  0  0
  151.6224  137.7809  154.3684 C   0  0  0  0  0  0  0  0  0  0  0  0
  150.2749  137.7570  154.3693 C   0  0  0  0  0  0  0  0  0  0  0  0
  149.4744  138.9404  154.6597 C   0  0  0  0  0  0  0  0  0  0  0  0
  148.2432  138.9233  154.6719 O   0  0  0  0  0  0  0  0  0  0  0  0
  151.3953  144.0113  158.6640 C   0  0  2  0  0  0  0  0  0  0  0  0
  152.5478  144.4203  157.7172 C   0  0  0  0  0  0  0  0  0  0  0  0
  152.9244  146.1529  159.9637 H   0  0  0  0  0  0  0  0  0  0  0  0
  151.9710  146.1063  161.4372 H   0  0  0  0  0  0  0  0  0  0  0  0
  151.1956  146.4980  159.9082 H   0  0  0  0  0  0  0  0  0  0  0  0
  150.7242  144.1768  160.6861 H   0  0  0  0  0  0  0  0  0  0  0  0
  153.7018  143.6653  160.3135 H   0  0  0  0  0  0  0  0  0  0  0  0
  152.8531  143.7187  161.8353 H   0  0  0  0  0  0  0  0  0  0  0  0
  153.1820  141.3712  161.0414 H   0  0  0  0  0  0  0  0  0  0  0  0
  151.4933  141.7682  161.2427 H   0  0  0  0  0  0  0  0  0  0  0  0
  153.0277  141.6742  158.6029 H   0  0  0  0  0  0  0  0  0  0  0  0
  151.7915  140.5612  159.1292 H   0  0  0  0  0  0  0  0  0  0  0  0
  150.1031  142.3453  159.1292 H   0  0  0  0  0  0  0  0  0  0  0  0
  151.5538  142.0577  156.5584 H   0  0  0  0  0  0  0  0  0  0  0  0
  148.5081  141.3484  154.8582 H   0  0  0  0  0  0  0  0  0  0  0  0
  150.0296  142.1505  154.6158 H   0  0  0  0  0  0  0  0  0  0  0  0
  152.1672  136.8759  154.1431 H   0  0  0  0  0  0  0  0  0  0  0  0
  149.7687  136.8305  154.1433 H   0  0  0  0  0  0  0  0  0  0  0  0
  150.5235  144.5841  158.3448 H   0  0  0  0  0  0  0  0  0  0  0  0
  153.4817  143.9176  157.9654 H   0  0  0  0  0  0  0  0  0  0  0  0
  152.7313  145.4935  157.7519 H   0  0  0  0  0  0  0  0  0  0  0  0
  152.3150  144.1850  156.6788 H   0  0  0  0  0  0  0  0  0  0  0  0
  1  2  1  0  0  0  0
  1 21  1  0  0  0  0
  1 22  1  0  0  0  0
  1 23  1  0  0  0  0
  2 19  1  0  0  0  0
  2  3  1  0  0  0  0
  2 24  1  0  0  0  0
  3  4  1  0  0  0  0
  3 25  1  0  0  0  0
  3 26  1  0  0  0  0
  4  5  1  0  0  0  0
  4 27  1  0  0  0  0
  4 28  1  0  0  0  0
  5  6  1  0  0  0  0
  5 29  1  0  0  0  0
  5 30  1  0  0  0  0
  6  7  1  0  0  0  0
  6 19  1  0  0  0  0
  6 31  1  0  0  0  0
  7  8  1  0  0  0  0
  7 32  1  0  0  0  0
  8  9  2  0  0  0  0
  8 10  1  0  0  0  0
 10 33  1  0  0  0  0
 10 34  1  0  0  0  0
 10 11  1  0  0  0  0
 11 12  1  0  0  0  0
 11 17  1  0  0  0  0
 12 13  1  0  0  0  0
 13 14  2  0  0  0  0
 13 15  1  0  0  0  0
 15 35  1  0  0  0  0
 15 16  2  0  0  0  0
 16 36  1  0  0  0  0
 16 17  1  0  0  0  0
 17 18  2  0  0  0  0
 19 20  1  0  0  0  0
 19 37  1  0  0  0  0
 20 38  1  0  0  0  0
 20 39  1  0  0  0  0
 20 40  1  0  0  0  0
M  CHG  1  12  -1
M  END
> <s_m_source_file>
AV-unprocessed.smi

> <i_m_source_file_index>
1464

> <i_lp_mmshare_version>
43012

> <i_f3d_flags>
0

> <s_epik_input>
W0NIM11bQ0BASF0xW0NIMl1bQ0gyXVtDSDJdW0NASF0oW0NASF0xW0NIM10pW05IXUMoPU8pW0NIMl1uMltuSF1jKD1PKVtjSF1bY0hdYzI9Tw==

> <s_epik_cmdline>
J2VwaWtfcHl0aG9uJywgJy1waCcsICc3LjAnLCAnLXRuJywgJzgnLCAnLW1hJywgJzIwMCcsICctbWV0YWxfYmluZGluZycsICctaW1hZScsICc8aW5maWxlLm1hZT4nLCAnLW9tYWUnLCAnPG91dGZpbGUubWFlPic=

> <r_lp_tautomer_probability>
1

> <r_epik_Ionization_Penalty>
0.101366

> <r_epik_Ionization_Penalty_Charging>
0.101366

> <r_epik_Ionization_Penalty_Neutral>
1.90469e-08

> <r_epik_State_Penalty>
0.035861

> <r_epik_Charging_Adjusted_Penalty>
0.137227

> <i_epik_Tot_Q>
-1

> <i_epik_Tot_abs_Q>
1

> <r_epik_Metal_State_Penalty>
0.035861

> <b_epik_Metal_Only>
0

> <s_lp_Force_Field>
OPLS_2005

> <r_lp_Energy>
29.9934

> <b_lp_Chiralities_Consistent>
1

> <s_lp_Variant>
AV-unprocessed.smi:1464-7

> <Gold.Version>
5.8.1

> <Gold.Id.Protein>
6NUR|6NUR_protein|mol2

> <Gold.PLP.Fitness>
48.4592

> <Gold.PLP.PLP>
-44.8392

> <Gold.PLP.part.hbond>
-2.0000

> <Gold.PLP.part.metal>
0.0000

> <Gold.PLP.part.buried>
-4.7312

> <Gold.PLP.part.nonpolar>
-39.1782

> <Gold.PLP.part.repulsive>
0.3158

> <Gold.PLP.ligand.clash>
0.0000

> <Gold.PLP.ligand.torsion>
0.3599

> <Gold.PLP.Chemscore.Hbond>
1.4392

> <Gold.PLP.Chemscore.CHOScore>
0.0000

> <Gold.PLP.Chemscore.Metal>
0.0000

> <Gold.Chemscore.Hbonds>
donor molecule, donor type, donor heavy atom, donor atom, acceptor molecule, acceptor atom, score
      P1  H  7989  7998       L1    12  0.50
      P1  H  7997  8009       L1    14  1.00

> <Gold.PLP.Chemscore.Internal.Correction>
0.0222

> <Gold.Rescore>
     Score         DG    S(hbond)    S(metal)    S(lipo)     H(rot)  DE(clash)    DE(int)     intcor
     15.17     -17.95       0.98        0.00     114.49       1.64       2.43       0.36       ----

> <Gold.Chemscore.Fitness>
15.1670

> <Gold.Chemscore.DG>
-17.9545

> <Gold.Chemscore.ZeroCoef>
-5.4800

> <Gold.Chemscore.Hbond>
0.9844

> <Gold.Chemscore.Metal>
0.0000

> <Gold.Chemscore.Lipo>
114.4851

> <Gold.Chemscore.Internal_Hbond>
0.0000

> <Gold.Chemscore.DEClash>
2.4294

> <Gold.Chemscore.DEInternal>
0.3581

> <Gold.Chemscore.Rot>
1.6438

> <Gold.Chemscore.Internal.Correction>
   9.000000E+99

> <Gold.Chemscore.Hbonds>
donor molecule, donor type, donor heavy atom, donor atom, acceptor molecule, acceptor atom, score
      P1  H  7989  7998       L1    12  0.01
      P1  H  7997  8009       L1    14  0.91

> <Gold.Chemscore.Hbond.Weighted>
-3.2878

> <Gold.Chemscore.Metal.Weighted>
-0.0000

> <Gold.Chemscore.Lipo.Weighted>
-13.3948

> <Gold.Chemscore.Internal_Hbond.Weighted>
0.0000

> <Gold.Chemscore.DEClash.Weighted>
2.4294

> <Gold.Chemscore.DEInternal.Weighted>
0.3581

> <Gold.Chemscore.Rot.Weighted>
4.2080

> <Gold.Chemscore.Internal.Correction.Weighted>
   9.000000E+99

> <Gold.Protein.RotatedTorsions>
[ 6907 6896 6895 6894 ] final -103.88 input  -60.11 | X-H torsion
[ 7974 7965 7964 7962 ] final -150.24 input  175.53 | X-H torsion
[ 8008 7997 7996 7995 ] final -132.96 input   59.86 | X-H torsion
[ 10167 10162 10161 10158 ] final  -91.04 input  -65.29 | X-H torsion
[ 10718 10713 10712 10709 ] final  -39.28 input   66.30 | X-H torsion
[ 10763 10752 10751 10750 ] final   61.86 input  -60.55 | X-H torsion
[ 11005 11000 10999 10996 ] final    8.24 input  -57.11 | X-H torsion

> <Gold.Protein.ActiveResidues>
 VAL166  LYS551  ARG553  GLY616  TRP617  ASP618  TYR619  PRO620  LYS621  CYS622 
 ASP623  PHE694  ASN695  SER759  ASP760  ASP761  ALA762  ILE779  LEU786  VAL792 
 PHE793  MET794  SER795  GLU796  ALA797  LYS798  CYS799  TRP800  GLU811  SER814 

> <Gold.Protein.RotatedAtoms>
  150.7261  134.0362  159.3749 H   0  0  0  0  0  0  0  0  0  0  0  0  # atno 6907 bound_to 6896
  151.8334  135.0612  160.0449 H   0  0  0  0  0  0  0  0  0  0  0  0  # atno 6908 bound_to 6896
  152.2917  133.5531  159.5598 H   0  0  0  0  0  0  0  0  0  0  0  0  # atno 6909 bound_to 6896
  144.7919  140.4957  143.5767 H   0  0  0  0  0  0  0  0  0  0  0  0  # atno 7974 bound_to 7965
  155.3376  140.0470  157.3044 H   0  0  0  0  0  0  0  0  0  0  0  0  # atno 8008 bound_to 7997
  154.5294  140.2252  155.8796 H   0  0  0  0  0  0  0  0  0  0  0  0  # atno 8009 bound_to 7997
  156.1773  140.3082  155.9089 H   0  0  0  0  0  0  0  0  0  0  0  0  # atno 8010 bound_to 7997
  140.3489  143.2902  151.9749 H   0  0  0  0  0  0  0  0  0  0  0  0  # atno 10167 bound_to 10162
  156.2942  130.4232  149.8207 H   0  0  0  0  0  0  0  0  0  0  0  0  # atno 10718 bound_to 10713
  152.9964  135.5486  154.6101 H   0  0  0  0  0  0  0  0  0  0  0  0  # atno 10763 bound_to 10752
  154.5423  135.2820  155.1086 H   0  0  0  0  0  0  0  0  0  0  0  0  # atno 10764 bound_to 10752
  154.2358  135.6425  153.5243 H   0  0  0  0  0  0  0  0  0  0  0  0  # atno 10765 bound_to 10752
  140.5393  134.0390  155.7898 H   0  0  0  0  0  0  0  0  0  0  0  0  # atno 11005 bound_to 11000
  145.5772  139.1487  143.3255 LP  0  0  0  0  0  0  0  0  0  0  0  0  # atno 17320 bound_to 7965
  146.2174  140.5904  142.9032 LP  0  0  0  0  0  0  0  0  0  0  0  0  # atno 17321 bound_to 7965
  139.4829  144.6093  151.7463 LP  0  0  0  0  0  0  0  0  0  0  0  0  # atno 17342 bound_to 10162
  140.5238  144.0838  150.6031 LP  0  0  0  0  0  0  0  0  0  0  0  0  # atno 17343 bound_to 10162
  156.5609  130.8383  151.3328 LP  0  0  0  0  0  0  0  0  0  0  0  0  # atno 17370 bound_to 10713
  157.7351  130.9756  150.2063 LP  0  0  0  0  0  0  0  0  0  0  0  0  # atno 17371 bound_to 10713
  141.1237  133.9419  157.2679 LP  0  0  0  0  0  0  0  0  0  0  0  0  # atno 17394 bound_to 11000
  139.9513  135.0175  156.9000 LP  0  0  0  0  0  0  0  0  0  0  0  0  # atno 17395 bound_to 11000

$$$$
