AV-unprocessed.smi:2646|AV-procd|sdf|10281|dock5
  -GOLD-   2272014293D 1   1.00000     0.00000
 Structure written by MMmdl.
 43 44  0  0  0  0  0  0  0  0  1 V2000
  146.5681  138.3988  155.0944 C   0  0  0  0  0  0  0  0  0  0  0  0
  147.7704  137.4230  155.0209 C   0  0  1  0  0  0  0  0  0  0  0  0
  147.8433  136.6271  156.3576 C   0  0  0  0  0  0  0  0  0  0  0  0
  146.6320  135.9620  156.6553 O   0  0  0  0  0  0  0  0  0  0  0  0
  147.5819  136.4819  153.9056 N   0  0  0  0  0  0  0  0  0  0  0  0
  146.5379  135.6781  153.6448 C   0  0  0  0  0  0  0  0  0  0  0  0
  145.5292  135.6069  154.3454 O   0  0  0  0  0  0  0  0  0  0  0  0
  146.7597  134.9544  152.5343 N   0  0  0  0  0  0  0  0  0  0  0  0
  145.9058  134.0016  151.9167 C   0  0  0  0  0  0  0  0  0  0  0  0
  144.5159  134.1330  152.1138 C   0  0  0  0  0  0  0  0  0  0  0  0
  143.6481  133.1918  151.5285 C   0  0  0  0  0  0  0  0  0  0  0  0
  144.2081  132.1444  150.7719 C   0  0  0  0  0  0  0  0  0  0  0  0
  145.5364  131.9942  150.5864 N   0  0  0  0  0  0  0  0  0  0  0  0
  146.3634  132.9014  151.1494 C   0  0  0  0  0  0  0  0  0  0  0  0
  149.0977  138.2149  154.7444 C   0  0  0  0  0  0  0  0  0  0  0  0
  150.3616  137.3127  154.7026 C   0  0  0  0  0  0  0  0  0  0  0  0
  151.6360  138.1084  154.3773 C   0  0  0  0  0  0  0  0  0  0  0  0
  151.8489  139.2536  155.3748 C   0  0  0  0  0  0  0  0  0  0  0  0
  150.6198  140.1696  155.4150 C   0  0  0  0  0  0  0  0  0  0  0  0
  149.3426  139.3798  155.7417 C   0  0  0  0  0  0  0  0  0  0  0  0
  146.7730  139.2278  155.7728 H   0  0  0  0  0  0  0  0  0  0  0  0
  145.6666  137.9074  155.4602 H   0  0  0  0  0  0  0  0  0  0  0  0
  146.3203  138.8215  154.1212 H   0  0  0  0  0  0  0  0  0  0  0  0
  148.6285  135.8720  156.3237 H   0  0  0  0  0  0  0  0  0  0  0  0
  148.0943  137.2797  157.1938 H   0  0  0  0  0  0  0  0  0  0  0  0
  146.1403  136.4940  157.2622 H   0  0  0  0  0  0  0  0  0  0  0  0
  148.3501  136.4414  153.2521 H   0  0  0  0  0  0  0  0  0  0  0  0
  147.6711  135.0567  152.1126 H   0  0  0  0  0  0  0  0  0  0  0  0
  144.1163  134.9461  152.7021 H   0  0  0  0  0  0  0  0  0  0  0  0
  142.5785  133.2705  151.6560 H   0  0  0  0  0  0  0  0  0  0  0  0
  143.5722  131.4046  150.3084 H   0  0  0  0  0  0  0  0  0  0  0  0
  147.4133  132.7130  150.9890 H   0  0  0  0  0  0  0  0  0  0  0  0
  149.0101  138.6621  153.7530 H   0  0  0  0  0  0  0  0  0  0  0  0
  150.4967  136.8027  155.6569 H   0  0  0  0  0  0  0  0  0  0  0  0
  150.2554  136.5327  153.9501 H   0  0  0  0  0  0  0  0  0  0  0  0
  152.5004  137.4438  154.3868 H   0  0  0  0  0  0  0  0  0  0  0  0
  151.5672  138.5112  153.3660 H   0  0  0  0  0  0  0  0  0  0  0  0
  152.0381  138.8467  156.3691 H   0  0  0  0  0  0  0  0  0  0  0  0
  152.7337  139.8285  155.0998 H   0  0  0  0  0  0  0  0  0  0  0  0
  150.7681  140.9566  156.1549 H   0  0  0  0  0  0  0  0  0  0  0  0
  150.5033  140.6689  154.4521 H   0  0  0  0  0  0  0  0  0  0  0  0
  148.5083  140.0795  155.7314 H   0  0  0  0  0  0  0  0  0  0  0  0
  149.4101  138.9974  156.7608 H   0  0  0  0  0  0  0  0  0  0  0  0
  1  2  1  0  0  0  0
  1 21  1  0  0  0  0
  1 22  1  0  0  0  0
  1 23  1  0  0  0  0
  2  3  1  0  0  0  0
  2  5  1  0  0  0  0
  2 15  1  0  0  0  0
  3  4  1  0  0  0  0
  3 24  1  0  0  0  0
  3 25  1  0  0  0  0
  4 26  1  0  0  0  0
  5  6  1  0  0  0  0
  5 27  1  0  0  0  0
  6  7  2  0  0  0  0
  6  8  1  0  0  0  0
  8  9  1  0  0  0  0
  8 28  1  0  0  0  0
  9 14  1  0  0  0  0
  9 10  2  0  0  0  0
 10 11  1  0  0  0  0
 10 29  1  0  0  0  0
 11 12  2  0  0  0  0
 11 30  1  0  0  0  0
 12 13  1  0  0  0  0
 12 31  1  0  0  0  0
 13 14  2  0  0  0  0
 14 32  1  0  0  0  0
 15 20  1  0  0  0  0
 15 16  1  0  0  0  0
 15 33  1  0  0  0  0
 16 17  1  0  0  0  0
 16 34  1  0  0  0  0
 16 35  1  0  0  0  0
 17 18  1  0  0  0  0
 17 36  1  0  0  0  0
 17 37  1  0  0  0  0
 18 19  1  0  0  0  0
 18 38  1  0  0  0  0
 18 39  1  0  0  0  0
 19 20  1  0  0  0  0
 19 40  1  0  0  0  0
 19 41  1  0  0  0  0
 20 42  1  0  0  0  0
 20 43  1  0  0  0  0
M  END
> <s_m_source_file>
AV-unprocessed.smi

> <i_m_source_file_index>
2646

> <i_lp_mmshare_version>
43012

> <i_f3d_flags>
0

> <s_epik_input>
W0NIMl0xW0NIMl1bQ0gyXVtDSDJdW0NIMl1bQ0hdMVtDQF0oW0NIM10pKFtDSDJdW09IXSlbTkhdQyg9TylbTkhdYzJbY0hdW2NIXVtjSF1uW2NIXTI=

> <s_epik_cmdline>
J2VwaWtfcHl0aG9uJywgJy1waCcsICc3LjAnLCAnLXRuJywgJzgnLCAnLW1hJywgJzIwMCcsICctbWV0YWxfYmluZGluZycsICctaW1hZScsICc8aW5maWxlLm1hZT4nLCAnLW9tYWUnLCAnPG91dGZpbGUubWFlPic=

> <r_epik_Ionization_Penalty>
0.00498697

> <r_epik_Ionization_Penalty_Charging>
0

> <r_epik_Ionization_Penalty_Neutral>
0.00498697

> <r_epik_State_Penalty>
0.00359645

> <r_epik_Charging_Adjusted_Penalty>
0.00359645

> <i_epik_Tot_Q>
0

> <i_epik_Tot_abs_Q>
0

> <r_epik_Metal_State_Penalty>
-0

> <b_epik_Metal_Only>
0

> <s_lp_Force_Field>
OPLS_2005

> <r_lp_Energy>
21.3241

> <b_lp_Chiralities_Consistent>
1

> <s_lp_Variant>
AV-unprocessed.smi:2646-1

> <Gold.Version>
5.8.1

> <Gold.Id.Protein>
6NUR|6NUR_protein|mol2

> <Gold.PLP.Fitness>
35.6608

> <Gold.PLP.PLP>
-27.5108

> <Gold.PLP.part.hbond>
-1.8337

> <Gold.PLP.part.metal>
0.0000

> <Gold.PLP.part.buried>
-3.5790

> <Gold.PLP.part.nonpolar>
-22.5115

> <Gold.PLP.part.repulsive>
0.1603

> <Gold.PLP.ligand.clash>
0.0000

> <Gold.PLP.ligand.torsion>
0.2679

> <Gold.PLP.Chemscore.Hbond>
1.8800

> <Gold.PLP.Chemscore.CHOScore>
1.0000

> <Gold.PLP.Chemscore.Metal>
0.0000

> <Gold.Chemscore.Hbonds>
donor molecule, donor type, donor heavy atom, donor atom, acceptor molecule, acceptor atom, score
      L1  H     5    27       P1  7948  0.99
      L1  H     8    28       P1  7948  0.88
      L1  C    14    32       P1 10747  1.00

> <Gold.PLP.Chemscore.Internal.Correction>
0.0457

> <Gold.Rescore>
     Score         DG    S(hbond)    S(metal)    S(lipo)     H(rot)  DE(clash)    DE(int)     intcor
     10.54     -14.86       1.93        0.00      68.32       1.98       0.02       4.30       ----

> <Gold.Chemscore.Fitness>
10.5351

> <Gold.Chemscore.DG>
-14.8579

> <Gold.Chemscore.ZeroCoef>
-5.4800

> <Gold.Chemscore.Hbond>
1.9320

> <Gold.Chemscore.Metal>
0.0000

> <Gold.Chemscore.Lipo>
68.3188

> <Gold.Chemscore.Internal_Hbond>
0.0000

> <Gold.Chemscore.DEClash>
0.0204

> <Gold.Chemscore.DEInternal>
4.3025

> <Gold.Chemscore.Rot>
1.9798

> <Gold.Chemscore.Internal.Correction>
   9.000000E+99

> <Gold.Chemscore.Hbonds>
donor molecule, donor type, donor heavy atom, donor atom, acceptor molecule, acceptor atom, score
      L1  H     5    27       P1  7948  0.90
      L1  H     8    28       P1  7948  0.78

> <Gold.Chemscore.Hbond.Weighted>
-6.4528

> <Gold.Chemscore.Metal.Weighted>
-0.0000

> <Gold.Chemscore.Lipo.Weighted>
-7.9933

> <Gold.Chemscore.Internal_Hbond.Weighted>
0.0000

> <Gold.Chemscore.DEClash.Weighted>
0.0204

> <Gold.Chemscore.DEInternal.Weighted>
4.3025

> <Gold.Chemscore.Rot.Weighted>
5.0682

> <Gold.Chemscore.Internal.Correction.Weighted>
   9.000000E+99

> <Gold.Protein.RotatedTorsions>
[ 6907 6896 6895 6894 ] final  -12.61 input  -60.11 | X-H torsion
[ 7974 7965 7964 7962 ] final -111.48 input  175.53 | X-H torsion
[ 8008 7997 7996 7995 ] final  -74.20 input   59.86 | X-H torsion
[ 10167 10162 10161 10158 ] final  -76.57 input  -65.29 | X-H torsion
[ 10718 10713 10712 10709 ] final  110.98 input   66.30 | X-H torsion
[ 10763 10752 10751 10750 ] final  -63.62 input  -60.55 | X-H torsion
[ 11005 11000 10999 10996 ] final -178.32 input  -57.11 | X-H torsion

> <Gold.Protein.ActiveResidues>
 VAL166  LYS551  ARG553  GLY616  TRP617  ASP618  TYR619  PRO620  LYS621  CYS622 
 ASP623  PHE694  ASN695  SER759  ASP760  ASP761  ALA762  ILE779  LEU786  VAL792 
 PHE793  MET794  SER795  GLU796  ALA797  LYS798  CYS799  TRP800  GLU811  SER814 

> <Gold.Protein.RotatedAtoms>
  151.3678  135.0916  159.9455 H   0  0  0  0  0  0  0  0  0  0  0  0  # atno 6907 bound_to 6896
  152.5144  133.9195  159.7537 H   0  0  0  0  0  0  0  0  0  0  0  0  # atno 6908 bound_to 6896
  150.9602  133.6399  159.2785 H   0  0  0  0  0  0  0  0  0  0  0  0  # atno 6909 bound_to 6896
  145.1555  140.8851  143.3621 H   0  0  0  0  0  0  0  0  0  0  0  0  # atno 7974 bound_to 7965
  154.5311  140.0765  156.8346 H   0  0  0  0  0  0  0  0  0  0  0  0  # atno 8008 bound_to 7997
  155.3374  140.3405  155.4221 H   0  0  0  0  0  0  0  0  0  0  0  0  # atno 8009 bound_to 7997
  156.1782  140.1643  156.8311 H   0  0  0  0  0  0  0  0  0  0  0  0  # atno 8010 bound_to 7997
  140.4845  143.2394  151.8005 H   0  0  0  0  0  0  0  0  0  0  0  0  # atno 10167 bound_to 10162
  157.6467  131.0942  150.6682 H   0  0  0  0  0  0  0  0  0  0  0  0  # atno 10718 bound_to 10713
  154.3177  135.6202  153.5494 H   0  0  0  0  0  0  0  0  0  0  0  0  # atno 10763 bound_to 10752
  152.9823  135.5716  154.5105 H   0  0  0  0  0  0  0  0  0  0  0  0  # atno 10764 bound_to 10752
  154.4767  135.2861  155.1578 H   0  0  0  0  0  0  0  0  0  0  0  0  # atno 10765 bound_to 10752
  140.4311  134.6518  157.4712 H   0  0  0  0  0  0  0  0  0  0  0  0  # atno 11005 bound_to 11000
  145.0385  139.3280  143.5988 LP  0  0  0  0  0  0  0  0  0  0  0  0  # atno 17320 bound_to 7965
  146.3489  139.9750  142.8702 LP  0  0  0  0  0  0  0  0  0  0  0  0  # atno 17321 bound_to 7965
  139.4839  144.4729  151.9402 LP  0  0  0  0  0  0  0  0  0  0  0  0  # atno 17342 bound_to 10162
  140.3815  144.2730  150.5908 LP  0  0  0  0  0  0  0  0  0  0  0  0  # atno 17343 bound_to 10162
  156.6998  130.4620  149.5576 LP  0  0  0  0  0  0  0  0  0  0  0  0  # atno 17370 bound_to 10713
  156.1803  130.6494  151.0944 LP  0  0  0  0  0  0  0  0  0  0  0  0  # atno 17371 bound_to 10713
  140.0134  134.6656  155.9346 LP  0  0  0  0  0  0  0  0  0  0  0  0  # atno 17394 bound_to 11000
  141.1745  133.6539  156.4777 LP  0  0  0  0  0  0  0  0  0  0  0  0  # atno 17395 bound_to 11000

$$$$
