AV-unprocessed.smi:1565|AV-procd|sdf|6299|dock9
  -GOLD-   22720 6503D 1   1.00000     0.00000
 Structure written by MMmdl.
 40 41  0  0  0  0  0  0  0  0  1 V2000
  144.6438  132.2855  149.8590 C   0  0  0  0  0  0  0  0  0  0  0  0
  145.6729  131.6413  150.7938 C   0  0  1  0  0  0  0  0  0  0  0  0
  146.2956  132.6692  151.7554 C   0  0  0  0  0  0  0  0  0  0  0  0
  147.1705  132.0025  152.7141 N   0  0  0  0  0  0  0  0  0  0  0  0
  148.0488  132.8451  153.4286 C   0  0  0  0  0  0  0  0  0  0  0  0
  149.2315  132.3182  153.9985 C   0  0  0  0  0  0  0  0  0  0  0  0
  150.0970  133.1767  154.7030 C   0  0  0  0  0  0  0  0  0  0  0  0
  149.7670  134.5432  154.8183 C   0  0  0  0  0  0  0  0  0  0  0  0
  150.6557  135.4831  155.5806 C   0  0  0  0  0  0  0  0  0  0  0  0
  151.6640  135.0708  156.1542 O   0  0  0  0  0  0  0  0  0  0  0  0
  150.3059  136.7786  155.5356 N   0  0  0  0  0  0  0  0  0  0  0  0
  151.0495  137.8714  156.1541 C   0  0  0  0  0  0  0  0  0  0  0  0
  151.5899  138.8635  155.1103 C   0  0  0  0  0  0  0  0  0  0  0  0
  150.5928  139.2452  154.3134 F   0  0  0  0  0  0  0  0  0  0  0  0
  152.1004  139.9446  155.6994 F   0  0  0  0  0  0  0  0  0  0  0  0
  152.5317  138.2824  154.3668 F   0  0  0  0  0  0  0  0  0  0  0  0
  148.5558  134.9739  154.2325 C   0  0  0  0  0  0  0  0  0  0  0  0
  147.7229  134.1548  153.5567 N   0  0  0  0  0  0  0  0  0  0  0  0
  146.5080  130.9230  153.4427 C   0  0  0  0  0  0  0  0  0  0  0  0
  145.8451  129.9261  152.4723 C   0  0  2  0  0  0  0  0  0  0  0  0
  146.8495  128.9955  151.7691 C   0  0  0  0  0  0  0  0  0  0  0  0
  145.0116  130.6226  151.5432 O   0  0  0  0  0  0  0  0  0  0  0  0
  145.1004  133.0680  149.2524 H   0  0  0  0  0  0  0  0  0  0  0  0
  143.8244  132.7329  150.4224 H   0  0  0  0  0  0  0  0  0  0  0  0
  144.2173  131.5458  149.1809 H   0  0  0  0  0  0  0  0  0  0  0  0
  146.4545  131.1965  150.1776 H   0  0  0  0  0  0  0  0  0  0  0  0
  146.8290  133.4218  151.1763 H   0  0  0  0  0  0  0  0  0  0  0  0
  145.5118  133.1918  152.3055 H   0  0  0  0  0  0  0  0  0  0  0  0
  149.4760  131.2695  153.9167 H   0  0  0  0  0  0  0  0  0  0  0  0
  151.0011  132.7832  155.1445 H   0  0  0  0  0  0  0  0  0  0  0  0
  149.4757  137.0290  155.0186 H   0  0  0  0  0  0  0  0  0  0  0  0
  150.3748  138.3894  156.8365 H   0  0  0  0  0  0  0  0  0  0  0  0
  151.8644  137.4827  156.7670 H   0  0  0  0  0  0  0  0  0  0  0  0
  148.2347  136.0028  154.3050 H   0  0  0  0  0  0  0  0  0  0  0  0
  147.2195  130.3957  154.0799 H   0  0  0  0  0  0  0  0  0  0  0  0
  145.7494  131.3561  154.0965 H   0  0  0  0  0  0  0  0  0  0  0  0
  145.1815  129.2878  153.0563 H   0  0  0  0  0  0  0  0  0  0  0  0
  147.3758  128.3769  152.4961 H   0  0  0  0  0  0  0  0  0  0  0  0
  147.6043  129.5478  151.2100 H   0  0  0  0  0  0  0  0  0  0  0  0
  146.3400  128.3268  151.0751 H   0  0  0  0  0  0  0  0  0  0  0  0
  1  2  1  0  0  0  0
  1 23  1  0  0  0  0
  1 24  1  0  0  0  0
  1 25  1  0  0  0  0
  2 22  1  0  0  0  0
  2  3  1  0  0  0  0
  2 26  1  0  0  0  0
  3  4  1  0  0  0  0
  3 27  1  0  0  0  0
  3 28  1  0  0  0  0
  4  5  1  0  0  0  0
  4 19  1  0  0  0  0
  5 18  1  0  0  0  0
  5  6  2  0  0  0  0
  6  7  1  0  0  0  0
  6 29  1  0  0  0  0
  7  8  2  0  0  0  0
  7 30  1  0  0  0  0
  8  9  1  0  0  0  0
  8 17  1  0  0  0  0
  9 10  2  0  0  0  0
  9 11  1  0  0  0  0
 11 12  1  0  0  0  0
 11 31  1  0  0  0  0
 12 13  1  0  0  0  0
 12 32  1  0  0  0  0
 12 33  1  0  0  0  0
 13 14  1  0  0  0  0
 13 15  1  0  0  0  0
 13 16  1  0  0  0  0
 17 18  2  0  0  0  0
 17 34  1  0  0  0  0
 19 20  1  0  0  0  0
 19 35  1  0  0  0  0
 19 36  1  0  0  0  0
 20 21  1  0  0  0  0
 20 22  1  0  0  0  0
 20 37  1  0  0  0  0
 21 38  1  0  0  0  0
 21 39  1  0  0  0  0
 21 40  1  0  0  0  0
M  END
> <s_m_source_file>
AV-unprocessed.smi

> <i_m_source_file_index>
1565

> <i_lp_mmshare_version>
43012

> <i_f3d_flags>
0

> <s_epik_input>
W0NIM11bQ0BASF0xW0NIMl1OKFtDSDJdW0NASF0oTzEpW0NIM10pYzJbY0hdW2NIXWMoW2NIXW4yKUMoPU8pW05IXVtDSDJdQyhGKShGKUY=

> <s_epik_cmdline>
J2VwaWtfcHl0aG9uJywgJy1waCcsICc3LjAnLCAnLXRuJywgJzgnLCAnLW1hJywgJzIwMCcsICctbWV0YWxfYmluZGluZycsICctaW1hZScsICc8aW5maWxlLm1hZT4nLCAnLW9tYWUnLCAnPG91dGZpbGUubWFlPic=

> <r_lp_tautomer_probability>
1

> <r_epik_Ionization_Penalty>
1.48031e-05

> <r_epik_Ionization_Penalty_Charging>
0

> <r_epik_Ionization_Penalty_Neutral>
1.48031e-05

> <r_epik_State_Penalty>
-0

> <r_epik_Charging_Adjusted_Penalty>
0

> <i_epik_Tot_Q>
0

> <i_epik_Tot_abs_Q>
0

> <r_epik_Metal_State_Penalty>
0.00620302

> <b_epik_Metal_Only>
0

> <s_lp_Force_Field>
OPLS_2005

> <r_lp_Energy>
19.4369

> <b_lp_Chiralities_Consistent>
1

> <s_lp_Variant>
AV-unprocessed.smi:1565-3

> <Gold.Version>
5.8.1

> <Gold.Id.Protein>
6NUR|6NUR_protein|mol2

> <Gold.PLP.Fitness>
42.2841

> <Gold.PLP.PLP>
-39.6105

> <Gold.PLP.part.hbond>
-1.0000

> <Gold.PLP.part.metal>
0.0000

> <Gold.PLP.part.buried>
-1.8376

> <Gold.PLP.part.nonpolar>
-36.2858

> <Gold.PLP.part.repulsive>
1.4413

> <Gold.PLP.ligand.clash>
0.0000

> <Gold.PLP.ligand.torsion>
0.4159

> <Gold.PLP.Chemscore.Hbond>
1.0000

> <Gold.PLP.Chemscore.CHOScore>
0.0560

> <Gold.PLP.Chemscore.Metal>
0.0000

> <Gold.Chemscore.Hbonds>
donor molecule, donor type, donor heavy atom, donor atom, acceptor molecule, acceptor atom, score
      P1  H 10752 10765       L1    10  1.00
      L1  C    17    34       P1  7948  0.11

> <Gold.PLP.Chemscore.Internal.Correction>
0.3375

> <Gold.Rescore>
     Score         DG    S(hbond)    S(metal)    S(lipo)     H(rot)  DE(clash)    DE(int)     intcor
     13.00     -14.54       1.00        0.00      77.53       1.31       0.81       0.74       ----

> <Gold.Chemscore.Fitness>
12.9955

> <Gold.Chemscore.DG>
-14.5423

> <Gold.Chemscore.ZeroCoef>
-5.4800

> <Gold.Chemscore.Hbond>
0.9977

> <Gold.Chemscore.Metal>
0.0000

> <Gold.Chemscore.Lipo>
77.5323

> <Gold.Chemscore.Internal_Hbond>
0.0000

> <Gold.Chemscore.DEClash>
0.8069

> <Gold.Chemscore.DEInternal>
0.7399

> <Gold.Chemscore.Rot>
1.3052

> <Gold.Chemscore.Internal.Correction>
   9.000000E+99

> <Gold.Chemscore.Hbonds>
donor molecule, donor type, donor heavy atom, donor atom, acceptor molecule, acceptor atom, score
      P1  H 10752 10765       L1    10  0.70

> <Gold.Chemscore.Hbond.Weighted>
-3.3325

> <Gold.Chemscore.Metal.Weighted>
-0.0000

> <Gold.Chemscore.Lipo.Weighted>
-9.0713

> <Gold.Chemscore.Internal_Hbond.Weighted>
0.0000

> <Gold.Chemscore.DEClash.Weighted>
0.8069

> <Gold.Chemscore.DEInternal.Weighted>
0.7399

> <Gold.Chemscore.Rot.Weighted>
3.3414

> <Gold.Chemscore.Internal.Correction.Weighted>
   9.000000E+99

> <Gold.Protein.RotatedTorsions>
[ 6907 6896 6895 6894 ] final  -76.14 input  -60.11 | X-H torsion
[ 7974 7965 7964 7962 ] final -112.35 input  175.53 | X-H torsion
[ 8008 7997 7996 7995 ] final  146.54 input   59.86 | X-H torsion
[ 10167 10162 10161 10158 ] final   14.79 input  -65.29 | X-H torsion
[ 10718 10713 10712 10709 ] final  -51.88 input   66.30 | X-H torsion
[ 10763 10752 10751 10750 ] final -145.58 input  -60.55 | X-H torsion
[ 11005 11000 10999 10996 ] final  -66.21 input  -57.11 | X-H torsion

> <Gold.Protein.ActiveResidues>
 VAL166  LYS551  ARG553  GLY616  TRP617  ASP618  TYR619  PRO620  LYS621  CYS622 
 ASP623  PHE694  ASN695  SER759  ASP760  ASP761  ALA762  ILE779  LEU786  VAL792 
 PHE793  MET794  SER795  GLU796  ALA797  LYS798  CYS799  TRP800  GLU811  SER814 

> <Gold.Protein.RotatedAtoms>
  150.7037  134.4617  159.5383 H   0  0  0  0  0  0  0  0  0  0  0  0  # atno 6907 bound_to 6896
  152.2290  134.8337  160.0485 H   0  0  0  0  0  0  0  0  0  0  0  0  # atno 6908 bound_to 6896
  151.9160  133.3538  159.3917 H   0  0  0  0  0  0  0  0  0  0  0  0  # atno 6909 bound_to 6896
  145.1451  140.8799  143.3679 H   0  0  0  0  0  0  0  0  0  0  0  0  # atno 7974 bound_to 7965
  156.2852  140.2179  156.5394 H   0  0  0  0  0  0  0  0  0  0  0  0  # atno 8008 bound_to 7997
  154.7383  140.0490  157.0810 H   0  0  0  0  0  0  0  0  0  0  0  0  # atno 8009 bound_to 7997
  155.0264  140.3130  155.4777 H   0  0  0  0  0  0  0  0  0  0  0  0  # atno 8010 bound_to 7997
  140.5911  143.8793  150.6875 H   0  0  0  0  0  0  0  0  0  0  0  0  # atno 10167 bound_to 10162
  156.1671  130.4149  149.9704 H   0  0  0  0  0  0  0  0  0  0  0  0  # atno 10718 bound_to 10713
  154.8377  135.3409  154.6526 H   0  0  0  0  0  0  0  0  0  0  0  0  # atno 10763 bound_to 10752
  153.7140  135.6962  153.5034 H   0  0  0  0  0  0  0  0  0  0  0  0  # atno 10764 bound_to 10752
  153.2431  135.4378  155.0672 H   0  0  0  0  0  0  0  0  0  0  0  0  # atno 10765 bound_to 10752
  141.1476  133.6695  156.6104 H   0  0  0  0  0  0  0  0  0  0  0  0  # atno 11005 bound_to 11000
  145.0491  139.3196  143.5938 LP  0  0  0  0  0  0  0  0  0  0  0  0  # atno 17320 bound_to 7965
  146.3501  139.9892  142.8687 LP  0  0  0  0  0  0  0  0  0  0  0  0  # atno 17321 bound_to 7965
  140.2316  143.3731  152.1561 LP  0  0  0  0  0  0  0  0  0  0  0  0  # atno 17342 bound_to 10162
  139.5228  144.7064  151.5342 LP  0  0  0  0  0  0  0  0  0  0  0  0  # atno 17343 bound_to 10162
  156.7515  130.9117  151.3637 LP  0  0  0  0  0  0  0  0  0  0  0  0  # atno 17370 bound_to 10713
  157.6776  130.9109  150.0187 LP  0  0  0  0  0  0  0  0  0  0  0  0  # atno 17371 bound_to 10713
  140.3619  134.7680  157.4539 LP  0  0  0  0  0  0  0  0  0  0  0  0  # atno 17394 bound_to 11000
  140.0779  134.5772  155.8572 LP  0  0  0  0  0  0  0  0  0  0  0  0  # atno 17395 bound_to 11000

$$$$
