AV-unprocessed.smi:1468|AV-procd|sdf|5957|dock1
  -GOLD-   22720 6 43D 1   1.00000     0.00000
 Structure written by MMmdl.
 35 36  0  0  0  0  0  0  0  0  1 V2000
  151.3950  140.5766  155.2197 O   0  0  0  0  0  0  0  0  0  0  0  0
  150.4335  140.5818  155.9879 C   0  0  0  0  0  0  0  0  0  0  0  0
  149.1330  139.8834  155.5859 C   0  0  0  0  0  0  0  0  0  0  0  0
  148.1343  140.8335  155.1271 N   0  0  0  0  0  0  0  0  0  0  0  0
  148.0737  141.4991  153.9215 C   0  0  0  0  0  0  0  0  0  0  0  0
  146.9536  142.2794  153.9450 C   0  0  0  0  0  0  0  0  0  0  0  0
  146.3777  142.0216  155.2229 C   0  0  0  0  0  0  0  0  0  0  0  0
  145.1174  142.5972  155.8135 C   0  0  0  0  0  0  0  0  0  0  0  0
  144.5872  143.4970  154.9851 F   0  0  0  0  0  0  0  0  0  0  0  0
  144.2273  141.6264  156.0189 F   0  0  0  0  0  0  0  0  0  0  0  0
  145.3888  143.1916  156.9752 F   0  0  0  0  0  0  0  0  0  0  0  0
  147.0935  141.1536  155.9256 N   0  0  0  0  0  0  0  0  0  0  0  0
  150.4541  141.1662  157.1965 N   0  0  0  0  0  0  0  0  0  0  0  0
  151.5954  141.8672  157.7765 C   0  0  0  0  0  0  0  0  0  0  0  0
  152.0040  141.2194  159.1155 C   0  0  0  0  0  0  0  0  0  0  0  0
  153.1589  141.9856  159.7803 C   0  0  0  0  0  0  0  0  0  0  0  0
  152.8058  143.4685  159.9729 C   0  0  0  0  0  0  0  0  0  0  0  0
  152.4000  144.1197  158.6410 C   0  0  0  0  0  0  0  0  0  0  0  0
  151.2453  143.3542  157.9737 C   0  0  0  0  0  0  0  0  0  0  0  0
  149.3251  139.1688  154.7845 H   0  0  0  0  0  0  0  0  0  0  0  0
  148.7424  139.3178  156.4335 H   0  0  0  0  0  0  0  0  0  0  0  0
  148.8248  141.3636  153.1570 H   0  0  0  0  0  0  0  0  0  0  0  0
  146.5968  142.9350  153.1647 H   0  0  0  0  0  0  0  0  0  0  0  0
  149.6149  141.1205  157.7568 H   0  0  0  0  0  0  0  0  0  0  0  0
  152.4387  141.8091  157.0851 H   0  0  0  0  0  0  0  0  0  0  0  0
  151.1484  141.1991  159.7920 H   0  0  0  0  0  0  0  0  0  0  0  0
  152.2978  140.1809  158.9584 H   0  0  0  0  0  0  0  0  0  0  0  0
  153.4002  141.5323  160.7422 H   0  0  0  0  0  0  0  0  0  0  0  0
  154.0547  141.8997  159.1642 H   0  0  0  0  0  0  0  0  0  0  0  0
  151.9879  143.5597  160.6890 H   0  0  0  0  0  0  0  0  0  0  0  0
  153.6548  144.0000  160.4036 H   0  0  0  0  0  0  0  0  0  0  0  0
  152.1102  145.1575  158.8082 H   0  0  0  0  0  0  0  0  0  0  0  0
  153.2591  144.1429  157.9693 H   0  0  0  0  0  0  0  0  0  0  0  0
  151.0080  143.8128  157.0128 H   0  0  0  0  0  0  0  0  0  0  0  0
  150.3490  143.4456  158.5891 H   0  0  0  0  0  0  0  0  0  0  0  0
  1  2  2  0  0  0  0
  2  3  1  0  0  0  0
  2 13  1  0  0  0  0
  3  4  1  0  0  0  0
  3 20  1  0  0  0  0
  3 21  1  0  0  0  0
  4 12  1  0  0  0  0
  4  5  1  0  0  0  0
  5  6  2  0  0  0  0
  5 22  1  0  0  0  0
  6  7  1  0  0  0  0
  6 23  1  0  0  0  0
  7  8  1  0  0  0  0
  7 12  2  0  0  0  0
  8  9  1  0  0  0  0
  8 10  1  0  0  0  0
  8 11  1  0  0  0  0
 13 14  1  0  0  0  0
 13 24  1  0  0  0  0
 14 19  1  0  0  0  0
 14 15  1  0  0  0  0
 14 25  1  0  0  0  0
 15 16  1  0  0  0  0
 15 26  1  0  0  0  0
 15 27  1  0  0  0  0
 16 17  1  0  0  0  0
 16 28  1  0  0  0  0
 16 29  1  0  0  0  0
 17 18  1  0  0  0  0
 17 30  1  0  0  0  0
 17 31  1  0  0  0  0
 18 19  1  0  0  0  0
 18 32  1  0  0  0  0
 18 33  1  0  0  0  0
 19 34  1  0  0  0  0
 19 35  1  0  0  0  0
M  END
> <s_m_source_file>
AV-unprocessed.smi

> <i_m_source_file_index>
1468

> <i_lp_mmshare_version>
43012

> <i_f3d_flags>
0

> <s_epik_input>
W0NIMl0xW0NIMl1bQ0gyXVtDSDJdW0NIMl1bQ0hdMVtOSF1DKD1PKVtDSDJdbjJbY0hdW2NIXWMobjIpQyhGKShGKUY=

> <s_epik_cmdline>
J2VwaWtfcHl0aG9uJywgJy1waCcsICc3LjAnLCAnLXRuJywgJzgnLCAnLW1hJywgJzIwMCcsICctbWV0YWxfYmluZGluZycsICctaW1hZScsICc8aW5maWxlLm1hZT4nLCAnLW9tYWUnLCAnPG91dGZpbGUubWFlPic=

> <r_lp_tautomer_probability>
1

> <r_epik_Ionization_Penalty>
8.28732e-08

> <r_epik_Ionization_Penalty_Charging>
0

> <r_epik_Ionization_Penalty_Neutral>
8.28732e-08

> <r_epik_State_Penalty>
-0

> <r_epik_Charging_Adjusted_Penalty>
0

> <i_epik_Tot_Q>
0

> <i_epik_Tot_abs_Q>
0

> <r_epik_Metal_State_Penalty>
-0

> <b_epik_Metal_Only>
0

> <s_lp_Force_Field>
OPLS_2005

> <r_lp_Energy>
10.9617

> <b_lp_Chiralities_Consistent>
1

> <s_lp_Variant>
AV-unprocessed.smi:1468-1

> <Gold.Version>
5.8.1

> <Gold.Id.Protein>
6NUR|6NUR_protein|mol2

> <Gold.PLP.Fitness>
43.6089

> <Gold.PLP.PLP>
-38.9074

> <Gold.PLP.part.hbond>
-1.0000

> <Gold.PLP.part.metal>
0.0000

> <Gold.PLP.part.buried>
-5.5399

> <Gold.PLP.part.nonpolar>
-32.3001

> <Gold.PLP.part.repulsive>
0.1249

> <Gold.PLP.ligand.clash>
0.0000

> <Gold.PLP.ligand.torsion>
0.5002

> <Gold.PLP.Chemscore.Hbond>
0.8960

> <Gold.PLP.Chemscore.CHOScore>
1.0000

> <Gold.PLP.Chemscore.Metal>
0.0000

> <Gold.Chemscore.Hbonds>
donor molecule, donor type, donor heavy atom, donor atom, acceptor molecule, acceptor atom, score
      P1  H  7989  7998       L1     1  0.85
      L1  C     5    22       P1  7957  1.00

> <Gold.PLP.Chemscore.Internal.Correction>
0.0139

> <Gold.Rescore>
     Score         DG    S(hbond)    S(metal)    S(lipo)     H(rot)  DE(clash)    DE(int)     intcor
     15.07     -15.65       0.93        0.00      94.31       1.56       0.02       0.56       ----

> <Gold.Chemscore.Fitness>
15.0725

> <Gold.Chemscore.DG>
-15.6491

> <Gold.Chemscore.ZeroCoef>
-5.4800

> <Gold.Chemscore.Hbond>
0.9337

> <Gold.Chemscore.Metal>
0.0000

> <Gold.Chemscore.Lipo>
94.3122

> <Gold.Chemscore.Internal_Hbond>
0.0000

> <Gold.Chemscore.DEClash>
0.0158

> <Gold.Chemscore.DEInternal>
0.5608

> <Gold.Chemscore.Rot>
1.5563

> <Gold.Chemscore.Internal.Correction>
   9.000000E+99

> <Gold.Chemscore.Hbonds>
donor molecule, donor type, donor heavy atom, donor atom, acceptor molecule, acceptor atom, score
      P1  H  7989  7998       L1     1  0.85

> <Gold.Chemscore.Hbond.Weighted>
-3.1186

> <Gold.Chemscore.Metal.Weighted>
-0.0000

> <Gold.Chemscore.Lipo.Weighted>
-11.0345

> <Gold.Chemscore.Internal_Hbond.Weighted>
0.0000

> <Gold.Chemscore.DEClash.Weighted>
0.0158

> <Gold.Chemscore.DEInternal.Weighted>
0.5608

> <Gold.Chemscore.Rot.Weighted>
3.9841

> <Gold.Chemscore.Internal.Correction.Weighted>
   9.000000E+99

> <Gold.Protein.RotatedTorsions>
[ 6907 6896 6895 6894 ] final   44.14 input  -60.11 | X-H torsion
[ 7974 7965 7964 7962 ] final  -30.86 input  175.53 | X-H torsion
[ 8008 7997 7996 7995 ] final   69.37 input   59.86 | X-H torsion
[ 10167 10162 10161 10158 ] final  -53.32 input  -65.29 | X-H torsion
[ 10718 10713 10712 10709 ] final  156.62 input   66.30 | X-H torsion
[ 10763 10752 10751 10750 ] final  -12.37 input  -60.55 | X-H torsion
[ 11005 11000 10999 10996 ] final  -73.01 input  -57.11 | X-H torsion

> <Gold.Protein.ActiveResidues>
 VAL166  LYS551  ARG553  GLY616  TRP617  ASP618  TYR619  PRO620  LYS621  CYS622 
 ASP623  PHE694  ASN695  SER759  ASP760  ASP761  ALA762  ILE779  LEU786  VAL792 
 PHE793  MET794  SER795  GLU796  ALA797  LYS798  CYS799  TRP800  GLU811  SER814 

> <Gold.Protein.RotatedAtoms>
  152.2288  134.8342  160.0476 H   0  0  0  0  0  0  0  0  0  0  0  0  # atno 6907 bound_to 6896
  151.9098  133.3553  159.3868 H   0  0  0  0  0  0  0  0  0  0  0  0  # atno 6908 bound_to 6896
  150.7020  134.4669  159.5451 H   0  0  0  0  0  0  0  0  0  0  0  0  # atno 6909 bound_to 6896
  146.1111  140.5594  142.8777 H   0  0  0  0  0  0  0  0  0  0  0  0  # atno 7974 bound_to 7965
  155.7226  140.3493  155.5023 H   0  0  0  0  0  0  0  0  0  0  0  0  # atno 8008 bound_to 7997
  155.9255  140.1075  157.1195 H   0  0  0  0  0  0  0  0  0  0  0  0  # atno 8009 bound_to 7997
  154.4076  140.1241  156.4722 H   0  0  0  0  0  0  0  0  0  0  0  0  # atno 8010 bound_to 7997
  140.6491  143.2554  151.4776 H   0  0  0  0  0  0  0  0  0  0  0  0  # atno 10167 bound_to 10162
  157.2026  131.0679  151.2016 H   0  0  0  0  0  0  0  0  0  0  0  0  # atno 10718 bound_to 10713
  153.4974  135.7017  153.5850 H   0  0  0  0  0  0  0  0  0  0  0  0  # atno 10763 bound_to 10752
  153.3996  135.3875  155.1979 H   0  0  0  0  0  0  0  0  0  0  0  0  # atno 10764 bound_to 10752
  154.8713  135.3878  154.4441 H   0  0  0  0  0  0  0  0  0  0  0  0  # atno 10765 bound_to 10752
  141.1617  133.6864  156.7146 H   0  0  0  0  0  0  0  0  0  0  0  0  # atno 11005 bound_to 11000
  144.7512  140.5196  143.6800 LP  0  0  0  0  0  0  0  0  0  0  0  0  # atno 17320 bound_to 7965
  145.5662  139.1481  143.3314 LP  0  0  0  0  0  0  0  0  0  0  0  0  # atno 17321 bound_to 7965
  139.5704  144.1942  152.1827 LP  0  0  0  0  0  0  0  0  0  0  0  0  # atno 17342 bound_to 10162
  140.1237  144.5350  150.6846 LP  0  0  0  0  0  0  0  0  0  0  0  0  # atno 17343 bound_to 10162
  157.3752  130.7202  149.6592 LP  0  0  0  0  0  0  0  0  0  0  0  0  # atno 17370 bound_to 10713
  155.9699  130.4187  150.4343 LP  0  0  0  0  0  0  0  0  0  0  0  0  # atno 17371 bound_to 10713
  140.2862  134.8277  157.3976 LP  0  0  0  0  0  0  0  0  0  0  0  0  # atno 17394 bound_to 11000
  140.1388  134.4998  155.8047 LP  0  0  0  0  0  0  0  0  0  0  0  0  # atno 17395 bound_to 11000

$$$$
