AV-unprocessed.smi:3225|AV-procd|sdf|12312|dock6
  -GOLD-   2272018153D 1   1.00000     0.00000
 Structure written by MMmdl.
 41 42  0  0  0  0  0  0  0  0  2 V2000
  144.5257  135.5868  153.5002 C   0  0  0  0  0  0  0  0  0  0  0  0
  145.7583  135.6628  152.5844 C   0  0  1  0  0  0  0  0  0  0  0  0
  145.4130  135.4682  151.0938 C   0  0  0  0  0  0  0  0  0  0  0  0
  145.2475  134.0731  150.7271 N   0  0  0  0  0  0  0  0  0  0  0  0
  144.1006  133.4192  150.3275 C   0  0  0  0  0  0  0  0  0  0  0  0
  144.4390  132.1192  150.0831 C   0  0  0  0  0  0  0  0  0  0  0  0
  145.8345  132.0751  150.3575 C   0  0  0  0  0  0  0  0  0  0  0  0
  146.3157  133.2468  150.7409 N   0  0  0  0  0  0  0  0  0  0  0  0
  146.4444  136.9597  152.7734 N   0  3  0  0  0  0  0  0  0  0  0  0
  146.4904  137.4365  154.1701 C   0  0  0  0  0  0  0  0  0  0  0  0
  146.6923  138.9557  154.2294 C   0  0  0  0  0  0  0  0  0  0  0  0
  148.0961  139.3761  153.7625 C   0  0  0  0  0  0  0  0  0  0  0  0
  148.7680  140.2119  154.7544 N   0  0  0  0  0  0  0  0  0  0  0  0
  148.0056  141.0980  155.6184 C   0  0  0  0  0  0  0  0  0  0  0  0
  149.0244  141.6605  156.6211 C   0  0  0  0  0  0  0  0  0  0  0  0
  150.4048  141.2393  156.1049 C   0  0  0  0  0  0  0  0  0  0  0  0
  150.0842  140.2573  154.9917 C   0  0  0  0  0  0  0  0  0  0  0  0
  150.9484  139.6078  154.4046 O   0  0  0  0  0  0  0  0  0  0  0  0
  144.0417  134.6117  153.4393 H   0  0  0  0  0  0  0  0  0  0  0  0
  143.7862  136.3429  153.2346 H   0  0  0  0  0  0  0  0  0  0  0  0
  144.8030  135.7436  154.5433 H   0  0  0  0  0  0  0  0  0  0  0  0
  146.4345  134.8593  152.8819 H   0  0  0  0  0  0  0  0  0  0  0  0
  144.4927  135.9997  150.8464 H   0  0  0  0  0  0  0  0  0  0  0  0
  146.1968  135.8938  150.4654 H   0  0  0  0  0  0  0  0  0  0  0  0
  143.1495  133.9258  150.2535 H   0  0  0  0  0  0  0  0  0  0  0  0
  143.7888  131.3214  149.7556 H   0  0  0  0  0  0  0  0  0  0  0  0
  146.5074  131.2329  150.2890 H   0  0  0  0  0  0  0  0  0  0  0  0
  147.3921  136.8703  152.4353 H   0  0  0  0  0  0  0  0  0  0  0  0
  145.5608  137.1646  154.6720 H   0  0  0  0  0  0  0  0  0  0  0  0
  147.3037  136.9316  154.6936 H   0  0  0  0  0  0  0  0  0  0  0  0
  145.9362  139.4435  153.6125 H   0  0  0  0  0  0  0  0  0  0  0  0
  146.5317  139.3058  155.2504 H   0  0  0  0  0  0  0  0  0  0  0  0
  148.7026  138.4912  153.5653 H   0  0  0  0  0  0  0  0  0  0  0  0
  148.0324  139.9195  152.8183 H   0  0  0  0  0  0  0  0  0  0  0  0
  147.5622  141.8945  155.0194 H   0  0  0  0  0  0  0  0  0  0  0  0
  147.2015  140.5616  156.1239 H   0  0  0  0  0  0  0  0  0  0  0  0
  148.9409  142.7442  156.7098 H   0  0  0  0  0  0  0  0  0  0  0  0
  148.8514  141.2380  157.6116 H   0  0  0  0  0  0  0  0  0  0  0  0
  150.9549  142.0876  155.6965 H   0  0  0  0  0  0  0  0  0  0  0  0
  151.0087  140.7712  156.8829 H   0  0  0  0  0  0  0  0  0  0  0  0
  145.9700  137.6547  152.2148 H   0  0  0  0  0  0  0  0  0  0  0  0
  1  2  1  0  0  0  0
  1 19  1  0  0  0  0
  1 20  1  0  0  0  0
  1 21  1  0  0  0  0
  2  3  1  0  0  0  0
  2  9  1  0  0  0  0
  2 22  1  0  0  0  0
  3  4  1  0  0  0  0
  3 23  1  0  0  0  0
  3 24  1  0  0  0  0
  4  8  1  0  0  0  0
  4  5  1  0  0  0  0
  5  6  2  0  0  0  0
  5 25  1  0  0  0  0
  6  7  1  0  0  0  0
  6 26  1  0  0  0  0
  7  8  2  0  0  0  0
  7 27  1  0  0  0  0
  9 10  1  0  0  0  0
  9 28  1  0  0  0  0
  9 41  1  0  0  0  0
 10 11  1  0  0  0  0
 10 29  1  0  0  0  0
 10 30  1  0  0  0  0
 11 12  1  0  0  0  0
 11 31  1  0  0  0  0
 11 32  1  0  0  0  0
 12 13  1  0  0  0  0
 12 33  1  0  0  0  0
 12 34  1  0  0  0  0
 13 17  1  0  0  0  0
 13 14  1  0  0  0  0
 14 15  1  0  0  0  0
 14 35  1  0  0  0  0
 14 36  1  0  0  0  0
 15 16  1  0  0  0  0
 15 37  1  0  0  0  0
 15 38  1  0  0  0  0
 16 17  1  0  0  0  0
 16 39  1  0  0  0  0
 16 40  1  0  0  0  0
 17 18  2  0  0  0  0
M  CHG  1   9   1
M  END
> <s_m_source_file>
AV-unprocessed.smi

> <i_m_source_file_index>
3225

> <i_lp_mmshare_version>
43012

> <i_f3d_flags>
0

> <s_epik_input>
bjFbY0hdW2NIXVtjSF1uMVtDSDJdW0NAQEhdKFtDSDNdKVtOSF1bQ0gyXVtDSDJdW0NIMl1OMltDSDJdW0NIMl1bQ0gyXUMyPU8=

> <s_epik_cmdline>
J2VwaWtfcHl0aG9uJywgJy1waCcsICc3LjAnLCAnLXRuJywgJzgnLCAnLW1hJywgJzIwMCcsICctbWV0YWxfYmluZGluZycsICctaW1hZScsICc8aW5maWxlLm1hZT4nLCAnLW9tYWUnLCAnPG91dGZpbGUubWFlPic=

> <r_lp_tautomer_probability>
1

> <r_epik_Ionization_Penalty>
0.00490443

> <r_epik_Ionization_Penalty_Charging>
0.00490019

> <r_epik_Ionization_Penalty_Neutral>
4.24076e-06

> <r_epik_State_Penalty>
0.00355741

> <r_epik_Charging_Adjusted_Penalty>
0.0084576

> <i_epik_Tot_Q>
1

> <i_epik_Tot_abs_Q>
1

> <r_epik_Metal_State_Penalty>
-0

> <b_epik_Metal_Only>
0

> <s_lp_Force_Field>
OPLS_2005

> <r_lp_Energy>
22.636

> <b_lp_Chiralities_Consistent>
1

> <s_lp_Variant>
AV-unprocessed.smi:3225-2

> <Gold.Version>
5.8.1

> <Gold.Id.Protein>
6NUR|6NUR_protein|mol2

> <Gold.PLP.Fitness>
42.3235

> <Gold.PLP.PLP>
-29.8910

> <Gold.PLP.part.hbond>
-2.0000

> <Gold.PLP.part.metal>
0.0000

> <Gold.PLP.part.buried>
-3.2894

> <Gold.PLP.part.nonpolar>
-24.7135

> <Gold.PLP.part.repulsive>
0.3556

> <Gold.PLP.ligand.clash>
0.0000

> <Gold.PLP.ligand.torsion>
1.3133

> <Gold.PLP.Chemscore.Hbond>
3.0000

> <Gold.PLP.Chemscore.CHOScore>
2.0000

> <Gold.PLP.Chemscore.Metal>
0.0000

> <Gold.Chemscore.Hbonds>
donor molecule, donor type, donor heavy atom, donor atom, acceptor molecule, acceptor atom, score
      L1  H     9    28       P1  7948  2.00
      P1  H  7989  7998       L1    18  0.95
      L1  C     5    25       P1 10186  1.00
      L1  C     7    27       P1 10747  1.00

> <Gold.PLP.Chemscore.Internal.Correction>
0.0591

> <Gold.Rescore>
     Score         DG    S(hbond)    S(metal)    S(lipo)     H(rot)  DE(clash)    DE(int)     intcor
     13.02     -14.22       1.99        0.00      65.85       2.19       0.03       1.16       ----

> <Gold.Chemscore.Fitness>
13.0202

> <Gold.Chemscore.DG>
-14.2151

> <Gold.Chemscore.ZeroCoef>
-5.4800

> <Gold.Chemscore.Hbond>
1.9858

> <Gold.Chemscore.Metal>
0.0000

> <Gold.Chemscore.Lipo>
65.8542

> <Gold.Chemscore.Internal_Hbond>
0.0000

> <Gold.Chemscore.DEClash>
0.0310

> <Gold.Chemscore.DEInternal>
1.1640

> <Gold.Chemscore.Rot>
2.1884

> <Gold.Chemscore.Internal.Correction>
   9.000000E+99

> <Gold.Chemscore.Hbonds>
donor molecule, donor type, donor heavy atom, donor atom, acceptor molecule, acceptor atom, score
      L1  H     9    28       P1  7948  1.00
      P1  H  7989  7998       L1    18  0.22

> <Gold.Chemscore.Hbond.Weighted>
-6.6325

> <Gold.Chemscore.Metal.Weighted>
-0.0000

> <Gold.Chemscore.Lipo.Weighted>
-7.7049

> <Gold.Chemscore.Internal_Hbond.Weighted>
0.0000

> <Gold.Chemscore.DEClash.Weighted>
0.0310

> <Gold.Chemscore.DEInternal.Weighted>
1.1640

> <Gold.Chemscore.Rot.Weighted>
5.6023

> <Gold.Chemscore.Internal.Correction.Weighted>
   9.000000E+99

> <Gold.Protein.RotatedTorsions>
[ 6907 6896 6895 6894 ] final    1.07 input  -60.11 | X-H torsion
[ 7974 7965 7964 7962 ] final  104.31 input  175.53 | X-H torsion
[ 8008 7997 7996 7995 ] final  -93.26 input   59.86 | X-H torsion
[ 10167 10162 10161 10158 ] final  -21.57 input  -65.29 | X-H torsion
[ 10718 10713 10712 10709 ] final  150.48 input   66.30 | X-H torsion
[ 10763 10752 10751 10750 ] final -159.30 input  -60.55 | X-H torsion
[ 11005 11000 10999 10996 ] final  177.90 input  -57.11 | X-H torsion

> <Gold.Protein.ActiveResidues>
 VAL166  LYS551  ARG553  GLY616  TRP617  ASP618  TYR619  PRO620  LYS621  CYS622 
 ASP623  PHE694  ASN695  SER759  ASP760  ASP761  ALA762  ILE779  LEU786  VAL792 
 PHE793  MET794  SER795  GLU796  ALA797  LYS798  CYS799  TRP800  GLU811  SER814 

> <Gold.Protein.RotatedAtoms>
  151.5866  135.1055  160.0029 H   0  0  0  0  0  0  0  0  0  0  0  0  # atno 6907 bound_to 6896
  152.4327  133.7302  159.6593 H   0  0  0  0  0  0  0  0  0  0  0  0  # atno 6908 bound_to 6896
  150.8221  133.8164  159.3157 H   0  0  0  0  0  0  0  0  0  0  0  0  # atno 6909 bound_to 6896
  145.3345  139.2478  143.3643 H   0  0  0  0  0  0  0  0  0  0  0  0  # atno 7974 bound_to 7965
  154.7334  140.0501  157.0746 H   0  0  0  0  0  0  0  0  0  0  0  0  # atno 8008 bound_to 7997
  155.0272  140.3154  155.4752 H   0  0  0  0  0  0  0  0  0  0  0  0  # atno 8009 bound_to 7997
  156.2847  140.2156  156.5392 H   0  0  0  0  0  0  0  0  0  0  0  0  # atno 8010 bound_to 7997
  140.7282  143.4616  151.0372 H   0  0  0  0  0  0  0  0  0  0  0  0  # atno 10167 bound_to 10162
  157.2830  131.0839  151.1518 H   0  0  0  0  0  0  0  0  0  0  0  0  # atno 10718 bound_to 10713
  154.7486  135.3086  154.8599 H   0  0  0  0  0  0  0  0  0  0  0  0  # atno 10763 bound_to 10752
  153.9393  135.6776  153.4748 H   0  0  0  0  0  0  0  0  0  0  0  0  # atno 10764 bound_to 10752
  153.1082  135.4879  154.8916 H   0  0  0  0  0  0  0  0  0  0  0  0  # atno 10765 bound_to 10752
  140.3892  134.6877  157.4497 H   0  0  0  0  0  0  0  0  0  0  0  0  # atno 11005 bound_to 11000
  146.3032  140.3929  142.8696 LP  0  0  0  0  0  0  0  0  0  0  0  0  # atno 17320 bound_to 7965
  144.8838  140.7436  143.5969 LP  0  0  0  0  0  0  0  0  0  0  0  0  # atno 17321 bound_to 7965
  139.8301  143.7703  152.3179 LP  0  0  0  0  0  0  0  0  0  0  0  0  # atno 17342 bound_to 10162
  139.7815  144.7442  151.0081 LP  0  0  0  0  0  0  0  0  0  0  0  0  # atno 17343 bound_to 10162
  157.2944  130.6812  149.6131 LP  0  0  0  0  0  0  0  0  0  0  0  0  # atno 17370 bound_to 10713
  155.9665  130.4411  150.5326 LP  0  0  0  0  0  0  0  0  0  0  0  0  # atno 17371 bound_to 10713
  140.0419  134.6254  155.8969 LP  0  0  0  0  0  0  0  0  0  0  0  0  # atno 17394 bound_to 11000
  141.1897  133.6566  156.5378 LP  0  0  0  0  0  0  0  0  0  0  0  0  # atno 17395 bound_to 11000

$$$$
