AV-unprocessed.smi:1554|AV-procd|sdf|6245|dock2
  -GOLD-   22720 6423D 1   1.00000     0.00000
 Structure written by MMmdl.
 48 50  0  0  0  0  0  0  0  0  2 V2000
  152.6801  143.3025  161.5190 C   0  0  0  0  0  0  0  0  0  0  0  0
  152.2089  142.9470  160.1198 C   0  0  0  0  0  0  0  0  0  0  0  0
  152.0081  141.5884  159.7871 C   0  0  0  0  0  0  0  0  0  0  0  0
  151.5675  141.2157  158.4981 C   0  0  0  0  0  0  0  0  0  0  0  0
  151.3069  139.9655  157.9636 N   0  0  0  0  0  0  0  0  0  0  0  0
  150.9281  140.2759  156.7274 C   0  0  0  0  0  0  0  0  0  0  0  0
  150.9111  141.5815  156.3968 N   0  0  0  0  0  0  0  0  0  0  0  0
  150.5293  142.1533  155.1175 C   0  0  0  0  0  0  0  0  0  0  0  0
  149.2986  141.4572  154.5042 C   0  0  1  0  0  0  0  0  0  0  0  0
  149.6802  140.2005  153.9767 O   0  0  0  0  0  0  0  0  0  0  0  0
  148.1840  141.2361  155.5455 C   0  0  0  0  0  0  0  0  0  0  0  0
  147.1738  142.3251  155.5323 N   0  3  1  0  0  0  0  0  0  0  0  0
  146.4670  142.4347  154.2347 C   0  0  0  0  0  0  0  0  0  0  0  0
  145.4901  143.6217  154.2569 C   0  0  0  0  0  0  0  0  0  0  0  0
  144.5760  143.4672  155.3356 O   0  0  0  0  0  0  0  0  0  0  0  0
  145.2305  143.4472  156.5996 C   0  0  1  0  0  0  0  0  0  0  0  0
  144.1588  143.3696  157.6925 C   0  0  0  0  0  0  0  0  0  0  0  0
  146.1973  142.2479  156.6470 C   0  0  0  0  0  0  0  0  0  0  0  0
  151.3318  142.2479  157.5433 C   0  0  0  0  0  0  0  0  0  0  0  0
  151.5298  143.6032  157.8620 C   0  0  0  0  0  0  0  0  0  0  0  0
  151.9698  143.9579  159.1544 C   0  0  0  0  0  0  0  0  0  0  0  0
  152.1808  145.4242  159.4882 C   0  0  0  0  0  0  0  0  0  0  0  0
  152.8201  142.4110  162.1313 H   0  0  0  0  0  0  0  0  0  0  0  0
  151.9483  143.9383  162.0180 H   0  0  0  0  0  0  0  0  0  0  0  0
  153.6313  143.8339  161.4787 H   0  0  0  0  0  0  0  0  0  0  0  0
  152.1903  140.8181  160.5220 H   0  0  0  0  0  0  0  0  0  0  0  0
  150.6439  139.5101  156.0206 H   0  0  0  0  0  0  0  0  0  0  0  0
  150.3415  143.2191  155.2544 H   0  0  0  0  0  0  0  0  0  0  0  0
  151.3816  142.0734  154.4415 H   0  0  0  0  0  0  0  0  0  0  0  0
  148.9308  142.0707  153.6819 H   0  0  0  0  0  0  0  0  0  0  0  0
  149.3737  140.1397  153.0845 H   0  0  0  0  0  0  0  0  0  0  0  0
  147.6990  140.2812  155.3360 H   0  0  0  0  0  0  0  0  0  0  0  0
  148.6063  141.1479  156.5478 H   0  0  0  0  0  0  0  0  0  0  0  0
  147.1888  142.5715  153.4284 H   0  0  0  0  0  0  0  0  0  0  0  0
  145.9278  141.5081  154.0308 H   0  0  0  0  0  0  0  0  0  0  0  0
  146.0268  144.5673  154.3513 H   0  0  0  0  0  0  0  0  0  0  0  0
  144.9301  143.6660  153.3227 H   0  0  0  0  0  0  0  0  0  0  0  0
  145.7897  144.3758  156.7285 H   0  0  0  0  0  0  0  0  0  0  0  0
  144.6098  143.3609  158.6850 H   0  0  0  0  0  0  0  0  0  0  0  0
  143.5555  142.4669  157.5907 H   0  0  0  0  0  0  0  0  0  0  0  0
  143.4869  144.2266  157.6412 H   0  0  0  0  0  0  0  0  0  0  0  0
  145.6393  141.3125  156.5779 H   0  0  0  0  0  0  0  0  0  0  0  0
  146.7155  142.2395  157.6055 H   0  0  0  0  0  0  0  0  0  0  0  0
  151.3429  144.3636  157.1188 H   0  0  0  0  0  0  0  0  0  0  0  0
  151.9173  146.0657  158.6468 H   0  0  0  0  0  0  0  0  0  0  0  0
  153.2255  145.6110  159.7380 H   0  0  0  0  0  0  0  0  0  0  0  0
  151.5630  145.7174  160.3373 H   0  0  0  0  0  0  0  0  0  0  0  0
  147.6875  143.1877  155.6473 H   0  0  0  0  0  0  0  0  0  0  0  0
  1  2  1  0  0  0  0
  1 23  1  0  0  0  0
  1 24  1  0  0  0  0
  1 25  1  0  0  0  0
  2 21  1  0  0  0  0
  2  3  2  0  0  0  0
  3  4  1  0  0  0  0
  3 26  1  0  0  0  0
  4 19  2  0  0  0  0
  4  5  1  0  0  0  0
  5  6  2  0  0  0  0
  6  7  1  0  0  0  0
  6 27  1  0  0  0  0
  7  8  1  0  0  0  0
  7 19  1  0  0  0  0
  8  9  1  0  0  0  0
  8 28  1  0  0  0  0
  8 29  1  0  0  0  0
  9 10  1  0  0  0  0
  9 11  1  0  0  0  0
  9 30  1  0  0  0  0
 10 31  1  0  0  0  0
 11 12  1  0  0  0  0
 11 32  1  0  0  0  0
 11 33  1  0  0  0  0
 12 18  1  0  0  0  0
 12 13  1  0  0  0  0
 12 48  1  0  0  0  0
 13 14  1  0  0  0  0
 13 34  1  0  0  0  0
 13 35  1  0  0  0  0
 14 15  1  0  0  0  0
 14 36  1  0  0  0  0
 14 37  1  0  0  0  0
 15 16  1  0  0  0  0
 16 17  1  0  0  0  0
 16 18  1  0  0  0  0
 16 38  1  0  0  0  0
 17 39  1  0  0  0  0
 17 40  1  0  0  0  0
 17 41  1  0  0  0  0
 18 42  1  0  0  0  0
 18 43  1  0  0  0  0
 19 20  1  0  0  0  0
 20 21  2  0  0  0  0
 20 44  1  0  0  0  0
 21 22  1  0  0  0  0
 22 45  1  0  0  0  0
 22 46  1  0  0  0  0
 22 47  1  0  0  0  0
M  CHG  1  12   1
M  END
> <s_m_source_file>
AV-unprocessed.smi

> <i_m_source_file_index>
1554

> <i_lp_mmshare_version>
43012

> <i_f3d_flags>
0

> <s_epik_input>
W0NIM11jKFtjSF0xKWMoW0NIM10pW2NIXWMoYzEyKW4oW2NIXW4yKVtDSDJdW0NASF0oW09IXSlbQ0gyXU4zW0NIMl1bQ0gyXU9bQ0BASF0oW0NIM10pW0NIMl0z

> <s_epik_cmdline>
J2VwaWtfcHl0aG9uJywgJy1waCcsICc3LjAnLCAnLXRuJywgJzgnLCAnLW1hJywgJzIwMCcsICctbWV0YWxfYmluZGluZycsICctaW1hZScsICc8aW5maWxlLm1hZT4nLCAnLW9tYWUnLCAnPG91dGZpbGUubWFlPic=

> <r_epik_Ionization_Penalty>
0.695251

> <r_epik_Ionization_Penalty_Charging>
0.608065

> <r_epik_Ionization_Penalty_Neutral>
0.0871863

> <r_epik_State_Penalty>
0.731955

> <r_epik_Charging_Adjusted_Penalty>
1.34002

> <i_epik_Tot_Q>
1

> <i_epik_Tot_abs_Q>
1

> <r_epik_Metal_State_Penalty>
0.652186

> <b_epik_Metal_Only>
0

> <s_lp_Force_Field>
OPLS_2005

> <r_lp_Energy>
21.5252

> <b_lp_Chiralities_Consistent>
1

> <s_lp_Variant>
AV-unprocessed.smi:1554-6

> <Gold.Version>
5.8.1

> <Gold.Id.Protein>
6NUR|6NUR_protein|mol2

> <Gold.PLP.Fitness>
50.6489

> <Gold.PLP.PLP>
-42.1750

> <Gold.PLP.part.hbond>
-3.0000

> <Gold.PLP.part.metal>
0.0000

> <Gold.PLP.part.buried>
-1.7235

> <Gold.PLP.part.nonpolar>
-37.3472

> <Gold.PLP.part.repulsive>
0.2108

> <Gold.PLP.ligand.clash>
0.0000

> <Gold.PLP.ligand.torsion>
0.8738

> <Gold.PLP.Chemscore.Hbond>
3.3931

> <Gold.PLP.Chemscore.CHOScore>
0.0000

> <Gold.PLP.Chemscore.Metal>
0.0000

> <Gold.Chemscore.Hbonds>
donor molecule, donor type, donor heavy atom, donor atom, acceptor molecule, acceptor atom, score
      L1  H    10    31       P1  7957  1.00
      L1  H    12    48       P1  8028  2.00
      P1  H  7989  7998       L1    10  0.30

> <Gold.PLP.Chemscore.Internal.Correction>
0.0422

> <Gold.Rescore>
     Score         DG    S(hbond)    S(metal)    S(lipo)     H(rot)  DE(clash)    DE(int)     intcor
     15.81     -20.71       1.70        0.00     126.54       2.05       3.14       1.75       ----

> <Gold.Chemscore.Fitness>
15.8099

> <Gold.Chemscore.DG>
-20.7088

> <Gold.Chemscore.ZeroCoef>
-5.4800

> <Gold.Chemscore.Hbond>
1.7017

> <Gold.Chemscore.Metal>
0.0000

> <Gold.Chemscore.Lipo>
126.5354

> <Gold.Chemscore.Internal_Hbond>
0.0000

> <Gold.Chemscore.DEClash>
3.1443

> <Gold.Chemscore.DEInternal>
1.7546

> <Gold.Chemscore.Rot>
2.0546

> <Gold.Chemscore.Internal.Correction>
   9.000000E+99

> <Gold.Chemscore.Hbonds>
donor molecule, donor type, donor heavy atom, donor atom, acceptor molecule, acceptor atom, score
      L1  H    10    31       P1  7957  0.97
      L1  H    12    48       P1  8028  0.30

> <Gold.Chemscore.Hbond.Weighted>
-5.6838

> <Gold.Chemscore.Metal.Weighted>
-0.0000

> <Gold.Chemscore.Lipo.Weighted>
-14.8046

> <Gold.Chemscore.Internal_Hbond.Weighted>
0.0000

> <Gold.Chemscore.DEClash.Weighted>
3.1443

> <Gold.Chemscore.DEInternal.Weighted>
1.7546

> <Gold.Chemscore.Rot.Weighted>
5.2597

> <Gold.Chemscore.Internal.Correction.Weighted>
   9.000000E+99

> <Gold.Protein.RotatedTorsions>
[ 6907 6896 6895 6894 ] final  -78.13 input  -60.11 | X-H torsion
[ 7974 7965 7964 7962 ] final -144.82 input  175.53 | X-H torsion
[ 8008 7997 7996 7995 ] final -169.26 input   59.86 | X-H torsion
[ 10167 10162 10161 10158 ] final   60.01 input  -65.29 | X-H torsion
[ 10718 10713 10712 10709 ] final -140.13 input   66.30 | X-H torsion
[ 10763 10752 10751 10750 ] final -167.38 input  -60.55 | X-H torsion
[ 11005 11000 10999 10996 ] final  -65.72 input  -57.11 | X-H torsion

> <Gold.Protein.ActiveResidues>
 VAL166  LYS551  ARG553  GLY616  TRP617  ASP618  TYR619  PRO620  LYS621  CYS622 
 ASP623  PHE694  ASN695  SER759  ASP760  ASP761  ALA762  ILE779  LEU786  VAL792 
 PHE793  MET794  SER795  GLU796  ALA797  LYS798  CYS799  TRP800  GLU811  SER814 

> <Gold.Protein.RotatedAtoms>
  150.6980  134.4318  159.5251 H   0  0  0  0  0  0  0  0  0  0  0  0  # atno 6907 bound_to 6896
  152.2043  134.8556  160.0513 H   0  0  0  0  0  0  0  0  0  0  0  0  # atno 6908 bound_to 6896
  151.9465  133.3618  159.4021 H   0  0  0  0  0  0  0  0  0  0  0  0  # atno 6909 bound_to 6896
  144.8270  140.5662  143.5540 H   0  0  0  0  0  0  0  0  0  0  0  0  # atno 7974 bound_to 7965
  155.9026  140.1043  157.1339 H   0  0  0  0  0  0  0  0  0  0  0  0  # atno 8008 bound_to 7997
  154.4028  140.1289  156.4519 H   0  0  0  0  0  0  0  0  0  0  0  0  # atno 8009 bound_to 7997
  155.7405  140.3467  155.5104 H   0  0  0  0  0  0  0  0  0  0  0  0  # atno 8010 bound_to 7997
  140.1703  144.4284  150.6665 H   0  0  0  0  0  0  0  0  0  0  0  0  # atno 10167 bound_to 10162
  156.3188  130.7522  151.1615 H   0  0  0  0  0  0  0  0  0  0  0  0  # atno 10718 bound_to 10713
  154.6737  135.2943  154.9707 H   0  0  0  0  0  0  0  0  0  0  0  0  # atno 10763 bound_to 10752
  154.0725  135.6616  153.4830 H   0  0  0  0  0  0  0  0  0  0  0  0  # atno 10764 bound_to 10752
  153.0503  135.5178  154.7746 H   0  0  0  0  0  0  0  0  0  0  0  0  # atno 10765 bound_to 10752
  141.1462  133.6686  156.6029 H   0  0  0  0  0  0  0  0  0  0  0  0  # atno 11005 bound_to 11000
  145.4977  139.1485  143.3674 LP  0  0  0  0  0  0  0  0  0  0  0  0  # atno 17320 bound_to 7965
  146.2575  140.5117  142.8867 LP  0  0  0  0  0  0  0  0  0  0  0  0  # atno 17321 bound_to 7965
  140.6586  143.2245  151.5909 LP  0  0  0  0  0  0  0  0  0  0  0  0  # atno 17342 bound_to 10162
  139.5341  144.2831  152.1213 LP  0  0  0  0  0  0  0  0  0  0  0  0  # atno 17343 bound_to 10162
  157.7407  131.0513  150.5146 LP  0  0  0  0  0  0  0  0  0  0  0  0  # atno 17370 bound_to 10713
  156.5296  130.4181  149.6208 LP  0  0  0  0  0  0  0  0  0  0  0  0  # atno 17371 bound_to 10713
  140.3674  134.7635  157.4575 LP  0  0  0  0  0  0  0  0  0  0  0  0  # atno 17394 bound_to 11000
  140.0737  134.5827  155.8614 LP  0  0  0  0  0  0  0  0  0  0  0  0  # atno 17395 bound_to 11000

$$$$
