#       Name:                AV-unprocessed.smi:1417
#       Creating user name   scv26
#       Creation time:       Fri Mar 27 05:40:39 2020


#       File generated by GOLD software.
#

@<TRIPOS>MOLECULE
AV-unprocessed.smi:1417
    47    48     1
SMALL
NO_CHARGES


@<TRIPOS>ATOM
      1 ****        -6.0807   4.3645   0.4104 C.3            1 S1                 0.0000
      2 ****        -5.3767   3.0547   0.5114 C.2            1 S1                 0.0000
      3 ****        -4.0554   2.7064   0.5161 C.2            1 S1                 0.0000
      4 ****        -4.0995   1.2869   0.6391 C.2            1 S1                 0.0000
      5 ****        -2.9841   0.4110   0.6846 N.am           1 S1                 0.0000
      6 ****        -1.6768   0.7211   0.6700 C.2            1 S1                 0.0000
      7 ****        -1.2140   1.8613   0.6402 O.2            1 S1                 0.0000
      8 ****        -0.9177  -0.3841   0.6935 N.am           1 S1                 0.0000
      9 ****         0.5420  -0.4055   0.6782 C.3            1 S1                 0.0000
     10 ****         1.0804  -0.1975  -0.7475 C.3            1 S1                 0.0000
     11 ****         2.6083  -0.3708  -0.8018 C.3            1 S1                 0.0000
     12 ****         2.9938  -1.7021  -0.3114 N.3            1 S1                 0.0000
     13 ****         4.4513  -1.9436  -0.4191 C.3            1 S1                 0.0000
     14 ****         4.9992  -1.9321  -1.8513 C.2            1 S1                 0.0000
     15 ****         4.4525  -2.7881  -2.7187 N.am           1 S1                 0.0000
     16 ****         5.9082  -1.1673  -2.1657 O.2            1 S1                 0.0000
     17 ****         2.5773  -1.8644   1.0853 C.3            1 S1                 0.0000
     18 ****         1.0476  -1.7544   1.2096 C.3            1 S1                 0.0000
     19 ****        -5.3331   0.8204   0.7014 N.2            1 S1                 0.0000
     20 ****        -6.1589   1.9479   0.6228 O.3            1 S1                 0.0000
     21 ****        -5.3914   5.1560   0.1160 H              1 S1                 0.0000
     22 ****        -6.5231   4.6396   1.3679 H              1 S1                 0.0000
     23 ****        -6.8786   4.3191  -0.3311 H              1 S1                 0.0000
     24 ****        -3.2088   3.3719   0.4399 H              1 S1                 0.0000
     25 ****        -3.2106  -0.5715   0.7287 H              1 S1                 0.0000
     26 ****        -1.3831  -1.2795   0.7194 H              1 S1                 0.0000
     27 ****         0.9223   0.3869   1.3261 H              1 S1                 0.0000
     28 ****         0.6122  -0.9089  -1.4300 H              1 S1                 0.0000
     29 ****         0.8144   0.7964  -1.1088 H              1 S1                 0.0000
     30 ****         2.9260  -0.2275  -1.8344 H              1 S1                 0.0000
     31 ****         3.0988   0.4052  -0.2114 H              1 S1                 0.0000
     32 ****         4.9919  -1.2046   0.1755 H              1 S1                 0.0000
     33 ****         4.6909  -2.9188   0.0073 H              1 S1                 0.0000
     34 ****         4.7882  -2.8199  -3.6703 H              1 S1                 0.0000
     35 ****         3.7120  -3.4049  -2.4177 H              1 S1                 0.0000
     36 ****         2.8887  -2.8434   1.4523 H              1 S1                 0.0000
     37 ****         3.0637  -1.1194   1.7177 H              1 S1                 0.0000
     38 ****         0.7526  -1.8789   2.2521 H              1 S1                 0.0000
     39 ****         0.5819  -2.5721   0.6570 H              1 S1                 0.0000
     40 ****        -1.8285   2.6501   0.6247 LP             1 S1                 0.0000
     41 ****        -0.2235   1.9988   0.6315 LP             1 S1                 0.0000
     42 ****         2.5296  -2.3722  -0.8906 LP             1 S1                 0.0000
     43 ****         6.2966  -0.5458  -1.4853 LP             1 S1                 0.0000
     44 ****         6.2595  -1.1664  -3.1020 LP             1 S1                 0.0000
     45 ****        -5.6169  -0.1347   0.7866 LP             1 S1                 0.0000
     46 ****        -6.7536   1.8742  -0.1778 LP             1 S1                 0.0000
     47 ****        -6.7186   2.0132   1.4489 LP             1 S1                 0.0000
@<TRIPOS>BOND
    1    1    2 1     
    2    1   21 1     
    3    1   22 1     
    4    1   23 1     
    5    2   20 1     
    6    2    3 2     
    7    3    4 1     
    8    3   24 1     
    9    4    5 1     
   10    4   19 2     
   11    5    6 am    
   12    5   25 1     
   13    6    7 2     
   14    6    8 am    
   15    8    9 1     
   16    8   26 1     
   17    9   18 1     
   18    9   10 1     
   19    9   27 1     
   20   10   11 1     
   21   10   28 1     
   22   10   29 1     
   23   11   12 1     
   24   11   30 1     
   25   11   31 1     
   26   12   13 1     
   27   12   17 1     
   28   13   14 1     
   29   13   32 1     
   30   13   33 1     
   31   14   15 am    
   32   14   16 2     
   33   15   34 1     
   34   15   35 1     
   35   17   18 1     
   36   17   36 1     
   37   17   37 1     
   38   18   38 1     
   39   18   39 1     
   40   19   20 1     
   41    7   40 1     
   42    7   41 1     
   43   12   42 1     
   44   16   43 1     
   45   16   44 1     
   46   19   45 1     
   47   20   46 1     
   48   20   47 1     
@<TRIPOS>SUBSTRUCTURE
      1 S1             1
@<TRIPOS>SET
LONE_PAIRS      STATIC     ATOMS    <user>   **** ""
8 40 41 42 43 44 45 46 47
DONOR_HYDROGENS      STATIC     ATOMS    <user>   **** ""
4 25 26 34 35
ATOM$BLUE        STATIC     ATOMS    COLORGROUP SYSTEM
8 40 41 42 43 44 45 46 47
ATOM$RED        STATIC     ATOMS    COLORGROUP SYSTEM
4 25 26 34 35
