AV-unprocessed.smi:410|AV-procd|sdf|2507|dock3
  -GOLD-   2262022453D 1   1.00000     0.00000
 Structure written by MMmdl.
 33 35  0  0  0  0  0  0  0  0  2 V2000
  151.1162  137.5669  154.3134 C   0  0  0  0  0  0  0  0  0  0  0  0
  150.7021  138.9244  154.7963 C   0  0  0  0  0  0  0  0  0  0  0  0
  149.7567  139.5699  154.1523 N   0  0  0  0  0  0  0  0  0  0  0  0
  149.6109  140.7680  154.7677 N   0  0  0  0  0  0  0  0  0  0  0  0
  148.6266  141.7030  154.2475 C   0  0  0  0  0  0  0  0  0  0  0  0
  147.2672  141.0372  153.9783 C   0  0  0  0  0  0  0  0  0  0  0  0
  147.3896  139.9999  153.0270 O   0  0  0  0  0  0  0  0  0  0  0  0
  150.4703  140.9240  155.8404 C   0  0  0  0  0  0  0  0  0  0  0  0
  150.5842  142.0136  156.6515 N   0  0  0  0  0  0  0  0  0  0  0  0
  151.5189  141.9095  157.6211 C   0  0  0  0  0  0  0  0  0  0  0  0
  151.6659  143.0780  158.4885 C   0  0  0  0  0  0  0  0  0  0  0  0
  152.3727  143.2909  159.6422 C   0  0  0  0  0  0  0  0  0  0  0  0
  152.1279  144.6376  160.0287 C   0  0  0  0  0  0  0  0  0  0  0  0
  151.2882  145.1532  159.0839 C   0  0  0  0  0  0  0  0  0  0  0  0
  150.9963  144.2180  158.1398 O   0  0  0  0  0  0  0  0  0  0  0  0
  152.3148  140.7595  157.8091 C   0  0  0  0  0  0  0  0  0  0  0  0
  152.1633  139.6352  156.9619 C   0  0  0  0  0  0  0  0  0  0  0  0
  153.0138  138.4181  157.2165 C   0  0  0  0  0  0  0  0  0  0  0  0
  154.0743  138.5279  157.8663 O   0  0  0  0  0  0  0  0  0  0  0  0
  152.6450  137.3217  156.7387 O   0  5  0  0  0  0  0  0  0  0  0  0
  151.2060  139.7068  155.9058 C   0  0  0  0  0  0  0  0  0  0  0  0
  152.1983  137.5000  154.2015 H   0  0  0  0  0  0  0  0  0  0  0  0
  150.6814  137.3342  153.3407 H   0  0  0  0  0  0  0  0  0  0  0  0
  150.7942  136.7873  155.0036 H   0  0  0  0  0  0  0  0  0  0  0  0
  148.5083  142.5165  154.9644 H   0  0  0  0  0  0  0  0  0  0  0  0
  149.0150  142.1526  153.3329 H   0  0  0  0  0  0  0  0  0  0  0  0
  146.8504  140.6280  154.8991 H   0  0  0  0  0  0  0  0  0  0  0  0
  146.5564  141.7737  153.6032 H   0  0  0  0  0  0  0  0  0  0  0  0
  148.2077  140.1084  152.5669 H   0  0  0  0  0  0  0  0  0  0  0  0
  152.9937  142.5666  160.1482 H   0  0  0  0  0  0  0  0  0  0  0  0
  152.5178  145.1623  160.8882 H   0  0  0  0  0  0  0  0  0  0  0  0
  150.8247  146.1175  158.9368 H   0  0  0  0  0  0  0  0  0  0  0  0
  153.0349  140.7375  158.6140 H   0  0  0  0  0  0  0  0  0  0  0  0
  1  2  1  0  0  0  0
  1 22  1  0  0  0  0
  1 23  1  0  0  0  0
  1 24  1  0  0  0  0
  2 21  1  0  0  0  0
  2  3  2  0  0  0  0
  3  4  1  0  0  0  0
  4  5  1  0  0  0  0
  4  8  1  0  0  0  0
  5  6  1  0  0  0  0
  5 25  1  0  0  0  0
  5 26  1  0  0  0  0
  6  7  1  0  0  0  0
  6 27  1  0  0  0  0
  6 28  1  0  0  0  0
  7 29  1  0  0  0  0
  8 21  1  0  0  0  0
  8  9  2  0  0  0  0
  9 10  1  0  0  0  0
 10 11  1  0  0  0  0
 10 16  2  0  0  0  0
 11 15  1  0  0  0  0
 11 12  2  0  0  0  0
 12 13  1  0  0  0  0
 12 30  1  0  0  0  0
 13 14  2  0  0  0  0
 13 31  1  0  0  0  0
 14 15  1  0  0  0  0
 14 32  1  0  0  0  0
 16 17  1  0  0  0  0
 16 33  1  0  0  0  0
 17 18  1  0  0  0  0
 17 21  2  0  0  0  0
 18 19  2  0  0  0  0
 18 20  1  0  0  0  0
M  CHG  1  20  -1
M  END
> <s_m_source_file>
AV-unprocessed.smi

> <i_m_source_file_index>
410

> <i_lp_mmshare_version>
43012

> <i_f3d_flags>
0

> <s_epik_input>
W09IXVtDSDJdW0NIMl1uMW5jKFtDSDNdKWMoYzEyKWMoQyg9TylbT0hdKVtjSF1jKG4yKS1jM1tjSF1bY0hdW2NIXW8z

> <s_epik_cmdline>
J2VwaWtfcHl0aG9uJywgJy1waCcsICc3LjAnLCAnLXRuJywgJzgnLCAnLW1hJywgJzIwMCcsICctbWV0YWxfYmluZGluZycsICctaW1hZScsICc8aW5maWxlLm1hZT4nLCAnLW9tYWUnLCAnPG91dGZpbGUubWFlPic=

> <r_epik_Ionization_Penalty>
0.0015027

> <r_epik_Ionization_Penalty_Charging>
0.0014228

> <r_epik_Ionization_Penalty_Neutral>
7.98983e-05

> <r_epik_State_Penalty>
0.000949801

> <r_epik_Charging_Adjusted_Penalty>
0.0023726

> <i_epik_Tot_Q>
-1

> <i_epik_Tot_abs_Q>
1

> <r_epik_Metal_State_Penalty>
-0

> <b_epik_Metal_Only>
0

> <s_lp_Force_Field>
OPLS_2005

> <r_lp_Energy>
7.49674

> <b_lp_Chiralities_Consistent>
1

> <s_lp_Variant>
AV-unprocessed.smi:410-1

> <Gold.Version>
5.8.1

> <Gold.Id.Protein>
6NUR|6NUR_protein|mol2

> <Gold.PLP.Fitness>
50.4690

> <Gold.PLP.PLP>
-42.1813

> <Gold.PLP.part.hbond>
-2.6042

> <Gold.PLP.part.metal>
0.0000

> <Gold.PLP.part.buried>
-2.9208

> <Gold.PLP.part.nonpolar>
-37.4259

> <Gold.PLP.part.repulsive>
0.9589

> <Gold.PLP.ligand.clash>
0.0000

> <Gold.PLP.ligand.torsion>
0.3645

> <Gold.PLP.Chemscore.Hbond>
3.0000

> <Gold.PLP.Chemscore.CHOScore>
0.0000

> <Gold.PLP.Chemscore.Metal>
0.0000

> <Gold.Chemscore.Hbonds>
donor molecule, donor type, donor heavy atom, donor atom, acceptor molecule, acceptor atom, score
      L1  H     7    29       P1  7957  1.00
      P1  H  7997  8008       L1    19  1.92

> <Gold.PLP.Chemscore.Internal.Correction>
0.0166

> <Gold.Rescore>
     Score         DG    S(hbond)    S(metal)    S(lipo)     H(rot)  DE(clash)    DE(int)     intcor
     17.38     -19.01       1.78        0.00     105.04       1.84       0.92       0.70       ----

> <Gold.Chemscore.Fitness>
17.3818

> <Gold.Chemscore.DG>
-19.0081

> <Gold.Chemscore.ZeroCoef>
-5.4800

> <Gold.Chemscore.Hbond>
1.7796

> <Gold.Chemscore.Metal>
0.0000

> <Gold.Chemscore.Lipo>
105.0364

> <Gold.Chemscore.Internal_Hbond>
0.0000

> <Gold.Chemscore.DEClash>
0.9228

> <Gold.Chemscore.DEInternal>
0.7035

> <Gold.Chemscore.Rot>
1.8379

> <Gold.Chemscore.Internal.Correction>
   9.000000E+99

> <Gold.Chemscore.Hbonds>
donor molecule, donor type, donor heavy atom, donor atom, acceptor molecule, acceptor atom, score
      L1  H     7    29       P1  7957  0.98
      P1  H  7997  8008       L1    19  0.56
      P1  H 10752 10765       L1    20  0.01

> <Gold.Chemscore.Hbond.Weighted>
-5.9439

> <Gold.Chemscore.Metal.Weighted>
-0.0000

> <Gold.Chemscore.Lipo.Weighted>
-12.2893

> <Gold.Chemscore.Internal_Hbond.Weighted>
0.0000

> <Gold.Chemscore.DEClash.Weighted>
0.9228

> <Gold.Chemscore.DEInternal.Weighted>
0.7035

> <Gold.Chemscore.Rot.Weighted>
4.7051

> <Gold.Chemscore.Internal.Correction.Weighted>
   9.000000E+99

> <Gold.Protein.RotatedTorsions>
[ 6907 6896 6895 6894 ] final  140.71 input  -60.11 | X-H torsion
[ 7974 7965 7964 7962 ] final   57.43 input  175.53 | X-H torsion
[ 8008 7997 7996 7995 ] final -108.58 input   59.86 | X-H torsion
[ 10167 10162 10161 10158 ] final   58.46 input  -65.29 | X-H torsion
[ 10718 10713 10712 10709 ] final  -92.70 input   66.30 | X-H torsion
[ 10763 10752 10751 10750 ] final -147.81 input  -60.55 | X-H torsion
[ 11005 11000 10999 10996 ] final   35.05 input  -57.11 | X-H torsion

> <Gold.Protein.ActiveResidues>
 VAL166  LYS551  ARG553  GLY616  TRP617  ASP618  TYR619  PRO620  LYS621  CYS622 
 ASP623  PHE694  ASN695  SER759  ASP760  ASP761  ALA762  ILE779  LEU786  VAL792 
 PHE793  MET794  SER795  GLU796  ALA797  LYS798  CYS799  TRP800  GLU811  SER814 

> <Gold.Protein.RotatedAtoms>
  152.2398  133.5126  159.5263 H   0  0  0  0  0  0  0  0  0  0  0  0  # atno 6907 bound_to 6896
  150.7061  134.1104  159.4007 H   0  0  0  0  0  0  0  0  0  0  0  0  # atno 6908 bound_to 6896
  151.9025  135.0372  160.0558 H   0  0  0  0  0  0  0  0  0  0  0  0  # atno 6909 bound_to 6896
  145.9291  139.3792  143.0432 H   0  0  0  0  0  0  0  0  0  0  0  0  # atno 7974 bound_to 7965
  154.9464  140.0401  157.2122 H   0  0  0  0  0  0  0  0  0  0  0  0  # atno 8008 bound_to 7997
  154.8020  140.2853  155.5893 H   0  0  0  0  0  0  0  0  0  0  0  0  # atno 8009 bound_to 7997
  156.2962  140.2553  156.2890 H   0  0  0  0  0  0  0  0  0  0  0  0  # atno 8010 bound_to 7997
  140.1870  144.4124  150.6588 H   0  0  0  0  0  0  0  0  0  0  0  0  # atno 10167 bound_to 10162
  156.0005  130.4997  150.5664 H   0  0  0  0  0  0  0  0  0  0  0  0  # atno 10718 bound_to 10713
  154.8266  135.3350  154.6877 H   0  0  0  0  0  0  0  0  0  0  0  0  # atno 10763 bound_to 10752
  153.7502  135.6940  153.4952 H   0  0  0  0  0  0  0  0  0  0  0  0  # atno 10764 bound_to 10752
  153.2182  135.4458  155.0409 H   0  0  0  0  0  0  0  0  0  0  0  0  # atno 10765 bound_to 10752
  140.2466  134.3352  155.7905 H   0  0  0  0  0  0  0  0  0  0  0  0  # atno 11005 bound_to 11000
  145.8449  140.9560  143.0780 LP  0  0  0  0  0  0  0  0  0  0  0  0  # atno 17320 bound_to 7965
  144.6762  140.0332  143.7482 LP  0  0  0  0  0  0  0  0  0  0  0  0  # atno 17321 bound_to 7965
  140.6481  143.2218  151.6139 LP  0  0  0  0  0  0  0  0  0  0  0  0  # atno 17342 bound_to 10162
  139.5272  144.3024  152.1062 LP  0  0  0  0  0  0  0  0  0  0  0  0  # atno 17343 bound_to 10162
  157.3566  131.0742  151.1670 LP  0  0  0  0  0  0  0  0  0  0  0  0  # atno 17370 bound_to 10713
  157.2469  130.6596  149.5914 LP  0  0  0  0  0  0  0  0  0  0  0  0  # atno 17371 bound_to 10713
  141.2205  133.7329  156.8970 LP  0  0  0  0  0  0  0  0  0  0  0  0  # atno 17394 bound_to 11000
  140.1600  134.9172  157.2702 LP  0  0  0  0  0  0  0  0  0  0  0  0  # atno 17395 bound_to 11000

$$$$
