#       Name:                AV-unprocessed.smi:966
#       Creating user name   scv26
#       Creation time:       Fri Mar 27 02:19:08 2020


#       File generated by GOLD software.
#

@<TRIPOS>MOLECULE
AV-unprocessed.smi:966
    35    36     1
SMALL
NO_CHARGES


@<TRIPOS>ATOM
      1 ****        -4.5781   0.4921   0.9862 C.3            1 S1                 0.0000
      2 ****        -3.0618   0.4374   0.9385 C.2            1 S1                 0.0000
      3 ****        -2.3084   1.6692   0.8698 C.2            1 S1                 0.0000
      4 ****        -0.9288   1.6049   0.8378 C.2            1 S1                 0.0000
      5 ****        -0.0932   2.5363   0.7637 O.co2          1 S1                -1.0000
      6 ****        -0.2517   0.3399   0.8772 N.am           1 S1                 0.0000
      7 ****         1.2379   0.2490   0.8617 C.3            1 S1                 0.0000
      8 ****         1.8043   0.3005  -0.5716 C.3            1 S1                 0.0000
      9 ****         3.3306   0.3532  -0.6217 C.3            1 S1                 0.0000
     10 ****         3.6126  -0.2199  -1.9913 C.3            1 S1                 0.0000
     11 ****         2.5636  -1.3229  -2.0813 C.3            1 S1                 0.0000
     12 ****         1.4547  -0.8693  -1.3101 O.3            1 S1                 0.0000
     13 ****        -0.9457  -0.8423   0.9100 C.2            1 S1                 0.0000
     14 ****        -0.3784  -1.9379   0.9057 O.2            1 S1                 0.0000
     15 ****        -2.4076  -0.7422   0.9531 C.2            1 S1                 0.0000
     16 ****        -3.1098  -1.9853   1.0132 C.1            1 S1                 0.0000
     17 ****        -3.6993  -2.9809   1.0652 N.1            1 S1                 0.0000
     18 ****        -4.9362   1.5220   0.9781 H              1 S1                 0.0000
     19 ****        -4.9494   0.0132   1.8927 H              1 S1                 0.0000
     20 ****        -5.0052  -0.0201   0.1235 H              1 S1                 0.0000
     21 ****        -2.8152   2.6226   0.8341 H              1 S1                 0.0000
     22 ****         1.6876   1.0381   1.4660 H              1 S1                 0.0000
     23 ****         1.6004  -0.6530   1.3571 H              1 S1                 0.0000
     24 ****         1.4075   1.1617  -1.1110 H              1 S1                 0.0000
     25 ****         3.7246   1.3610  -0.4883 H              1 S1                 0.0000
     26 ****         3.7642  -0.2894   0.1461 H              1 S1                 0.0000
     27 ****         3.4333   0.5349  -2.7581 H              1 S1                 0.0000
     28 ****         4.6325  -0.5885  -2.1035 H              1 S1                 0.0000
     29 ****         2.2741  -1.5396  -3.1097 H              1 S1                 0.0000
     30 ****         2.9401  -2.2435  -1.6342 H              1 S1                 0.0000
     31 ****         0.6932  -0.6566  -1.9223 LP             1 S1                 0.0000
     32 ****         1.1796  -1.5901  -0.6738 LP             1 S1                 0.0000
     33 ****         0.6202  -1.9838   0.8776 LP             1 S1                 0.0000
     34 ****        -0.9171  -2.7801   0.9304 LP             1 S1                 0.0000
     35 ****        -4.2083  -3.8405   1.1101 LP             1 S1                 0.0000
@<TRIPOS>BOND
    1    1    2 1     
    2    1   18 1     
    3    1   19 1     
    4    1   20 1     
    5    2   15 2     
    6    2    3 1     
    7    3    4 2     
    8    3   21 1     
    9    4    5 ar    
   10    4    6 1     
   11    6    7 1     
   12    6   13 am    
   13    7    8 1     
   14    7   22 1     
   15    7   23 1     
   16    8   12 1     
   17    8    9 1     
   18    8   24 1     
   19    9   10 1     
   20    9   25 1     
   21    9   26 1     
   22   10   11 1     
   23   10   27 1     
   24   10   28 1     
   25   11   12 1     
   26   11   29 1     
   27   11   30 1     
   28   13   14 2     
   29   13   15 1     
   30   15   16 1     
   31   16   17 3     
   32   12   31 1     
   33   12   32 1     
   34   14   33 1     
   35   14   34 1     
   36   17   35 1     
@<TRIPOS>SUBSTRUCTURE
      1 S1             1
@<TRIPOS>SET
LONE_PAIRS      STATIC     ATOMS    <user>   **** ""
6 5 31 32 33 34 35
ATOM$BLUE        STATIC     ATOMS    COLORGROUP SYSTEM
6 5 31 32 33 34 35
