AV-unprocessed.smi:1765|AV-procd|sdf|7134|dock1
  -GOLD-   22720 8373D 1   1.00000     0.00000
 Structure written by MMmdl.
 39 40  0  0  0  0  0  0  0  0  1 V2000
  145.9033  136.6486  153.2956 C   0  0  0  0  0  0  0  0  0  0  0  0
  147.1769  137.2460  153.6679 N   0  0  0  0  0  0  0  0  0  0  0  0
  147.3113  138.3074  154.4803 C   0  0  0  0  0  0  0  0  0  0  0  0
  146.3338  138.8671  154.9799 O   0  0  0  0  0  0  0  0  0  0  0  0
  148.7021  138.7113  154.7018 C   0  0  0  0  0  0  0  0  0  0  0  0
  149.8332  137.8205  154.4881 C   0  0  0  0  0  0  0  0  0  0  0  0
  151.0927  138.2481  154.7038 C   0  0  0  0  0  0  0  0  0  0  0  0
  151.3778  139.6117  155.1587 C   0  0  0  0  0  0  0  0  0  0  0  0
  152.5270  140.0074  155.3560 O   0  0  0  0  0  0  0  0  0  0  0  0
  150.2875  140.4144  155.3515 N   0  0  0  0  0  0  0  0  0  0  0  0
  150.4500  141.8045  155.8096 C   0  0  0  0  0  0  0  0  0  0  0  0
  151.3660  141.9342  157.0346 C   0  0  0  0  0  0  0  0  0  0  0  0
  151.8025  140.9328  157.6036 O   0  0  0  0  0  0  0  0  0  0  0  0
  151.6662  143.1855  157.4138 N   0  0  0  0  0  0  0  0  0  0  0  0
  152.5184  143.5421  158.5449 C   0  0  0  0  0  0  0  0  0  0  0  0
  151.9348  142.9972  159.8632 C   0  0  0  0  0  0  0  0  0  0  0  0
  151.9322  144.1708  160.8444 C   0  0  0  0  0  0  0  0  0  0  0  0
  151.7872  145.4046  159.9596 C   0  0  0  0  0  0  0  0  0  0  0  0
  152.6133  145.0709  158.7175 C   0  0  0  0  0  0  0  0  0  0  0  0
  148.9729  139.9630  155.1213 C   0  0  0  0  0  0  0  0  0  0  0  0
  146.0717  135.7880  152.6484 H   0  0  0  0  0  0  0  0  0  0  0  0
  145.2814  137.3644  152.7566 H   0  0  0  0  0  0  0  0  0  0  0  0
  145.3602  136.3095  154.1786 H   0  0  0  0  0  0  0  0  0  0  0  0
  148.0122  136.8259  153.2873 H   0  0  0  0  0  0  0  0  0  0  0  0
  149.6927  136.8036  154.1526 H   0  0  0  0  0  0  0  0  0  0  0  0
  151.9162  137.5692  154.5373 H   0  0  0  0  0  0  0  0  0  0  0  0
  150.8614  142.4268  155.0137 H   0  0  0  0  0  0  0  0  0  0  0  0
  149.4744  142.2403  156.0340 H   0  0  0  0  0  0  0  0  0  0  0  0
  151.2702  143.9484  156.8839 H   0  0  0  0  0  0  0  0  0  0  0  0
  153.5185  143.1303  158.3953 H   0  0  0  0  0  0  0  0  0  0  0  0
  150.9096  142.6521  159.7188 H   0  0  0  0  0  0  0  0  0  0  0  0
  152.5062  142.1514  160.2464 H   0  0  0  0  0  0  0  0  0  0  0  0
  151.1413  144.0921  161.5908 H   0  0  0  0  0  0  0  0  0  0  0  0
  152.8859  144.2098  161.3724 H   0  0  0  0  0  0  0  0  0  0  0  0
  150.7409  145.5370  159.6814 H   0  0  0  0  0  0  0  0  0  0  0  0
  152.1203  146.3182  160.4530 H   0  0  0  0  0  0  0  0  0  0  0  0
  153.6538  145.3464  158.8943 H   0  0  0  0  0  0  0  0  0  0  0  0
  152.2802  145.6307  157.8427 H   0  0  0  0  0  0  0  0  0  0  0  0
  148.2090  140.7059  155.3044 H   0  0  0  0  0  0  0  0  0  0  0  0
  1  2  1  0  0  0  0
  1 21  1  0  0  0  0
  1 22  1  0  0  0  0
  1 23  1  0  0  0  0
  2  3  1  0  0  0  0
  2 24  1  0  0  0  0
  3  4  2  0  0  0  0
  3  5  1  0  0  0  0
  5 20  2  0  0  0  0
  5  6  1  0  0  0  0
  6  7  2  0  0  0  0
  6 25  1  0  0  0  0
  7  8  1  0  0  0  0
  7 26  1  0  0  0  0
  8  9  2  0  0  0  0
  8 10  1  0  0  0  0
 10 11  1  0  0  0  0
 10 20  1  0  0  0  0
 11 12  1  0  0  0  0
 11 27  1  0  0  0  0
 11 28  1  0  0  0  0
 12 13  2  0  0  0  0
 12 14  1  0  0  0  0
 14 15  1  0  0  0  0
 14 29  1  0  0  0  0
 15 19  1  0  0  0  0
 15 16  1  0  0  0  0
 15 30  1  0  0  0  0
 16 17  1  0  0  0  0
 16 31  1  0  0  0  0
 16 32  1  0  0  0  0
 17 18  1  0  0  0  0
 17 33  1  0  0  0  0
 17 34  1  0  0  0  0
 18 19  1  0  0  0  0
 18 35  1  0  0  0  0
 18 36  1  0  0  0  0
 19 37  1  0  0  0  0
 19 38  1  0  0  0  0
 20 39  1  0  0  0  0
M  END
> <s_m_source_file>
AV-unprocessed.smi

> <i_m_source_file_index>
1765

> <i_lp_mmshare_version>
43012

> <i_f3d_flags>
0

> <s_epik_input>
W0NIM11bTkhdQyg9TyljMVtjSF1bY0hdYyg9TyluKFtjSF0xKVtDSDJdQyg9TylbTkhdW0NIXTJbQ0gyXVtDSDJdW0NIMl1bQ0gyXTI=

> <s_epik_cmdline>
J2VwaWtfcHl0aG9uJywgJy1waCcsICc3LjAnLCAnLXRuJywgJzgnLCAnLW1hJywgJzIwMCcsICctbWV0YWxfYmluZGluZycsICctaW1hZScsICc8aW5maWxlLm1hZT4nLCAnLW9tYWUnLCAnPG91dGZpbGUubWFlPic=

> <r_lp_tautomer_probability>
1

> <r_epik_Ionization_Penalty>
3.69544e-07

> <r_epik_Ionization_Penalty_Charging>
4.98828e-08

> <r_epik_Ionization_Penalty_Neutral>
3.19661e-07

> <r_epik_State_Penalty>
-0

> <r_epik_Charging_Adjusted_Penalty>
4.98828e-08

> <i_epik_Tot_Q>
0

> <i_epik_Tot_abs_Q>
0

> <r_epik_Metal_State_Penalty>
-0

> <b_epik_Metal_Only>
0

> <s_lp_Force_Field>
OPLS_2005

> <r_lp_Energy>
30.5558

> <b_lp_Chiralities_Consistent>
1

> <s_lp_Variant>
AV-unprocessed.smi:1765-1

> <Gold.Version>
5.8.1

> <Gold.Id.Protein>
6NUR|6NUR_protein|mol2

> <Gold.PLP.Fitness>
44.4641

> <Gold.PLP.PLP>
-39.1473

> <Gold.PLP.part.hbond>
-3.0000

> <Gold.PLP.part.metal>
0.0000

> <Gold.PLP.part.buried>
-2.2050

> <Gold.PLP.part.nonpolar>
-33.5537

> <Gold.PLP.part.repulsive>
0.0725

> <Gold.PLP.ligand.clash>
0.0000

> <Gold.PLP.ligand.torsion>
0.3389

> <Gold.PLP.Chemscore.Hbond>
1.9920

> <Gold.PLP.Chemscore.CHOScore>
0.0000

> <Gold.PLP.Chemscore.Metal>
0.0000

> <Gold.Chemscore.Hbonds>
donor molecule, donor type, donor heavy atom, donor atom, acceptor molecule, acceptor atom, score
      L1  H     2    24       P1  7948  0.99
      P1  H  7997  8010       L1     9  1.00

> <Gold.PLP.Chemscore.Internal.Correction>
0.0185

> <Gold.Rescore>
     Score         DG    S(hbond)    S(metal)    S(lipo)     H(rot)  DE(clash)    DE(int)     intcor
     14.21     -19.01       1.96        0.00      92.89       1.52       0.05       4.74       ----

> <Gold.Chemscore.Fitness>
14.2099

> <Gold.Chemscore.DG>
-19.0054

> <Gold.Chemscore.ZeroCoef>
-5.4800

> <Gold.Chemscore.Hbond>
1.9645

> <Gold.Chemscore.Metal>
0.0000

> <Gold.Chemscore.Lipo>
92.8874

> <Gold.Chemscore.Internal_Hbond>
0.0000

> <Gold.Chemscore.DEClash>
0.0531

> <Gold.Chemscore.DEInternal>
4.7424

> <Gold.Chemscore.Rot>
1.5250

> <Gold.Chemscore.Internal.Correction>
   9.000000E+99

> <Gold.Chemscore.Hbonds>
donor molecule, donor type, donor heavy atom, donor atom, acceptor molecule, acceptor atom, score
      L1  H     2    24       P1  7948  0.94
      P1  H  7997  8010       L1     9  0.97

> <Gold.Chemscore.Hbond.Weighted>
-6.5615

> <Gold.Chemscore.Metal.Weighted>
-0.0000

> <Gold.Chemscore.Lipo.Weighted>
-10.8678

> <Gold.Chemscore.Internal_Hbond.Weighted>
0.0000

> <Gold.Chemscore.DEClash.Weighted>
0.0531

> <Gold.Chemscore.DEInternal.Weighted>
4.7424

> <Gold.Chemscore.Rot.Weighted>
3.9039

> <Gold.Chemscore.Internal.Correction.Weighted>
   9.000000E+99

> <Gold.Protein.RotatedTorsions>
[ 6907 6896 6895 6894 ] final  -56.83 input  -60.11 | X-H torsion
[ 7974 7965 7964 7962 ] final  -95.06 input  175.53 | X-H torsion
[ 8008 7997 7996 7995 ] final   99.43 input   59.86 | X-H torsion
[ 10167 10162 10161 10158 ] final  -40.48 input  -65.29 | X-H torsion
[ 10718 10713 10712 10709 ] final  -79.84 input   66.30 | X-H torsion
[ 10763 10752 10751 10750 ] final -135.83 input  -60.55 | X-H torsion
[ 11005 11000 10999 10996 ] final  105.77 input  -57.11 | X-H torsion

> <Gold.Protein.ActiveResidues>
 VAL166  LYS551  ARG553  GLY616  TRP617  ASP618  TYR619  PRO620  LYS621  CYS622 
 ASP623  PHE694  ASN695  SER759  ASP760  ASP761  ALA762  ILE779  LEU786  VAL792 
 PHE793  MET794  SER795  GLU796  ALA797  LYS798  CYS799  TRP800  GLU811  SER814 

> <Gold.Protein.RotatedAtoms>
  150.8135  134.7304  159.6709 H   0  0  0  0  0  0  0  0  0  0  0  0  # atno 6907 bound_to 6896
  152.4255  134.5874  159.9974 H   0  0  0  0  0  0  0  0  0  0  0  0  # atno 6908 bound_to 6896
  151.6077  133.3313  159.3097 H   0  0  0  0  0  0  0  0  0  0  0  0  # atno 6909 bound_to 6896
  145.3651  140.9497  143.2479 H   0  0  0  0  0  0  0  0  0  0  0  0  # atno 7974 bound_to 7965
  156.1104  140.3229  155.8065 H   0  0  0  0  0  0  0  0  0  0  0  0  # atno 8008 bound_to 7997
  155.4683  140.0544  157.3000 H   0  0  0  0  0  0  0  0  0  0  0  0  # atno 8009 bound_to 7997
  154.4756  140.2031  155.9901 H   0  0  0  0  0  0  0  0  0  0  0  0  # atno 8010 bound_to 7997
  140.7033  143.3151  151.2930 H   0  0  0  0  0  0  0  0  0  0  0  0  # atno 10167 bound_to 10162
  156.0083  130.4557  150.3709 H   0  0  0  0  0  0  0  0  0  0  0  0  # atno 10718 bound_to 10713
  154.8696  135.3691  154.4961 H   0  0  0  0  0  0  0  0  0  0  0  0  # atno 10763 bound_to 10752
  153.5605  135.7023  153.5554 H   0  0  0  0  0  0  0  0  0  0  0  0  # atno 10764 bound_to 10752
  153.3632  135.4041  155.1697 H   0  0  0  0  0  0  0  0  0  0  0  0  # atno 10765 bound_to 10752
  139.8806  134.9347  156.5565 H   0  0  0  0  0  0  0  0  0  0  0  0  # atno 11005 bound_to 11000
  144.8618  139.5167  143.6809 LP  0  0  0  0  0  0  0  0  0  0  0  0  # atno 17320 bound_to 7965
  146.2910  139.7140  142.9161 LP  0  0  0  0  0  0  0  0  0  0  0  0  # atno 17321 bound_to 7965
  139.6587  144.0229  152.2677 LP  0  0  0  0  0  0  0  0  0  0  0  0  # atno 17342 bound_to 10162
  139.9789  144.6442  150.7919 LP  0  0  0  0  0  0  0  0  0  0  0  0  # atno 17343 bound_to 10162
  157.1793  131.0388  151.2756 LP  0  0  0  0  0  0  0  0  0  0  0  0  # atno 17370 bound_to 10713
  157.4160  130.7411  149.6875 LP  0  0  0  0  0  0  0  0  0  0  0  0  # atno 17371 bound_to 10713
  140.8201  133.8360  155.8888 LP  0  0  0  0  0  0  0  0  0  0  0  0  # atno 17394 bound_to 11000
  140.9426  134.1881  157.4786 LP  0  0  0  0  0  0  0  0  0  0  0  0  # atno 17395 bound_to 11000

$$$$
