AV-unprocessed.smi:1576|AV-procd|sdf|6347|dock1
  -GOLD-   22720 6563D 1   1.00000     0.00000
 Structure written by MMmdl.
 45 47  0  0  0  0  0  0  0  0  3 V2000
  156.7201  141.1749  164.0934 O   0  0  0  0  0  0  0  0  0  0  0  0
  156.1706  141.6736  165.0821 C   0  0  0  0  0  0  0  0  0  0  0  0
  155.0246  142.3643  164.9475 N   0  0  0  0  0  0  0  0  0  0  0  0
  154.2955  142.6642  163.7659 C   0  0  0  0  0  0  0  0  0  0  0  0
  154.2497  141.6824  162.7535 C   0  0  0  0  0  0  0  0  0  0  0  0
  153.5253  141.9322  161.5700 C   0  0  0  0  0  0  0  0  0  0  0  0
  152.8438  143.1619  161.4227 C   0  0  0  0  0  0  0  0  0  0  0  0
  152.1036  143.5006  160.2825 N   0  0  0  0  0  0  0  0  0  0  0  0
  152.3385  144.8739  159.8435 C   0  0  0  0  0  0  0  0  0  0  0  0
  151.3750  145.2589  158.7078 C   0  0  0  0  0  0  0  0  0  0  0  0
  151.4598  144.2512  157.5501 C   0  0  0  0  0  0  0  0  0  0  0  0
  151.2346  142.8227  158.0713 C   0  0  0  0  0  0  0  0  0  0  0  0
  152.2005  142.4982  159.2243 C   0  0  0  0  0  0  0  0  0  0  0  0
  152.8942  144.0687  162.4222 N   0  3  0  0  0  0  0  0  0  0  0  0
  153.5781  143.8692  163.5701 C   0  0  0  0  0  0  0  0  0  0  0  0
  156.5729  141.5998  166.3795 N   0  5  0  0  0  0  0  0  0  0  0  0
  155.6794  141.4049  167.5279 C   0  0  2  0  0  0  0  0  0  0  0  0
  155.0313  142.7523  167.9249 C   0  0  0  0  0  0  0  0  0  0  0  0
  156.0226  143.5727  168.7603 C   0  0  0  0  0  0  0  0  0  0  0  0
  156.9453  142.3446  169.7545 S   0  0  0  0  0  0  0  0  0  0  0  0
  158.3878  142.6107  169.6405 O   0  0  0  0  0  0  0  0  0  0  0  0
  156.3069  142.2143  171.0738 O   0  0  0  0  0  0  0  0  0  0  0  0
  156.4909  140.8863  168.7314 C   0  0  0  0  0  0  0  0  0  0  0  0
  154.5929  142.6518  165.8135 H   0  0  0  0  0  0  0  0  0  0  0  0
  154.7732  140.7455  162.8773 H   0  0  0  0  0  0  0  0  0  0  0  0
  153.4968  141.1865  160.7890 H   0  0  0  0  0  0  0  0  0  0  0  0
  152.2093  145.5557  160.6852 H   0  0  0  0  0  0  0  0  0  0  0  0
  153.3695  144.9780  159.5030 H   0  0  0  0  0  0  0  0  0  0  0  0
  150.3538  145.2906  159.0902 H   0  0  0  0  0  0  0  0  0  0  0  0
  151.6027  146.2629  158.3488 H   0  0  0  0  0  0  0  0  0  0  0  0
  150.7235  144.4942  156.7835 H   0  0  0  0  0  0  0  0  0  0  0  0
  152.4396  144.3190  157.0756 H   0  0  0  0  0  0  0  0  0  0  0  0
  150.2053  142.7186  158.4171 H   0  0  0  0  0  0  0  0  0  0  0  0
  151.3635  142.1035  157.2620 H   0  0  0  0  0  0  0  0  0  0  0  0
  153.2240  142.4609  158.8488 H   0  0  0  0  0  0  0  0  0  0  0  0
  151.9729  141.5117  159.6308 H   0  0  0  0  0  0  0  0  0  0  0  0
  153.5139  144.6748  164.2863 H   0  0  0  0  0  0  0  0  0  0  0  0
  154.8967  140.6809  167.2963 H   0  0  0  0  0  0  0  0  0  0  0  0
  154.6686  143.3140  167.0631 H   0  0  0  0  0  0  0  0  0  0  0  0
  154.1577  142.5413  168.5424 H   0  0  0  0  0  0  0  0  0  0  0  0
  156.7339  144.0995  168.1221 H   0  0  0  0  0  0  0  0  0  0  0  0
  155.5361  144.2984  169.4116 H   0  0  0  0  0  0  0  0  0  0  0  0
  155.8754  140.2325  169.3491 H   0  0  0  0  0  0  0  0  0  0  0  0
  157.3871  140.3330  168.4488 H   0  0  0  0  0  0  0  0  0  0  0  0
  152.3903  144.9482  162.3063 H   0  0  0  0  0  0  0  0  0  0  0  0
  1  2  2  0  0  0  0
  2  3  1  0  0  0  0
  2 16  1  0  0  0  0
  3  4  1  0  0  0  0
  3 24  1  0  0  0  0
  4 15  1  0  0  0  0
  4  5  2  0  0  0  0
  5  6  1  0  0  0  0
  5 25  1  0  0  0  0
  6  7  2  0  0  0  0
  6 26  1  0  0  0  0
  7  8  1  0  0  0  0
  7 14  1  0  0  0  0
  8 13  1  0  0  0  0
  8  9  1  0  0  0  0
  9 10  1  0  0  0  0
  9 27  1  0  0  0  0
  9 28  1  0  0  0  0
 10 11  1  0  0  0  0
 10 29  1  0  0  0  0
 10 30  1  0  0  0  0
 11 12  1  0  0  0  0
 11 31  1  0  0  0  0
 11 32  1  0  0  0  0
 12 13  1  0  0  0  0
 12 33  1  0  0  0  0
 12 34  1  0  0  0  0
 13 35  1  0  0  0  0
 13 36  1  0  0  0  0
 14 15  2  0  0  0  0
 14 45  1  0  0  0  0
 15 37  1  0  0  0  0
 16 17  1  0  0  0  0
 17 23  1  0  0  0  0
 17 18  1  0  0  0  0
 17 38  1  0  0  0  0
 18 19  1  0  0  0  0
 18 39  1  0  0  0  0
 18 40  1  0  0  0  0
 19 20  1  0  0  0  0
 19 41  1  0  0  0  0
 19 42  1  0  0  0  0
 20 21  2  0  0  0  0
 20 22  2  0  0  0  0
 20 23  1  0  0  0  0
 23 43  1  0  0  0  0
 23 44  1  0  0  0  0
M  CHG  1  14   1
M  CHG  1  16  -1
M  END
> <s_m_source_file>
AV-unprocessed.smi

> <i_m_source_file_index>
1576

> <i_lp_mmshare_version>
43012

> <i_f3d_flags>
0

> <s_epik_input>
Tz1TMSg9TylbQ0gyXVtDSDJdW0NASF0oW0NIMl0xKVtOSF1DKD1PKVtOSF1jMltjSF1bY0hdYyhuW2NIXTIpTjNbQ0gyXVtDSDJdW0NIMl1bQ0gyXVtDSDJdMw==

> <s_epik_cmdline>
J2VwaWtfcHl0aG9uJywgJy1waCcsICc3LjAnLCAnLXRuJywgJzgnLCAnLW1hJywgJzIwMCcsICctbWV0YWxfYmluZGluZycsICctaW1hZScsICc8aW5maWxlLm1hZT4nLCAnLW9tYWUnLCAnPG91dGZpbGUubWFlPic=

> <r_lp_tautomer_probability>
0.999994

> <r_epik_Ionization_Penalty>
8.26491

> <r_epik_Ionization_Penalty_Charging>
8.26491

> <r_epik_Ionization_Penalty_Neutral>
3.15169e-06

> <r_epik_State_Penalty>
7.8977

> <r_epik_Charging_Adjusted_Penalty>
16.1626

> <i_epik_Tot_Q>
0

> <i_epik_Tot_abs_Q>
2

> <r_epik_Metal_State_Penalty>
3.88896

> <b_epik_Metal_Only>
1

> <s_lp_Force_Field>
OPLS_2005

> <r_lp_Energy>
29.9243

> <b_lp_Chiralities_Consistent>
1

> <s_lp_Variant>
AV-unprocessed.smi:1576-5

> <Gold.Version>
5.8.1

> <Gold.Id.Protein>
6NUR|6NUR_protein|mol2

> <Gold.PLP.Fitness>
44.8295

> <Gold.PLP.PLP>
-46.8557

> <Gold.PLP.part.hbond>
-1.3429

> <Gold.PLP.part.metal>
0.0000

> <Gold.PLP.part.buried>
-2.6994

> <Gold.PLP.part.nonpolar>
-40.9820

> <Gold.PLP.part.repulsive>
0.4308

> <Gold.PLP.ligand.clash>
0.0000

> <Gold.PLP.ligand.torsion>
1.0875

> <Gold.PLP.Chemscore.Hbond>
0.0000

> <Gold.PLP.Chemscore.CHOScore>
0.0000

> <Gold.PLP.Chemscore.Metal>
0.0000

> <Gold.PLP.Chemscore.Internal.Correction>
0.1487

> <Gold.Rescore>
     Score         DG    S(hbond)    S(metal)    S(lipo)     H(rot)  DE(clash)    DE(int)     intcor
     11.62     -16.22       0.00        0.00     118.86       1.24       1.57       3.03       ----

> <Gold.Chemscore.Fitness>
11.6161

> <Gold.Chemscore.DG>
-16.2214

> <Gold.Chemscore.ZeroCoef>
-5.4800

> <Gold.Chemscore.Hbond>
0.0000

> <Gold.Chemscore.Metal>
0.0000

> <Gold.Chemscore.Lipo>
118.8645

> <Gold.Chemscore.Internal_Hbond>
0.0000

> <Gold.Chemscore.DEClash>
1.5740

> <Gold.Chemscore.DEInternal>
3.0314

> <Gold.Chemscore.Rot>
1.2366

> <Gold.Chemscore.Internal.Correction>
   9.000000E+99

> <Gold.Chemscore.Hbond.Weighted>
-0.0000

> <Gold.Chemscore.Metal.Weighted>
-0.0000

> <Gold.Chemscore.Lipo.Weighted>
-13.9071

> <Gold.Chemscore.Internal_Hbond.Weighted>
0.0000

> <Gold.Chemscore.DEClash.Weighted>
1.5740

> <Gold.Chemscore.DEInternal.Weighted>
3.0314

> <Gold.Chemscore.Rot.Weighted>
3.1657

> <Gold.Chemscore.Internal.Correction.Weighted>
   9.000000E+99

> <Gold.Protein.RotatedTorsions>
[ 6907 6896 6895 6894 ] final   61.33 input  -60.11 | X-H torsion
[ 7974 7965 7964 7962 ] final  -83.15 input  175.53 | X-H torsion
[ 8008 7997 7996 7995 ] final -132.56 input   59.86 | X-H torsion
[ 10167 10162 10161 10158 ] final   89.43 input  -65.29 | X-H torsion
[ 10718 10713 10712 10709 ] final -108.61 input   66.30 | X-H torsion
[ 10763 10752 10751 10750 ] final -129.79 input  -60.55 | X-H torsion
[ 11005 11000 10999 10996 ] final -103.71 input  -57.11 | X-H torsion

> <Gold.Protein.ActiveResidues>
 VAL166  LYS551  ARG553  GLY616  TRP617  ASP618  TYR619  PRO620  LYS621  CYS622 
 ASP623  PHE694  ASN695  SER759  ASP760  ASP761  ALA762  ILE779  LEU786  VAL792 
 PHE793  MET794  SER795  GLU796  ALA797  LYS798  CYS799  TRP800  GLU811  SER814 

> <Gold.Protein.RotatedAtoms>
  152.4079  134.6175  160.0041 H   0  0  0  0  0  0  0  0  0  0  0  0  # atno 6907 bound_to 6896
  151.6361  133.3323  159.3127 H   0  0  0  0  0  0  0  0  0  0  0  0  # atno 6908 bound_to 6896
  150.7972  134.7082  159.6633 H   0  0  0  0  0  0  0  0  0  0  0  0  # atno 6909 bound_to 6896
  145.5239  140.9528  143.1640 H   0  0  0  0  0  0  0  0  0  0  0  0  # atno 7974 bound_to 7965
  155.3309  140.0467  157.3042 H   0  0  0  0  0  0  0  0  0  0  0  0  # atno 8008 bound_to 7997
  154.5329  140.2263  155.8739 H   0  0  0  0  0  0  0  0  0  0  0  0  # atno 8009 bound_to 7997
  156.1806  140.3075  155.9148 H   0  0  0  0  0  0  0  0  0  0  0  0  # atno 8010 bound_to 7997
  139.8574  144.6562  150.9098 H   0  0  0  0  0  0  0  0  0  0  0  0  # atno 10167 bound_to 10162
  156.0494  130.5722  150.7985 H   0  0  0  0  0  0  0  0  0  0  0  0  # atno 10718 bound_to 10713
  154.8757  135.3883  154.3978 H   0  0  0  0  0  0  0  0  0  0  0  0  # atno 10763 bound_to 10752
  153.4706  135.7030  153.6001 H   0  0  0  0  0  0  0  0  0  0  0  0  # atno 10764 bound_to 10752
  153.4459  135.3845  155.2224 H   0  0  0  0  0  0  0  0  0  0  0  0  # atno 10765 bound_to 10752
  141.1133  133.8663  157.1520 H   0  0  0  0  0  0  0  0  0  0  0  0  # atno 11005 bound_to 11000
  144.7662  139.6841  143.7214 LP  0  0  0  0  0  0  0  0  0  0  0  0  # atno 17320 bound_to 7965
  146.2088  139.5431  142.9694 LP  0  0  0  0  0  0  0  0  0  0  0  0  # atno 17321 bound_to 7965
  140.7780  143.3774  151.1538 LP  0  0  0  0  0  0  0  0  0  0  0  0  # atno 17342 bound_to 10162
  139.7407  143.8929  152.3049 LP  0  0  0  0  0  0  0  0  0  0  0  0  # atno 17343 bound_to 10162
  157.5405  131.0940  150.9834 LP  0  0  0  0  0  0  0  0  0  0  0  0  # atno 17370 bound_to 10713
  157.0118  130.5639  149.5321 LP  0  0  0  0  0  0  0  0  0  0  0  0  # atno 17371 bound_to 10713
  140.0040  135.0016  157.0252 LP  0  0  0  0  0  0  0  0  0  0  0  0  # atno 17394 bound_to 11000
  140.4714  134.1382  155.7203 LP  0  0  0  0  0  0  0  0  0  0  0  0  # atno 17395 bound_to 11000

$$$$
