AV-unprocessed.smi:3085|AV-procd|sdf|11762|dock8
  -GOLD-   2272017143D 1   1.00000     0.00000
 Structure written by MMmdl.
 26 27  0  0  0  0  0  0  0  0  2 V2000
  152.4613  143.2410  159.8310 C   0  0  0  0  0  0  0  0  0  0  0  0
  153.1723  141.9194  159.5221 C   0  0  0  0  0  0  0  0  0  0  0  0
  152.4254  141.0972  158.4950 C   0  0  0  0  0  0  0  0  0  0  0  0
  151.2887  141.4435  157.8999 N   0  0  0  0  0  0  0  0  0  0  0  0
  151.0003  140.4447  157.0522 C   0  0  0  0  0  0  0  0  0  0  0  0
  149.7981  140.4101  156.1294 C   0  0  2  0  0  0  0  0  0  0  0  0
  150.2303  140.2082  154.6626 C   0  0  0  0  0  0  0  0  0  0  0  0
  149.0646  140.1847  153.7789 N   0  0  0  0  0  0  0  0  0  0  0  0
  148.2458  141.3827  153.9500 C   0  0  0  0  0  0  0  0  0  0  0  0
  147.8584  141.5572  155.4283 C   0  0  0  0  0  0  0  0  0  0  0  0
  149.0368  141.6127  156.2237 O   0  0  0  0  0  0  0  0  0  0  0  0
  151.9536  139.5007  157.0915 N   0  0  0  0  0  0  0  0  0  0  0  0
  152.8254  139.9182  157.9868 N   0  5  0  0  0  0  0  0  0  0  0  0
  153.0117  143.8142  160.5768 H   0  0  0  0  0  0  0  0  0  0  0  0
  151.4580  143.0634  160.2190 H   0  0  0  0  0  0  0  0  0  0  0  0
  152.3706  143.8562  158.9355 H   0  0  0  0  0  0  0  0  0  0  0  0
  154.1798  142.1141  159.1527 H   0  0  0  0  0  0  0  0  0  0  0  0
  153.2794  141.3310  160.4340 H   0  0  0  0  0  0  0  0  0  0  0  0
  149.1728  139.5731  156.4467 H   0  0  0  0  0  0  0  0  0  0  0  0
  150.9046  141.0125  154.3651 H   0  0  0  0  0  0  0  0  0  0  0  0
  150.7899  139.2781  154.5619 H   0  0  0  0  0  0  0  0  0  0  0  0
  149.3732  140.1185  152.8144 H   0  0  0  0  0  0  0  0  0  0  0  0
  148.7966  142.2602  153.6098 H   0  0  0  0  0  0  0  0  0  0  0  0
  147.3499  141.3151  153.3327 H   0  0  0  0  0  0  0  0  0  0  0  0
  147.2994  142.4834  155.5620 H   0  0  0  0  0  0  0  0  0  0  0  0
  147.2127  140.7442  155.7642 H   0  0  0  0  0  0  0  0  0  0  0  0
  1  2  1  0  0  0  0
  1 14  1  0  0  0  0
  1 15  1  0  0  0  0
  1 16  1  0  0  0  0
  2  3  1  0  0  0  0
  2 17  1  0  0  0  0
  2 18  1  0  0  0  0
  3 13  1  0  0  0  0
  3  4  2  0  0  0  0
  4  5  1  0  0  0  0
  5  6  1  0  0  0  0
  5 12  2  0  0  0  0
  6 11  1  0  0  0  0
  6  7  1  0  0  0  0
  6 19  1  0  0  0  0
  7  8  1  0  0  0  0
  7 20  1  0  0  0  0
  7 21  1  0  0  0  0
  8  9  1  0  0  0  0
  8 22  1  0  0  0  0
  9 10  1  0  0  0  0
  9 23  1  0  0  0  0
  9 24  1  0  0  0  0
 10 11  1  0  0  0  0
 10 25  1  0  0  0  0
 10 26  1  0  0  0  0
 12 13  1  0  0  0  0
M  CHG  1  13  -1
M  END
> <s_m_source_file>
AV-unprocessed.smi

> <i_m_source_file_index>
3085

> <i_lp_mmshare_version>
43012

> <i_f3d_flags>
0

> <s_epik_input>
W0NIM11bQ0gyXWMxbmMobltuSF0xKVtDQEBIXTJbQ0gyXVtOSF1bQ0gyXVtDSDJdTzI=

> <s_epik_cmdline>
J2VwaWtfcHl0aG9uJywgJy1waCcsICc3LjAnLCAnLXRuJywgJzgnLCAnLW1hJywgJzIwMCcsICctbWV0YWxfYmluZGluZycsICctaW1hZScsICc8aW5maWxlLm1hZT4nLCAnLW9tYWUnLCAnPG91dGZpbGUubWFlPic=

> <r_lp_tautomer_probability>
0.948284

> <r_epik_Ionization_Penalty>
17.858

> <r_epik_Ionization_Penalty_Charging>
16.2847

> <r_epik_Ionization_Penalty_Neutral>
1.5733

> <r_epik_State_Penalty>
7.01418

> <r_epik_Charging_Adjusted_Penalty>
23.2989

> <i_epik_Tot_Q>
-1

> <i_epik_Tot_abs_Q>
1

> <r_epik_Metal_State_Penalty>
3.17281

> <b_epik_Metal_Only>
1

> <s_lp_Force_Field>
OPLS_2005

> <r_lp_Energy>
10.8419

> <b_lp_Chiralities_Consistent>
1

> <s_lp_Variant>
AV-unprocessed.smi:3085-13

> <Gold.Version>
5.8.1

> <Gold.Id.Protein>
6NUR|6NUR_protein|mol2

> <Gold.PLP.Fitness>
30.7582

> <Gold.PLP.PLP>
-21.8652

> <Gold.PLP.part.hbond>
-2.0000

> <Gold.PLP.part.metal>
0.0000

> <Gold.PLP.part.buried>
-1.0696

> <Gold.PLP.part.nonpolar>
-18.5427

> <Gold.PLP.part.repulsive>
0.1579

> <Gold.PLP.ligand.clash>
0.0000

> <Gold.PLP.ligand.torsion>
0.0612

> <Gold.PLP.Chemscore.Hbond>
3.0000

> <Gold.PLP.Chemscore.CHOScore>
0.0000

> <Gold.PLP.Chemscore.Metal>
0.0000

> <Gold.Chemscore.Hbonds>
donor molecule, donor type, donor heavy atom, donor atom, acceptor molecule, acceptor atom, score
      L1  H     8    22       P1  7957  1.00
      P1  H  7997  8008       L1    13  2.00

> <Gold.PLP.Chemscore.Internal.Correction>
0.0154

> <Gold.Rescore>
     Score         DG    S(hbond)    S(metal)    S(lipo)     H(rot)  DE(clash)    DE(int)     intcor
     13.32     -13.58       1.79        0.00      45.74       1.26       0.15       0.11       ----

> <Gold.Chemscore.Fitness>
13.3185

> <Gold.Chemscore.DG>
-13.5794

> <Gold.Chemscore.ZeroCoef>
-5.4800

> <Gold.Chemscore.Hbond>
1.7906

> <Gold.Chemscore.Metal>
0.0000

> <Gold.Chemscore.Lipo>
45.7443

> <Gold.Chemscore.Internal_Hbond>
0.0000

> <Gold.Chemscore.DEClash>
0.1492

> <Gold.Chemscore.DEInternal>
0.1118

> <Gold.Chemscore.Rot>
1.2630

> <Gold.Chemscore.Internal.Correction>
   9.000000E+99

> <Gold.Chemscore.Hbonds>
donor molecule, donor type, donor heavy atom, donor atom, acceptor molecule, acceptor atom, score
      L1  H     8    22       P1  7957  1.00
      P1  H  7997  8008       L1    13  0.42

> <Gold.Chemscore.Hbond.Weighted>
-5.9806

> <Gold.Chemscore.Metal.Weighted>
-0.0000

> <Gold.Chemscore.Lipo.Weighted>
-5.3521

> <Gold.Chemscore.Internal_Hbond.Weighted>
0.0000

> <Gold.Chemscore.DEClash.Weighted>
0.1492

> <Gold.Chemscore.DEInternal.Weighted>
0.1118

> <Gold.Chemscore.Rot.Weighted>
3.2333

> <Gold.Chemscore.Internal.Correction.Weighted>
   9.000000E+99

> <Gold.Protein.RotatedTorsions>
[ 6907 6896 6895 6894 ] final  140.78 input  -60.11 | X-H torsion
[ 7974 7965 7964 7962 ] final -132.13 input  175.53 | X-H torsion
[ 8008 7997 7996 7995 ] final  -86.37 input   59.86 | X-H torsion
[ 10167 10162 10161 10158 ] final  -46.40 input  -65.29 | X-H torsion
[ 10718 10713 10712 10709 ] final  -60.55 input   66.30 | X-H torsion
[ 10763 10752 10751 10750 ] final  -96.07 input  -60.55 | X-H torsion
[ 11005 11000 10999 10996 ] final  132.82 input  -57.11 | X-H torsion

> <Gold.Protein.ActiveResidues>
 VAL166  LYS551  ARG553  GLY616  TRP617  ASP618  TYR619  PRO620  LYS621  CYS622 
 ASP623  PHE694  ASN695  SER759  ASP760  ASP761  ALA762  ILE779  LEU786  VAL792 
 PHE793  MET794  SER795  GLU796  ALA797  LYS798  CYS799  TRP800  GLU811  SER814 

> <Gold.Protein.RotatedAtoms>
  152.2389  133.5119  159.5258 H   0  0  0  0  0  0  0  0  0  0  0  0  # atno 6907 bound_to 6896
  150.7058  134.1116  159.4011 H   0  0  0  0  0  0  0  0  0  0  0  0  # atno 6908 bound_to 6896
  151.9037  135.0367  160.0559 H   0  0  0  0  0  0  0  0  0  0  0  0  # atno 6909 bound_to 6896
  144.9314  140.7133  143.4903 H   0  0  0  0  0  0  0  0  0  0  0  0  # atno 7974 bound_to 7965
  154.6511  140.0579  156.9956 H   0  0  0  0  0  0  0  0  0  0  0  0  # atno 8008 bound_to 7997
  155.1370  140.3262  155.4442 H   0  0  0  0  0  0  0  0  0  0  0  0  # atno 8009 bound_to 7997
  156.2576  140.1971  156.6487 H   0  0  0  0  0  0  0  0  0  0  0  0  # atno 8010 bound_to 7997
  140.6819  143.2833  151.3777 H   0  0  0  0  0  0  0  0  0  0  0  0  # atno 10167 bound_to 10162
  156.0983  130.4190  150.0869 H   0  0  0  0  0  0  0  0  0  0  0  0  # atno 10718 bound_to 10713
  154.7206  135.5097  153.8806 H   0  0  0  0  0  0  0  0  0  0  0  0  # atno 10763 bound_to 10752
  153.0859  135.6645  153.9959 H   0  0  0  0  0  0  0  0  0  0  0  0  # atno 10764 bound_to 10752
  153.9782  135.3031  155.3401 H   0  0  0  0  0  0  0  0  0  0  0  0  # atno 10765 bound_to 10752
  139.9813  134.9547  156.9636 H   0  0  0  0  0  0  0  0  0  0  0  0  # atno 11005 bound_to 11000
  145.3136  139.1811  143.4625 LP  0  0  0  0  0  0  0  0  0  0  0  0  # atno 17320 bound_to 7965
  146.3248  140.3144  142.8629 LP  0  0  0  0  0  0  0  0  0  0  0  0  # atno 17321 bound_to 7965
  139.6147  144.1026  152.2334 LP  0  0  0  0  0  0  0  0  0  0  0  0  # atno 17342 bound_to 10162
  140.0452  144.5976  150.7380 LP  0  0  0  0  0  0  0  0  0  0  0  0  # atno 17343 bound_to 10162
  156.8863  130.9573  151.3593 LP  0  0  0  0  0  0  0  0  0  0  0  0  # atno 17370 bound_to 10713
  157.6148  130.8610  149.9011 LP  0  0  0  0  0  0  0  0  0  0  0  0  # atno 17371 bound_to 10713
  140.5090  134.1021  155.7266 LP  0  0  0  0  0  0  0  0  0  0  0  0  # atno 17394 bound_to 11000
  141.1485  133.9012  157.2157 LP  0  0  0  0  0  0  0  0  0  0  0  0  # atno 17395 bound_to 11000

$$$$
