AV-unprocessed.smi:2655|AV-procd|sdf|10301|dock2
  -GOLD-   2272014313D 1   1.00000     0.00000
 Structure written by MMmdl.
 32 33  0  0  0  0  0  0  0  0  3 V2000
  151.2758  141.2562  156.5348 C   0  0  0  0  0  0  0  0  0  0  0  0
  151.6691  139.9374  155.9345 C   0  0  0  0  0  0  0  0  0  0  0  0
  152.7594  139.8742  155.1766 N   0  0  0  0  0  0  0  0  0  0  0  0
  152.8290  138.5823  154.8040 N   0  0  0  0  0  0  0  0  0  0  0  0
  151.7944  137.8459  155.3204 C   0  0  0  0  0  0  0  0  0  0  0  0
  151.6813  136.5293  155.0672 O   0  5  0  0  0  0  0  0  0  0  0  0
  151.0060  138.6771  156.0629 C   0  0  0  0  0  0  0  0  0  0  0  0
  149.7514  138.3602  156.8324 C   0  0  0  0  0  0  0  0  0  0  0  0
  150.0030  137.2877  157.9048 C   0  0  0  0  0  0  0  0  0  0  0  0
  149.2464  137.5548  159.1238 N   0  0  0  0  0  0  0  0  0  0  0  0
  148.6896  136.6341  159.9238 C   0  0  0  0  0  0  0  0  0  0  0  0
  148.8029  135.4358  159.6555 O   0  0  0  0  0  0  0  0  0  0  0  0
  148.0325  137.1595  160.9844 N   0  5  0  0  0  0  0  0  0  0  0  0
  147.0526  136.4644  161.5822 C   0  0  0  0  0  0  0  0  0  0  0  0
  145.6742  136.8120  161.6000 C   0  0  0  0  0  0  0  0  0  0  0  0
  145.1085  135.8090  162.3345 C   0  0  0  0  0  0  0  0  0  0  0  0
  143.7048  135.5270  162.7490 C   0  0  0  0  0  0  0  0  0  0  0  0
  146.0611  134.9276  162.7422 O   0  0  0  0  0  0  0  0  0  0  0  0
  147.3038  135.3579  162.2619 N   0  0  0  0  0  0  0  0  0  0  0  0
  150.6604  141.1184  157.4236 H   0  0  0  0  0  0  0  0  0  0  0  0
  150.7039  141.8521  155.8238 H   0  0  0  0  0  0  0  0  0  0  0  0
  152.1510  141.8356  156.8290 H   0  0  0  0  0  0  0  0  0  0  0  0
  153.5688  138.2301  154.2139 H   0  0  0  0  0  0  0  0  0  0  0  0
  148.9659  138.0205  156.1564 H   0  0  0  0  0  0  0  0  0  0  0  0
  149.3598  139.2604  157.3071 H   0  0  0  0  0  0  0  0  0  0  0  0
  149.7642  136.2951  157.5194 H   0  0  0  0  0  0  0  0  0  0  0  0
  151.0603  137.2705  158.1701 H   0  0  0  0  0  0  0  0  0  0  0  0
  149.1293  138.5234  159.3821 H   0  0  0  0  0  0  0  0  0  0  0  0
  145.1818  137.6572  161.1428 H   0  0  0  0  0  0  0  0  0  0  0  0
  143.3340  136.3101  163.4102 H   0  0  0  0  0  0  0  0  0  0  0  0
  143.6337  134.5766  163.2782 H   0  0  0  0  0  0  0  0  0  0  0  0
  143.0488  135.4790  161.8799 H   0  0  0  0  0  0  0  0  0  0  0  0
  1 20  1  0  0  0  0
  1 21  1  0  0  0  0
  1 22  1  0  0  0  0
  1  2  1  0  0  0  0
  2  7  1  0  0  0  0
  2  3  2  0  0  0  0
  3  4  1  0  0  0  0
  4 23  1  0  0  0  0
  4  5  1  0  0  0  0
  5  7  2  0  0  0  0
  5  6  1  0  0  0  0
  7  8  1  0  0  0  0
  8  9  1  0  0  0  0
  8 24  1  0  0  0  0
  8 25  1  0  0  0  0
  9 10  1  0  0  0  0
  9 26  1  0  0  0  0
  9 27  1  0  0  0  0
 10 11  1  0  0  0  0
 10 28  1  0  0  0  0
 11 12  2  0  0  0  0
 11 13  1  0  0  0  0
 13 14  1  0  0  0  0
 14 19  2  0  0  0  0
 14 15  1  0  0  0  0
 15 16  2  0  0  0  0
 15 29  1  0  0  0  0
 16 17  1  0  0  0  0
 16 18  1  0  0  0  0
 17 30  1  0  0  0  0
 17 31  1  0  0  0  0
 17 32  1  0  0  0  0
 18 19  1  0  0  0  0
M  CHG  1   6  -1
M  CHG  1  13  -1
M  END
> <s_m_source_file>
AV-unprocessed.smi

> <i_m_source_file_index>
2655

> <i_lp_mmshare_version>
43012

> <i_f3d_flags>
0

> <s_epik_input>
W0NIM11DMT1OW05IXUMoPU8pW0NASF0xW0NIMl1bQ0gyXVtOSF1DKD1PKVtOSF1jMltjSF1jKFtDSDNdKW9uMg==

> <s_epik_cmdline>
J2VwaWtfcHl0aG9uJywgJy1waCcsICc3LjAnLCAnLXRuJywgJzgnLCAnLW1hJywgJzIwMCcsICctbWV0YWxfYmluZGluZycsICctaW1hZScsICc8aW5maWxlLm1hZT4nLCAnLW9tYWUnLCAnPG91dGZpbGUubWFlPic=

> <r_lp_tautomer_probability>
0.99495

> <r_epik_Ionization_Penalty>
8.09923

> <r_epik_Ionization_Penalty_Charging>
6.55729

> <r_epik_Ionization_Penalty_Neutral>
1.54195

> <r_epik_State_Penalty>
6.87174

> <r_epik_Charging_Adjusted_Penalty>
13.429

> <i_epik_Tot_Q>
-2

> <i_epik_Tot_abs_Q>
2

> <r_epik_Metal_State_Penalty>
4.19188

> <b_epik_Metal_Only>
1

> <s_lp_Force_Field>
OPLS_2005

> <r_lp_Energy>
-4.19881

> <b_lp_Chiralities_Consistent>
1

> <s_lp_Variant>
AV-unprocessed.smi:2655-4

> <Gold.Version>
5.8.1

> <Gold.Id.Protein>
6NUR|6NUR_protein|mol2

> <Gold.PLP.Fitness>
48.9235

> <Gold.PLP.PLP>
-28.1187

> <Gold.PLP.part.hbond>
-5.9389

> <Gold.PLP.part.metal>
0.0000

> <Gold.PLP.part.buried>
-6.3730

> <Gold.PLP.part.nonpolar>
-16.8995

> <Gold.PLP.part.repulsive>
0.5830

> <Gold.PLP.ligand.clash>
0.0000

> <Gold.PLP.ligand.torsion>
1.1925

> <Gold.PLP.Chemscore.Hbond>
7.7137

> <Gold.PLP.Chemscore.CHOScore>
0.0000

> <Gold.PLP.Chemscore.Metal>
0.0000

> <Gold.Chemscore.Hbonds>
donor molecule, donor type, donor heavy atom, donor atom, acceptor molecule, acceptor atom, score
      P1  H  6896  6907       L1    12  0.93
      P1  H  6931  6943       L1    13  1.92
      P1  H  6934  6947       L1    13  1.40
      P1  H  7989  7998       L1     3  0.15
      P1  H  7997  8008       L1     3  1.00
      P1  H 10752 10763       L1     6  2.00

> <Gold.PLP.Chemscore.Internal.Correction>
0.0486

> <Gold.Rescore>
     Score         DG    S(hbond)    S(metal)    S(lipo)     H(rot)  DE(clash)    DE(int)     intcor
     15.60     -17.70       3.56        0.00      42.73       1.82       0.03       2.07       ----

> <Gold.Chemscore.Fitness>
15.6040

> <Gold.Chemscore.DG>
-17.7045

> <Gold.Chemscore.ZeroCoef>
-5.4800

> <Gold.Chemscore.Hbond>
3.5595

> <Gold.Chemscore.Metal>
0.0000

> <Gold.Chemscore.Lipo>
42.7264

> <Gold.Chemscore.Internal_Hbond>
0.0000

> <Gold.Chemscore.DEClash>
0.0284

> <Gold.Chemscore.DEInternal>
2.0721

> <Gold.Chemscore.Rot>
1.8215

> <Gold.Chemscore.Internal.Correction>
   9.000000E+99

> <Gold.Chemscore.Hbonds>
donor molecule, donor type, donor heavy atom, donor atom, acceptor molecule, acceptor atom, score
      P1  H  6896  6907       L1    12  0.76
      P1  H  6931  6943       L1    13  0.75
      P1  H  6934  6947       L1    13  0.19
      P1  H  7997  8008       L1     3  0.43
      P1  H 10752 10763       L1     6  0.99

> <Gold.Chemscore.Hbond.Weighted>
-11.8886

> <Gold.Chemscore.Metal.Weighted>
-0.0000

> <Gold.Chemscore.Lipo.Weighted>
-4.9990

> <Gold.Chemscore.Internal_Hbond.Weighted>
0.0000

> <Gold.Chemscore.DEClash.Weighted>
0.0284

> <Gold.Chemscore.DEInternal.Weighted>
2.0721

> <Gold.Chemscore.Rot.Weighted>
4.6631

> <Gold.Chemscore.Internal.Correction.Weighted>
   9.000000E+99

> <Gold.Protein.RotatedTorsions>
[ 6907 6896 6895 6894 ] final  -57.48 input  -60.11 | X-H torsion
[ 7974 7965 7964 7962 ] final  119.83 input  175.53 | X-H torsion
[ 8008 7997 7996 7995 ] final  -19.96 input   59.86 | X-H torsion
[ 10167 10162 10161 10158 ] final  172.28 input  -65.29 | X-H torsion
[ 10718 10713 10712 10709 ] final -145.38 input   66.30 | X-H torsion
[ 10763 10752 10751 10750 ] final   61.89 input  -60.55 | X-H torsion
[ 11005 11000 10999 10996 ] final  -15.22 input  -57.11 | X-H torsion

> <Gold.Protein.ActiveResidues>
 VAL166  LYS551  ARG553  GLY616  TRP617  ASP618  TYR619  PRO620  LYS621  CYS622 
 ASP623  PHE694  ASN695  SER759  ASP760  ASP761  ALA762  ILE779  LEU786  VAL792 
 PHE793  MET794  SER795  GLU796  ALA797  LYS798  CYS799  TRP800  GLU811  SER814 

> <Gold.Protein.RotatedAtoms>
  150.8083  134.7222  159.6663 H   0  0  0  0  0  0  0  0  0  0  0  0  # atno 6907 bound_to 6896
  152.4203  134.5965  159.9998 H   0  0  0  0  0  0  0  0  0  0  0  0  # atno 6908 bound_to 6896
  151.6182  133.3304  159.3118 H   0  0  0  0  0  0  0  0  0  0  0  0  # atno 6909 bound_to 6896
  145.1384  139.3283  143.4628 H   0  0  0  0  0  0  0  0  0  0  0  0  # atno 7974 bound_to 7965
  154.4801  140.2074  155.9783 H   0  0  0  0  0  0  0  0  0  0  0  0  # atno 8008 bound_to 7997
  156.1152  140.3222  155.8098 H   0  0  0  0  0  0  0  0  0  0  0  0  # atno 8009 bound_to 7997
  155.4565  140.0521  157.2986 H   0  0  0  0  0  0  0  0  0  0  0  0  # atno 8010 bound_to 7997
  139.5072  144.3392  152.0035 H   0  0  0  0  0  0  0  0  0  0  0  0  # atno 10167 bound_to 10162
  156.3818  130.7840  151.2033 H   0  0  0  0  0  0  0  0  0  0  0  0  # atno 10718 bound_to 10713
  152.9965  135.5484  154.6105 H   0  0  0  0  0  0  0  0  0  0  0  0  # atno 10763 bound_to 10752
  154.5427  135.2821  155.1083 H   0  0  0  0  0  0  0  0  0  0  0  0  # atno 10764 bound_to 10752
  154.2354  135.6426  153.5242 H   0  0  0  0  0  0  0  0  0  0  0  0  # atno 10765 bound_to 10752
  140.7945  133.8262  155.9410 H   0  0  0  0  0  0  0  0  0  0  0  0  # atno 11005 bound_to 11000
  146.3507  140.1411  142.8594 LP  0  0  0  0  0  0  0  0  0  0  0  0  # atno 17320 bound_to 7965
  145.0559  140.9052  143.4968 LP  0  0  0  0  0  0  0  0  0  0  0  0  # atno 17321 bound_to 7965
  140.2830  144.3839  150.6113 LP  0  0  0  0  0  0  0  0  0  0  0  0  # atno 17342 bound_to 10162
  140.6004  143.2167  151.7083 LP  0  0  0  0  0  0  0  0  0  0  0  0  # atno 17343 bound_to 10162
  157.7493  131.0342  150.4306 LP  0  0  0  0  0  0  0  0  0  0  0  0  # atno 17370 bound_to 10713
  156.4551  130.4020  149.6611 LP  0  0  0  0  0  0  0  0  0  0  0  0  # atno 17371 bound_to 10713
  140.9357  134.1965  157.4833 LP  0  0  0  0  0  0  0  0  0  0  0  0  # atno 17394 bound_to 11000
  139.8728  134.9851  156.5268 LP  0  0  0  0  0  0  0  0  0  0  0  0  # atno 17395 bound_to 11000

$$$$
