#       Name:                AV-unprocessed.smi:2880
#       Creating user name   scv26
#       Creation time:       Fri Mar 27 15:52:13 2020


#       File generated by GOLD software.
#

@<TRIPOS>MOLECULE
AV-unprocessed.smi:2880
    52    53     1
SMALL
NO_CHARGES


@<TRIPOS>ATOM
      1 ****        -4.0522   4.0203  -1.5190 C.3            1 S1                 0.0000
      2 ****        -3.2412   3.6580  -0.2598 C.3            1 S1                 0.0000
      3 ****        -1.9483   4.5080  -0.2467 C.3            1 S1                 0.0000
      4 ****        -4.0598   3.9948   1.0019 C.3            1 S1                 0.0000
      5 ****        -2.9584   2.2164  -0.2747 N.pl3          1 S1                 0.0000
      6 ****        -3.8686   1.1726  -0.2767 C.2            1 S1                 0.0000
      7 ****        -3.1697  -0.0005  -0.2981 C.2            1 S1                 0.0000
      8 ****        -1.8161   0.4291  -0.3089 C.2            1 S1                 0.0000
      9 ****        -0.7571  -0.5138  -0.3300 N.am           1 S1                 0.0000
     10 ****         0.5635  -0.2646  -0.3166 C.2            1 S1                 0.0000
     11 ****         1.0729   0.8563  -0.3014 O.2            1 S1                 0.0000
     12 ****         1.2681  -1.4059  -0.3156 N.am           1 S1                 0.0000
     13 ****         2.7279  -1.5223  -0.2766 C.3            1 S1                 0.0000
     14 ****         3.2305  -2.2681  -1.5294 C.3            1 S1                 0.0000
     15 ****         2.8483  -3.7579  -1.5129 C.3            1 S1                 0.0000
     16 ****         3.3356  -4.4413  -0.2271 C.3            1 S1                 0.0000
     17 ****         2.8179  -3.7145   1.0243 C.3            1 S1                 0.0000
     18 ****         3.2109  -2.2215   1.0233 C.3            1 S1                 0.0000
     19 ****         2.7383  -1.5244   2.3169 C.3            1 S1                 0.0000
     20 ****         3.2600  -0.2151   2.4029 O.3            1 S1                 0.0000
     21 ****        -1.6874   1.7471  -0.2962 N.2            1 S1                 0.0000
     22 ****        -4.2770   5.0867  -1.5525 H              1 S1                 0.0000
     23 ****        -5.0031   3.4878  -1.5553 H              1 S1                 0.0000
     24 ****        -3.5023   3.7720  -2.4275 H              1 S1                 0.0000
     25 ****        -1.3344   4.3218  -1.1290 H              1 S1                 0.0000
     26 ****        -1.3390   4.3007   0.6341 H              1 S1                 0.0000
     27 ****        -2.1779   5.5740  -0.2348 H              1 S1                 0.0000
     28 ****        -4.2815   5.0611   1.0572 H              1 S1                 0.0000
     29 ****        -3.5162   3.7253   1.9083 H              1 S1                 0.0000
     30 ****        -5.0127   3.4650   1.0206 H              1 S1                 0.0000
     31 ****        -4.9339   1.3499  -0.2627 H              1 S1                 0.0000
     32 ****        -3.5664  -1.0047  -0.3048 H              1 S1                 0.0000
     33 ****        -1.0353  -1.4837  -0.3426 H              1 S1                 0.0000
     34 ****         0.7531  -2.2737  -0.3319 H              1 S1                 0.0000
     35 ****         3.1701  -0.5251  -0.3044 H              1 S1                 0.0000
     36 ****         2.8442  -1.7931  -2.4321 H              1 S1                 0.0000
     37 ****         4.3165  -2.1812  -1.5841 H              1 S1                 0.0000
     38 ****         1.7661  -3.8639  -1.5975 H              1 S1                 0.0000
     39 ****         3.2743  -4.2586  -2.3827 H              1 S1                 0.0000
     40 ****         3.0112  -5.4822  -0.2137 H              1 S1                 0.0000
     41 ****         4.4261  -4.4582  -0.2137 H              1 S1                 0.0000
     42 ****         1.7333  -3.8148   1.0833 H              1 S1                 0.0000
     43 ****         3.2181  -4.2027   1.9135 H              1 S1                 0.0000
     44 ****         4.3018  -2.1844   1.0229 H              1 S1                 0.0000
     45 ****         1.6504  -1.4849   2.3759 H              1 S1                 0.0000
     46 ****         3.0807  -2.0797   3.1905 H              1 S1                 0.0000
     47 ****         2.9205   0.1940   3.1843 H              1 S1                 0.0000
     48 ****         0.4913   1.6698  -0.2983 LP             1 S1                 0.0000
     49 ****         2.0681   0.9531  -0.2922 LP             1 S1                 0.0000
     50 ****         2.9827   0.3115   1.5992 LP             1 S1                 0.0000
     51 ****         4.2582  -0.2525   2.4487 LP             1 S1                 0.0000
     52 ****        -0.8402   2.2782  -0.3014 LP             1 S1                 0.0000
@<TRIPOS>BOND
    1    1    2 1     
    2    1   22 1     
    3    1   23 1     
    4    1   24 1     
    5    2    3 1     
    6    2    4 1     
    7    2    5 1     
    8    3   25 1     
    9    3   26 1     
   10    3   27 1     
   11    4   28 1     
   12    4   29 1     
   13    4   30 1     
   14    5   21 1     
   15    5    6 1     
   16    6    7 2     
   17    6   31 1     
   18    7    8 1     
   19    7   32 1     
   20    8    9 1     
   21    8   21 2     
   22    9   10 am    
   23    9   33 1     
   24   10   11 2     
   25   10   12 am    
   26   12   13 1     
   27   12   34 1     
   28   13   18 1     
   29   13   14 1     
   30   13   35 1     
   31   14   15 1     
   32   14   36 1     
   33   14   37 1     
   34   15   16 1     
   35   15   38 1     
   36   15   39 1     
   37   16   17 1     
   38   16   40 1     
   39   16   41 1     
   40   17   18 1     
   41   17   42 1     
   42   17   43 1     
   43   18   19 1     
   44   18   44 1     
   45   19   20 1     
   46   19   45 1     
   47   19   46 1     
   48   20   47 1     
   49   11   48 1     
   50   11   49 1     
   51   20   50 1     
   52   20   51 1     
   53   21   52 1     
@<TRIPOS>SUBSTRUCTURE
      1 S1             1
@<TRIPOS>SET
LONE_PAIRS      STATIC     ATOMS    <user>   **** ""
5 48 49 50 51 52
DONOR_HYDROGENS      STATIC     ATOMS    <user>   **** ""
3 33 34 47
ATOM$BLUE        STATIC     ATOMS    COLORGROUP SYSTEM
5 48 49 50 51 52
ATOM$RED        STATIC     ATOMS    COLORGROUP SYSTEM
3 33 34 47
