AV-unprocessed.smi:855|AV-procd|sdf|3957|dock5
  -GOLD-   22720 1423D 1   1.00000     0.00000
 Structure written by MMmdl.
 35 36  0  0  0  0  0  0  0  0  3 V2000
  149.5677  135.1521  154.7918 C   0  0  0  0  0  0  0  0  0  0  0  0
  150.1963  136.4994  154.6842 C   0  0  0  0  0  0  0  0  0  0  0  0
  149.6966  137.7668  154.7849 C   0  0  0  0  0  0  0  0  0  0  0  0
  150.8397  138.5844  154.5705 C   0  0  0  0  0  0  0  0  0  0  0  0
  150.8644  139.9263  154.5823 N   0  5  0  0  0  0  0  0  0  0  0  0
  149.7128  140.6263  154.6956 C   0  0  0  0  0  0  0  0  0  0  0  0
  149.2002  141.0309  155.7417 O   0  0  0  0  0  0  0  0  0  0  0  0
  149.1142  140.8733  153.5231 N   0  0  0  0  0  0  0  0  0  0  0  0
  147.8577  141.5914  153.3653 C   0  0  0  0  0  0  0  0  0  0  0  0
  146.8117  141.0760  154.3638 C   0  0  0  0  0  0  0  0  0  0  0  0
  145.6227  141.9575  154.4200 N   0  3  0  0  0  0  0  0  0  0  0  0
  144.8752  141.9281  155.6923 C   0  0  0  0  0  0  0  0  0  0  0  0
  144.0233  143.2002  155.6939 C   0  0  0  0  0  0  0  0  0  0  0  0
  144.7101  144.1544  154.7085 C   0  0  0  0  0  0  0  0  0  0  0  0
  145.9106  143.3795  154.1562 C   0  0  0  0  0  0  0  0  0  0  0  0
  151.9391  137.8756  154.3748 N   0  0  0  0  0  0  0  0  0  0  0  0
  151.5337  136.5371  154.4388 O   0  0  0  0  0  0  0  0  0  0  0  0
  148.9737  135.0753  155.7026 H   0  0  0  0  0  0  0  0  0  0  0  0
  150.3232  134.3665  154.8148 H   0  0  0  0  0  0  0  0  0  0  0  0
  148.9110  134.9649  153.9423 H   0  0  0  0  0  0  0  0  0  0  0  0
  148.6761  138.0625  154.9768 H   0  0  0  0  0  0  0  0  0  0  0  0
  149.5616  140.5259  152.6874 H   0  0  0  0  0  0  0  0  0  0  0  0
  148.0291  142.6579  153.5203 H   0  0  0  0  0  0  0  0  0  0  0  0
  147.5073  141.4634  152.3403 H   0  0  0  0  0  0  0  0  0  0  0  0
  146.5099  140.0575  154.1144 H   0  0  0  0  0  0  0  0  0  0  0  0
  147.2603  141.0364  155.3577 H   0  0  0  0  0  0  0  0  0  0  0  0
  144.2696  141.0266  155.7898 H   0  0  0  0  0  0  0  0  0  0  0  0
  145.5758  141.9561  156.5286 H   0  0  0  0  0  0  0  0  0  0  0  0
  143.0133  142.9770  155.3473 H   0  0  0  0  0  0  0  0  0  0  0  0
  143.9398  143.6272  156.6937 H   0  0  0  0  0  0  0  0  0  0  0  0
  144.0220  144.4131  153.9027 H   0  0  0  0  0  0  0  0  0  0  0  0
  145.0210  145.0841  155.1859 H   0  0  0  0  0  0  0  0  0  0  0  0
  146.8134  143.6735  154.6944 H   0  0  0  0  0  0  0  0  0  0  0  0
  146.0762  143.5656  153.0945 H   0  0  0  0  0  0  0  0  0  0  0  0
  144.9846  141.6567  153.6969 H   0  0  0  0  0  0  0  0  0  0  0  0
  1  2  1  0  0  0  0
  1 18  1  0  0  0  0
  1 19  1  0  0  0  0
  1 20  1  0  0  0  0
  2 17  1  0  0  0  0
  2  3  2  0  0  0  0
  3  4  1  0  0  0  0
  3 21  1  0  0  0  0
  4  5  1  0  0  0  0
  4 16  2  0  0  0  0
  5  6  1  0  0  0  0
  6  7  2  0  0  0  0
  6  8  1  0  0  0  0
  8  9  1  0  0  0  0
  8 22  1  0  0  0  0
  9 10  1  0  0  0  0
  9 23  1  0  0  0  0
  9 24  1  0  0  0  0
 10 11  1  0  0  0  0
 10 25  1  0  0  0  0
 10 26  1  0  0  0  0
 11 15  1  0  0  0  0
 11 12  1  0  0  0  0
 11 35  1  0  0  0  0
 12 13  1  0  0  0  0
 12 27  1  0  0  0  0
 12 28  1  0  0  0  0
 13 14  1  0  0  0  0
 13 29  1  0  0  0  0
 13 30  1  0  0  0  0
 14 15  1  0  0  0  0
 14 31  1  0  0  0  0
 14 32  1  0  0  0  0
 15 33  1  0  0  0  0
 15 34  1  0  0  0  0
 16 17  1  0  0  0  0
M  CHG  1   5  -1
M  CHG  1  11   1
M  END
> <s_m_source_file>
AV-unprocessed.smi

> <i_m_source_file_index>
855

> <i_lp_mmshare_version>
43012

> <i_f3d_flags>
0

> <s_epik_input>
W0NIM11jMVtjSF1jKG5vMSlbTkhdQyg9TylbTkhdW0NIMl1bQ0gyXU4yW0NIMl1bQ0gyXVtDSDJdW0NIMl0y

> <s_epik_cmdline>
J2VwaWtfcHl0aG9uJywgJy1waCcsICc3LjAnLCAnLXRuJywgJzgnLCAnLW1hJywgJzIwMCcsICctbWV0YWxfYmluZGluZycsICctaW1hZScsICc8aW5maWxlLm1hZT4nLCAnLW9tYWUnLCAnPG91dGZpbGUubWFlPic=

> <r_epik_Ionization_Penalty>
6.22372

> <r_epik_Ionization_Penalty_Charging>
6.22363

> <r_epik_Ionization_Penalty_Neutral>
9.36971e-05

> <r_epik_State_Penalty>
6.22291

> <r_epik_Charging_Adjusted_Penalty>
12.4465

> <i_epik_Tot_Q>
0

> <i_epik_Tot_abs_Q>
2

> <r_epik_Metal_State_Penalty>
2.16624

> <b_epik_Metal_Only>
1

> <s_lp_Force_Field>
OPLS_2005

> <r_lp_Energy>
15.2309

> <b_lp_Chiralities_Consistent>
1

> <s_lp_Variant>
AV-unprocessed.smi:855-2

> <Gold.Version>
5.8.1

> <Gold.Id.Protein>
6NUR|6NUR_protein|mol2

> <Gold.PLP.Fitness>
40.8989

> <Gold.PLP.PLP>
-28.2455

> <Gold.PLP.part.hbond>
-4.2597

> <Gold.PLP.part.metal>
0.0000

> <Gold.PLP.part.buried>
-6.1092

> <Gold.PLP.part.nonpolar>
-19.1776

> <Gold.PLP.part.repulsive>
0.6456

> <Gold.PLP.ligand.clash>
0.0000

> <Gold.PLP.ligand.torsion>
1.1909

> <Gold.PLP.Chemscore.Hbond>
5.0000

> <Gold.PLP.Chemscore.CHOScore>
0.0000

> <Gold.PLP.Chemscore.Metal>
0.0000

> <Gold.Chemscore.Hbonds>
donor molecule, donor type, donor heavy atom, donor atom, acceptor molecule, acceptor atom, score
      L1  H     8    22       P1  7957  1.00
      L1  H    11    35       P1 10175  1.11
      P1  H  7989  7998       L1     5  0.95
      P1  H 10752 10765       L1    17  1.00

> <Gold.PLP.Chemscore.Internal.Correction>
0.0352

> <Gold.Rescore>
     Score         DG    S(hbond)    S(metal)    S(lipo)     H(rot)  DE(clash)    DE(int)     intcor
     16.00     -18.49       3.89        0.00      34.52       1.57       0.11       2.37       ----

> <Gold.Chemscore.Fitness>
15.9994

> <Gold.Chemscore.DG>
-18.4877

> <Gold.Chemscore.ZeroCoef>
-5.4800

> <Gold.Chemscore.Hbond>
3.8909

> <Gold.Chemscore.Metal>
0.0000

> <Gold.Chemscore.Lipo>
34.5234

> <Gold.Chemscore.Internal_Hbond>
0.0000

> <Gold.Chemscore.DEClash>
0.1147

> <Gold.Chemscore.DEInternal>
2.3736

> <Gold.Chemscore.Rot>
1.5731

> <Gold.Chemscore.Internal.Correction>
   9.000000E+99

> <Gold.Chemscore.Hbonds>
donor molecule, donor type, donor heavy atom, donor atom, acceptor molecule, acceptor atom, score
      L1  H     8    22       P1  7957  0.97
      L1  H    11    35       P1 10175  0.06
      P1  H  7989  7998       L1     5  0.21
      P1  H 10752 10765       L1    17  0.55

> <Gold.Chemscore.Hbond.Weighted>
-12.9955

> <Gold.Chemscore.Metal.Weighted>
-0.0000

> <Gold.Chemscore.Lipo.Weighted>
-4.0392

> <Gold.Chemscore.Internal_Hbond.Weighted>
0.0000

> <Gold.Chemscore.DEClash.Weighted>
0.1147

> <Gold.Chemscore.DEInternal.Weighted>
2.3736

> <Gold.Chemscore.Rot.Weighted>
4.0271

> <Gold.Chemscore.Internal.Correction.Weighted>
   9.000000E+99

> <Gold.Protein.RotatedTorsions>
[ 6907 6896 6895 6894 ] final  110.25 input  -60.11 | X-H torsion
[ 7974 7965 7964 7962 ] final  -99.28 input  175.53 | X-H torsion
[ 8008 7997 7996 7995 ] final  -46.58 input   59.86 | X-H torsion
[ 10167 10162 10161 10158 ] final -121.10 input  -65.29 | X-H torsion
[ 10718 10713 10712 10709 ] final  134.89 input   66.30 | X-H torsion
[ 10763 10752 10751 10750 ] final  168.61 input  -60.55 | X-H torsion
[ 11005 11000 10999 10996 ] final   91.45 input  -57.11 | X-H torsion

> <Gold.Protein.ActiveResidues>
 VAL166  LYS551  ARG553  GLY616  TRP617  ASP618  TYR619  PRO620  LYS621  CYS622 
 ASP623  PHE694  ASN695  SER759  ASP760  ASP761  ALA762  ILE779  LEU786  VAL792 
 PHE793  MET794  SER795  GLU796  ALA797  LYS798  CYS799  TRP800  GLU811  SER814 

> <Gold.Protein.RotatedAtoms>
  152.5028  133.8827  159.7353 H   0  0  0  0  0  0  0  0  0  0  0  0  # atno 6907 bound_to 6896
  150.9285  133.6786  159.2823 H   0  0  0  0  0  0  0  0  0  0  0  0  # atno 6908 bound_to 6896
  151.4138  135.0993  159.9646 H   0  0  0  0  0  0  0  0  0  0  0  0  # atno 6909 bound_to 6896
  145.3097  140.9397  143.2777 H   0  0  0  0  0  0  0  0  0  0  0  0  # atno 7974 bound_to 7965
  154.4008  140.1368  156.4035 H   0  0  0  0  0  0  0  0  0  0  0  0  # atno 8008 bound_to 7997
  155.7802  140.3481  155.5273 H   0  0  0  0  0  0  0  0  0  0  0  0  # atno 8009 bound_to 7997
  155.8681  140.0967  157.1559 H   0  0  0  0  0  0  0  0  0  0  0  0  # atno 8010 bound_to 7997
  140.0287  143.5270  152.2186 H   0  0  0  0  0  0  0  0  0  0  0  0  # atno 10167 bound_to 10162
  157.4627  131.1074  150.9900 H   0  0  0  0  0  0  0  0  0  0  0  0  # atno 10718 bound_to 10713
  154.3711  135.2753  155.2266 H   0  0  0  0  0  0  0  0  0  0  0  0  # atno 10763 bound_to 10752
  154.4413  135.5953  153.6135 H   0  0  0  0  0  0  0  0  0  0  0  0  # atno 10764 bound_to 10752
  152.9838  135.6019  154.3942 H   0  0  0  0  0  0  0  0  0  0  0  0  # atno 10765 bound_to 10752
  139.8838  134.8675  156.3430 H   0  0  0  0  0  0  0  0  0  0  0  0  # atno 11005 bound_to 11000
  144.9026  139.4630  143.6625 LP  0  0  0  0  0  0  0  0  0  0  0  0  # atno 17320 bound_to 7965
  146.3122  139.7789  142.9011 LP  0  0  0  0  0  0  0  0  0  0  0  0  # atno 17321 bound_to 7965
  139.6090  144.7604  151.2994 LP  0  0  0  0  0  0  0  0  0  0  0  0  # atno 17342 bound_to 10162
  140.7311  143.6860  150.7961 LP  0  0  0  0  0  0  0  0  0  0  0  0  # atno 17343 bound_to 10162
  157.0692  130.5857  149.5399 LP  0  0  0  0  0  0  0  0  0  0  0  0  # atno 17370 bound_to 10713
  156.0036  130.5119  150.7751 LP  0  0  0  0  0  0  0  0  0  0  0  0  # atno 17371 bound_to 10713
  140.9645  133.7367  156.0448 LP  0  0  0  0  0  0  0  0  0  0  0  0  # atno 17394 bound_to 11000
  140.7947  134.3577  157.5455 LP  0  0  0  0  0  0  0  0  0  0  0  0  # atno 17395 bound_to 11000

$$$$
