AV-unprocessed.smi:3314|AV-procd|sdf|12738|dock2
  -GOLD-   2272019 83D 1   1.00000     0.00000
 Structure written by MMmdl.
 38 39  0  0  0  0  0  0  0  0  2 V2000
  151.8545  145.2981  158.9172 C   0  0  0  0  0  0  0  0  0  0  0  0
  152.0268  143.7983  158.7900 C   0  0  0  0  0  0  0  0  0  0  0  0
  152.8842  143.0755  159.7137 C   0  0  0  0  0  0  0  0  0  0  0  0
  153.0204  141.7450  159.5873 C   0  0  0  0  0  0  0  0  0  0  0  0
  153.8936  140.9095  160.5001 C   0  0  0  0  0  0  0  0  0  0  0  0
  152.3516  141.0518  158.5855 N   0  0  0  0  0  0  0  0  0  0  0  0
  151.5126  141.6790  157.6477 C   0  0  0  0  0  0  0  0  0  0  0  0
  150.8753  141.0805  156.6836 N   0  0  0  0  0  0  0  0  0  0  0  0
  150.9425  139.7056  156.4736 C   0  0  0  0  0  0  0  0  0  0  0  0
  151.2098  138.8082  157.2781 O   0  0  0  0  0  0  0  0  0  0  0  0
  150.6387  139.3404  155.0043 C   0  0  1  0  0  0  0  0  0  0  0  0
  149.4825  138.3297  154.8084 C   0  0  0  0  0  0  0  0  0  0  0  0
  148.1686  138.9502  155.1024 N   0  3  2  0  0  0  0  0  0  0  0  0
  147.0461  137.9968  154.9740 C   0  0  0  0  0  0  0  0  0  0  0  0
  147.9725  140.1750  154.2945 C   0  0  0  0  0  0  0  0  0  0  0  0
  149.1330  141.1566  154.5218 C   0  0  0  0  0  0  0  0  0  0  0  0
  150.3712  140.5118  154.2252 O   0  0  0  0  0  0  0  0  0  0  0  0
  151.3824  143.1187  157.8122 C   0  0  0  0  0  0  0  0  0  0  0  0
  152.4264  145.6918  159.7579 H   0  0  0  0  0  0  0  0  0  0  0  0
  150.8046  145.5474  159.0740 H   0  0  0  0  0  0  0  0  0  0  0  0
  152.1951  145.7974  158.0099 H   0  0  0  0  0  0  0  0  0  0  0  0
  153.4110  143.6029  160.4959 H   0  0  0  0  0  0  0  0  0  0  0  0
  154.9302  141.2414  160.4367 H   0  0  0  0  0  0  0  0  0  0  0  0
  153.8582  139.8524  160.2336 H   0  0  0  0  0  0  0  0  0  0  0  0
  153.5642  141.0113  161.5345 H   0  0  0  0  0  0  0  0  0  0  0  0
  151.5492  138.8912  154.6056 H   0  0  0  0  0  0  0  0  0  0  0  0
  149.4857  137.9707  153.7779 H   0  0  0  0  0  0  0  0  0  0  0  0
  149.6283  137.4516  155.4394 H   0  0  0  0  0  0  0  0  0  0  0  0
  146.9548  137.6326  153.9498 H   0  0  0  0  0  0  0  0  0  0  0  0
  146.1049  138.4713  155.2538 H   0  0  0  0  0  0  0  0  0  0  0  0
  147.1941  137.1390  155.6307 H   0  0  0  0  0  0  0  0  0  0  0  0
  147.9090  139.9105  153.2377 H   0  0  0  0  0  0  0  0  0  0  0  0
  147.0285  140.6493  154.5647 H   0  0  0  0  0  0  0  0  0  0  0  0
  149.0245  142.0206  153.8663 H   0  0  0  0  0  0  0  0  0  0  0  0
  149.1241  141.5400  155.5426 H   0  0  0  0  0  0  0  0  0  0  0  0
  150.7544  143.6897  157.1431 H   0  0  0  0  0  0  0  0  0  0  0  0
  152.5104  140.0549  158.5564 H   0  0  0  0  0  0  0  0  0  0  0  0
  148.1935  139.2399  156.0699 H   0  0  0  0  0  0  0  0  0  0  0  0
  1  2  1  0  0  0  0
  1 19  1  0  0  0  0
  1 20  1  0  0  0  0
  1 21  1  0  0  0  0
  2 18  2  0  0  0  0
  2  3  1  0  0  0  0
  3  4  2  0  0  0  0
  3 22  1  0  0  0  0
  4  5  1  0  0  0  0
  4  6  1  0  0  0  0
  5 23  1  0  0  0  0
  5 24  1  0  0  0  0
  5 25  1  0  0  0  0
  6  7  1  0  0  0  0
  6 37  1  0  0  0  0
  7  8  2  0  0  0  0
  7 18  1  0  0  0  0
  8  9  1  0  0  0  0
  9 10  2  0  0  0  0
  9 11  1  0  0  0  0
 11 17  1  0  0  0  0
 11 12  1  0  0  0  0
 11 26  1  0  0  0  0
 12 13  1  0  0  0  0
 12 27  1  0  0  0  0
 12 28  1  0  0  0  0
 13 14  1  0  0  0  0
 13 15  1  0  0  0  0
 13 38  1  0  0  0  0
 14 29  1  0  0  0  0
 14 30  1  0  0  0  0
 14 31  1  0  0  0  0
 15 16  1  0  0  0  0
 15 32  1  0  0  0  0
 15 33  1  0  0  0  0
 16 17  1  0  0  0  0
 16 34  1  0  0  0  0
 16 35  1  0  0  0  0
 18 36  1  0  0  0  0
M  CHG  1  13   1
M  END
> <s_m_source_file>
AV-unprocessed.smi

> <i_m_source_file_index>
3314

> <i_lp_mmshare_version>
43012

> <i_f3d_flags>
0

> <s_epik_input>
W0NIM11jMVtjSF1jKFtDSDNdKW5jKFtjSF0xKVtOSF1DKD1PKVtDQEBIXTJbQ0gyXU4oW0NIM10pW0NIMl1bQ0gyXU8y

> <s_epik_cmdline>
J2VwaWtfcHl0aG9uJywgJy1waCcsICc3LjAnLCAnLXRuJywgJzgnLCAnLW1hJywgJzIwMCcsICctbWV0YWxfYmluZGluZycsICctaW1hZScsICc8aW5maWxlLm1hZT4nLCAnLW9tYWUnLCAnPG91dGZpbGUubWFlPic=

> <r_epik_Ionization_Penalty>
0.519783

> <r_epik_Ionization_Penalty_Charging>
0.519783

> <r_epik_Ionization_Penalty_Neutral>
1.74183e-13

> <r_epik_State_Penalty>
2.39351

> <r_epik_Charging_Adjusted_Penalty>
2.91329

> <i_epik_Tot_Q>
1

> <i_epik_Tot_abs_Q>
1

> <r_epik_Metal_State_Penalty>
2.41924

> <b_epik_Metal_Only>
0

> <s_lp_Force_Field>
OPLS_2005

> <r_lp_Energy>
32.167

> <b_lp_Chiralities_Consistent>
1

> <s_lp_Variant>
AV-unprocessed.smi:3314-8

> <Gold.Version>
5.8.1

> <Gold.Id.Protein>
6NUR|6NUR_protein|mol2

> <Gold.PLP.Fitness>
37.7428

> <Gold.PLP.PLP>
-35.4744

> <Gold.PLP.part.hbond>
-0.5505

> <Gold.PLP.part.metal>
0.0000

> <Gold.PLP.part.buried>
-4.9355

> <Gold.PLP.part.nonpolar>
-31.0124

> <Gold.PLP.part.repulsive>
0.2732

> <Gold.PLP.ligand.clash>
0.0000

> <Gold.PLP.ligand.torsion>
0.1433

> <Gold.PLP.Chemscore.Hbond>
0.8447

> <Gold.PLP.Chemscore.CHOScore>
0.0000

> <Gold.PLP.Chemscore.Metal>
0.0000

> <Gold.Chemscore.Hbonds>
donor molecule, donor type, donor heavy atom, donor atom, acceptor molecule, acceptor atom, score
      P1  H  7989  7998       L1    17  0.80

> <Gold.PLP.Chemscore.Internal.Correction>
0.0208

> <Gold.Rescore>
     Score         DG    S(hbond)    S(metal)    S(lipo)     H(rot)  DE(clash)    DE(int)     intcor
     13.93     -16.85       0.95        0.00      91.84       1.00       0.00       2.91       ----

> <Gold.Chemscore.Fitness>
13.9330

> <Gold.Chemscore.DG>
-16.8455

> <Gold.Chemscore.ZeroCoef>
-5.4800

> <Gold.Chemscore.Hbond>
0.9521

> <Gold.Chemscore.Metal>
0.0000

> <Gold.Chemscore.Lipo>
91.8408

> <Gold.Chemscore.Internal_Hbond>
0.0000

> <Gold.Chemscore.DEClash>
0.0000

> <Gold.Chemscore.DEInternal>
2.9125

> <Gold.Chemscore.Rot>
1.0000

> <Gold.Chemscore.Internal.Correction>
   9.000000E+99

> <Gold.Chemscore.Hbonds>
donor molecule, donor type, donor heavy atom, donor atom, acceptor molecule, acceptor atom, score
      P1  H  7989  7998       L1    17  0.54

> <Gold.Chemscore.Hbond.Weighted>
-3.1802

> <Gold.Chemscore.Metal.Weighted>
-0.0000

> <Gold.Chemscore.Lipo.Weighted>
-10.7454

> <Gold.Chemscore.Internal_Hbond.Weighted>
0.0000

> <Gold.Chemscore.DEClash.Weighted>
0.0000

> <Gold.Chemscore.DEInternal.Weighted>
2.9125

> <Gold.Chemscore.Rot.Weighted>
2.5600

> <Gold.Chemscore.Internal.Correction.Weighted>
   9.000000E+99

> <Gold.Protein.RotatedTorsions>
[ 6907 6896 6895 6894 ] final   58.69 input  -60.11 | X-H torsion
[ 7974 7965 7964 7962 ] final -104.65 input  175.53 | X-H torsion
[ 8008 7997 7996 7995 ] final  138.49 input   59.86 | X-H torsion
[ 10167 10162 10161 10158 ] final  -24.23 input  -65.29 | X-H torsion
[ 10718 10713 10712 10709 ] final  -42.48 input   66.30 | X-H torsion
[ 10763 10752 10751 10750 ] final   96.51 input  -60.55 | X-H torsion
[ 11005 11000 10999 10996 ] final  -48.72 input  -57.11 | X-H torsion

> <Gold.Protein.ActiveResidues>
 VAL166  LYS551  ARG553  GLY616  TRP617  ASP618  TYR619  PRO620  LYS621  CYS622 
 ASP623  PHE694  ASN695  SER759  ASP760  ASP761  ALA762  ILE779  LEU786  VAL792 
 PHE793  MET794  SER795  GLU796  ALA797  LYS798  CYS799  TRP800  GLU811  SER814 

> <Gold.Protein.RotatedAtoms>
  152.3847  134.6536  160.0129 H   0  0  0  0  0  0  0  0  0  0  0  0  # atno 6907 bound_to 6896
  151.6788  133.3307  159.3222 H   0  0  0  0  0  0  0  0  0  0  0  0  # atno 6908 bound_to 6896
  150.7776  134.6735  159.6449 H   0  0  0  0  0  0  0  0  0  0  0  0  # atno 6909 bound_to 6896
  145.2404  140.9203  143.3153 H   0  0  0  0  0  0  0  0  0  0  0  0  # atno 7974 bound_to 7965
  156.2997  140.2392  156.4081 H   0  0  0  0  0  0  0  0  0  0  0  0  # atno 8008 bound_to 7997
  154.8466  140.0426  157.1596 H   0  0  0  0  0  0  0  0  0  0  0  0  # atno 8009 bound_to 7997
  154.9045  140.2981  155.5303 H   0  0  0  0  0  0  0  0  0  0  0  0  # atno 8010 bound_to 7997
  140.7288  143.4371  151.0712 H   0  0  0  0  0  0  0  0  0  0  0  0  # atno 10167 bound_to 10162
  156.2592  130.4195  149.8562 H   0  0  0  0  0  0  0  0  0  0  0  0  # atno 10718 bound_to 10713
  153.2659  135.4216  155.0940 H   0  0  0  0  0  0  0  0  0  0  0  0  # atno 10763 bound_to 10752
  154.8438  135.3460  154.6313 H   0  0  0  0  0  0  0  0  0  0  0  0  # atno 10764 bound_to 10752
  153.6733  135.7042  153.5198 H   0  0  0  0  0  0  0  0  0  0  0  0  # atno 10765 bound_to 10752
  141.0717  133.6677  156.3482 H   0  0  0  0  0  0  0  0  0  0  0  0  # atno 11005 bound_to 11000
  144.9594  139.3996  143.6363 LP  0  0  0  0  0  0  0  0  0  0  0  0  # atno 17320 bound_to 7965
  146.3330  139.8640  142.8851 LP  0  0  0  0  0  0  0  0  0  0  0  0  # atno 17321 bound_to 7965
  139.8035  143.8051  152.3165 LP  0  0  0  0  0  0  0  0  0  0  0  0  # atno 17342 bound_to 10162
  139.8076  144.7349  150.9741 LP  0  0  0  0  0  0  0  0  0  0  0  0  # atno 17343 bound_to 10162
  156.6083  130.8576  151.3448 LP  0  0  0  0  0  0  0  0  0  0  0  0  # atno 17370 bound_to 10713
  157.7244  130.9602  150.1572 LP  0  0  0  0  0  0  0  0  0  0  0  0  # atno 17371 bound_to 10713
  140.5659  134.5888  157.5445 LP  0  0  0  0  0  0  0  0  0  0  0  0  # atno 17394 bound_to 11000
  139.9530  134.7583  156.0404 LP  0  0  0  0  0  0  0  0  0  0  0  0  # atno 17395 bound_to 11000

$$$$
