AV-unprocessed.smi:2152|AV-procd|sdf|8762|dock4
  -GOLD-   2272011543D 1   1.00000     0.00000
 Structure written by MMmdl.
 41 42  0  0  0  0  0  0  0  0  1 V2000
  151.5087  145.2944  159.6441 C   0  0  0  0  0  0  0  0  0  0  0  0
  151.8068  143.9150  160.2591 C   0  0  2  0  0  0  0  0  0  0  0  0
  152.4982  144.0707  161.6289 C   0  0  0  0  0  0  0  0  0  0  0  0
  152.8051  142.7107  162.2736 C   0  0  0  0  0  0  0  0  0  0  0  0
  153.6572  141.8390  161.3414 C   0  0  0  0  0  0  0  0  0  0  0  0
  152.9744  141.6610  159.9778 C   0  0  0  0  0  0  0  0  0  0  0  0
  152.6524  143.0189  159.3202 C   0  0  1  0  0  0  0  0  0  0  0  0
  151.9477  142.7971  158.0597 N   0  0  0  0  0  0  0  0  0  0  0  0
  150.6988  142.3231  157.9373 C   0  0  0  0  0  0  0  0  0  0  0  0
  149.9815  142.0460  158.8995 O   0  0  0  0  0  0  0  0  0  0  0  0
  150.1781  142.1611  156.5034 C   0  0  0  0  0  0  0  0  0  0  0  0
  150.6066  140.9013  155.8829 N   0  0  0  0  0  0  0  0  0  0  0  0
  151.9103  140.4672  156.0400 C   0  0  0  0  0  0  0  0  0  0  0  0
  152.3879  139.3300  155.4887 C   0  0  0  0  0  0  0  0  0  0  0  0
  151.5309  138.4724  154.6788 C   0  0  0  0  0  0  0  0  0  0  0  0
  151.9312  137.4377  154.1444 O   0  0  0  0  0  0  0  0  0  0  0  0
  150.1987  138.9328  154.5457 N   0  0  0  0  0  0  0  0  0  0  0  0
  149.2710  138.1599  153.7457 C   0  0  0  0  0  0  0  0  0  0  0  0
  149.7098  140.1313  155.1113 C   0  0  0  0  0  0  0  0  0  0  0  0
  148.5465  140.5056  154.9399 O   0  0  0  0  0  0  0  0  0  0  0  0
  152.4295  145.8341  159.4206 H   0  0  0  0  0  0  0  0  0  0  0  0
  150.9219  145.9091  160.3273 H   0  0  0  0  0  0  0  0  0  0  0  0
  150.9404  145.2102  158.7176 H   0  0  0  0  0  0  0  0  0  0  0  0
  150.8497  143.4191  160.4289 H   0  0  0  0  0  0  0  0  0  0  0  0
  153.4257  144.6327  161.5113 H   0  0  0  0  0  0  0  0  0  0  0  0
  151.8683  144.6556  162.3001 H   0  0  0  0  0  0  0  0  0  0  0  0
  153.3233  142.8574  163.2216 H   0  0  0  0  0  0  0  0  0  0  0  0
  151.8721  142.1959  162.5069 H   0  0  0  0  0  0  0  0  0  0  0  0
  154.6371  142.2977  161.2034 H   0  0  0  0  0  0  0  0  0  0  0  0
  153.8323  140.8651  161.7995 H   0  0  0  0  0  0  0  0  0  0  0  0
  153.6172  141.0701  159.3241 H   0  0  0  0  0  0  0  0  0  0  0  0
  152.0559  141.0870  160.1076 H   0  0  0  0  0  0  0  0  0  0  0  0
  153.5926  143.5379  159.1214 H   0  0  0  0  0  0  0  0  0  0  0  0
  152.4582  143.0039  157.2133 H   0  0  0  0  0  0  0  0  0  0  0  0
  149.0888  142.2123  156.5302 H   0  0  0  0  0  0  0  0  0  0  0  0
  150.4979  143.0063  155.8907 H   0  0  0  0  0  0  0  0  0  0  0  0
  152.5868  141.0704  156.6280 H   0  0  0  0  0  0  0  0  0  0  0  0
  153.4195  139.0521  155.6465 H   0  0  0  0  0  0  0  0  0  0  0  0
  148.3182  138.1125  154.2759 H   0  0  0  0  0  0  0  0  0  0  0  0
  149.6360  137.1425  153.6059 H   0  0  0  0  0  0  0  0  0  0  0  0
  149.1715  138.6757  152.7895 H   0  0  0  0  0  0  0  0  0  0  0  0
  1  2  1  0  0  0  0
  1 21  1  0  0  0  0
  1 22  1  0  0  0  0
  1 23  1  0  0  0  0
  2  7  1  0  0  0  0
  2  3  1  0  0  0  0
  2 24  1  0  0  0  0
  3  4  1  0  0  0  0
  3 25  1  0  0  0  0
  3 26  1  0  0  0  0
  4  5  1  0  0  0  0
  4 27  1  0  0  0  0
  4 28  1  0  0  0  0
  5  6  1  0  0  0  0
  5 29  1  0  0  0  0
  5 30  1  0  0  0  0
  6  7  1  0  0  0  0
  6 31  1  0  0  0  0
  6 32  1  0  0  0  0
  7  8  1  0  0  0  0
  7 33  1  0  0  0  0
  8  9  1  0  0  0  0
  8 34  1  0  0  0  0
  9 10  2  0  0  0  0
  9 11  1  0  0  0  0
 11 12  1  0  0  0  0
 11 35  1  0  0  0  0
 11 36  1  0  0  0  0
 12 19  1  0  0  0  0
 12 13  1  0  0  0  0
 13 14  2  0  0  0  0
 13 37  1  0  0  0  0
 14 15  1  0  0  0  0
 14 38  1  0  0  0  0
 15 16  2  0  0  0  0
 15 17  1  0  0  0  0
 17 18  1  0  0  0  0
 17 19  1  0  0  0  0
 18 39  1  0  0  0  0
 18 40  1  0  0  0  0
 18 41  1  0  0  0  0
 19 20  2  0  0  0  0
M  END
> <s_m_source_file>
AV-unprocessed.smi

> <i_m_source_file_index>
2152

> <i_lp_mmshare_version>
43012

> <i_f3d_flags>
0

> <s_epik_input>
W0NIM11bQ0BASF0xW0NIMl1bQ0gyXVtDSDJdW0NIMl1bQ0BIXTFbTkhdQyg9TylbQ0gyXW4yW2NIXVtjSF1jKD1PKW4oW0NIM10pYzI9Tw==

> <s_epik_cmdline>
J2VwaWtfcHl0aG9uJywgJy1waCcsICc3LjAnLCAnLXRuJywgJzgnLCAnLW1hJywgJzIwMCcsICctbWV0YWxfYmluZGluZycsICctaW1hZScsICc8aW5maWxlLm1hZT4nLCAnLW9tYWUnLCAnPG91dGZpbGUubWFlPic=

> <r_lp_tautomer_probability>
1

> <r_epik_Ionization_Penalty>
3.20555e-08

> <r_epik_Ionization_Penalty_Charging>
1.30086e-08

> <r_epik_Ionization_Penalty_Neutral>
1.90469e-08

> <r_epik_State_Penalty>
-0

> <r_epik_Charging_Adjusted_Penalty>
1.30086e-08

> <i_epik_Tot_Q>
0

> <i_epik_Tot_abs_Q>
0

> <r_epik_Metal_State_Penalty>
-0

> <b_epik_Metal_Only>
0

> <s_lp_Force_Field>
OPLS_2005

> <r_lp_Energy>
17.5308

> <b_lp_Chiralities_Consistent>
1

> <s_lp_Variant>
AV-unprocessed.smi:2152-1

> <Gold.Version>
5.8.1

> <Gold.Id.Protein>
6NUR|6NUR_protein|mol2

> <Gold.PLP.Fitness>
47.9247

> <Gold.PLP.PLP>
-46.1644

> <Gold.PLP.part.hbond>
-2.0000

> <Gold.PLP.part.metal>
0.0000

> <Gold.PLP.part.buried>
-0.1775

> <Gold.PLP.part.nonpolar>
-43.6418

> <Gold.PLP.part.repulsive>
0.4070

> <Gold.PLP.ligand.clash>
0.0000

> <Gold.PLP.ligand.torsion>
0.6121

> <Gold.PLP.Chemscore.Hbond>
0.9920

> <Gold.PLP.Chemscore.CHOScore>
0.0000

> <Gold.PLP.Chemscore.Metal>
0.0000

> <Gold.Chemscore.Hbonds>
donor molecule, donor type, donor heavy atom, donor atom, acceptor molecule, acceptor atom, score
      P1  H 10752 10765       L1    16  0.98

> <Gold.PLP.Chemscore.Internal.Correction>
0.0085

> <Gold.Rescore>
     Score         DG    S(hbond)    S(metal)    S(lipo)     H(rot)  DE(clash)    DE(int)     intcor
     15.70     -17.45       0.98        0.00     107.82       1.52       0.33       1.42       ----

> <Gold.Chemscore.Fitness>
15.6992

> <Gold.Chemscore.DG>
-17.4507

> <Gold.Chemscore.ZeroCoef>
-5.4800

> <Gold.Chemscore.Hbond>
0.9755

> <Gold.Chemscore.Metal>
0.0000

> <Gold.Chemscore.Lipo>
107.8167

> <Gold.Chemscore.Internal_Hbond>
0.0000

> <Gold.Chemscore.DEClash>
0.3285

> <Gold.Chemscore.DEInternal>
1.4230

> <Gold.Chemscore.Rot>
1.5242

> <Gold.Chemscore.Internal.Correction>
   9.000000E+99

> <Gold.Chemscore.Hbonds>
donor molecule, donor type, donor heavy atom, donor atom, acceptor molecule, acceptor atom, score
      P1  H 10752 10765       L1    16  0.87

> <Gold.Chemscore.Hbond.Weighted>
-3.2580

> <Gold.Chemscore.Metal.Weighted>
-0.0000

> <Gold.Chemscore.Lipo.Weighted>
-12.6146

> <Gold.Chemscore.Internal_Hbond.Weighted>
0.0000

> <Gold.Chemscore.DEClash.Weighted>
0.3285

> <Gold.Chemscore.DEInternal.Weighted>
1.4230

> <Gold.Chemscore.Rot.Weighted>
3.9019

> <Gold.Chemscore.Internal.Correction.Weighted>
   9.000000E+99

> <Gold.Protein.RotatedTorsions>
[ 6907 6896 6895 6894 ] final  -71.43 input  -60.11 | X-H torsion
[ 7974 7965 7964 7962 ] final  -82.84 input  175.53 | X-H torsion
[ 8008 7997 7996 7995 ] final  -87.71 input   59.86 | X-H torsion
[ 10167 10162 10161 10158 ] final -101.46 input  -65.29 | X-H torsion
[ 10718 10713 10712 10709 ] final  147.81 input   66.30 | X-H torsion
[ 10763 10752 10751 10750 ] final  155.49 input  -60.55 | X-H torsion
[ 11005 11000 10999 10996 ] final -123.84 input  -57.11 | X-H torsion

> <Gold.Protein.ActiveResidues>
 VAL166  LYS551  ARG553  GLY616  TRP617  ASP618  TYR619  PRO620  LYS621  CYS622 
 ASP623  PHE694  ASN695  SER759  ASP760  ASP761  ALA762  ILE779  LEU786  VAL792 
 PHE793  MET794  SER795  GLU796  ALA797  LYS798  CYS799  TRP800  GLU811  SER814 

> <Gold.Protein.RotatedAtoms>
  150.7213  134.5309  159.5699 H   0  0  0  0  0  0  0  0  0  0  0  0  # atno 6907 bound_to 6896
  152.2842  134.7791  160.0399 H   0  0  0  0  0  0  0  0  0  0  0  0  # atno 6908 bound_to 6896
  151.8427  133.3391  159.3685 H   0  0  0  0  0  0  0  0  0  0  0  0  # atno 6909 bound_to 6896
  145.5279  140.9524  143.1619 H   0  0  0  0  0  0  0  0  0  0  0  0  # atno 7974 bound_to 7965
  154.6664  140.0562  157.0118 H   0  0  0  0  0  0  0  0  0  0  0  0  # atno 8008 bound_to 7997
  155.1152  140.3242  155.4492 H   0  0  0  0  0  0  0  0  0  0  0  0  # atno 8009 bound_to 7997
  156.2640  140.2007  156.6276 H   0  0  0  0  0  0  0  0  0  0  0  0  # atno 8010 bound_to 7997
  140.2410  143.3539  152.0801 H   0  0  0  0  0  0  0  0  0  0  0  0  # atno 10167 bound_to 10162
  157.3164  131.0896  151.1276 H   0  0  0  0  0  0  0  0  0  0  0  0  # atno 10718 bound_to 10713
  154.1692  135.2805  155.3086 H   0  0  0  0  0  0  0  0  0  0  0  0  # atno 10763 bound_to 10752
  154.6088  135.5505  153.7455 H   0  0  0  0  0  0  0  0  0  0  0  0  # atno 10764 bound_to 10752
  153.0170  135.6410  154.1832 H   0  0  0  0  0  0  0  0  0  0  0  0  # atno 10765 bound_to 10752
  140.9887  134.0569  157.3680 H   0  0  0  0  0  0  0  0  0  0  0  0  # atno 11005 bound_to 11000
  144.7641  139.6886  143.7222 LP  0  0  0  0  0  0  0  0  0  0  0  0  # atno 17320 bound_to 7965
  146.2063  139.5390  142.9710 LP  0  0  0  0  0  0  0  0  0  0  0  0  # atno 17321 bound_to 7965
  139.5077  144.6837  151.5943 LP  0  0  0  0  0  0  0  0  0  0  0  0  # atno 17342 bound_to 10162
  140.6113  143.9430  150.6455 LP  0  0  0  0  0  0  0  0  0  0  0  0  # atno 17343 bound_to 10162
  157.2578  130.6644  149.5960 LP  0  0  0  0  0  0  0  0  0  0  0  0  # atno 17370 bound_to 10713
  155.9682  130.4518  150.5750 LP  0  0  0  0  0  0  0  0  0  0  0  0  # atno 17371 bound_to 10713
  139.8982  135.0154  156.7139 LP  0  0  0  0  0  0  0  0  0  0  0  0  # atno 17394 bound_to 11000
  140.7073  133.9254  155.8062 LP  0  0  0  0  0  0  0  0  0  0  0  0  # atno 17395 bound_to 11000

$$$$
