AV-unprocessed.smi:3348|AV-procd|sdf|12928|dock8
  -GOLD-   2272019353D 1   1.00000     0.00000
 Structure written by MMmdl.
 46 47  0  0  0  0  0  0  0  0  1 V2000
  144.0819  135.5385  153.0035 C   0  0  0  0  0  0  0  0  0  0  0  0
  145.2271  135.7256  151.9858 C   0  0  1  0  0  0  0  0  0  0  0  0
  144.9197  135.0489  150.6340 C   0  0  0  0  0  0  0  0  0  0  0  0
  145.0049  133.6002  150.6936 N   0  0  0  0  0  0  0  0  0  0  0  0
  143.9849  132.6799  150.5759 C   0  0  0  0  0  0  0  0  0  0  0  0
  144.5407  131.4388  150.6991 C   0  0  0  0  0  0  0  0  0  0  0  0
  145.9242  131.7066  150.8967 C   0  0  0  0  0  0  0  0  0  0  0  0
  146.1987  133.0010  150.8958 N   0  0  0  0  0  0  0  0  0  0  0  0
  145.5229  137.1426  151.7519 N   0  0  0  0  0  0  0  0  0  0  0  0
  145.7847  137.9425  152.9479 C   0  0  0  0  0  0  0  0  0  0  0  0
  147.1087  138.7012  152.8164 C   0  0  0  0  0  0  0  0  0  0  0  0
  147.2714  139.5262  153.9603 O   0  0  0  0  0  0  0  0  0  0  0  0
  148.3241  140.4791  153.8596 C   0  0  2  0  0  0  0  0  0  0  0  0
  149.6230  139.9016  154.4607 C   0  0  0  0  0  0  0  0  0  0  0  0
  149.4864  139.6489  155.9713 C   0  0  0  0  0  0  0  0  0  0  0  0
  149.0567  140.9239  156.7128 C   0  0  0  0  0  0  0  0  0  0  0  0
  147.7628  141.5058  156.1214 C   0  0  0  0  0  0  0  0  0  0  0  0
  147.8987  141.7627  154.6070 C   0  0  2  0  0  0  0  0  0  0  0  0
  146.6223  142.3788  154.0132 C   0  0  0  0  0  0  0  0  0  0  0  0
  143.8553  134.4842  153.1603 H   0  0  0  0  0  0  0  0  0  0  0  0
  143.1671  136.0248  152.6632 H   0  0  0  0  0  0  0  0  0  0  0  0
  144.3334  135.9435  153.9828 H   0  0  0  0  0  0  0  0  0  0  0  0
  146.1185  135.2495  152.3966 H   0  0  0  0  0  0  0  0  0  0  0  0
  143.9260  135.3329  150.2832 H   0  0  0  0  0  0  0  0  0  0  0  0
  145.6249  135.3911  149.8751 H   0  0  0  0  0  0  0  0  0  0  0  0
  142.9609  132.9825  150.4139 H   0  0  0  0  0  0  0  0  0  0  0  0
  144.0362  130.4852  150.6554 H   0  0  0  0  0  0  0  0  0  0  0  0
  146.7315  131.0037  151.0409 H   0  0  0  0  0  0  0  0  0  0  0  0
  144.7662  137.5671  151.2245 H   0  0  0  0  0  0  0  0  0  0  0  0
  144.9841  138.6584  153.1309 H   0  0  0  0  0  0  0  0  0  0  0  0
  145.8307  137.2888  153.8195 H   0  0  0  0  0  0  0  0  0  0  0  0
  147.9265  137.9835  152.7539 H   0  0  0  0  0  0  0  0  0  0  0  0
  147.1258  139.2960  151.9014 H   0  0  0  0  0  0  0  0  0  0  0  0
  148.4923  140.7347  152.8118 H   0  0  0  0  0  0  0  0  0  0  0  0
  149.9093  138.9800  153.9550 H   0  0  0  0  0  0  0  0  0  0  0  0
  150.4397  140.6035  154.2883 H   0  0  0  0  0  0  0  0  0  0  0  0
  148.7537  138.8599  156.1459 H   0  0  0  0  0  0  0  0  0  0  0  0
  150.4319  139.2855  156.3743 H   0  0  0  0  0  0  0  0  0  0  0  0
  148.9168  140.7086  157.7726 H   0  0  0  0  0  0  0  0  0  0  0  0
  149.8525  141.6672  156.6515 H   0  0  0  0  0  0  0  0  0  0  0  0
  146.9355  140.8199  156.3089 H   0  0  0  0  0  0  0  0  0  0  0  0
  147.5134  142.4344  156.6358 H   0  0  0  0  0  0  0  0  0  0  0  0
  148.6951  142.4962  154.4720 H   0  0  0  0  0  0  0  0  0  0  0  0
  145.7674  141.7110  154.1227 H   0  0  0  0  0  0  0  0  0  0  0  0
  146.7460  142.5891  152.9505 H   0  0  0  0  0  0  0  0  0  0  0  0
  146.3743  143.3182  154.5080 H   0  0  0  0  0  0  0  0  0  0  0  0
  1  2  1  0  0  0  0
  1 20  1  0  0  0  0
  1 21  1  0  0  0  0
  1 22  1  0  0  0  0
  2  3  1  0  0  0  0
  2  9  1  0  0  0  0
  2 23  1  0  0  0  0
  3  4  1  0  0  0  0
  3 24  1  0  0  0  0
  3 25  1  0  0  0  0
  4  8  1  0  0  0  0
  4  5  1  0  0  0  0
  5  6  2  0  0  0  0
  5 26  1  0  0  0  0
  6  7  1  0  0  0  0
  6 27  1  0  0  0  0
  7  8  2  0  0  0  0
  7 28  1  0  0  0  0
  9 10  1  0  0  0  0
  9 29  1  0  0  0  0
 10 11  1  0  0  0  0
 10 30  1  0  0  0  0
 10 31  1  0  0  0  0
 11 12  1  0  0  0  0
 11 32  1  0  0  0  0
 11 33  1  0  0  0  0
 12 13  1  0  0  0  0
 13 18  1  0  0  0  0
 13 14  1  0  0  0  0
 13 34  1  0  0  0  0
 14 15  1  0  0  0  0
 14 35  1  0  0  0  0
 14 36  1  0  0  0  0
 15 16  1  0  0  0  0
 15 37  1  0  0  0  0
 15 38  1  0  0  0  0
 16 17  1  0  0  0  0
 16 39  1  0  0  0  0
 16 40  1  0  0  0  0
 17 18  1  0  0  0  0
 17 41  1  0  0  0  0
 17 42  1  0  0  0  0
 18 19  1  0  0  0  0
 18 43  1  0  0  0  0
 19 44  1  0  0  0  0
 19 45  1  0  0  0  0
 19 46  1  0  0  0  0
M  END
> <s_m_source_file>
AV-unprocessed.smi

> <i_m_source_file_index>
3348

> <i_lp_mmshare_version>
43012

> <i_f3d_flags>
0

> <s_epik_input>
bjFbY0hdW2NIXVtjSF1uMVtDSDJdW0NAQEhdKFtDSDNdKVtOSF1bQ0gyXVtDSDJdT1tDQEBIXTJbQ0gyXVtDSDJdW0NIMl1bQ0gyXVtDQEhdMltDSDNd

> <s_epik_cmdline>
J2VwaWtfcHl0aG9uJywgJy1waCcsICc3LjAnLCAnLXRuJywgJzgnLCAnLW1hJywgJzIwMCcsICctbWV0YWxfYmluZGluZycsICctaW1hZScsICc8aW5maWxlLm1hZT4nLCAnLW9tYWUnLCAnPG91dGZpbGUubWFlPic=

> <r_lp_tautomer_probability>
1

> <r_epik_Ionization_Penalty>
2.46945

> <r_epik_Ionization_Penalty_Charging>
0

> <r_epik_Ionization_Penalty_Neutral>
2.46945

> <r_epik_State_Penalty>
2.6322

> <r_epik_Charging_Adjusted_Penalty>
2.6322

> <i_epik_Tot_Q>
0

> <i_epik_Tot_abs_Q>
0

> <r_epik_Metal_State_Penalty>
2.63217

> <b_epik_Metal_Only>
0

> <s_lp_Force_Field>
OPLS_2005

> <r_lp_Energy>
17.7248

> <b_lp_Chiralities_Consistent>
1

> <s_lp_Variant>
AV-unprocessed.smi:3348-14

> <Gold.Version>
5.8.1

> <Gold.Id.Protein>
6NUR|6NUR_protein|mol2

> <Gold.PLP.Fitness>
42.4578

> <Gold.PLP.PLP>
-35.3134

> <Gold.PLP.part.hbond>
-1.0000

> <Gold.PLP.part.metal>
0.0000

> <Gold.PLP.part.buried>
-2.9906

> <Gold.PLP.part.nonpolar>
-32.1298

> <Gold.PLP.part.repulsive>
0.3397

> <Gold.PLP.ligand.clash>
0.0000

> <Gold.PLP.ligand.torsion>
1.0328

> <Gold.PLP.Chemscore.Hbond>
1.0000

> <Gold.PLP.Chemscore.CHOScore>
2.0000

> <Gold.PLP.Chemscore.Metal>
0.0000

> <Gold.Chemscore.Hbonds>
donor molecule, donor type, donor heavy atom, donor atom, acceptor molecule, acceptor atom, score
      L1  H     9    29       P1 10171  1.00
      L1  C     5    26       P1 10186  0.89
      L1  C     7    28       P1 10747  1.00

> <Gold.PLP.Chemscore.Internal.Correction>
0.2100

> <Gold.Rescore>
     Score         DG    S(hbond)    S(metal)    S(lipo)     H(rot)  DE(clash)    DE(int)     intcor
     14.26     -15.46       0.97        0.00      95.35       1.72       0.19       1.01       ----

> <Gold.Chemscore.Fitness>
14.2642

> <Gold.Chemscore.DG>
-15.4599

> <Gold.Chemscore.ZeroCoef>
-5.4800

> <Gold.Chemscore.Hbond>
0.9690

> <Gold.Chemscore.Metal>
0.0000

> <Gold.Chemscore.Lipo>
95.3509

> <Gold.Chemscore.Internal_Hbond>
0.0000

> <Gold.Chemscore.DEClash>
0.1867

> <Gold.Chemscore.DEInternal>
1.0090

> <Gold.Chemscore.Rot>
1.7237

> <Gold.Chemscore.Internal.Correction>
   9.000000E+99

> <Gold.Chemscore.Hbonds>
donor molecule, donor type, donor heavy atom, donor atom, acceptor molecule, acceptor atom, score
      L1  H     9    29       P1 10171  0.98

> <Gold.Chemscore.Hbond.Weighted>
-3.2364

> <Gold.Chemscore.Metal.Weighted>
-0.0000

> <Gold.Chemscore.Lipo.Weighted>
-11.1561

> <Gold.Chemscore.Internal_Hbond.Weighted>
0.0000

> <Gold.Chemscore.DEClash.Weighted>
0.1867

> <Gold.Chemscore.DEInternal.Weighted>
1.0090

> <Gold.Chemscore.Rot.Weighted>
4.4126

> <Gold.Chemscore.Internal.Correction.Weighted>
   9.000000E+99

> <Gold.Protein.RotatedTorsions>
[ 6907 6896 6895 6894 ] final  139.35 input  -60.11 | X-H torsion
[ 7974 7965 7964 7962 ] final -174.38 input  175.53 | X-H torsion
[ 8008 7997 7996 7995 ] final  167.27 input   59.86 | X-H torsion
[ 10167 10162 10161 10158 ] final  -41.21 input  -65.29 | X-H torsion
[ 10718 10713 10712 10709 ] final   -3.93 input   66.30 | X-H torsion
[ 10763 10752 10751 10750 ] final -104.93 input  -60.55 | X-H torsion
[ 11005 11000 10999 10996 ] final -168.51 input  -57.11 | X-H torsion

> <Gold.Protein.ActiveResidues>
 VAL166  LYS551  ARG553  GLY616  TRP617  ASP618  TYR619  PRO620  LYS621  CYS622 
 ASP623  PHE694  ASN695  SER759  ASP760  ASP761  ALA762  ILE779  LEU786  VAL792 
 PHE793  MET794  SER795  GLU796  ALA797  LYS798  CYS799  TRP800  GLU811  SER814 

> <Gold.Protein.RotatedAtoms>
  152.2559  133.5255  159.5352 H   0  0  0  0  0  0  0  0  0  0  0  0  # atno 6907 bound_to 6896
  150.7109  134.0896  159.3936 H   0  0  0  0  0  0  0  0  0  0  0  0  # atno 6908 bound_to 6896
  151.8815  135.0451  160.0540 H   0  0  0  0  0  0  0  0  0  0  0  0  # atno 6909 bound_to 6896
  144.7132  140.1480  143.6386 H   0  0  0  0  0  0  0  0  0  0  0  0  # atno 7974 bound_to 7965
  156.1648  140.1621  156.8551 H   0  0  0  0  0  0  0  0  0  0  0  0  # atno 8008 bound_to 7997
  154.5196  140.0781  156.8182 H   0  0  0  0  0  0  0  0  0  0  0  0  # atno 8009 bound_to 7997
  155.3635  140.3396  155.4243 H   0  0  0  0  0  0  0  0  0  0  0  0  # atno 8010 bound_to 7997
  140.7010  143.3108  151.3034 H   0  0  0  0  0  0  0  0  0  0  0  0  # atno 10167 bound_to 10162
  156.7688  130.5293  149.5771 H   0  0  0  0  0  0  0  0  0  0  0  0  # atno 10718 bound_to 10713
  154.7912  135.4768  154.0057 H   0  0  0  0  0  0  0  0  0  0  0  0  # atno 10763 bound_to 10752
  153.1634  135.6812  153.8717 H   0  0  0  0  0  0  0  0  0  0  0  0  # atno 10764 bound_to 10752
  153.8323  135.3190  155.3397 H   0  0  0  0  0  0  0  0  0  0  0  0  # atno 10765 bound_to 10752
  140.5412  134.5520  157.5100 H   0  0  0  0  0  0  0  0  0  0  0  0  # atno 11005 bound_to 11000
  145.9142  139.2505  143.1419 LP  0  0  0  0  0  0  0  0  0  0  0  0  # atno 17320 bound_to 7965
  145.9686  140.8779  143.0174 LP  0  0  0  0  0  0  0  0  0  0  0  0  # atno 17321 bound_to 7965
  139.6530  144.0328  152.2640 LP  0  0  0  0  0  0  0  0  0  0  0  0  # atno 17342 bound_to 10162
  139.9870  144.6388  150.7849 LP  0  0  0  0  0  0  0  0  0  0  0  0  # atno 17343 bound_to 10162
  156.1291  130.6165  151.0307 LP  0  0  0  0  0  0  0  0  0  0  0  0  # atno 17370 bound_to 10713
  157.6700  131.0863  150.7635 LP  0  0  0  0  0  0  0  0  0  0  0  0  # atno 17371 bound_to 10713
  139.9503  134.7629  156.0465 LP  0  0  0  0  0  0  0  0  0  0  0  0  # atno 17394 bound_to 11000
  141.1226  133.6608  156.3253 LP  0  0  0  0  0  0  0  0  0  0  0  0  # atno 17395 bound_to 11000

$$$$
