AV-unprocessed.smi:3286|AV-procd|sdf|12589|dock5
  -GOLD-   2272018513D 1   1.00000     0.00000
 Structure written by MMmdl.
 43 44  0  0  0  0  0  0  0  0  2 V2000
  151.2325  140.7679  155.9207 C   0  0  0  0  0  0  0  0  0  0  0  0
  150.0381  140.4472  155.0468 C   0  0  0  0  0  0  0  0  0  0  0  0
  149.1048  141.4465  154.6984 C   0  0  0  0  0  0  0  0  0  0  0  0
  148.0128  141.0898  153.8844 C   0  0  0  0  0  0  0  0  0  0  0  0
  147.8953  139.7527  153.4515 C   0  0  0  0  0  0  0  0  0  0  0  0
  146.7421  139.3174  152.5695 C   0  0  0  0  0  0  0  0  0  0  0  0
  145.9897  138.1165  153.1569 C   0  0  0  0  0  0  0  0  0  0  0  0
  144.5999  138.0669  152.6599 N   0  3  0  0  0  0  0  0  0  0  0  0
  143.8046  136.9184  153.1514 C   0  0  1  0  0  0  0  0  0  0  0  0
  142.4069  137.4294  153.5407 C   0  0  0  0  0  0  0  0  0  0  0  0
  143.7680  135.7929  152.0837 C   0  0  0  0  0  0  0  0  0  0  0  0
  143.0776  134.5087  152.5887 C   0  0  0  0  0  0  0  0  0  0  0  0
  143.1434  133.3862  151.5398 C   0  0  0  0  0  0  0  0  0  0  0  0
  144.4961  133.1248  151.1882 O   0  0  0  0  0  0  0  0  0  0  0  0
  145.1339  134.2470  150.5931 C   0  0  0  0  0  0  0  0  0  0  0  0
  145.1821  135.4106  151.5958 C   0  0  0  0  0  0  0  0  0  0  0  0
  148.8832  138.8306  153.8572 C   0  0  0  0  0  0  0  0  0  0  0  0
  149.9343  139.1642  154.6360 N   0  0  0  0  0  0  0  0  0  0  0  0
  151.2397  141.8185  156.2127 H   0  0  0  0  0  0  0  0  0  0  0  0
  152.1598  140.5565  155.3876 H   0  0  0  0  0  0  0  0  0  0  0  0
  151.2118  140.1631  156.8276 H   0  0  0  0  0  0  0  0  0  0  0  0
  149.2206  142.4627  155.0460 H   0  0  0  0  0  0  0  0  0  0  0  0
  147.2812  141.8311  153.5979 H   0  0  0  0  0  0  0  0  0  0  0  0
  146.0609  140.1591  152.4369 H   0  0  0  0  0  0  0  0  0  0  0  0
  147.1267  139.0724  151.5784 H   0  0  0  0  0  0  0  0  0  0  0  0
  146.5014  137.1908  152.8900 H   0  0  0  0  0  0  0  0  0  0  0  0
  145.9779  138.1782  154.2461 H   0  0  0  0  0  0  0  0  0  0  0  0
  144.1332  138.9186  152.9368 H   0  0  0  0  0  0  0  0  0  0  0  0
  144.2698  136.5201  154.0551 H   0  0  0  0  0  0  0  0  0  0  0  0
  141.8182  136.6608  154.0409 H   0  0  0  0  0  0  0  0  0  0  0  0
  141.8481  137.7663  152.6667 H   0  0  0  0  0  0  0  0  0  0  0  0
  142.4774  138.2695  154.2328 H   0  0  0  0  0  0  0  0  0  0  0  0
  143.2025  136.1572  151.2242 H   0  0  0  0  0  0  0  0  0  0  0  0
  143.5514  134.1702  153.5111 H   0  0  0  0  0  0  0  0  0  0  0  0
  142.0310  134.6988  152.8253 H   0  0  0  0  0  0  0  0  0  0  0  0
  142.7031  132.4730  151.9410 H   0  0  0  0  0  0  0  0  0  0  0  0
  142.5694  133.6508  150.6503 H   0  0  0  0  0  0  0  0  0  0  0  0
  146.1453  133.9624  150.3015 H   0  0  0  0  0  0  0  0  0  0  0  0
  144.6103  134.5382  149.6809 H   0  0  0  0  0  0  0  0  0  0  0  0
  145.6730  136.2623  151.1247 H   0  0  0  0  0  0  0  0  0  0  0  0
  145.8029  135.1251  152.4461 H   0  0  0  0  0  0  0  0  0  0  0  0
  148.8317  137.7976  153.5458 H   0  0  0  0  0  0  0  0  0  0  0  0
  144.6207  138.0283  151.6508 H   0  0  0  0  0  0  0  0  0  0  0  0
  1  2  1  0  0  0  0
  1 19  1  0  0  0  0
  1 20  1  0  0  0  0
  1 21  1  0  0  0  0
  2 18  1  0  0  0  0
  2  3  2  0  0  0  0
  3  4  1  0  0  0  0
  3 22  1  0  0  0  0
  4  5  2  0  0  0  0
  4 23  1  0  0  0  0
  5  6  1  0  0  0  0
  5 17  1  0  0  0  0
  6  7  1  0  0  0  0
  6 24  1  0  0  0  0
  6 25  1  0  0  0  0
  7  8  1  0  0  0  0
  7 26  1  0  0  0  0
  7 27  1  0  0  0  0
  8  9  1  0  0  0  0
  8 28  1  0  0  0  0
  8 43  1  0  0  0  0
  9 10  1  0  0  0  0
  9 11  1  0  0  0  0
  9 29  1  0  0  0  0
 10 30  1  0  0  0  0
 10 31  1  0  0  0  0
 10 32  1  0  0  0  0
 11 16  1  0  0  0  0
 11 12  1  0  0  0  0
 11 33  1  0  0  0  0
 12 13  1  0  0  0  0
 12 34  1  0  0  0  0
 12 35  1  0  0  0  0
 13 14  1  0  0  0  0
 13 36  1  0  0  0  0
 13 37  1  0  0  0  0
 14 15  1  0  0  0  0
 15 16  1  0  0  0  0
 15 38  1  0  0  0  0
 15 39  1  0  0  0  0
 16 40  1  0  0  0  0
 16 41  1  0  0  0  0
 17 18  2  0  0  0  0
 17 42  1  0  0  0  0
M  CHG  1   8   1
M  END
> <s_m_source_file>
AV-unprocessed.smi

> <i_m_source_file_index>
3286

> <i_lp_mmshare_version>
43012

> <i_f3d_flags>
0

> <s_epik_input>
W0NIM11jMVtjSF1bY0hdYyhbY0hdbjEpW0NIMl1bQ0gyXVtOSF1bQ0BIXShbQ0gzXSlbQ0hdMltDSDJdW0NIMl1PW0NIMl1bQ0gyXTI=

> <s_epik_cmdline>
J2VwaWtfcHl0aG9uJywgJy1waCcsICc3LjAnLCAnLXRuJywgJzgnLCAnLW1hJywgJzIwMCcsICctbWV0YWxfYmluZGluZycsICctaW1hZScsICc8aW5maWxlLm1hZT4nLCAnLW9tYWUnLCAnPG91dGZpbGUubWFlPic=

> <r_lp_tautomer_probability>
1

> <r_epik_Ionization_Penalty>
0.00336271

> <r_epik_Ionization_Penalty_Charging>
0.000752246

> <r_epik_Ionization_Penalty_Neutral>
0.00261046

> <r_epik_State_Penalty>
-0

> <r_epik_Charging_Adjusted_Penalty>
0.000752246

> <i_epik_Tot_Q>
1

> <i_epik_Tot_abs_Q>
1

> <r_epik_Metal_State_Penalty>
-0

> <b_epik_Metal_Only>
0

> <s_lp_Force_Field>
OPLS_2005

> <r_lp_Energy>
16.504

> <b_lp_Chiralities_Consistent>
1

> <s_lp_Variant>
AV-unprocessed.smi:3286-2

> <Gold.Version>
5.8.1

> <Gold.Id.Protein>
6NUR|6NUR_protein|mol2

> <Gold.PLP.Fitness>
45.7659

> <Gold.PLP.PLP>
-35.9755

> <Gold.PLP.part.hbond>
-2.0000

> <Gold.PLP.part.metal>
0.0000

> <Gold.PLP.part.buried>
-1.3399

> <Gold.PLP.part.nonpolar>
-33.6721

> <Gold.PLP.part.repulsive>
0.2185

> <Gold.PLP.ligand.clash>
0.0000

> <Gold.PLP.ligand.torsion>
0.7973

> <Gold.PLP.Chemscore.Hbond>
2.7680

> <Gold.PLP.Chemscore.CHOScore>
1.0000

> <Gold.PLP.Chemscore.Metal>
0.0000

> <Gold.Chemscore.Hbonds>
donor molecule, donor type, donor heavy atom, donor atom, acceptor molecule, acceptor atom, score
      L1  H     8    28       P1 10175  1.82
      L1  H     8    43       P1 10171  0.93
      L1  C    17    42       P1  7948  1.00

> <Gold.PLP.Chemscore.Internal.Correction>
0.0811

> <Gold.Rescore>
     Score         DG    S(hbond)    S(metal)    S(lipo)     H(rot)  DE(clash)    DE(int)     intcor
     17.07     -17.81       1.77        0.00      86.25       1.43       0.05       0.69       ----

> <Gold.Chemscore.Fitness>
17.0695

> <Gold.Chemscore.DG>
-17.8094

> <Gold.Chemscore.ZeroCoef>
-5.4800

> <Gold.Chemscore.Hbond>
1.7675

> <Gold.Chemscore.Metal>
0.0000

> <Gold.Chemscore.Lipo>
86.2483

> <Gold.Chemscore.Internal_Hbond>
0.0000

> <Gold.Chemscore.DEClash>
0.0522

> <Gold.Chemscore.DEInternal>
0.6876

> <Gold.Chemscore.Rot>
1.4317

> <Gold.Chemscore.Internal.Correction>
   9.000000E+99

> <Gold.Chemscore.Hbonds>
donor molecule, donor type, donor heavy atom, donor atom, acceptor molecule, acceptor atom, score
      L1  H     8    28       P1 10175  0.89
      L1  H     8    43       P1 10171  0.84

> <Gold.Chemscore.Hbond.Weighted>
-5.9034

> <Gold.Chemscore.Metal.Weighted>
-0.0000

> <Gold.Chemscore.Lipo.Weighted>
-10.0911

> <Gold.Chemscore.Internal_Hbond.Weighted>
0.0000

> <Gold.Chemscore.DEClash.Weighted>
0.0522

> <Gold.Chemscore.DEInternal.Weighted>
0.6876

> <Gold.Chemscore.Rot.Weighted>
3.6651

> <Gold.Chemscore.Internal.Correction.Weighted>
   9.000000E+99

> <Gold.Protein.RotatedTorsions>
[ 6907 6896 6895 6894 ] final -128.15 input  -60.11 | X-H torsion
[ 7974 7965 7964 7962 ] final  121.96 input  175.53 | X-H torsion
[ 8008 7997 7996 7995 ] final    5.73 input   59.86 | X-H torsion
[ 10167 10162 10161 10158 ] final   40.51 input  -65.29 | X-H torsion
[ 10718 10713 10712 10709 ] final -158.48 input   66.30 | X-H torsion
[ 10763 10752 10751 10750 ] final  119.29 input  -60.55 | X-H torsion
[ 11005 11000 10999 10996 ] final   56.40 input  -57.11 | X-H torsion

> <Gold.Protein.ActiveResidues>
 VAL166  LYS551  ARG553  GLY616  TRP617  ASP618  TYR619  PRO620  LYS621  CYS622 
 ASP623  PHE694  ASN695  SER759  ASP760  ASP761  ALA762  ILE779  LEU786  VAL792 
 PHE793  MET794  SER795  GLU796  ALA797  LYS798  CYS799  TRP800  GLU811  SER814 

> <Gold.Protein.RotatedAtoms>
  150.9148  133.6953  159.2845 H   0  0  0  0  0  0  0  0  0  0  0  0  # atno 6907 bound_to 6896
  151.4427  135.1020  159.9684 H   0  0  0  0  0  0  0  0  0  0  0  0  # atno 6908 bound_to 6896
  152.4949  133.8552  159.7277 H   0  0  0  0  0  0  0  0  0  0  0  0  # atno 6909 bound_to 6896
  145.1132  139.3439  143.4752 H   0  0  0  0  0  0  0  0  0  0  0  0  # atno 7974 bound_to 7965
  154.7320  140.2732  155.6448 H   0  0  0  0  0  0  0  0  0  0  0  0  # atno 8008 bound_to 7997
  156.2852  140.2714  156.1948 H   0  0  0  0  0  0  0  0  0  0  0  0  # atno 8009 bound_to 7997
  155.0369  140.0371  157.2485 H   0  0  0  0  0  0  0  0  0  0  0  0  # atno 8010 bound_to 7997
  140.3734  144.2075  150.6132 H   0  0  0  0  0  0  0  0  0  0  0  0  # atno 10167 bound_to 10162
  156.5547  130.8620  151.2791 H   0  0  0  0  0  0  0  0  0  0  0  0  # atno 10718 bound_to 10713
  153.5807  135.3484  155.2874 H   0  0  0  0  0  0  0  0  0  0  0  0  # atno 10763 bound_to 10752
  154.8668  135.4181  154.2623 H   0  0  0  0  0  0  0  0  0  0  0  0  # atno 10764 bound_to 10752
  153.3409  135.7050  153.6938 H   0  0  0  0  0  0  0  0  0  0  0  0  # atno 10765 bound_to 10752
  140.0532  134.5707  155.9239 H   0  0  0  0  0  0  0  0  0  0  0  0  # atno 11005 bound_to 11000
  146.3525  140.1060  142.8606 LP  0  0  0  0  0  0  0  0  0  0  0  0  # atno 17320 bound_to 7965
  145.0823  140.9229  143.4818 LP  0  0  0  0  0  0  0  0  0  0  0  0  # atno 17321 bound_to 7965
  140.5010  143.2318  151.8678 LP  0  0  0  0  0  0  0  0  0  0  0  0  # atno 17342 bound_to 10162
  139.4801  144.5059  151.8998 LP  0  0  0  0  0  0  0  0  0  0  0  0  # atno 17343 bound_to 10162
  157.7380  130.9807  150.2229 LP  0  0  0  0  0  0  0  0  0  0  0  0  # atno 17370 bound_to 10713
  156.2853  130.3738  149.7895 LP  0  0  0  0  0  0  0  0  0  0  0  0  # atno 17371 bound_to 10713
  141.1940  133.6581  156.5574 LP  0  0  0  0  0  0  0  0  0  0  0  0  # atno 17394 bound_to 11000
  140.3885  134.7461  157.4706 LP  0  0  0  0  0  0  0  0  0  0  0  0  # atno 17395 bound_to 11000

$$$$
