AV-unprocessed.smi:652|AV-procd|sdf|3203|dock6
  -GOLD-   22720 0133D 1   1.00000     0.00000
 Structure written by MMmdl.
 48 49  0  0  0  0  0  0  0  0  2 V2000
  152.1967  144.5632  158.7048 C   0  0  0  0  0  0  0  0  0  0  0  0
  151.9016  143.1161  159.1296 C   0  0  0  0  0  0  0  0  0  0  0  0
  152.9021  142.6194  160.1817 C   0  0  0  0  0  0  0  0  0  0  0  0
  151.9336  142.2275  157.9713 N   0  0  0  0  0  0  0  0  0  0  0  0
  150.9090  141.4781  157.5346 C   0  0  0  0  0  0  0  0  0  0  0  0
  149.8042  141.4606  158.0780 O   0  0  0  0  0  0  0  0  0  0  0  0
  151.1821  140.6154  156.2990 C   0  0  0  0  0  0  0  0  0  0  0  0
  150.0387  139.6252  155.9997 C   0  0  0  0  0  0  0  0  0  0  0  0
  149.1891  139.9895  154.8662 N   0  0  0  0  0  0  0  0  0  0  0  0
  148.5340  141.2723  155.0972 C   0  0  0  0  0  0  0  0  0  0  0  0
  147.6432  141.6852  153.9133 C   0  0  0  0  0  0  0  0  0  0  0  0
  146.6772  140.6693  153.6635 O   0  0  0  0  0  0  0  0  0  0  0  0
  147.2637  139.3964  153.4029 C   0  0  2  0  0  0  0  0  0  0  0  0
  146.1475  138.3853  153.0965 C   0  0  0  0  0  0  0  0  0  0  0  0
  146.6530  137.1825  152.4505 N   0  0  0  0  0  0  0  0  0  0  0  0
  145.7799  136.1485  152.0891 C   0  0  0  0  0  0  0  0  0  0  0  0
  144.3837  136.1761  152.3113 C   0  0  0  0  0  0  0  0  0  0  0  0
  143.6220  135.0686  151.9013 C   0  0  0  0  0  0  0  0  0  0  0  0
  144.3025  133.9989  151.2933 C   0  0  0  0  0  0  0  0  0  0  0  0
  145.6387  133.9919  151.0891 N   0  0  0  0  0  0  0  0  0  0  0  0
  146.3397  135.0665  151.4924 N   0  3  0  0  0  0  0  0  0  0  0  0
  148.1710  138.9816  154.5812 C   0  0  0  0  0  0  0  0  0  0  0  0
  152.1672  145.2359  159.5624 H   0  0  0  0  0  0  0  0  0  0  0  0
  151.4627  144.9222  157.9827 H   0  0  0  0  0  0  0  0  0  0  0  0
  153.1833  144.6499  158.2482 H   0  0  0  0  0  0  0  0  0  0  0  0
  150.9065  143.0817  159.5773 H   0  0  0  0  0  0  0  0  0  0  0  0
  152.8760  143.2469  161.0732 H   0  0  0  0  0  0  0  0  0  0  0  0
  153.9227  142.6300  159.7974 H   0  0  0  0  0  0  0  0  0  0  0  0
  152.6729  141.5994  160.4916 H   0  0  0  0  0  0  0  0  0  0  0  0
  152.8041  142.1786  157.4619 H   0  0  0  0  0  0  0  0  0  0  0  0
  151.3351  141.2645  155.4354 H   0  0  0  0  0  0  0  0  0  0  0  0
  152.1195  140.0856  156.4673 H   0  0  0  0  0  0  0  0  0  0  0  0
  150.4488  138.6263  155.8418 H   0  0  0  0  0  0  0  0  0  0  0  0
  149.4160  139.5549  156.8930 H   0  0  0  0  0  0  0  0  0  0  0  0
  147.9281  141.2210  156.0033 H   0  0  0  0  0  0  0  0  0  0  0  0
  149.2840  142.0455  155.2678 H   0  0  0  0  0  0  0  0  0  0  0  0
  147.1276  142.6198  154.1340 H   0  0  0  0  0  0  0  0  0  0  0  0
  148.2442  141.8536  153.0186 H   0  0  0  0  0  0  0  0  0  0  0  0
  147.8803  139.4882  152.5069 H   0  0  0  0  0  0  0  0  0  0  0  0
  145.6426  138.1089  154.0231 H   0  0  0  0  0  0  0  0  0  0  0  0
  145.4025  138.8513  152.4503 H   0  0  0  0  0  0  0  0  0  0  0  0
  147.6504  137.0228  152.4426 H   0  0  0  0  0  0  0  0  0  0  0  0
  143.8960  137.0170  152.7814 H   0  0  0  0  0  0  0  0  0  0  0  0
  142.5524  135.0389  152.0478 H   0  0  0  0  0  0  0  0  0  0  0  0
  143.7620  133.1246  150.9615 H   0  0  0  0  0  0  0  0  0  0  0  0
  148.6416  138.0294  154.3386 H   0  0  0  0  0  0  0  0  0  0  0  0
  147.5669  138.8137  155.4740 H   0  0  0  0  0  0  0  0  0  0  0  0
  147.3489  135.0683  151.3428 H   0  0  0  0  0  0  0  0  0  0  0  0
  1  2  1  0  0  0  0
  1 23  1  0  0  0  0
  1 24  1  0  0  0  0
  1 25  1  0  0  0  0
  2  3  1  0  0  0  0
  2  4  1  0  0  0  0
  2 26  1  0  0  0  0
  3 27  1  0  0  0  0
  3 28  1  0  0  0  0
  3 29  1  0  0  0  0
  4  5  1  0  0  0  0
  4 30  1  0  0  0  0
  5  6  2  0  0  0  0
  5  7  1  0  0  0  0
  7  8  1  0  0  0  0
  7 31  1  0  0  0  0
  7 32  1  0  0  0  0
  8  9  1  0  0  0  0
  8 33  1  0  0  0  0
  8 34  1  0  0  0  0
  9 22  1  0  0  0  0
  9 10  1  0  0  0  0
 10 11  1  0  0  0  0
 10 35  1  0  0  0  0
 10 36  1  0  0  0  0
 11 12  1  0  0  0  0
 11 37  1  0  0  0  0
 11 38  1  0  0  0  0
 12 13  1  0  0  0  0
 13 14  1  0  0  0  0
 13 22  1  0  0  0  0
 13 39  1  0  0  0  0
 14 15  1  0  0  0  0
 14 40  1  0  0  0  0
 14 41  1  0  0  0  0
 15 16  1  0  0  0  0
 15 42  1  0  0  0  0
 16 21  1  0  0  0  0
 16 17  2  0  0  0  0
 17 18  1  0  0  0  0
 17 43  1  0  0  0  0
 18 19  2  0  0  0  0
 18 44  1  0  0  0  0
 19 20  1  0  0  0  0
 19 45  1  0  0  0  0
 20 21  2  0  0  0  0
 21 48  1  0  0  0  0
 22 46  1  0  0  0  0
 22 47  1  0  0  0  0
M  CHG  1  21   1
M  END
> <s_m_source_file>
AV-unprocessed.smi

> <i_m_source_file_index>
652

> <i_lp_mmshare_version>
43012

> <i_f3d_flags>
0

> <s_epik_input>
W0NIM11bQ0hdKFtDSDNdKVtOSF1DKD1PKVtDSDJdW0NIMl1OMVtDSDJdW0NIMl1PW0NASF0oW0NIMl0xKVtDSDJdW05IXWMyW2NIXVtjSF1bY0hdbm4y

> <s_epik_cmdline>
J2VwaWtfcHl0aG9uJywgJy1waCcsICc3LjAnLCAnLXRuJywgJzgnLCAnLW1hJywgJzIwMCcsICctbWV0YWxfYmluZGluZycsICctaW1hZScsICc8aW5maWxlLm1hZT4nLCAnLW9tYWUnLCAnPG91dGZpbGUubWFlPic=

> <r_epik_Ionization_Penalty>
2.70989

> <r_epik_Ionization_Penalty_Charging>
2.3023

> <r_epik_Ionization_Penalty_Neutral>
0.407592

> <r_epik_State_Penalty>
2.65305

> <r_epik_Charging_Adjusted_Penalty>
4.95534

> <i_epik_Tot_Q>
1

> <i_epik_Tot_abs_Q>
1

> <r_epik_Metal_State_Penalty>
2.66064

> <b_epik_Metal_Only>
0

> <s_lp_Force_Field>
OPLS_2005

> <r_lp_Energy>
34.9838

> <b_lp_Chiralities_Consistent>
1

> <s_lp_Variant>
AV-unprocessed.smi:652-12

> <Gold.Version>
5.8.1

> <Gold.Id.Protein>
6NUR|6NUR_protein|mol2

> <Gold.PLP.Fitness>
46.8319

> <Gold.PLP.PLP>
-37.0873

> <Gold.PLP.part.hbond>
-1.9994

> <Gold.PLP.part.metal>
0.0000

> <Gold.PLP.part.buried>
-4.6021

> <Gold.PLP.part.nonpolar>
-31.6805

> <Gold.PLP.part.repulsive>
0.6547

> <Gold.PLP.ligand.clash>
0.0000

> <Gold.PLP.ligand.torsion>
0.5182

> <Gold.PLP.Chemscore.Hbond>
3.5680

> <Gold.PLP.Chemscore.CHOScore>
0.0000

> <Gold.PLP.Chemscore.Metal>
0.0000

> <Gold.Chemscore.Hbonds>
donor molecule, donor type, donor heavy atom, donor atom, acceptor molecule, acceptor atom, score
      L1  H    15    42       P1  7948  1.98
      L1  H    21    48       P1  7948  1.57

> <Gold.PLP.Chemscore.Internal.Correction>
0.0770

> <Gold.Rescore>
     Score         DG    S(hbond)    S(metal)    S(lipo)     H(rot)  DE(clash)    DE(int)     intcor
     15.54     -15.93       1.68        0.00      91.18       2.28       0.04       0.34       ----

> <Gold.Chemscore.Fitness>
15.5444

> <Gold.Chemscore.DG>
-15.9293

> <Gold.Chemscore.ZeroCoef>
-5.4800

> <Gold.Chemscore.Hbond>
1.6798

> <Gold.Chemscore.Metal>
0.0000

> <Gold.Chemscore.Lipo>
91.1757

> <Gold.Chemscore.Internal_Hbond>
0.0000

> <Gold.Chemscore.DEClash>
0.0423

> <Gold.Chemscore.DEInternal>
0.3426

> <Gold.Chemscore.Rot>
2.2768

> <Gold.Chemscore.Internal.Correction>
   9.000000E+99

> <Gold.Chemscore.Hbonds>
donor molecule, donor type, donor heavy atom, donor atom, acceptor molecule, acceptor atom, score
      L1  H    15    42       P1  7948  0.94
      L1  H    21    48       P1  7948  0.45

> <Gold.Chemscore.Hbond.Weighted>
-5.6104

> <Gold.Chemscore.Metal.Weighted>
-0.0000

> <Gold.Chemscore.Lipo.Weighted>
-10.6676

> <Gold.Chemscore.Internal_Hbond.Weighted>
0.0000

> <Gold.Chemscore.DEClash.Weighted>
0.0423

> <Gold.Chemscore.DEInternal.Weighted>
0.3426

> <Gold.Chemscore.Rot.Weighted>
5.8286

> <Gold.Chemscore.Internal.Correction.Weighted>
   9.000000E+99

> <Gold.Protein.RotatedTorsions>
[ 6907 6896 6895 6894 ] final -130.01 input  -60.11 | X-H torsion
[ 7974 7965 7964 7962 ] final   -2.43 input  175.53 | X-H torsion
[ 8008 7997 7996 7995 ] final  129.31 input   59.86 | X-H torsion
[ 10167 10162 10161 10158 ] final -125.98 input  -65.29 | X-H torsion
[ 10718 10713 10712 10709 ] final -139.26 input   66.30 | X-H torsion
[ 10763 10752 10751 10750 ] final -165.11 input  -60.55 | X-H torsion
[ 11005 11000 10999 10996 ] final   52.32 input  -57.11 | X-H torsion

> <Gold.Protein.ActiveResidues>
 VAL166  LYS551  ARG553  GLY616  TRP617  ASP618  TYR619  PRO620  LYS621  CYS622 
 ASP623  PHE694  ASN695  SER759  ASP760  ASP761  ALA762  ILE779  LEU786  VAL792 
 PHE793  MET794  SER795  GLU796  ALA797  LYS798  CYS799  TRP800  GLU811  SER814 

> <Gold.Protein.RotatedAtoms>
  150.9350  133.6722  159.2802 H   0  0  0  0  0  0  0  0  0  0  0  0  # atno 6907 bound_to 6896
  151.4131  135.0986  159.9601 H   0  0  0  0  0  0  0  0  0  0  0  0  # atno 6908 bound_to 6896
  152.5043  133.8819  159.7405 H   0  0  0  0  0  0  0  0  0  0  0  0  # atno 6909 bound_to 6896
  146.2404  140.1570  142.8333 H   0  0  0  0  0  0  0  0  0  0  0  0  # atno 7974 bound_to 7965
  156.2933  140.2623  156.2578 H   0  0  0  0  0  0  0  0  0  0  0  0  # atno 8008 bound_to 7997
  154.9818  140.0389  157.2299 H   0  0  0  0  0  0  0  0  0  0  0  0  # atno 8009 bound_to 7997
  154.7764  140.2787  155.6102 H   0  0  0  0  0  0  0  0  0  0  0  0  # atno 8010 bound_to 7997
  139.9763  143.5790  152.2394 H   0  0  0  0  0  0  0  0  0  0  0  0  # atno 10167 bound_to 10162
  156.3087  130.7469  151.1540 H   0  0  0  0  0  0  0  0  0  0  0  0  # atno 10718 bound_to 10713
  154.6964  135.2980  154.9406 H   0  0  0  0  0  0  0  0  0  0  0  0  # atno 10763 bound_to 10752
  154.0352  135.6665  153.4788 H   0  0  0  0  0  0  0  0  0  0  0  0  # atno 10764 bound_to 10752
  153.0649  135.5094  154.8084 H   0  0  0  0  0  0  0  0  0  0  0  0  # atno 10765 bound_to 10752
  140.0859  134.5275  155.8900 H   0  0  0  0  0  0  0  0  0  0  0  0  # atno 11005 bound_to 11000
  145.0120  140.8722  143.5218 LP  0  0  0  0  0  0  0  0  0  0  0  0  # atno 17320 bound_to 7965
  145.1605  139.2461  143.5394 LP  0  0  0  0  0  0  0  0  0  0  0  0  # atno 17321 bound_to 7965
  139.6443  144.7657  151.2275 LP  0  0  0  0  0  0  0  0  0  0  0  0  # atno 17342 bound_to 10162
  140.7504  143.6265  150.8463 LP  0  0  0  0  0  0  0  0  0  0  0  0  # atno 17343 bound_to 10162
  157.7386  131.0539  150.5286 LP  0  0  0  0  0  0  0  0  0  0  0  0  # atno 17370 bound_to 10713
  156.5423  130.4211  149.6148 LP  0  0  0  0  0  0  0  0  0  0  0  0  # atno 17371 bound_to 10713
  141.2062  133.6653  156.6229 LP  0  0  0  0  0  0  0  0  0  0  0  0  # atno 17394 bound_to 11000
  140.3421  134.7840  157.4405 LP  0  0  0  0  0  0  0  0  0  0  0  0  # atno 17395 bound_to 11000

$$$$
