AV-unprocessed.smi:2318|AV-procd|sdf|9276|dock6
  -GOLD-   2272012503D 1   1.00000     0.00000
 Structure written by MMmdl.
 37 38  0  0  0  0  0  0  0  0  1 V2000
  146.3767  142.6086  154.0248 C   0  0  0  0  0  0  0  0  0  0  0  0
  147.2712  141.4731  154.0935 N   0  0  0  0  0  0  0  0  0  0  0  0
  148.5948  141.4413  154.4847 C   0  0  0  0  0  0  0  0  0  0  0  0
  149.0207  140.1473  154.3824 C   0  0  0  0  0  0  0  0  0  0  0  0
  147.8672  139.4590  153.9152 C   0  0  0  0  0  0  0  0  0  0  0  0
  147.9056  138.0610  153.6804 N   0  0  0  0  0  0  0  0  0  0  0  0
  147.1722  137.1080  154.2806 C   0  0  0  0  0  0  0  0  0  0  0  0
  146.3341  137.3071  155.1604 O   0  0  0  0  0  0  0  0  0  0  0  0
  147.4667  135.8936  153.7942 N   0  0  0  0  0  0  0  0  0  0  0  0
  146.8756  134.6256  154.2273 C   0  0  1  0  0  0  0  0  0  0  0  0
  145.8204  134.1600  153.1901 C   0  0  0  0  0  0  0  0  0  0  0  0
  146.2996  134.2065  151.7334 C   0  0  0  0  0  0  0  0  0  0  0  0
  145.0198  134.1345  150.9008 C   0  0  0  0  0  0  0  0  0  0  0  0
  143.9298  134.7933  151.7552 C   0  0  0  0  0  0  0  0  0  0  0  0
  144.5363  135.0007  153.1499 C   0  0  0  0  0  0  0  0  0  0  0  0
  148.0141  133.6066  154.4625 C   0  0  0  0  0  0  0  0  0  0  0  0
  148.8449  134.0663  155.3991 F   0  0  0  0  0  0  0  0  0  0  0  0
  147.5329  132.4385  154.8857 F   0  0  0  0  0  0  0  0  0  0  0  0
  148.7055  133.4084  153.3395 F   0  0  0  0  0  0  0  0  0  0  0  0
  146.8188  140.2518  153.7396 N   0  0  0  0  0  0  0  0  0  0  0  0
  146.8469  143.4834  154.4752 H   0  0  0  0  0  0  0  0  0  0  0  0
  145.4537  142.3870  154.5617 H   0  0  0  0  0  0  0  0  0  0  0  0
  146.1417  142.8283  152.9830 H   0  0  0  0  0  0  0  0  0  0  0  0
  149.1174  142.3324  154.7999 H   0  0  0  0  0  0  0  0  0  0  0  0
  150.0021  139.7565  154.6074 H   0  0  0  0  0  0  0  0  0  0  0  0
  148.5615  137.7539  152.9776 H   0  0  0  0  0  0  0  0  0  0  0  0
  148.1699  135.8341  153.0723 H   0  0  0  0  0  0  0  0  0  0  0  0
  146.3692  134.7687  155.1836 H   0  0  0  0  0  0  0  0  0  0  0  0
  145.5395  133.1288  153.4107 H   0  0  0  0  0  0  0  0  0  0  0  0
  146.8093  135.1515  151.5389 H   0  0  0  0  0  0  0  0  0  0  0  0
  146.9924  133.4005  151.4896 H   0  0  0  0  0  0  0  0  0  0  0  0
  145.1351  134.6161  149.9293 H   0  0  0  0  0  0  0  0  0  0  0  0
  144.7603  133.0906  150.7207 H   0  0  0  0  0  0  0  0  0  0  0  0
  143.6153  135.7469  151.3295 H   0  0  0  0  0  0  0  0  0  0  0  0
  143.0487  134.1522  151.8031 H   0  0  0  0  0  0  0  0  0  0  0  0
  143.8367  134.7234  153.9390 H   0  0  0  0  0  0  0  0  0  0  0  0
  144.7784  136.0562  153.2819 H   0  0  0  0  0  0  0  0  0  0  0  0
  1  2  1  0  0  0  0
  1 21  1  0  0  0  0
  1 22  1  0  0  0  0
  1 23  1  0  0  0  0
  2 20  1  0  0  0  0
  2  3  1  0  0  0  0
  3  4  2  0  0  0  0
  3 24  1  0  0  0  0
  4  5  1  0  0  0  0
  4 25  1  0  0  0  0
  5  6  1  0  0  0  0
  5 20  2  0  0  0  0
  6  7  1  0  0  0  0
  6 26  1  0  0  0  0
  7  8  2  0  0  0  0
  7  9  1  0  0  0  0
  9 10  1  0  0  0  0
  9 27  1  0  0  0  0
 10 11  1  0  0  0  0
 10 16  1  0  0  0  0
 10 28  1  0  0  0  0
 11 15  1  0  0  0  0
 11 12  1  0  0  0  0
 11 29  1  0  0  0  0
 12 13  1  0  0  0  0
 12 30  1  0  0  0  0
 12 31  1  0  0  0  0
 13 14  1  0  0  0  0
 13 32  1  0  0  0  0
 13 33  1  0  0  0  0
 14 15  1  0  0  0  0
 14 34  1  0  0  0  0
 14 35  1  0  0  0  0
 15 36  1  0  0  0  0
 15 37  1  0  0  0  0
 16 17  1  0  0  0  0
 16 18  1  0  0  0  0
 16 19  1  0  0  0  0
M  END
> <s_m_source_file>
AV-unprocessed.smi

> <i_m_source_file_index>
2318

> <i_lp_mmshare_version>
43012

> <i_f3d_flags>
0

> <s_epik_input>
W0NIM11uMVtjSF1bY0hdYyhuMSlbTkhdQyg9TylbTkhdW0NAQEhdKEMoRikoRilGKVtDSF0yW0NIMl1bQ0gyXVtDSDJdW0NIMl0y

> <s_epik_cmdline>
J2VwaWtfcHl0aG9uJywgJy1waCcsICc3LjAnLCAnLXRuJywgJzgnLCAnLW1hJywgJzIwMCcsICctbWV0YWxfYmluZGluZycsICctaW1hZScsICc8aW5maWxlLm1hZT4nLCAnLW9tYWUnLCAnPG91dGZpbGUubWFlPic=

> <r_lp_tautomer_probability>
1

> <r_epik_Ionization_Penalty>
2.39546e-05

> <r_epik_Ionization_Penalty_Charging>
0

> <r_epik_Ionization_Penalty_Neutral>
2.39546e-05

> <r_epik_State_Penalty>
-0

> <r_epik_Charging_Adjusted_Penalty>
0

> <i_epik_Tot_Q>
0

> <i_epik_Tot_abs_Q>
0

> <r_epik_Metal_State_Penalty>
-0

> <b_epik_Metal_Only>
0

> <s_lp_Force_Field>
OPLS_2005

> <r_lp_Energy>
23.5829

> <b_lp_Chiralities_Consistent>
1

> <s_lp_Variant>
AV-unprocessed.smi:2318-2

> <Gold.Version>
5.8.1

> <Gold.Id.Protein>
6NUR|6NUR_protein|mol2

> <Gold.PLP.Fitness>
36.3966

> <Gold.PLP.PLP>
-29.2949

> <Gold.PLP.part.hbond>
-1.9235

> <Gold.PLP.part.metal>
0.0000

> <Gold.PLP.part.buried>
-3.6736

> <Gold.PLP.part.nonpolar>
-24.6378

> <Gold.PLP.part.repulsive>
0.1901

> <Gold.PLP.ligand.clash>
0.0000

> <Gold.PLP.ligand.torsion>
0.9112

> <Gold.PLP.Chemscore.Hbond>
1.8800

> <Gold.PLP.Chemscore.CHOScore>
1.0000

> <Gold.PLP.Chemscore.Metal>
0.0000

> <Gold.Chemscore.Hbonds>
donor molecule, donor type, donor heavy atom, donor atom, acceptor molecule, acceptor atom, score
      L1  H     6    26       P1  7948  0.85
      L1  H     9    27       P1  7948  0.89
      L1  C     3    24       P1  8028  0.99

> <Gold.PLP.Chemscore.Internal.Correction>
0.2842

> <Gold.Rescore>
     Score         DG    S(hbond)    S(metal)    S(lipo)     H(rot)  DE(clash)    DE(int)     intcor
     13.27     -14.33       1.96        0.00      48.09       1.30       0.15       0.91       ----

> <Gold.Chemscore.Fitness>
13.2670

> <Gold.Chemscore.DG>
-14.3265

> <Gold.Chemscore.ZeroCoef>
-5.4800

> <Gold.Chemscore.Hbond>
1.9605

> <Gold.Chemscore.Metal>
0.0000

> <Gold.Chemscore.Lipo>
48.0943

> <Gold.Chemscore.Internal_Hbond>
0.0000

> <Gold.Chemscore.DEClash>
0.1511

> <Gold.Chemscore.DEInternal>
0.9083

> <Gold.Chemscore.Rot>
1.3003

> <Gold.Chemscore.Internal.Correction>
   9.000000E+99

> <Gold.Chemscore.Hbonds>
donor molecule, donor type, donor heavy atom, donor atom, acceptor molecule, acceptor atom, score
      L1  H     6    26       P1  7948  0.83
      L1  H     9    27       P1  7948  0.87

> <Gold.Chemscore.Hbond.Weighted>
-6.5482

> <Gold.Chemscore.Metal.Weighted>
-0.0000

> <Gold.Chemscore.Lipo.Weighted>
-5.6270

> <Gold.Chemscore.Internal_Hbond.Weighted>
0.0000

> <Gold.Chemscore.DEClash.Weighted>
0.1511

> <Gold.Chemscore.DEInternal.Weighted>
0.9083

> <Gold.Chemscore.Rot.Weighted>
3.3287

> <Gold.Chemscore.Internal.Correction.Weighted>
   9.000000E+99

> <Gold.Protein.RotatedTorsions>
[ 6907 6896 6895 6894 ] final   88.35 input  -60.11 | X-H torsion
[ 7974 7965 7964 7962 ] final  118.81 input  175.53 | X-H torsion
[ 8008 7997 7996 7995 ] final -102.94 input   59.86 | X-H torsion
[ 10167 10162 10161 10158 ] final   78.51 input  -65.29 | X-H torsion
[ 10718 10713 10712 10709 ] final    4.33 input   66.30 | X-H torsion
[ 10763 10752 10751 10750 ] final  133.05 input  -60.55 | X-H torsion
[ 11005 11000 10999 10996 ] final   -2.65 input  -57.11 | X-H torsion

> <Gold.Protein.ActiveResidues>
 VAL166  LYS551  ARG553  GLY616  TRP617  ASP618  TYR619  PRO620  LYS621  CYS622 
 ASP623  PHE694  ASN695  SER759  ASP760  ASP761  ALA762  ILE779  LEU786  VAL792 
 PHE793  MET794  SER795  GLU796  ALA797  LYS798  CYS799  TRP800  GLU811  SER814 

> <Gold.Protein.RotatedAtoms>
  152.5424  134.2135  159.8758 H   0  0  0  0  0  0  0  0  0  0  0  0  # atno 6907 bound_to 6896
  151.2116  133.4546  159.2606 H   0  0  0  0  0  0  0  0  0  0  0  0  # atno 6908 bound_to 6896
  151.0891  134.9918  159.8450 H   0  0  0  0  0  0  0  0  0  0  0  0  # atno 6909 bound_to 6896
  145.1508  139.3212  143.4568 H   0  0  0  0  0  0  0  0  0  0  0  0  # atno 7974 bound_to 7965
  154.8638  140.0425  157.1681 H   0  0  0  0  0  0  0  0  0  0  0  0  # atno 8008 bound_to 7997
  154.8812  140.2973  155.5403 H   0  0  0  0  0  0  0  0  0  0  0  0  # atno 8009 bound_to 7997
  156.2999  140.2411  156.3815 H   0  0  0  0  0  0  0  0  0  0  0  0  # atno 8010 bound_to 7997
  139.9701  144.5900  150.7993 H   0  0  0  0  0  0  0  0  0  0  0  0  # atno 10167 bound_to 10162
  156.8910  130.5687  149.5650 H   0  0  0  0  0  0  0  0  0  0  0  0  # atno 10718 bound_to 10713
  153.8007  135.3142  155.3390 H   0  0  0  0  0  0  0  0  0  0  0  0  # atno 10763 bound_to 10752
  154.8090  135.4679  154.0469 H   0  0  0  0  0  0  0  0  0  0  0  0  # atno 10764 bound_to 10752
  153.1816  135.6894  153.8557 H   0  0  0  0  0  0  0  0  0  0  0  0  # atno 10765 bound_to 10752
  140.6607  133.9323  155.8434 H   0  0  0  0  0  0  0  0  0  0  0  0  # atno 11005 bound_to 11000
  146.3495  140.1581  142.8591 LP  0  0  0  0  0  0  0  0  0  0  0  0  # atno 17320 bound_to 7965
  145.0433  140.8962  143.5039 LP  0  0  0  0  0  0  0  0  0  0  0  0  # atno 17321 bound_to 7965
  140.7524  143.2990  151.3128 LP  0  0  0  0  0  0  0  0  0  0  0  0  # atno 17342 bound_to 10162
  139.6487  144.0402  152.2610 LP  0  0  0  0  0  0  0  0  0  0  0  0  # atno 17343 bound_to 10162
  156.0629  130.5678  150.9230 LP  0  0  0  0  0  0  0  0  0  0  0  0  # atno 17370 bound_to 10713
  157.6084  131.0938  150.8839 LP  0  0  0  0  0  0  0  0  0  0  0  0  # atno 17371 bound_to 10713
  141.0467  134.0543  157.3834 LP  0  0  0  0  0  0  0  0  0  0  0  0  # atno 17394 bound_to 11000
  139.9014  135.0166  156.7286 LP  0  0  0  0  0  0  0  0  0  0  0  0  # atno 17395 bound_to 11000

$$$$
