AV-unprocessed.smi:1459|AV-procd|sdf|5925|dock8
  -GOLD-   22720 6 03D 1   1.00000     0.00000
 Structure written by MMmdl.
 34 35  0  0  0  0  0  0  0  0  1 V2000
  152.1770  139.9247  155.8338 C   0  0  0  0  0  0  0  0  0  0  0  0
  151.6965  138.5481  155.5273 C   0  0  0  0  0  0  0  0  0  0  0  0
  150.7271  138.0651  154.6939 C   0  0  0  0  0  0  0  0  0  0  0  0
  150.8036  136.6614  154.8947 C   0  0  0  0  0  0  0  0  0  0  0  0
  149.9387  135.7793  154.1985 N   0  0  0  0  0  0  0  0  0  0  0  0
  149.5137  134.5673  154.5935 C   0  0  0  0  0  0  0  0  0  0  0  0
  149.8271  134.0165  155.6494 O   0  0  0  0  0  0  0  0  0  0  0  0
  148.6981  134.0189  153.6807 N   0  0  0  0  0  0  0  0  0  0  0  0
  148.0803  132.6981  153.7762 C   0  0  1  0  0  0  0  0  0  0  0  0
  147.0651  132.7151  154.9293 C   0  0  0  0  0  0  0  0  0  0  0  0
  147.4320  132.3258  152.4265 C   0  0  2  0  0  0  0  0  0  0  0  0
  146.3451  133.2943  151.9554 C   0  0  0  0  0  0  0  0  0  0  0  0
  145.5135  132.4124  151.0537 C   0  0  0  0  0  0  0  0  0  0  0  0
  145.5310  131.0924  151.8161 C   0  0  0  0  0  0  0  0  0  0  0  0
  146.7738  131.0619  152.5122 O   0  0  0  0  0  0  0  0  0  0  0  0
  151.7348  136.3183  155.7716 N   0  0  0  0  0  0  0  0  0  0  0  0
  152.3119  137.5259  156.1814 O   0  0  0  0  0  0  0  0  0  0  0  0
  151.6089  140.6688  155.2754 H   0  0  0  0  0  0  0  0  0  0  0  0
  153.2293  140.0342  155.5709 H   0  0  0  0  0  0  0  0  0  0  0  0
  152.0686  140.1438  156.8962 H   0  0  0  0  0  0  0  0  0  0  0  0
  150.0714  138.6279  154.0461 H   0  0  0  0  0  0  0  0  0  0  0  0
  149.6102  136.1046  153.3017 H   0  0  0  0  0  0  0  0  0  0  0  0
  148.5021  134.5478  152.8438 H   0  0  0  0  0  0  0  0  0  0  0  0
  148.8392  131.9514  154.0170 H   0  0  0  0  0  0  0  0  0  0  0  0
  146.6192  131.7323  155.0818 H   0  0  0  0  0  0  0  0  0  0  0  0
  146.2570  133.4218  154.7377 H   0  0  0  0  0  0  0  0  0  0  0  0
  147.5429  133.0015  155.8669 H   0  0  0  0  0  0  0  0  0  0  0  0
  148.1956  132.2448  151.6508 H   0  0  0  0  0  0  0  0  0  0  0  0
  145.7425  133.6373  152.7979 H   0  0  0  0  0  0  0  0  0  0  0  0
  146.7462  134.1688  151.4426 H   0  0  0  0  0  0  0  0  0  0  0  0
  144.5067  132.7951  150.8845 H   0  0  0  0  0  0  0  0  0  0  0  0
  146.0050  132.2963  150.0868 H   0  0  0  0  0  0  0  0  0  0  0  0
  144.7243  131.0647  152.5497 H   0  0  0  0  0  0  0  0  0  0  0  0
  145.4208  130.2303  151.1580 H   0  0  0  0  0  0  0  0  0  0  0  0
  1  2  1  0  0  0  0
  1 18  1  0  0  0  0
  1 19  1  0  0  0  0
  1 20  1  0  0  0  0
  2 17  1  0  0  0  0
  2  3  2  0  0  0  0
  3  4  1  0  0  0  0
  3 21  1  0  0  0  0
  4  5  1  0  0  0  0
  4 16  2  0  0  0  0
  5  6  1  0  0  0  0
  5 22  1  0  0  0  0
  6  7  2  0  0  0  0
  6  8  1  0  0  0  0
  8  9  1  0  0  0  0
  8 23  1  0  0  0  0
  9 10  1  0  0  0  0
  9 11  1  0  0  0  0
  9 24  1  0  0  0  0
 10 25  1  0  0  0  0
 10 26  1  0  0  0  0
 10 27  1  0  0  0  0
 11 15  1  0  0  0  0
 11 12  1  0  0  0  0
 11 28  1  0  0  0  0
 12 13  1  0  0  0  0
 12 29  1  0  0  0  0
 12 30  1  0  0  0  0
 13 14  1  0  0  0  0
 13 31  1  0  0  0  0
 13 32  1  0  0  0  0
 14 15  1  0  0  0  0
 14 33  1  0  0  0  0
 14 34  1  0  0  0  0
 16 17  1  0  0  0  0
M  END
> <s_m_source_file>
AV-unprocessed.smi

> <i_m_source_file_index>
1459

> <i_lp_mmshare_version>
43012

> <i_f3d_flags>
0

> <s_epik_input>
W0NIM11jMVtjSF1jKG5vMSlbTkhdQyg9TylbTkhdW0NASF0oW0NIM10pW0NAQEhdMltDSDJdW0NIMl1bQ0gyXU8y

> <s_epik_cmdline>
J2VwaWtfcHl0aG9uJywgJy1waCcsICc3LjAnLCAnLXRuJywgJzgnLCAnLW1hJywgJzIwMCcsICctbWV0YWxfYmluZGluZycsICctaW1hZScsICc8aW5maWxlLm1hZT4nLCAnLW9tYWUnLCAnPG91dGZpbGUubWFlPic=

> <r_lp_tautomer_probability>
1

> <r_epik_Ionization_Penalty>
2.20869e-05

> <r_epik_Ionization_Penalty_Charging>
0

> <r_epik_Ionization_Penalty_Neutral>
2.20869e-05

> <r_epik_State_Penalty>
-0

> <r_epik_Charging_Adjusted_Penalty>
0

> <i_epik_Tot_Q>
0

> <i_epik_Tot_abs_Q>
0

> <r_epik_Metal_State_Penalty>
-0

> <b_epik_Metal_Only>
0

> <s_lp_Force_Field>
OPLS_2005

> <r_lp_Energy>
15.9423

> <b_lp_Chiralities_Consistent>
1

> <s_lp_Variant>
AV-unprocessed.smi:1459-2

> <Gold.Version>
5.8.1

> <Gold.Id.Protein>
6NUR|6NUR_protein|mol2

> <Gold.PLP.Fitness>
33.3689

> <Gold.PLP.PLP>
-25.2468

> <Gold.PLP.part.hbond>
-4.1369

> <Gold.PLP.part.metal>
0.0000

> <Gold.PLP.part.buried>
-0.3604

> <Gold.PLP.part.nonpolar>
-20.8840

> <Gold.PLP.part.repulsive>
0.2815

> <Gold.PLP.ligand.clash>
0.0000

> <Gold.PLP.ligand.torsion>
0.2398

> <Gold.PLP.Chemscore.Hbond>
2.8640

> <Gold.PLP.Chemscore.CHOScore>
0.0000

> <Gold.PLP.Chemscore.Metal>
0.0000

> <Gold.Chemscore.Hbonds>
donor molecule, donor type, donor heavy atom, donor atom, acceptor molecule, acceptor atom, score
      L1  H     5    22       P1  7948  0.95
      L1  H     8    23       P1  7948  0.84
      P1  H 10752 10765       L1    16  1.00

> <Gold.PLP.Chemscore.Internal.Correction>
0.0097

> <Gold.Rescore>
     Score         DG    S(hbond)    S(metal)    S(lipo)     H(rot)  DE(clash)    DE(int)     intcor
     14.81     -15.35       2.26        0.00      47.78       1.28       0.02       0.52       ----

> <Gold.Chemscore.Fitness>
14.8082

> <Gold.Chemscore.DG>
-15.3463

> <Gold.Chemscore.ZeroCoef>
-5.4800

> <Gold.Chemscore.Hbond>
2.2594

> <Gold.Chemscore.Metal>
0.0000

> <Gold.Chemscore.Lipo>
47.7826

> <Gold.Chemscore.Internal_Hbond>
0.0000

> <Gold.Chemscore.DEClash>
0.0195

> <Gold.Chemscore.DEInternal>
0.5186

> <Gold.Chemscore.Rot>
1.2776

> <Gold.Chemscore.Internal.Correction>
   9.000000E+99

> <Gold.Chemscore.Hbonds>
donor molecule, donor type, donor heavy atom, donor atom, acceptor molecule, acceptor atom, score
      L1  H     5    22       P1  7948  0.21
      L1  H     8    23       P1  7948  0.18
      P1  H 10752 10765       L1    16  0.15

> <Gold.Chemscore.Hbond.Weighted>
-7.5464

> <Gold.Chemscore.Metal.Weighted>
-0.0000

> <Gold.Chemscore.Lipo.Weighted>
-5.5906

> <Gold.Chemscore.Internal_Hbond.Weighted>
0.0000

> <Gold.Chemscore.DEClash.Weighted>
0.0195

> <Gold.Chemscore.DEInternal.Weighted>
0.5186

> <Gold.Chemscore.Rot.Weighted>
3.2707

> <Gold.Chemscore.Internal.Correction.Weighted>
   9.000000E+99

> <Gold.Protein.RotatedTorsions>
[ 6907 6896 6895 6894 ] final  139.07 input  -60.11 | X-H torsion
[ 7974 7965 7964 7962 ] final    1.35 input  175.53 | X-H torsion
[ 8008 7997 7996 7995 ] final -117.63 input   59.86 | X-H torsion
[ 10167 10162 10161 10158 ] final   32.49 input  -65.29 | X-H torsion
[ 10718 10713 10712 10709 ] final  133.77 input   66.30 | X-H torsion
[ 10763 10752 10751 10750 ] final -176.20 input  -60.55 | X-H torsion
[ 11005 11000 10999 10996 ] final   26.54 input  -57.11 | X-H torsion

> <Gold.Protein.ActiveResidues>
 VAL166  LYS551  ARG553  GLY616  TRP617  ASP618  TYR619  PRO620  LYS621  CYS622 
 ASP623  PHE694  ASN695  SER759  ASP760  ASP761  ALA762  ILE779  LEU786  VAL792 
 PHE793  MET794  SER795  GLU796  ALA797  LYS798  CYS799  TRP800  GLU811  SER814 

> <Gold.Protein.RotatedAtoms>
  152.2593  133.5283  159.5371 H   0  0  0  0  0  0  0  0  0  0  0  0  # atno 6907 bound_to 6896
  150.7119  134.0852  159.3921 H   0  0  0  0  0  0  0  0  0  0  0  0  # atno 6908 bound_to 6896
  151.8770  135.0468  160.0536 H   0  0  0  0  0  0  0  0  0  0  0  0  # atno 6909 bound_to 6896
  146.2440  140.1000  142.8348 H   0  0  0  0  0  0  0  0  0  0  0  0  # atno 7974 bound_to 7965
  155.0868  140.0394  157.2656 H   0  0  0  0  0  0  0  0  0  0  0  0  # atno 8008 bound_to 7997
  154.6863  140.2644  155.6832 H   0  0  0  0  0  0  0  0  0  0  0  0  # atno 8009 bound_to 7997
  156.2713  140.2768  156.1425 H   0  0  0  0  0  0  0  0  0  0  0  0  # atno 8010 bound_to 7997
  140.4494  144.1071  150.6189 H   0  0  0  0  0  0  0  0  0  0  0  0  # atno 10167 bound_to 10162
  157.4739  131.1082  150.9768 H   0  0  0  0  0  0  0  0  0  0  0  0  # atno 10718 bound_to 10713
  154.5752  135.2831  155.0788 H   0  0  0  0  0  0  0  0  0  0  0  0  # atno 10763 bound_to 10752
  154.2145  135.6402  153.5129 H   0  0  0  0  0  0  0  0  0  0  0  0  # atno 10764 bound_to 10752
  153.0070  135.5499  154.6388 H   0  0  0  0  0  0  0  0  0  0  0  0  # atno 10765 bound_to 10752
  140.3359  134.2386  155.7696 H   0  0  0  0  0  0  0  0  0  0  0  0  # atno 11005 bound_to 11000
  145.0577  140.9064  143.4957 LP  0  0  0  0  0  0  0  0  0  0  0  0  # atno 17320 bound_to 7965
  145.1109  139.2757  143.5638 LP  0  0  0  0  0  0  0  0  0  0  0  0  # atno 17321 bound_to 7965
  140.4225  143.2605  151.9697 LP  0  0  0  0  0  0  0  0  0  0  0  0  # atno 17342 bound_to 10162
  139.4795  144.5818  151.7920 LP  0  0  0  0  0  0  0  0  0  0  0  0  # atno 17343 bound_to 10162
  157.0523  130.5792  149.5372 LP  0  0  0  0  0  0  0  0  0  0  0  0  # atno 17370 bound_to 10713
  156.0087  130.5176  150.7917 LP  0  0  0  0  0  0  0  0  0  0  0  0  # atno 17371 bound_to 10713
  141.2051  133.7868  157.0249 LP  0  0  0  0  0  0  0  0  0  0  0  0  # atno 17394 bound_to 11000
  140.0822  134.9642  157.1642 LP  0  0  0  0  0  0  0  0  0  0  0  0  # atno 17395 bound_to 11000

$$$$
