AV-unprocessed.smi:156|AV-procd|sdf|1287|dock8
  -GOLD-   2262018563D 1   1.00000     0.00000
 Structure written by MMmdl.
 51 53  0  0  0  0  0  0  0  0  1 V2000
  147.2121  137.9856  156.3556 C   0  0  0  0  0  0  0  0  0  0  0  0
  146.1943  137.0803  157.0844 C   0  0  2  0  0  0  0  0  0  0  0  0
  146.8066  135.8735  157.8623 C   0  0  2  0  0  0  0  0  0  0  0  0
  145.6991  135.0093  158.4977 C   0  0  0  0  0  0  0  0  0  0  0  0
  148.0049  136.4328  159.1727 S   0  0  0  0  0  0  0  0  0  0  0  0
  147.3887  135.6118  160.7023 C   0  0  0  0  0  0  0  0  0  0  0  0
  149.3272  135.8620  158.8733 O   0  0  0  0  0  0  0  0  0  0  0  0
  147.8648  137.8866  159.3470 O   0  0  0  0  0  0  0  0  0  0  0  0
  145.0816  136.6932  156.2013 N   0  0  0  0  0  0  0  0  0  0  0  0
  143.7290  137.0772  156.5923 C   0  0  0  0  0  0  0  0  0  0  0  0
  145.2464  136.5227  154.8617 C   0  0  0  0  0  0  0  0  0  0  0  0
  144.9247  137.5224  153.9994 N   0  0  0  0  0  0  0  0  0  0  0  0
  145.0750  137.3580  152.6824 C   0  0  0  0  0  0  0  0  0  0  0  0
  145.5216  136.2891  152.0219 N   0  0  0  0  0  0  0  0  0  0  0  0
  145.8441  135.2779  152.8776 C   0  0  0  0  0  0  0  0  0  0  0  0
  145.7389  135.3109  154.2973 C   0  0  0  0  0  0  0  0  0  0  0  0
  146.1759  134.1038  154.8290 N   0  0  0  0  0  0  0  0  0  0  0  0
  146.5139  133.3972  153.7856 C   0  0  0  0  0  0  0  0  0  0  0  0
  146.3343  134.0193  152.5706 N   0  0  0  0  0  0  0  0  0  0  0  0
  146.6306  133.4703  151.2546 C   0  0  0  0  0  0  0  0  0  0  0  0
  145.7425  132.2742  150.8488 C   0  0  0  0  0  0  0  0  0  0  0  0
  145.8197  131.1591  151.9053 C   0  0  0  0  0  0  0  0  0  0  0  0
  147.0988  130.5594  151.9211 O   0  0  0  0  0  0  0  0  0  0  0  0
  144.3261  132.6494  150.3921 C   0  0  0  0  0  0  0  0  0  0  0  0
  144.6264  132.3812  149.0066 O   0  0  0  0  0  0  0  0  0  0  0  0
  145.8903  131.8033  149.3938 C   0  0  0  0  0  0  0  0  0  0  0  0
  147.8387  138.5293  157.0614 H   0  0  0  0  0  0  0  0  0  0  0  0
  146.7114  138.7403  155.7491 H   0  0  0  0  0  0  0  0  0  0  0  0
  147.8700  137.4184  155.6977 H   0  0  0  0  0  0  0  0  0  0  0  0
  145.7389  137.7154  157.8456 H   0  0  0  0  0  0  0  0  0  0  0  0
  147.3875  135.2463  157.1882 H   0  0  0  0  0  0  0  0  0  0  0  0
  144.9682  134.6824  157.7584 H   0  0  0  0  0  0  0  0  0  0  0  0
  145.1621  135.5604  159.2700 H   0  0  0  0  0  0  0  0  0  0  0  0
  146.1010  134.1029  158.9472 H   0  0  0  0  0  0  0  0  0  0  0  0
  148.1195  135.7478  161.4992 H   0  0  0  0  0  0  0  0  0  0  0  0
  147.2528  134.5461  160.5182 H   0  0  0  0  0  0  0  0  0  0  0  0
  146.4450  136.0581  161.0134 H   0  0  0  0  0  0  0  0  0  0  0  0
  143.2702  137.7264  155.8452 H   0  0  0  0  0  0  0  0  0  0  0  0
  143.7292  137.6135  157.5415 H   0  0  0  0  0  0  0  0  0  0  0  0
  143.1032  136.1933  156.7137 H   0  0  0  0  0  0  0  0  0  0  0  0
  144.7962  138.2035  152.0711 H   0  0  0  0  0  0  0  0  0  0  0  0
  146.9111  132.3975  153.8794 H   0  0  0  0  0  0  0  0  0  0  0  0
  146.5506  134.2735  150.5215 H   0  0  0  0  0  0  0  0  0  0  0  0
  147.6819  133.1796  151.2493 H   0  0  0  0  0  0  0  0  0  0  0  0
  145.6307  131.5591  152.9021 H   0  0  0  0  0  0  0  0  0  0  0  0
  145.0637  130.3913  151.7411 H   0  0  0  0  0  0  0  0  0  0  0  0
  147.6081  130.9170  151.2099 H   0  0  0  0  0  0  0  0  0  0  0  0
  143.5470  131.9873  150.7729 H   0  0  0  0  0  0  0  0  0  0  0  0
  144.0663  133.6939  150.5677 H   0  0  0  0  0  0  0  0  0  0  0  0
  146.7244  132.2497  148.8542 H   0  0  0  0  0  0  0  0  0  0  0  0
  145.8918  130.7187  149.2758 H   0  0  0  0  0  0  0  0  0  0  0  0
  1  2  1  0  0  0  0
  1 27  1  0  0  0  0
  1 28  1  0  0  0  0
  1 29  1  0  0  0  0
  2  3  1  0  0  0  0
  2  9  1  0  0  0  0
  2 30  1  0  0  0  0
  3  4  1  0  0  0  0
  3  5  1  0  0  0  0
  3 31  1  0  0  0  0
  4 32  1  0  0  0  0
  4 33  1  0  0  0  0
  4 34  1  0  0  0  0
  5  6  1  0  0  0  0
  5  7  2  0  0  0  0
  5  8  2  0  0  0  0
  6 35  1  0  0  0  0
  6 36  1  0  0  0  0
  6 37  1  0  0  0  0
  9 10  1  0  0  0  0
  9 11  1  0  0  0  0
 10 38  1  0  0  0  0
 10 39  1  0  0  0  0
 10 40  1  0  0  0  0
 11 16  1  0  0  0  0
 11 12  2  0  0  0  0
 12 13  1  0  0  0  0
 13 14  2  0  0  0  0
 13 41  1  0  0  0  0
 14 15  1  0  0  0  0
 15 19  1  0  0  0  0
 15 16  2  0  0  0  0
 16 17  1  0  0  0  0
 17 18  2  0  0  0  0
 18 19  1  0  0  0  0
 18 42  1  0  0  0  0
 19 20  1  0  0  0  0
 20 21  1  0  0  0  0
 20 43  1  0  0  0  0
 20 44  1  0  0  0  0
 21 26  1  0  0  0  0
 21 22  1  0  0  0  0
 21 24  1  0  0  0  0
 22 23  1  0  0  0  0
 22 45  1  0  0  0  0
 22 46  1  0  0  0  0
 23 47  1  0  0  0  0
 24 25  1  0  0  0  0
 24 48  1  0  0  0  0
 24 49  1  0  0  0  0
 25 26  1  0  0  0  0
 26 50  1  0  0  0  0
 26 51  1  0  0  0  0
M  END
> <s_m_source_file>
AV-unprocessed.smi

> <i_m_source_file_index>
156

> <i_lp_mmshare_version>
43012

> <i_f3d_flags>
0

> <s_epik_input>
W0NIM11TKD1PKSg9TylbQ0BASF0oW0NIM10pW0NAQEhdKFtDSDNdKU4oW0NIM10pYyhuW2NIXW4xKWMoYzEyKW5bY0hdbjJbQ0gyXUMzKFtDSDJdW09IXSlbQ0gyXU9bQ0gyXTM=

> <s_epik_cmdline>
J2VwaWtfcHl0aG9uJywgJy1waCcsICc3LjAnLCAnLXRuJywgJzgnLCAnLW1hJywgJzIwMCcsICctbWV0YWxfYmluZGluZycsICctaW1hZScsICc8aW5maWxlLm1hZT4nLCAnLW9tYWUnLCAnPG91dGZpbGUubWFlPic=

> <r_lp_tautomer_probability>
1

> <r_epik_Ionization_Penalty>
0.00107697

> <r_epik_Ionization_Penalty_Charging>
0

> <r_epik_Ionization_Penalty_Neutral>
0.00107697

> <r_epik_State_Penalty>
0.000614712

> <r_epik_Charging_Adjusted_Penalty>
0.000614712

> <i_epik_Tot_Q>
0

> <i_epik_Tot_abs_Q>
0

> <r_epik_Metal_State_Penalty>
-0

> <b_epik_Metal_Only>
0

> <s_lp_Force_Field>
OPLS_2005

> <r_lp_Energy>
28.4574

> <b_lp_Chiralities_Consistent>
1

> <s_lp_Variant>
AV-unprocessed.smi:156-1

> <Gold.Version>
5.8.1

> <Gold.Id.Protein>
6NUR|6NUR_protein|mol2

> <Gold.PLP.Fitness>
38.3787

> <Gold.PLP.PLP>
-27.5375

> <Gold.PLP.part.hbond>
-3.0365

> <Gold.PLP.part.metal>
0.0000

> <Gold.PLP.part.buried>
-6.6880

> <Gold.PLP.part.nonpolar>
-19.0919

> <Gold.PLP.part.repulsive>
0.6187

> <Gold.PLP.ligand.clash>
0.0000

> <Gold.PLP.ligand.torsion>
2.0851

> <Gold.PLP.Chemscore.Hbond>
2.4720

> <Gold.PLP.Chemscore.CHOScore>
1.9870

> <Gold.PLP.Chemscore.Metal>
0.0000

> <Gold.Chemscore.Hbonds>
donor molecule, donor type, donor heavy atom, donor atom, acceptor molecule, acceptor atom, score
      L1  H    23    47       P1 10747  0.96
      P1  H  6896  6909       L1     7  1.00
      P1  H  6934  6947       L1     8  0.44
      L1  C    13    41       P1 10171  1.00
      L1  C    13    41       P1 10175  0.99

> <Gold.PLP.Chemscore.Internal.Correction>
1.6343

> <Gold.Rescore>
     Score         DG    S(hbond)    S(metal)    S(lipo)     H(rot)  DE(clash)    DE(int)     intcor
     10.85     -13.20       2.89        0.00      53.77       3.21       0.02       2.34       ----

> <Gold.Chemscore.Fitness>
10.8483

> <Gold.Chemscore.DG>
-13.2010

> <Gold.Chemscore.ZeroCoef>
-5.4800

> <Gold.Chemscore.Hbond>
2.8896

> <Gold.Chemscore.Metal>
0.0000

> <Gold.Chemscore.Lipo>
53.7724

> <Gold.Chemscore.Internal_Hbond>
0.0000

> <Gold.Chemscore.DEClash>
0.0174

> <Gold.Chemscore.DEInternal>
2.3352

> <Gold.Chemscore.Rot>
3.2115

> <Gold.Chemscore.Internal.Correction>
   9.000000E+99

> <Gold.Chemscore.Hbonds>
donor molecule, donor type, donor heavy atom, donor atom, acceptor molecule, acceptor atom, score
      L1  H    23    47       P1 10747  0.92
      P1  H  6896  6909       L1     7  0.98
      P1  H  6934  6947       L1     8  0.41

> <Gold.Chemscore.Hbond.Weighted>
-9.6511

> <Gold.Chemscore.Metal.Weighted>
-0.0000

> <Gold.Chemscore.Lipo.Weighted>
-6.2914

> <Gold.Chemscore.Internal_Hbond.Weighted>
0.0000

> <Gold.Chemscore.DEClash.Weighted>
0.0174

> <Gold.Chemscore.DEInternal.Weighted>
2.3352

> <Gold.Chemscore.Rot.Weighted>
8.2215

> <Gold.Chemscore.Internal.Correction.Weighted>
   9.000000E+99

> <Gold.Protein.RotatedTorsions>
[ 6907 6896 6895 6894 ] final   66.27 input  -60.11 | X-H torsion
[ 7974 7965 7964 7962 ] final   45.62 input  175.53 | X-H torsion
[ 8008 7997 7996 7995 ] final  153.60 input   59.86 | X-H torsion
[ 10167 10162 10161 10158 ] final -105.55 input  -65.29 | X-H torsion
[ 10718 10713 10712 10709 ] final   30.39 input   66.30 | X-H torsion
[ 10763 10752 10751 10750 ] final  151.13 input  -60.55 | X-H torsion
[ 11005 11000 10999 10996 ] final -155.32 input  -57.11 | X-H torsion

> <Gold.Protein.ActiveResidues>
 VAL166  LYS551  ARG553  GLY616  TRP617  ASP618  TYR619  PRO620  LYS621  CYS622 
 ASP623  PHE694  ASN695  SER759  ASP760  ASP761  ALA762  ILE779  LEU786  VAL792 
 PHE793  MET794  SER795  GLU796  ALA797  LYS798  CYS799  TRP800  GLU811  SER814 

> <Gold.Protein.RotatedAtoms>
  152.4469  134.5476  159.9857 H   0  0  0  0  0  0  0  0  0  0  0  0  # atno 6907 bound_to 6896
  151.5559  133.3404  159.2970 H   0  0  0  0  0  0  0  0  0  0  0  0  # atno 6908 bound_to 6896
  150.8387  134.7703  159.6978 H   0  0  0  0  0  0  0  0  0  0  0  0  # atno 6909 bound_to 6896
  146.0463  139.4944  142.9746 H   0  0  0  0  0  0  0  0  0  0  0  0  # atno 7974 bound_to 7965
  156.2573  140.1989  156.6516 H   0  0  0  0  0  0  0  0  0  0  0  0  # atno 8008 bound_to 7997
  154.6532  140.0569  157.0005 H   0  0  0  0  0  0  0  0  0  0  0  0  # atno 8009 bound_to 7997
  155.1386  140.3240  155.4460 H   0  0  0  0  0  0  0  0  0  0  0  0  # atno 8010 bound_to 7997
  140.1974  143.3845  152.1157 H   0  0  0  0  0  0  0  0  0  0  0  0  # atno 10167 bound_to 10162
  157.2590  130.7152  149.6444 H   0  0  0  0  0  0  0  0  0  0  0  0  # atno 10718 bound_to 10713
  154.0988  135.2847  155.3256 H   0  0  0  0  0  0  0  0  0  0  0  0  # atno 10763 bound_to 10752
  154.6570  135.5348  153.7974 H   0  0  0  0  0  0  0  0  0  0  0  0  # atno 10764 bound_to 10752
  153.0386  135.6524  154.1153 H   0  0  0  0  0  0  0  0  0  0  0  0  # atno 10765 bound_to 10752
  140.6878  134.4075  157.5222 H   0  0  0  0  0  0  0  0  0  0  0  0  # atno 11005 bound_to 11000
  145.6800  141.0194  143.1612 LP  0  0  0  0  0  0  0  0  0  0  0  0  # atno 17320 bound_to 7965
  144.7100  139.8410  143.7418 LP  0  0  0  0  0  0  0  0  0  0  0  0  # atno 17321 bound_to 7965
  139.5231  144.7067  151.5332 LP  0  0  0  0  0  0  0  0  0  0  0  0  # atno 17342 bound_to 10162
  140.6414  143.8881  150.6695 LP  0  0  0  0  0  0  0  0  0  0  0  0  # atno 17343 bound_to 10162
  155.9664  130.4403  150.5296 LP  0  0  0  0  0  0  0  0  0  0  0  0  # atno 17370 bound_to 10713
  157.3196  131.0679  151.1941 LP  0  0  0  0  0  0  0  0  0  0  0  0  # atno 17371 bound_to 10713
  139.8932  134.8735  156.2233 LP  0  0  0  0  0  0  0  0  0  0  0  0  # atno 17394 bound_to 11000
  141.0266  133.7012  156.1358 LP  0  0  0  0  0  0  0  0  0  0  0  0  # atno 17395 bound_to 11000

$$$$
