AV-unprocessed.smi:3303|AV-procd|sdf|12661|dock8
  -GOLD-   2272018593D 1   1.00000     0.00000
 Structure written by MMmdl.
 45 46  0  0  0  0  0  0  0  0  3 V2000
  146.7782  142.8907  154.6943 C   0  0  0  0  0  0  0  0  0  0  0  0
  147.6694  141.7945  154.0829 C   0  0  2  0  0  0  0  0  0  0  0  0
  146.7910  140.6996  153.4402 C   0  0  0  0  0  0  0  0  0  0  0  0
  147.6123  139.6176  152.8416 N   0  3  2  0  0  0  0  0  0  0  0  0
  146.8111  138.6633  152.0413 C   0  0  0  0  0  0  0  0  0  0  0  0
  148.5369  138.9721  153.8159 C   0  0  2  0  0  0  0  0  0  0  0  0
  147.8209  138.0930  154.8644 C   0  0  0  0  0  0  0  0  0  0  0  0
  149.4425  140.0373  154.4658 C   0  0  0  0  0  0  0  0  0  0  0  0
  148.6400  141.1830  155.1207 C   0  0  1  0  0  0  0  0  0  0  0  0
  149.5514  142.2222  155.6557 N   0  3  0  0  0  0  0  0  0  0  0  0
  149.9349  142.0557  157.0731 C   0  0  0  0  0  0  0  0  0  0  0  0
  151.4336  142.3189  157.2717 C   0  0  0  0  0  0  0  0  0  0  0  0
  151.7144  143.0661  158.5613 C   0  0  0  0  0  0  0  0  0  0  0  0
  152.5214  142.4932  159.5671 C   0  0  0  0  0  0  0  0  0  0  0  0
  152.7583  143.2361  160.7399 C   0  0  0  0  0  0  0  0  0  0  0  0
  152.1832  144.5160  160.8599 C   0  0  0  0  0  0  0  0  0  0  0  0
  151.3933  144.9987  159.7974 C   0  0  0  0  0  0  0  0  0  0  0  0
  151.1611  144.2951  158.6680 N   0  0  0  0  0  0  0  0  0  0  0  0
  146.1739  142.5004  155.5138 H   0  0  0  0  0  0  0  0  0  0  0  0
  146.0970  143.3022  153.9487 H   0  0  0  0  0  0  0  0  0  0  0  0
  147.3675  143.7219  155.0821 H   0  0  0  0  0  0  0  0  0  0  0  0
  148.2615  142.2531  153.2890 H   0  0  0  0  0  0  0  0  0  0  0  0
  146.0995  140.2812  154.1727 H   0  0  0  0  0  0  0  0  0  0  0  0
  146.1757  141.1466  152.6579 H   0  0  0  0  0  0  0  0  0  0  0  0
  146.0495  138.1709  152.6467 H   0  0  0  0  0  0  0  0  0  0  0  0
  147.4484  137.8979  151.5971 H   0  0  0  0  0  0  0  0  0  0  0  0
  146.3046  139.1834  151.2275 H   0  0  0  0  0  0  0  0  0  0  0  0
  149.1881  138.3110  153.2420 H   0  0  0  0  0  0  0  0  0  0  0  0
  148.5423  137.6553  155.5548 H   0  0  0  0  0  0  0  0  0  0  0  0
  147.2891  137.2625  154.4005 H   0  0  0  0  0  0  0  0  0  0  0  0
  147.1034  138.6544  155.4616 H   0  0  0  0  0  0  0  0  0  0  0  0
  150.0960  139.5565  155.1938 H   0  0  0  0  0  0  0  0  0  0  0  0
  150.1013  140.4533  153.7018 H   0  0  0  0  0  0  0  0  0  0  0  0
  148.0512  140.7880  155.9499 H   0  0  0  0  0  0  0  0  0  0  0  0
  150.3857  142.2565  155.0873 H   0  0  0  0  0  0  0  0  0  0  0  0
  149.3557  142.7465  157.6873 H   0  0  0  0  0  0  0  0  0  0  0  0
  149.6919  141.0464  157.4052 H   0  0  0  0  0  0  0  0  0  0  0  0
  151.9822  141.3754  157.2845 H   0  0  0  0  0  0  0  0  0  0  0  0
  151.8279  142.8920  156.4310 H   0  0  0  0  0  0  0  0  0  0  0  0
  152.9510  141.5092  159.4467 H   0  0  0  0  0  0  0  0  0  0  0  0
  153.3703  142.8320  161.5326 H   0  0  0  0  0  0  0  0  0  0  0  0
  152.3432  145.1140  161.7450 H   0  0  0  0  0  0  0  0  0  0  0  0
  150.9373  145.9762  159.8556 H   0  0  0  0  0  0  0  0  0  0  0  0
  149.0779  143.1114  155.5801 H   0  0  0  0  0  0  0  0  0  0  0  0
  148.2133  140.0771  152.1722 H   0  0  0  0  0  0  0  0  0  0  0  0
  1  2  1  0  0  0  0
  1 19  1  0  0  0  0
  1 20  1  0  0  0  0
  1 21  1  0  0  0  0
  2  9  1  0  0  0  0
  2  3  1  0  0  0  0
  2 22  1  0  0  0  0
  3  4  1  0  0  0  0
  3 23  1  0  0  0  0
  3 24  1  0  0  0  0
  4  5  1  0  0  0  0
  4  6  1  0  0  0  0
  4 45  1  0  0  0  0
  5 25  1  0  0  0  0
  5 26  1  0  0  0  0
  5 27  1  0  0  0  0
  6  7  1  0  0  0  0
  6  8  1  0  0  0  0
  6 28  1  0  0  0  0
  7 29  1  0  0  0  0
  7 30  1  0  0  0  0
  7 31  1  0  0  0  0
  8  9  1  0  0  0  0
  8 32  1  0  0  0  0
  8 33  1  0  0  0  0
  9 10  1  0  0  0  0
  9 34  1  0  0  0  0
 10 11  1  0  0  0  0
 10 35  1  0  0  0  0
 10 44  1  0  0  0  0
 11 12  1  0  0  0  0
 11 36  1  0  0  0  0
 11 37  1  0  0  0  0
 12 13  1  0  0  0  0
 12 38  1  0  0  0  0
 12 39  1  0  0  0  0
 13 18  1  0  0  0  0
 13 14  2  0  0  0  0
 14 15  1  0  0  0  0
 14 40  1  0  0  0  0
 15 16  2  0  0  0  0
 15 41  1  0  0  0  0
 16 17  1  0  0  0  0
 16 42  1  0  0  0  0
 17 18  2  0  0  0  0
 17 43  1  0  0  0  0
M  CHG  1   4   1
M  CHG  1  10   1
M  END
> <s_m_source_file>
AV-unprocessed.smi

> <i_m_source_file_index>
3303

> <i_lp_mmshare_version>
43012

> <i_f3d_flags>
0

> <s_epik_input>
W0NIM11bQ0BASF0xW0NIMl1OKFtDSDNdKVtDQEBIXShbQ0gzXSlbQ0gyXVtDQEhdMVtOSF1bQ0gyXVtDSDJdYzJbY0hdW2NIXVtjSF1bY0hdbjI=

> <s_epik_cmdline>
J2VwaWtfcHl0aG9uJywgJy1waCcsICc3LjAnLCAnLXRuJywgJzgnLCAnLW1hJywgJzIwMCcsICctbWV0YWxfYmluZGluZycsICctaW1hZScsICc8aW5maWxlLm1hZT4nLCAnLW9tYWUnLCAnPG91dGZpbGUubWFlPic=

> <r_epik_Ionization_Penalty>
0.0769462

> <r_epik_Ionization_Penalty_Charging>
0.0759813

> <r_epik_Ionization_Penalty_Neutral>
0.000964829

> <r_epik_State_Penalty>
0.0654373

> <r_epik_Charging_Adjusted_Penalty>
0.141419

> <i_epik_Tot_Q>
2

> <i_epik_Tot_abs_Q>
2

> <r_epik_Metal_State_Penalty>
0.0656439

> <b_epik_Metal_Only>
0

> <s_lp_Force_Field>
OPLS_2005

> <r_lp_Energy>
28.3665

> <b_lp_Chiralities_Consistent>
1

> <s_lp_Variant>
AV-unprocessed.smi:3303-5

> <Gold.Version>
5.8.1

> <Gold.Id.Protein>
6NUR|6NUR_protein|mol2

> <Gold.PLP.Fitness>
47.4573

> <Gold.PLP.PLP>
-40.5174

> <Gold.PLP.part.hbond>
-2.0000

> <Gold.PLP.part.metal>
0.0000

> <Gold.PLP.part.buried>
-1.5889

> <Gold.PLP.part.nonpolar>
-35.6493

> <Gold.PLP.part.repulsive>
0.3392

> <Gold.PLP.ligand.clash>
0.0000

> <Gold.PLP.ligand.torsion>
1.0224

> <Gold.PLP.Chemscore.Hbond>
2.9920

> <Gold.PLP.Chemscore.CHOScore>
0.0000

> <Gold.PLP.Chemscore.Metal>
0.0000

> <Gold.Chemscore.Hbonds>
donor molecule, donor type, donor heavy atom, donor atom, acceptor molecule, acceptor atom, score
      L1  H     4    45       P1  7957  0.99
      L1  H    10    44       P1  8028  2.00

> <Gold.PLP.Chemscore.Internal.Correction>
0.0085

> <Gold.Rescore>
     Score         DG    S(hbond)    S(metal)    S(lipo)     H(rot)  DE(clash)    DE(int)     intcor
     21.46     -23.07       1.99        0.00     123.76       1.37       0.59       1.03       ----

> <Gold.Chemscore.Fitness>
21.4644

> <Gold.Chemscore.DG>
-23.0747

> <Gold.Chemscore.ZeroCoef>
-5.4800

> <Gold.Chemscore.Hbond>
1.9861

> <Gold.Chemscore.Metal>
0.0000

> <Gold.Chemscore.Lipo>
123.7562

> <Gold.Chemscore.Internal_Hbond>
0.0000

> <Gold.Chemscore.DEClash>
0.5853

> <Gold.Chemscore.DEInternal>
1.0251

> <Gold.Chemscore.Rot>
1.3744

> <Gold.Chemscore.Internal.Correction>
   9.000000E+99

> <Gold.Chemscore.Hbonds>
donor molecule, donor type, donor heavy atom, donor atom, acceptor molecule, acceptor atom, score
      L1  H     4    45       P1  7957  0.94
      L1  H    10    44       P1  8028  0.98

> <Gold.Chemscore.Hbond.Weighted>
-6.6337

> <Gold.Chemscore.Metal.Weighted>
-0.0000

> <Gold.Chemscore.Lipo.Weighted>
-14.4795

> <Gold.Chemscore.Internal_Hbond.Weighted>
0.0000

> <Gold.Chemscore.DEClash.Weighted>
0.5853

> <Gold.Chemscore.DEInternal.Weighted>
1.0251

> <Gold.Chemscore.Rot.Weighted>
3.5185

> <Gold.Chemscore.Internal.Correction.Weighted>
   9.000000E+99

> <Gold.Protein.RotatedTorsions>
[ 6907 6896 6895 6894 ] final -113.42 input  -60.11 | X-H torsion
[ 7974 7965 7964 7962 ] final   28.18 input  175.53 | X-H torsion
[ 8008 7997 7996 7995 ] final  114.50 input   59.86 | X-H torsion
[ 10167 10162 10161 10158 ] final   11.93 input  -65.29 | X-H torsion
[ 10718 10713 10712 10709 ] final   -8.35 input   66.30 | X-H torsion
[ 10763 10752 10751 10750 ] final  -63.09 input  -60.55 | X-H torsion
[ 11005 11000 10999 10996 ] final -172.16 input  -57.11 | X-H torsion

> <Gold.Protein.ActiveResidues>
 VAL166  LYS551  ARG553  GLY616  TRP617  ASP618  TYR619  PRO620  LYS621  CYS622 
 ASP623  PHE694  ASN695  SER759  ASP760  ASP761  ALA762  ILE779  LEU786  VAL792 
 PHE793  MET794  SER795  GLU796  ALA797  LYS798  CYS799  TRP800  GLU811  SER814 

> <Gold.Protein.RotatedAtoms>
  150.7828  133.8947  159.3323 H   0  0  0  0  0  0  0  0  0  0  0  0  # atno 6907 bound_to 6896
  151.6806  135.0960  160.0224 H   0  0  0  0  0  0  0  0  0  0  0  0  # atno 6908 bound_to 6896
  152.3884  133.6605  159.6253 H   0  0  0  0  0  0  0  0  0  0  0  0  # atno 6909 bound_to 6896
  146.1743  139.7090  142.8945 H   0  0  0  0  0  0  0  0  0  0  0  0  # atno 7974 bound_to 7965
  156.2325  140.2958  156.0225 H   0  0  0  0  0  0  0  0  0  0  0  0  # atno 8008 bound_to 7997
  155.2186  140.0415  157.2962 H   0  0  0  0  0  0  0  0  0  0  0  0  # atno 8009 bound_to 7997
  154.6020  140.2429  155.7788 H   0  0  0  0  0  0  0  0  0  0  0  0  # atno 8010 bound_to 7997
  140.6100  143.8427  150.7055 H   0  0  0  0  0  0  0  0  0  0  0  0  # atno 10167 bound_to 10162
  156.7038  130.5101  149.5910 H   0  0  0  0  0  0  0  0  0  0  0  0  # atno 10718 bound_to 10713
  154.3098  135.6218  153.5460 H   0  0  0  0  0  0  0  0  0  0  0  0  # atno 10763 bound_to 10752
  152.9831  135.5698  154.5190 H   0  0  0  0  0  0  0  0  0  0  0  0  # atno 10764 bound_to 10752
  154.4837  135.2864  155.1527 H   0  0  0  0  0  0  0  0  0  0  0  0  # atno 10765 bound_to 10752
  140.5001  134.5902  157.4985 H   0  0  0  0  0  0  0  0  0  0  0  0  # atno 11005 bound_to 11000
  145.4255  141.0410  143.2940 LP  0  0  0  0  0  0  0  0  0  0  0  0  # atno 17320 bound_to 7965
  144.8211  139.5789  143.6986 LP  0  0  0  0  0  0  0  0  0  0  0  0  # atno 17321 bound_to 7965
  140.1993  143.3972  152.1803 LP  0  0  0  0  0  0  0  0  0  0  0  0  # atno 17342 bound_to 10162
  139.5354  144.7204  151.4912 LP  0  0  0  0  0  0  0  0  0  0  0  0  # atno 17343 bound_to 10162
  156.1709  130.6436  151.0836 LP  0  0  0  0  0  0  0  0  0  0  0  0  # atno 17370 bound_to 10713
  157.6962  131.0793  150.6960 LP  0  0  0  0  0  0  0  0  0  0  0  0  # atno 17371 bound_to 10713
  139.9718  134.7280  156.0026 LP  0  0  0  0  0  0  0  0  0  0  0  0  # atno 17394 bound_to 11000
  141.1440  133.6559  156.3812 LP  0  0  0  0  0  0  0  0  0  0  0  0  # atno 17395 bound_to 11000

$$$$
