#       Name:                AV-unprocessed.smi:2544
#       Creating user name   scv26
#       Creation time:       Fri Mar 27 14:04:37 2020


#       File generated by GOLD software.
#

@<TRIPOS>MOLECULE
AV-unprocessed.smi:2544
    44    45     1
SMALL
NO_CHARGES


@<TRIPOS>ATOM
      1 ****        -3.7318   0.8884  -4.3707 C.3            1 S1                 0.0000
      2 ****        -3.4253  -0.5108  -3.8250 C.3            1 S1                 0.0000
      3 ****        -1.9931  -0.7379  -3.6952 N.pl3          1 S1                 0.0000
      4 ****        -1.2537  -1.2926  -4.7346 C.2            1 S1                 0.0000
      5 ****         0.0616  -1.5727  -4.6593 C.2            1 S1                 0.0000
      6 ****         0.7911  -1.2903  -3.4063 C.2            1 S1                 0.0000
      7 ****         1.9949  -1.5267  -3.3058 O.2            1 S1                 0.0000
      8 ****        -0.0020  -0.7114  -2.2893 C.2            1 S1                 0.0000
      9 ****         0.7007  -0.4446  -1.1021 N.am           1 S1                 0.0000
     10 ****         0.2336  -0.0481   0.0962 C.2            1 S1                 0.0000
     11 ****        -0.9488   0.1307   0.3869 O.2            1 S1                 0.0000
     12 ****         1.2383   0.1285   0.9668 N.am           1 S1                 0.0000
     13 ****         1.0880   0.5729   2.3498 C.3            1 S1                 0.0000
     14 ****         2.3755   1.2832   2.8087 C.3            1 S1                 0.0000
     15 ****         2.2782   1.7265   4.2776 C.3            1 S1                 0.0000
     16 ****         1.9487   0.5406   5.1978 C.3            1 S1                 0.0000
     17 ****         0.6660  -0.1744   4.7444 C.3            1 S1                 0.0000
     18 ****         0.7613  -0.6175   3.2753 C.3            1 S1                 0.0000
     19 ****        -1.3219  -0.4739  -2.5027 C.2            1 S1                 0.0000
     20 ****        -4.8073   1.0449  -4.4532 H              1 S1                 0.0000
     21 ****        -3.2979   1.0287  -5.3611 H              1 S1                 0.0000
     22 ****        -3.3314   1.6627  -3.7158 H              1 S1                 0.0000
     23 ****        -3.9045  -0.6418  -2.8540 H              1 S1                 0.0000
     24 ****        -3.8553  -1.2674  -4.4823 H              1 S1                 0.0000
     25 ****        -1.8224  -1.4822  -5.6336 H              1 S1                 0.0000
     26 ****         0.5960  -1.9999  -5.4952 H              1 S1                 0.0000
     27 ****         1.6985  -0.5836  -1.1693 H              1 S1                 0.0000
     28 ****         2.1799  -0.0456   0.6468 H              1 S1                 0.0000
     29 ****         0.2698   1.2940   2.4036 H              1 S1                 0.0000
     30 ****         3.2302   0.6159   2.6884 H              1 S1                 0.0000
     31 ****         2.5693   2.1510   2.1771 H              1 S1                 0.0000
     32 ****         3.2147   2.1898   4.5891 H              1 S1                 0.0000
     33 ****         1.5073   2.4916   4.3773 H              1 S1                 0.0000
     34 ****         2.7803  -0.1652   5.1976 H              1 S1                 0.0000
     35 ****         1.8374   0.8877   6.2256 H              1 S1                 0.0000
     36 ****         0.4767  -1.0382   5.3823 H              1 S1                 0.0000
     37 ****        -0.1873   0.4937   4.8684 H              1 S1                 0.0000
     38 ****        -0.1778  -1.0835   2.9745 H              1 S1                 0.0000
     39 ****         1.5313  -1.3844   3.1779 H              1 S1                 0.0000
     40 ****        -1.9691  -0.0389  -1.7581 H              1 S1                 0.0000
     41 ****         2.4943  -1.9160  -4.0797 LP             1 S1                 0.0000
     42 ****         2.4735  -1.3294  -2.4502 LP             1 S1                 0.0000
     43 ****        -1.6607  -0.0205  -0.2989 LP             1 S1                 0.0000
     44 ****        -1.1977   0.4273   1.3090 LP             1 S1                 0.0000
@<TRIPOS>BOND
    1    1    2 1     
    2    1   20 1     
    3    1   21 1     
    4    1   22 1     
    5    2    3 1     
    6    2   23 1     
    7    2   24 1     
    8    3   19 1     
    9    3    4 1     
   10    4    5 2     
   11    4   25 1     
   12    5    6 1     
   13    5   26 1     
   14    6    7 2     
   15    6    8 1     
   16    8    9 1     
   17    8   19 2     
   18    9   10 am    
   19    9   27 1     
   20   10   11 2     
   21   10   12 am    
   22   12   13 1     
   23   12   28 1     
   24   13   18 1     
   25   13   14 1     
   26   13   29 1     
   27   14   15 1     
   28   14   30 1     
   29   14   31 1     
   30   15   16 1     
   31   15   32 1     
   32   15   33 1     
   33   16   17 1     
   34   16   34 1     
   35   16   35 1     
   36   17   18 1     
   37   17   36 1     
   38   17   37 1     
   39   18   38 1     
   40   18   39 1     
   41   19   40 1     
   42    7   41 1     
   43    7   42 1     
   44   11   43 1     
   45   11   44 1     
@<TRIPOS>SUBSTRUCTURE
      1 S1             1
@<TRIPOS>SET
LONE_PAIRS      STATIC     ATOMS    <user>   **** ""
4 41 42 43 44
DONOR_HYDROGENS      STATIC     ATOMS    <user>   **** ""
2 27 28
ATOM$BLUE        STATIC     ATOMS    COLORGROUP SYSTEM
4 41 42 43 44
ATOM$RED        STATIC     ATOMS    COLORGROUP SYSTEM
2 27 28
