#       Name:                AV-unprocessed.smi:3122
#       Creating user name   scv26
#       Creation time:       Fri Mar 27 17:28:17 2020


#       File generated by GOLD software.
#

@<TRIPOS>MOLECULE
AV-unprocessed.smi:3122
    36    37     1
SMALL
NO_CHARGES


@<TRIPOS>ATOM
      1 ****        -3.3579  -2.1691   1.7439 C.3            1 S1                 0.0000
      2 ****        -3.1075  -1.3995   0.4394 C.3            1 S1                 0.0000
      3 ****        -3.8588  -2.0126  -0.7515 C.3            1 S1                 0.0000
      4 ****        -1.6446  -1.2518   0.1610 C.2            1 S1                 0.0000
      5 ****        -0.7914  -2.2017  -0.2326 N.2            1 S1                 0.0000
      6 ****         0.4453  -1.6003  -0.2836 N.2            1 S1                 0.0000
      7 ****         0.2559  -0.3437   0.1280 C.2            1 S1                 0.0000
      8 ****         1.2675   0.7537   0.2077 C.3            1 S1                 0.0000
      9 ****         1.3722   1.5495  -1.1071 C.3            1 S1                 0.0000
     10 ****         2.4488   2.5541  -1.0046 N.4            1 S1                 1.0000
     11 ****         3.7322   1.9338  -0.6194 C.3            1 S1                 0.0000
     12 ****         3.5595   1.1173   0.6736 C.3            1 S1                 0.0000
     13 ****         2.5271   0.1525   0.4985 O.3            1 S1                 0.0000
     14 ****        -1.0410  -0.0614   0.4168 O.3            1 S1                 0.0000
     15 ****        -2.8759  -1.6769   2.5891 H              1 S1                 0.0000
     16 ****        -2.9687  -3.1862   1.6847 H              1 S1                 0.0000
     17 ****        -4.4239  -2.2332   1.9634 H              1 S1                 0.0000
     18 ****        -3.5060  -0.3939   0.5806 H              1 S1                 0.0000
     19 ****        -3.7195  -1.4144  -1.6525 H              1 S1                 0.0000
     20 ****        -4.9298  -2.0665  -0.5540 H              1 S1                 0.0000
     21 ****        -3.5096  -3.0235  -0.9651 H              1 S1                 0.0000
     22 ****         0.9857   1.4162   1.0283 H              1 S1                 0.0000
     23 ****         1.5881   0.8800  -1.9413 H              1 S1                 0.0000
     24 ****         0.4303   2.0508  -1.3319 H              1 S1                 0.0000
     25 ****         2.5556   3.0249  -1.8921 H              1 S1                 0.0000
     26 ****         4.0762   1.2888  -1.4289 H              1 S1                 0.0000
     27 ****         4.4844   2.7113  -0.4850 H              1 S1                 0.0000
     28 ****         4.4877   0.6010   0.9192 H              1 S1                 0.0000
     29 ****         3.3242   1.7684   1.5170 H              1 S1                 0.0000
     30 ****         2.1938   3.2325  -0.3009 H              1 S1                 0.0000
     31 ****        -1.0073  -3.1544  -0.4464 LP             1 S1                 0.0000
     32 ****         1.3078  -2.0178  -0.5698 LP             1 S1                 0.0000
     33 ****         2.7770  -0.4521  -0.2578 LP             1 S1                 0.0000
     34 ****         2.4415  -0.3828   1.3388 LP             1 S1                 0.0000
     35 ****        -1.1517   0.2053   1.3742 LP             1 S1                 0.0000
     36 ****        -1.3970   0.6625  -0.1742 LP             1 S1                 0.0000
@<TRIPOS>BOND
    1    1    2 1     
    2    1   15 1     
    3    1   16 1     
    4    1   17 1     
    5    2    3 1     
    6    2    4 1     
    7    2   18 1     
    8    3   19 1     
    9    3   20 1     
   10    3   21 1     
   11    4   14 1     
   12    4    5 2     
   13    5    6 1     
   14    6    7 2     
   15    7    8 1     
   16    7   14 1     
   17    8   13 1     
   18    8    9 1     
   19    8   22 1     
   20    9   10 1     
   21    9   23 1     
   22    9   24 1     
   23   10   11 1     
   24   10   25 1     
   25   10   30 1     
   26   11   12 1     
   27   11   26 1     
   28   11   27 1     
   29   12   13 1     
   30   12   28 1     
   31   12   29 1     
   32    5   31 1     
   33    6   32 1     
   34   13   33 1     
   35   13   34 1     
   36   14   35 1     
   37   14   36 1     
@<TRIPOS>SUBSTRUCTURE
      1 S1             1
@<TRIPOS>SET
LONE_PAIRS      STATIC     ATOMS    <user>   **** ""
6 31 32 33 34 35 36
DONOR_HYDROGENS      STATIC     ATOMS    <user>   **** ""
2 25 30
ATOM$BLUE        STATIC     ATOMS    COLORGROUP SYSTEM
6 31 32 33 34 35 36
ATOM$RED        STATIC     ATOMS    COLORGROUP SYSTEM
2 25 30
