AV-unprocessed.smi:1561|AV-procd|sdf|6284|dock6
  -GOLD-   22720 6483D 1   1.00000     0.00000
 Structure written by MMmdl.
 33 34  0  0  0  0  0  0  0  0  1 V2000
  148.5675  140.7992  156.6212 C   0  0  0  0  0  0  0  0  0  0  0  0
  149.9136  141.1939  155.9795 C   0  0  1  0  0  0  0  0  0  0  0  0
  150.8572  141.8951  156.9691 C   0  0  0  0  0  0  0  0  0  0  0  0
  151.5141  141.2417  157.7802 O   0  0  0  0  0  0  0  0  0  0  0  0
  150.9123  143.2343  156.8884 N   0  0  0  0  0  0  0  0  0  0  0  0
  151.7470  144.1010  157.7143 C   0  0  0  0  0  0  0  0  0  0  0  0
  151.6247  143.7627  159.2119 C   0  0  2  0  0  0  0  0  0  0  0  0
  151.8444  144.9500  160.1271 C   0  0  0  0  0  0  0  0  0  0  0  0
  152.1252  144.2748  161.4669 C   0  0  0  0  0  0  0  0  0  0  0  0
  152.7175  143.0164  161.1566 O   0  0  0  0  0  0  0  0  0  0  0  0
  152.6762  142.7915  159.7511 C   0  0  0  0  0  0  0  0  0  0  0  0
  150.5867  140.0588  155.3582 N   0  0  0  0  0  0  0  0  0  0  0  0
  151.8661  139.5989  155.5967 C   0  0  0  0  0  0  0  0  0  0  0  0
  152.0562  138.4906  154.8224 C   0  0  0  0  0  0  0  0  0  0  0  0
  150.8159  138.3363  154.1435 C   0  0  0  0  0  0  0  0  0  0  0  0
  149.9370  139.2687  154.4714 N   0  0  0  0  0  0  0  0  0  0  0  0
  148.0572  141.6718  157.0304 H   0  0  0  0  0  0  0  0  0  0  0  0
  148.6917  140.0804  157.4322 H   0  0  0  0  0  0  0  0  0  0  0  0
  147.9031  140.3505  155.8822 H   0  0  0  0  0  0  0  0  0  0  0  0
  149.6886  141.9059  155.1835 H   0  0  0  0  0  0  0  0  0  0  0  0
  150.3369  143.6880  156.1937 H   0  0  0  0  0  0  0  0  0  0  0  0
  152.7891  144.0595  157.3922 H   0  0  0  0  0  0  0  0  0  0  0  0
  151.4195  145.1273  157.5473 H   0  0  0  0  0  0  0  0  0  0  0  0
  150.6332  143.3525  159.4118 H   0  0  0  0  0  0  0  0  0  0  0  0
  152.7186  145.5197  159.8076 H   0  0  0  0  0  0  0  0  0  0  0  0
  150.9911  145.6280  160.1646 H   0  0  0  0  0  0  0  0  0  0  0  0
  152.7750  144.8744  162.1046 H   0  0  0  0  0  0  0  0  0  0  0  0
  151.1943  144.0950  162.0060 H   0  0  0  0  0  0  0  0  0  0  0  0
  152.4451  141.7511  159.5221 H   0  0  0  0  0  0  0  0  0  0  0  0
  153.6599  143.0192  159.3375 H   0  0  0  0  0  0  0  0  0  0  0  0
  152.5287  140.0942  156.2911 H   0  0  0  0  0  0  0  0  0  0  0  0
  152.9438  137.8794  154.7552 H   0  0  0  0  0  0  0  0  0  0  0  0
  150.5286  137.5773  153.4308 H   0  0  0  0  0  0  0  0  0  0  0  0
  1  2  1  0  0  0  0
  1 17  1  0  0  0  0
  1 18  1  0  0  0  0
  1 19  1  0  0  0  0
  2  3  1  0  0  0  0
  2 12  1  0  0  0  0
  2 20  1  0  0  0  0
  3  4  2  0  0  0  0
  3  5  1  0  0  0  0
  5  6  1  0  0  0  0
  5 21  1  0  0  0  0
  6  7  1  0  0  0  0
  6 22  1  0  0  0  0
  6 23  1  0  0  0  0
  7 11  1  0  0  0  0
  7  8  1  0  0  0  0
  7 24  1  0  0  0  0
  8  9  1  0  0  0  0
  8 25  1  0  0  0  0
  8 26  1  0  0  0  0
  9 10  1  0  0  0  0
  9 27  1  0  0  0  0
  9 28  1  0  0  0  0
 10 11  1  0  0  0  0
 11 29  1  0  0  0  0
 11 30  1  0  0  0  0
 12 16  1  0  0  0  0
 12 13  1  0  0  0  0
 13 14  2  0  0  0  0
 13 31  1  0  0  0  0
 14 15  1  0  0  0  0
 14 32  1  0  0  0  0
 15 16  2  0  0  0  0
 15 33  1  0  0  0  0
M  END
> <s_m_source_file>
AV-unprocessed.smi

> <i_m_source_file_index>
1561

> <i_lp_mmshare_version>
43012

> <i_f3d_flags>
0

> <s_epik_input>
bjFbY0hdW2NIXVtjSF1uMVtDQEhdKFtDSDNdKUMoPU8pW05IXVtDSDJdW0NAQEhdMltDSDJdW0NIMl1PW0NIMl0y

> <s_epik_cmdline>
J2VwaWtfcHl0aG9uJywgJy1waCcsICc3LjAnLCAnLXRuJywgJzgnLCAnLW1hJywgJzIwMCcsICctbWV0YWxfYmluZGluZycsICctaW1hZScsICc8aW5maWxlLm1hZT4nLCAnLW9tYWUnLCAnPG91dGZpbGUubWFlPic=

> <r_lp_tautomer_probability>
1

> <r_epik_Ionization_Penalty>
3.82077e-05

> <r_epik_Ionization_Penalty_Charging>
0

> <r_epik_Ionization_Penalty_Neutral>
3.82077e-05

> <r_epik_State_Penalty>
-0

> <r_epik_Charging_Adjusted_Penalty>
0

> <i_epik_Tot_Q>
0

> <i_epik_Tot_abs_Q>
0

> <r_epik_Metal_State_Penalty>
-0

> <b_epik_Metal_Only>
0

> <s_lp_Force_Field>
OPLS_2005

> <r_lp_Energy>
22.8323

> <b_lp_Chiralities_Consistent>
1

> <s_lp_Variant>
AV-unprocessed.smi:1561-2

> <Gold.Version>
5.8.1

> <Gold.Id.Protein>
6NUR|6NUR_protein|mol2

> <Gold.PLP.Fitness>
45.5767

> <Gold.PLP.PLP>
-40.8585

> <Gold.PLP.part.hbond>
-1.0000

> <Gold.PLP.part.metal>
0.0000

> <Gold.PLP.part.buried>
-6.1376

> <Gold.PLP.part.nonpolar>
-34.3603

> <Gold.PLP.part.repulsive>
0.2410

> <Gold.PLP.ligand.clash>
0.0000

> <Gold.PLP.ligand.torsion>
0.9504

> <Gold.PLP.Chemscore.Hbond>
1.0000

> <Gold.PLP.Chemscore.CHOScore>
1.1676

> <Gold.PLP.Chemscore.Metal>
0.0000

> <Gold.Chemscore.Hbonds>
donor molecule, donor type, donor heavy atom, donor atom, acceptor molecule, acceptor atom, score
      L1  H     5    21       P1  8028  1.00
      L1  C    15    33       P1  7948  0.64
      L1  C    15    33       P1  7949  0.49

> <Gold.PLP.Chemscore.Internal.Correction>
0.1161

> <Gold.Rescore>
     Score         DG    S(hbond)    S(metal)    S(lipo)     H(rot)  DE(clash)    DE(int)     intcor
     13.20     -15.75       1.00        0.00      94.48       1.61       0.15       2.40       ----

> <Gold.Chemscore.Fitness>
13.1984

> <Gold.Chemscore.DG>
-15.7527

> <Gold.Chemscore.ZeroCoef>
-5.4800

> <Gold.Chemscore.Hbond>
0.9994

> <Gold.Chemscore.Metal>
0.0000

> <Gold.Chemscore.Lipo>
94.4842

> <Gold.Chemscore.Internal_Hbond>
0.0000

> <Gold.Chemscore.DEClash>
0.1509

> <Gold.Chemscore.DEInternal>
2.4035

> <Gold.Chemscore.Rot>
1.6094

> <Gold.Chemscore.Internal.Correction>
   9.000000E+99

> <Gold.Chemscore.Hbonds>
donor molecule, donor type, donor heavy atom, donor atom, acceptor molecule, acceptor atom, score
      L1  H     5    21       P1  8028  0.97

> <Gold.Chemscore.Hbond.Weighted>
-3.3381

> <Gold.Chemscore.Metal.Weighted>
-0.0000

> <Gold.Chemscore.Lipo.Weighted>
-11.0547

> <Gold.Chemscore.Internal_Hbond.Weighted>
0.0000

> <Gold.Chemscore.DEClash.Weighted>
0.1509

> <Gold.Chemscore.DEInternal.Weighted>
2.4035

> <Gold.Chemscore.Rot.Weighted>
4.1201

> <Gold.Chemscore.Internal.Correction.Weighted>
   9.000000E+99

> <Gold.Protein.RotatedTorsions>
[ 6907 6896 6895 6894 ] final   32.84 input  -60.11 | X-H torsion
[ 7974 7965 7964 7962 ] final   25.63 input  175.53 | X-H torsion
[ 8008 7997 7996 7995 ] final -122.64 input   59.86 | X-H torsion
[ 10167 10162 10161 10158 ] final   62.35 input  -65.29 | X-H torsion
[ 10718 10713 10712 10709 ] final   -9.96 input   66.30 | X-H torsion
[ 10763 10752 10751 10750 ] final   54.40 input  -60.55 | X-H torsion
[ 11005 11000 10999 10996 ] final -151.45 input  -57.11 | X-H torsion

> <Gold.Protein.ActiveResidues>
 VAL166  LYS551  ARG553  GLY616  TRP617  ASP618  TYR619  PRO620  LYS621  CYS622 
 ASP623  PHE694  ASN695  SER759  ASP760  ASP761  ALA762  ILE779  LEU786  VAL792 
 PHE793  MET794  SER795  GLU796  ALA797  LYS798  CYS799  TRP800  GLU811  SER814 

> <Gold.Protein.RotatedAtoms>
  152.0801  134.9477  160.0573 H   0  0  0  0  0  0  0  0  0  0  0  0  # atno 6907 bound_to 6896
  152.0769  133.4129  159.4492 H   0  0  0  0  0  0  0  0  0  0  0  0  # atno 6908 bound_to 6896
  150.6836  134.2947  159.4725 H   0  0  0  0  0  0  0  0  0  0  0  0  # atno 6909 bound_to 6896
  146.1879  139.7440  142.8853 H   0  0  0  0  0  0  0  0  0  0  0  0  # atno 7974 bound_to 7965
  155.1676  140.0407  157.2856 H   0  0  0  0  0  0  0  0  0  0  0  0  # atno 8008 bound_to 7997
  154.6292  140.2520  155.7427 H   0  0  0  0  0  0  0  0  0  0  0  0  # atno 8009 bound_to 7997
  156.2476  140.2879  156.0636 H   0  0  0  0  0  0  0  0  0  0  0  0  # atno 8010 bound_to 7997
  140.1448  144.4519  150.6791 H   0  0  0  0  0  0  0  0  0  0  0  0  # atno 10167 bound_to 10162
  156.6805  130.5035  149.5973 H   0  0  0  0  0  0  0  0  0  0  0  0  # atno 10718 bound_to 10713
  152.9804  135.5746  154.4899 H   0  0  0  0  0  0  0  0  0  0  0  0  # atno 10763 bound_to 10752
  154.4435  135.2776  155.1833 H   0  0  0  0  0  0  0  0  0  0  0  0  # atno 10764 bound_to 10752
  154.3491  135.6213  153.5687 H   0  0  0  0  0  0  0  0  0  0  0  0  # atno 10765 bound_to 10752
  140.7294  134.3638  157.5169 H   0  0  0  0  0  0  0  0  0  0  0  0  # atno 11005 bound_to 11000
  145.3883  141.0368  143.3138 LP  0  0  0  0  0  0  0  0  0  0  0  0  # atno 17320 bound_to 7965
  144.8431  139.5440  143.6891 LP  0  0  0  0  0  0  0  0  0  0  0  0  # atno 17321 bound_to 7965
  140.6738  143.2297  151.5558 LP  0  0  0  0  0  0  0  0  0  0  0  0  # atno 17342 bound_to 10162
  139.5454  144.2535  152.1432 LP  0  0  0  0  0  0  0  0  0  0  0  0  # atno 17343 bound_to 10162
  156.1871  130.6536  151.1019 LP  0  0  0  0  0  0  0  0  0  0  0  0  # atno 17370 bound_to 10713
  157.7045  131.0762  150.6712 LP  0  0  0  0  0  0  0  0  0  0  0  0  # atno 17371 bound_to 10713
  139.8830  134.9008  156.2797 LP  0  0  0  0  0  0  0  0  0  0  0  0  # atno 17394 bound_to 11000
  140.9934  133.7195  156.0849 LP  0  0  0  0  0  0  0  0  0  0  0  0  # atno 17395 bound_to 11000

$$$$
