AV-unprocessed.smi:37|AV-procd|sdf|326|dock9
  -GOLD-   2262016153D 1   1.00000     0.00000
 Structure written by MMmdl.
 43 44  0  0  0  0  0  0  0  0  2 V2000
  153.5151  142.0966  161.2203 C   0  0  0  0  0  0  0  0  0  0  0  0
  153.7849  142.5094  159.7671 C   0  0  0  0  0  0  0  0  0  0  0  0
  152.5308  142.4193  158.9010 C   0  0  0  0  0  0  0  0  0  0  0  0
  152.0941  143.4007  158.2994 O   0  0  0  0  0  0  0  0  0  0  0  0
  151.9968  141.1885  158.8921 O   0  0  0  0  0  0  0  0  0  0  0  0
  150.7484  140.9701  158.2573 C   0  0  0  0  0  0  0  0  0  0  0  0
  150.8997  139.8493  157.2209 C   0  0  1  0  0  0  0  0  0  0  0  0
  150.1233  138.7110  157.5759 O   0  0  0  0  0  0  0  0  0  0  0  0
  149.7844  137.9874  156.4275 C   0  0  2  0  0  0  0  0  0  0  0  0
  150.4238  136.6179  156.4767 N   0  0  0  0  0  0  0  0  0  0  0  0
  149.7109  135.4766  156.1468 C   0  0  0  0  0  0  0  0  0  0  0  0
  150.2872  134.2580  156.1890 C   0  0  0  0  0  0  0  0  0  0  0  0
  149.5698  133.1673  155.8688 F   0  0  0  0  0  0  0  0  0  0  0  0
  151.6886  134.1334  156.5859 C   0  0  0  0  0  0  0  0  0  0  0  0
  152.2101  133.0197  156.6165 O   0  0  0  0  0  0  0  0  0  0  0  0
  152.3642  135.2742  156.9091 N   0  5  0  0  0  0  0  0  0  0  0  0
  151.7841  136.5094  156.8730 C   0  0  0  0  0  0  0  0  0  0  0  0
  152.3795  137.5440  157.1747 O   0  0  0  0  0  0  0  0  0  0  0  0
  150.2256  138.8206  155.2041 C   0  0  2  0  0  0  0  0  0  0  0  0
  151.9851  138.2549  154.4401 Br  0  0  0  0  0  0  0  0  0  0  0  0
  150.4017  140.1994  155.8166 C   0  0  1  0  0  0  0  0  0  0  0  0
  149.1542  140.8817  155.8975 O   0  0  0  0  0  0  0  0  0  0  0  0
  148.5396  141.3146  154.7821 C   0  0  0  0  0  0  0  0  0  0  0  0
  149.0094  141.2947  153.6443 O   0  0  0  0  0  0  0  0  0  0  0  0
  147.1344  141.8475  155.0539 C   0  0  0  0  0  0  0  0  0  0  0  0
  146.4773  142.4235  153.7919 C   0  0  0  0  0  0  0  0  0  0  0  0
  154.4308  142.1474  161.8091 H   0  0  0  0  0  0  0  0  0  0  0  0
  153.1421  141.0734  161.2782 H   0  0  0  0  0  0  0  0  0  0  0  0
  152.7820  142.7509  161.6939 H   0  0  0  0  0  0  0  0  0  0  0  0
  154.1639  143.5310  159.7326 H   0  0  0  0  0  0  0  0  0  0  0  0
  154.5573  141.8706  159.3379 H   0  0  0  0  0  0  0  0  0  0  0  0
  149.9812  140.7158  158.9904 H   0  0  0  0  0  0  0  0  0  0  0  0
  150.4398  141.8922  157.7628 H   0  0  0  0  0  0  0  0  0  0  0  0
  151.9467  139.5482  157.1547 H   0  0  0  0  0  0  0  0  0  0  0  0
  148.7070  137.8170  156.4648 H   0  0  0  0  0  0  0  0  0  0  0  0
  148.6734  135.5474  155.8573 H   0  0  0  0  0  0  0  0  0  0  0  0
  149.4817  138.7744  154.4080 H   0  0  0  0  0  0  0  0  0  0  0  0
  151.1317  140.8048  155.2767 H   0  0  0  0  0  0  0  0  0  0  0  0
  146.5220  141.0378  155.4518 H   0  0  0  0  0  0  0  0  0  0  0  0
  147.1909  142.6119  155.8293 H   0  0  0  0  0  0  0  0  0  0  0  0
  145.4588  142.7489  154.0041 H   0  0  0  0  0  0  0  0  0  0  0  0
  146.4271  141.6797  152.9959 H   0  0  0  0  0  0  0  0  0  0  0  0
  147.0261  143.2863  153.4126 H   0  0  0  0  0  0  0  0  0  0  0  0
  1  2  1  0  0  0  0
  1 27  1  0  0  0  0
  1 28  1  0  0  0  0
  1 29  1  0  0  0  0
  2  3  1  0  0  0  0
  2 30  1  0  0  0  0
  2 31  1  0  0  0  0
  3  4  2  0  0  0  0
  3  5  1  0  0  0  0
  5  6  1  0  0  0  0
  6  7  1  0  0  0  0
  6 32  1  0  0  0  0
  6 33  1  0  0  0  0
  7 21  1  0  0  0  0
  7  8  1  0  0  0  0
  7 34  1  0  0  0  0
  8  9  1  0  0  0  0
  9 10  1  0  0  0  0
  9 19  1  0  0  0  0
  9 35  1  0  0  0  0
 10 17  1  0  0  0  0
 10 11  1  0  0  0  0
 11 12  2  0  0  0  0
 11 36  1  0  0  0  0
 12 13  1  0  0  0  0
 12 14  1  0  0  0  0
 14 15  2  0  0  0  0
 14 16  1  0  0  0  0
 16 17  1  0  0  0  0
 17 18  2  0  0  0  0
 19 20  1  0  0  0  0
 19 21  1  0  0  0  0
 19 37  1  0  0  0  0
 21 22  1  0  0  0  0
 21 38  1  0  0  0  0
 22 23  1  0  0  0  0
 23 24  2  0  0  0  0
 23 25  1  0  0  0  0
 25 26  1  0  0  0  0
 25 39  1  0  0  0  0
 25 40  1  0  0  0  0
 26 41  1  0  0  0  0
 26 42  1  0  0  0  0
 26 43  1  0  0  0  0
M  CHG  1  16  -1
M  END
> <s_m_source_file>
AV-unprocessed.smi

> <i_m_source_file_index>
37

> <i_lp_mmshare_version>
43012

> <i_f3d_flags>
0

> <s_epik_input>
W0NIM11bQ0gyXUMoPU8pT1tDSDJdW0NAQEhdMU9bQ0BASF0objJbY0hdYyhGKWMoPU8pW25IXWMyPU8pW0NAQEhdKEJyKVtDQEhdMU9DKD1PKVtDSDJdW0NIM10=

> <s_epik_cmdline>
J2VwaWtfcHl0aG9uJywgJy1waCcsICc3LjAnLCAnLXRuJywgJzgnLCAnLW1hJywgJzIwMCcsICctbWV0YWxfYmluZGluZycsICctaW1hZScsICc8aW5maWxlLm1hZT4nLCAnLW9tYWUnLCAnPG91dGZpbGUubWFlPic=

> <r_epik_Ionization_Penalty>
1.08158

> <r_epik_Ionization_Penalty_Charging>
9.05154e-09

> <r_epik_Ionization_Penalty_Neutral>
1.08158

> <r_epik_State_Penalty>
1.13706

> <r_epik_Charging_Adjusted_Penalty>
1.13706

> <i_epik_Tot_Q>
-1

> <i_epik_Tot_abs_Q>
1

> <r_epik_Metal_State_Penalty>
0.00343535

> <b_epik_Metal_Only>
0

> <s_epik_Chemistry_Notes>
This compound has an ester and may undergo hydrolysis at high or low pH. This compound contains an acetal/aminal-like group ( X-CH(R)-Y where X, Y are N, S, or O) that may be acid/base labile, releasing an aldehyde.

> <s_lp_Force_Field>
OPLS_2005

> <r_lp_Energy>
32.8467

> <b_lp_Chiralities_Consistent>
1

> <s_lp_Variant>
AV-unprocessed.smi:37-24

> <Gold.Version>
5.8.1

> <Gold.Id.Protein>
6NUR|6NUR_protein|mol2

> <Gold.PLP.Fitness>
43.1755

> <Gold.PLP.PLP>
-38.1137

> <Gold.PLP.part.hbond>
-3.1614

> <Gold.PLP.part.metal>
0.0000

> <Gold.PLP.part.buried>
-6.6643

> <Gold.PLP.part.nonpolar>
-29.7798

> <Gold.PLP.part.repulsive>
1.7547

> <Gold.PLP.ligand.clash>
0.3732

> <Gold.PLP.ligand.torsion>
1.6306

> <Gold.PLP.Chemscore.Hbond>
2.8320

> <Gold.PLP.Chemscore.CHOScore>
0.0000

> <Gold.PLP.Chemscore.Metal>
0.0000

> <Gold.Chemscore.Hbonds>
donor molecule, donor type, donor heavy atom, donor atom, acceptor molecule, acceptor atom, score
      P1  H  8011  8017       L1    24  0.88
      P1  H 10752 10763       L1    16  1.70

> <Gold.PLP.Chemscore.Internal.Correction>
0.2002

> <Gold.Rescore>
     Score         DG    S(hbond)    S(metal)    S(lipo)     H(rot)  DE(clash)    DE(int)     intcor
      1.24      -8.60       1.06        0.00      67.95       3.27       0.10       7.25       ----

> <Gold.Chemscore.Fitness>
1.2439

> <Gold.Chemscore.DG>
-8.5953

> <Gold.Chemscore.ZeroCoef>
-5.4800

> <Gold.Chemscore.Hbond>
1.0563

> <Gold.Chemscore.Metal>
0.0000

> <Gold.Chemscore.Lipo>
67.9540

> <Gold.Chemscore.Internal_Hbond>
0.0000

> <Gold.Chemscore.DEClash>
0.0965

> <Gold.Chemscore.DEInternal>
7.2550

> <Gold.Chemscore.Rot>
3.2669

> <Gold.Chemscore.Internal.Correction>
   9.000000E+99

> <Gold.Chemscore.Hbonds>
donor molecule, donor type, donor heavy atom, donor atom, acceptor molecule, acceptor atom, score
      P1  H  8011  8017       L1    24  0.86
      P1  H 10752 10763       L1    16  0.04

> <Gold.Chemscore.Hbond.Weighted>
-3.5281

> <Gold.Chemscore.Metal.Weighted>
-0.0000

> <Gold.Chemscore.Lipo.Weighted>
-7.9506

> <Gold.Chemscore.Internal_Hbond.Weighted>
0.0000

> <Gold.Chemscore.DEClash.Weighted>
0.0965

> <Gold.Chemscore.DEInternal.Weighted>
7.2550

> <Gold.Chemscore.Rot.Weighted>
8.3634

> <Gold.Chemscore.Internal.Correction.Weighted>
   9.000000E+99

> <Gold.Protein.RotatedTorsions>
[ 6907 6896 6895 6894 ] final -177.21 input  -60.11 | X-H torsion
[ 7974 7965 7964 7962 ] final   45.34 input  175.53 | X-H torsion
[ 8008 7997 7996 7995 ] final   82.82 input   59.86 | X-H torsion
[ 10167 10162 10161 10158 ] final  139.56 input  -65.29 | X-H torsion
[ 10718 10713 10712 10709 ] final    8.26 input   66.30 | X-H torsion
[ 10763 10752 10751 10750 ] final  112.98 input  -60.55 | X-H torsion
[ 11005 11000 10999 10996 ] final  -91.79 input  -57.11 | X-H torsion

> <Gold.Protein.ActiveResidues>
 VAL166  LYS551  ARG553  GLY616  TRP617  ASP618  TYR619  PRO620  LYS621  CYS622 
 ASP623  PHE694  ASN695  SER759  ASP760  ASP761  ALA762  ILE779  LEU786  VAL792 
 PHE793  MET794  SER795  GLU796  ALA797  LYS798  CYS799  TRP800  GLU811  SER814 

> <Gold.Protein.RotatedAtoms>
  151.6173  133.3342  159.3080 H   0  0  0  0  0  0  0  0  0  0  0  0  # atno 6907 bound_to 6896
  150.8124  134.7291  159.6711 H   0  0  0  0  0  0  0  0  0  0  0  0  # atno 6908 bound_to 6896
  152.4221  134.5941  160.0034 H   0  0  0  0  0  0  0  0  0  0  0  0  # atno 6909 bound_to 6896
  146.0488  139.4974  142.9731 H   0  0  0  0  0  0  0  0  0  0  0  0  # atno 7974 bound_to 7965
  155.9157  140.3424  155.6133 H   0  0  0  0  0  0  0  0  0  0  0  0  # atno 8008 bound_to 7997
  155.7334  140.0798  157.2297 H   0  0  0  0  0  0  0  0  0  0  0  0  # atno 8009 bound_to 7997
  154.4062  140.1584  156.2521 H   0  0  0  0  0  0  0  0  0  0  0  0  # atno 8010 bound_to 7997
  139.5075  144.6287  151.5872 H   0  0  0  0  0  0  0  0  0  0  0  0  # atno 10167 bound_to 10162
  156.9491  130.5890  149.5656 H   0  0  0  0  0  0  0  0  0  0  0  0  # atno 10718 bound_to 10713
  153.4858  135.3669  155.2466 H   0  0  0  0  0  0  0  0  0  0  0  0  # atno 10763 bound_to 10752
  154.8754  135.3965  154.3647 H   0  0  0  0  0  0  0  0  0  0  0  0  # atno 10764 bound_to 10752
  153.4258  135.7081  153.6329 H   0  0  0  0  0  0  0  0  0  0  0  0  # atno 10765 bound_to 10752
  141.1537  133.7778  156.9929 H   0  0  0  0  0  0  0  0  0  0  0  0  # atno 11005 bound_to 11000
  145.6760  141.0204  143.1632 LP  0  0  0  0  0  0  0  0  0  0  0  0  # atno 17320 bound_to 7965
  144.7112  139.8365  143.7414 LP  0  0  0  0  0  0  0  0  0  0  0  0  # atno 17321 bound_to 7965
  140.6013  143.9605  150.6388 LP  0  0  0  0  0  0  0  0  0  0  0  0  # atno 17342 bound_to 10162
  140.2818  143.3384  152.1144 LP  0  0  0  0  0  0  0  0  0  0  0  0  # atno 17343 bound_to 10162
  156.0371  130.5457  150.8679 LP  0  0  0  0  0  0  0  0  0  0  0  0  # atno 17370 bound_to 10713
  157.5734  131.0946  150.9383 LP  0  0  0  0  0  0  0  0  0  0  0  0  # atno 17371 bound_to 10713
  140.0991  134.9546  157.1895 LP  0  0  0  0  0  0  0  0  0  0  0  0  # atno 17394 bound_to 11000
  140.3342  134.2775  155.7222 LP  0  0  0  0  0  0  0  0  0  0  0  0  # atno 17395 bound_to 11000

$$$$
