AV-unprocessed.smi:415|AV-procd|sdf|2521|dock10
  -GOLD-   2262022473D 1   1.00000     0.00000
 Structure written by MMmdl.
 53 54  0  0  0  0  0  0  0  0  1 V2000
  146.2306  137.6817  150.9244 C   0  0  0  0  0  0  0  0  0  0  0  0
  146.8790  138.8602  151.3696 O   0  0  0  0  0  0  0  0  0  0  0  0
  146.9373  138.9475  152.7828 C   0  0  0  0  0  0  0  0  0  0  0  0
  148.3946  139.1910  153.2021 C   0  0  0  0  0  0  0  0  0  0  0  0
  148.6270  138.9117  154.6056 N   0  0  0  0  0  0  0  0  0  0  0  0
  148.7274  137.6235  155.1232 C   0  0  0  0  0  0  0  0  0  0  0  0
  148.6199  136.5351  154.2761 N   0  0  0  0  0  0  0  0  0  0  0  0
  148.9425  137.4086  156.4403 C   0  0  0  0  0  0  0  0  0  0  0  0
  149.0886  138.5068  157.3855 C   0  0  0  0  0  0  0  0  0  0  0  0
  149.2615  138.3316  158.5920 O   0  0  0  0  0  0  0  0  0  0  0  0
  149.0154  139.8061  156.8327 N   0  0  0  0  0  0  0  0  0  0  0  0
  149.1484  140.9725  157.7335 C   0  0  0  0  0  0  0  0  0  0  0  0
  150.4342  141.7796  157.4997 C   0  0  0  0  0  0  0  0  0  0  0  0
  150.7093  142.2277  156.3855 O   0  0  0  0  0  0  0  0  0  0  0  0
  151.2092  141.9651  158.5786 N   0  0  0  0  0  0  0  0  0  0  0  0
  152.4762  142.6974  158.6033 C   0  0  1  0  0  0  0  0  0  0  0  0
  152.2771  144.1499  158.1267 C   0  0  0  0  0  0  0  0  0  0  0  0
  151.4831  144.9799  159.1454 C   0  0  0  0  0  0  0  0  0  0  0  0
  152.1528  144.9405  160.5253 C   0  0  0  0  0  0  0  0  0  0  0  0
  152.3404  143.4984  161.0411 C   0  0  2  0  0  0  0  0  0  0  0  0
  153.0042  143.5257  162.4295 C   0  0  0  0  0  0  0  0  0  0  0  0
  153.1287  142.6432  160.0095 C   0  0  1  0  0  0  0  0  0  0  0  0
  153.3436  141.1864  160.4688 C   0  0  0  0  0  0  0  0  0  0  0  0
  148.7905  140.0351  155.4560 C   0  0  0  0  0  0  0  0  0  0  0  0
  148.7377  141.1877  155.0172 O   0  0  0  0  0  0  0  0  0  0  0  0
  146.2145  137.6621  149.8348 H   0  0  0  0  0  0  0  0  0  0  0  0
  145.1993  137.6414  151.2774 H   0  0  0  0  0  0  0  0  0  0  0  0
  146.7541  136.7887  151.2688 H   0  0  0  0  0  0  0  0  0  0  0  0
  146.3047  139.7650  153.1324 H   0  0  0  0  0  0  0  0  0  0  0  0
  146.5607  138.0252  153.2282 H   0  0  0  0  0  0  0  0  0  0  0  0
  149.0977  138.5963  152.6161 H   0  0  0  0  0  0  0  0  0  0  0  0
  148.6886  140.2254  153.0271 H   0  0  0  0  0  0  0  0  0  0  0  0
  148.4694  136.6444  153.2833 H   0  0  0  0  0  0  0  0  0  0  0  0
  148.7154  135.5875  154.6120 H   0  0  0  0  0  0  0  0  0  0  0  0
  149.0112  136.3964  156.8126 H   0  0  0  0  0  0  0  0  0  0  0  0
  148.3000  141.6512  157.6363 H   0  0  0  0  0  0  0  0  0  0  0  0
  149.1128  140.6568  158.7778 H   0  0  0  0  0  0  0  0  0  0  0  0
  150.9012  141.5664  159.4538 H   0  0  0  0  0  0  0  0  0  0  0  0
  153.1623  142.2103  157.9073 H   0  0  0  0  0  0  0  0  0  0  0  0
  153.2524  144.6129  157.9721 H   0  0  0  0  0  0  0  0  0  0  0  0
  151.7775  144.1693  157.1574 H   0  0  0  0  0  0  0  0  0  0  0  0
  151.4043  146.0113  158.8011 H   0  0  0  0  0  0  0  0  0  0  0  0
  150.4626  144.6021  159.2197 H   0  0  0  0  0  0  0  0  0  0  0  0
  153.1213  145.4395  160.4703 H   0  0  0  0  0  0  0  0  0  0  0  0
  151.5527  145.5144  161.2323 H   0  0  0  0  0  0  0  0  0  0  0  0
  151.3493  143.0592  161.1646 H   0  0  0  0  0  0  0  0  0  0  0  0
  154.0311  143.8879  162.3717 H   0  0  0  0  0  0  0  0  0  0  0  0
  153.0212  142.5381  162.8894 H   0  0  0  0  0  0  0  0  0  0  0  0
  152.4603  144.1813  163.1099 H   0  0  0  0  0  0  0  0  0  0  0  0
  154.1201  143.0883  159.9105 H   0  0  0  0  0  0  0  0  0  0  0  0
  152.4012  140.6992  160.7207 H   0  0  0  0  0  0  0  0  0  0  0  0
  153.9901  141.1321  161.3443 H   0  0  0  0  0  0  0  0  0  0  0  0
  153.8226  140.5974  159.6862 H   0  0  0  0  0  0  0  0  0  0  0  0
  1  2  1  0  0  0  0
  1 26  1  0  0  0  0
  1 27  1  0  0  0  0
  1 28  1  0  0  0  0
  2  3  1  0  0  0  0
  3  4  1  0  0  0  0
  3 29  1  0  0  0  0
  3 30  1  0  0  0  0
  4  5  1  0  0  0  0
  4 31  1  0  0  0  0
  4 32  1  0  0  0  0
  5 24  1  0  0  0  0
  5  6  1  0  0  0  0
  6  7  1  0  0  0  0
  6  8  2  0  0  0  0
  7 33  1  0  0  0  0
  7 34  1  0  0  0  0
  8  9  1  0  0  0  0
  8 35  1  0  0  0  0
  9 10  2  0  0  0  0
  9 11  1  0  0  0  0
 11 12  1  0  0  0  0
 11 24  1  0  0  0  0
 12 13  1  0  0  0  0
 12 36  1  0  0  0  0
 12 37  1  0  0  0  0
 13 14  2  0  0  0  0
 13 15  1  0  0  0  0
 15 16  1  0  0  0  0
 15 38  1  0  0  0  0
 16 22  1  0  0  0  0
 16 17  1  0  0  0  0
 16 39  1  0  0  0  0
 17 18  1  0  0  0  0
 17 40  1  0  0  0  0
 17 41  1  0  0  0  0
 18 19  1  0  0  0  0
 18 42  1  0  0  0  0
 18 43  1  0  0  0  0
 19 20  1  0  0  0  0
 19 44  1  0  0  0  0
 19 45  1  0  0  0  0
 20 21  1  0  0  0  0
 20 22  1  0  0  0  0
 20 46  1  0  0  0  0
 21 47  1  0  0  0  0
 21 48  1  0  0  0  0
 21 49  1  0  0  0  0
 22 23  1  0  0  0  0
 22 50  1  0  0  0  0
 23 51  1  0  0  0  0
 23 52  1  0  0  0  0
 23 53  1  0  0  0  0
 24 25  2  0  0  0  0
M  END
> <s_m_source_file>
AV-unprocessed.smi

> <i_m_source_file_index>
415

> <i_lp_mmshare_version>
43012

> <i_f3d_flags>
0

> <s_epik_input>
W0NIM11PW0NIMl1bQ0gyXW4xYyhbTkgyXSlbY0hdYyg9TyluKGMxPU8pW0NIMl1DKD1PKVtOSF1bQ0BASF0yW0NIMl1bQ0gyXVtDSDJdW0NAQEhdKFtDSDNdKVtDQEhdMltDSDNd

> <s_epik_cmdline>
J2VwaWtfcHl0aG9uJywgJy1waCcsICc3LjAnLCAnLXRuJywgJzgnLCAnLW1hJywgJzIwMCcsICctbWV0YWxfYmluZGluZycsICctaW1hZScsICc8aW5maWxlLm1hZT4nLCAnLW9tYWUnLCAnPG91dGZpbGUubWFlPic=

> <r_lp_tautomer_probability>
1

> <r_epik_Ionization_Penalty>
8.6647e-06

> <r_epik_Ionization_Penalty_Charging>
1.81162e-08

> <r_epik_Ionization_Penalty_Neutral>
8.64658e-06

> <r_epik_State_Penalty>
-0

> <r_epik_Charging_Adjusted_Penalty>
1.81162e-08

> <i_epik_Tot_Q>
0

> <i_epik_Tot_abs_Q>
0

> <r_epik_Metal_State_Penalty>
-0

> <b_epik_Metal_Only>
0

> <s_lp_Force_Field>
OPLS_2005

> <r_lp_Energy>
19.0862

> <b_lp_Chiralities_Consistent>
1

> <s_lp_Variant>
AV-unprocessed.smi:415-4

> <Gold.Version>
5.8.1

> <Gold.Id.Protein>
6NUR|6NUR_protein|mol2

> <Gold.PLP.Fitness>
44.2672

> <Gold.PLP.PLP>
-42.7570

> <Gold.PLP.part.hbond>
-2.4297

> <Gold.PLP.part.metal>
0.0000

> <Gold.PLP.part.buried>
-1.3935

> <Gold.PLP.part.nonpolar>
-41.0248

> <Gold.PLP.part.repulsive>
1.7733

> <Gold.PLP.ligand.clash>
0.0000

> <Gold.PLP.ligand.torsion>
0.7150

> <Gold.PLP.Chemscore.Hbond>
0.9600

> <Gold.PLP.Chemscore.CHOScore>
0.0000

> <Gold.PLP.Chemscore.Metal>
0.0000

> <Gold.Chemscore.Hbonds>
donor molecule, donor type, donor heavy atom, donor atom, acceptor molecule, acceptor atom, score
      L1  H     7    33       P1  7948  0.90

> <Gold.PLP.Chemscore.Internal.Correction>
0.0602

> <Gold.Rescore>
     Score         DG    S(hbond)    S(metal)    S(lipo)     H(rot)  DE(clash)    DE(int)     intcor
     12.18     -15.26       0.78        0.00     110.79       2.26       0.89       2.19       ----

> <Gold.Chemscore.Fitness>
12.1809

> <Gold.Chemscore.DG>
-15.2564

> <Gold.Chemscore.ZeroCoef>
-5.4800

> <Gold.Chemscore.Hbond>
0.7818

> <Gold.Chemscore.Metal>
0.0000

> <Gold.Chemscore.Lipo>
110.7901

> <Gold.Chemscore.Internal_Hbond>
0.0000

> <Gold.Chemscore.DEClash>
0.8878

> <Gold.Chemscore.DEInternal>
2.1876

> <Gold.Chemscore.Rot>
2.2645

> <Gold.Chemscore.Internal.Correction>
   9.000000E+99

> <Gold.Chemscore.Hbonds>
donor molecule, donor type, donor heavy atom, donor atom, acceptor molecule, acceptor atom, score
      L1  H     7    33       P1  7948  0.84

> <Gold.Chemscore.Hbond.Weighted>
-2.6111

> <Gold.Chemscore.Metal.Weighted>
-0.0000

> <Gold.Chemscore.Lipo.Weighted>
-12.9624

> <Gold.Chemscore.Internal_Hbond.Weighted>
0.0000

> <Gold.Chemscore.DEClash.Weighted>
0.8878

> <Gold.Chemscore.DEInternal.Weighted>
2.1876

> <Gold.Chemscore.Rot.Weighted>
5.7972

> <Gold.Chemscore.Internal.Correction.Weighted>
   9.000000E+99

> <Gold.Protein.RotatedTorsions>
[ 6907 6896 6895 6894 ] final  -15.64 input  -60.11 | X-H torsion
[ 7974 7965 7964 7962 ] final -129.10 input  175.53 | X-H torsion
[ 8008 7997 7996 7995 ] final  -67.86 input   59.86 | X-H torsion
[ 10167 10162 10161 10158 ] final  -61.87 input  -65.29 | X-H torsion
[ 10718 10713 10712 10709 ] final  -21.28 input   66.30 | X-H torsion
[ 10763 10752 10751 10750 ] final  144.64 input  -60.55 | X-H torsion
[ 11005 11000 10999 10996 ] final  165.81 input  -57.11 | X-H torsion

> <Gold.Protein.ActiveResidues>
 VAL166  LYS551  ARG553  GLY616  TRP617  ASP618  TYR619  PRO620  LYS621  CYS622 
 ASP623  PHE694  ASN695  SER759  ASP760  ASP761  ALA762  ILE779  LEU786  VAL792 
 PHE793  MET794  SER795  GLU796  ALA797  LYS798  CYS799  TRP800  GLU811  SER814 

> <Gold.Protein.RotatedAtoms>
  151.3209  135.0818  159.9304 H   0  0  0  0  0  0  0  0  0  0  0  0  # atno 6907 bound_to 6896
  152.5257  133.9640  159.7741 H   0  0  0  0  0  0  0  0  0  0  0  0  # atno 6908 bound_to 6896
  150.9961  133.6049  159.2731 H   0  0  0  0  0  0  0  0  0  0  0  0  # atno 6909 bound_to 6896
  144.9605  140.7442  143.4732 H   0  0  0  0  0  0  0  0  0  0  0  0  # atno 7974 bound_to 7965
  154.4829  140.0884  156.7418 H   0  0  0  0  0  0  0  0  0  0  0  0  # atno 8008 bound_to 7997
  155.4425  140.3454  155.4273 H   0  0  0  0  0  0  0  0  0  0  0  0  # atno 8009 bound_to 7997
  156.1218  140.1476  156.9182 H   0  0  0  0  0  0  0  0  0  0  0  0  # atno 8010 bound_to 7997
  140.5977  143.2354  151.5998 H   0  0  0  0  0  0  0  0  0  0  0  0  # atno 10167 bound_to 10162
  156.5203  130.4631  149.6600 H   0  0  0  0  0  0  0  0  0  0  0  0  # atno 10718 bound_to 10713
  153.9922  135.2931  155.3411 H   0  0  0  0  0  0  0  0  0  0  0  0  # atno 10763 bound_to 10752
  154.7208  135.5110  153.8812 H   0  0  0  0  0  0  0  0  0  0  0  0  # atno 10764 bound_to 10752
  153.0804  135.6677  154.0173 H   0  0  0  0  0  0  0  0  0  0  0  0  # atno 10765 bound_to 10752
  140.2599  134.7910  157.3580 H   0  0  0  0  0  0  0  0  0  0  0  0  # atno 11005 bound_to 11000
  145.2707  139.1956  143.4843 LP  0  0  0  0  0  0  0  0  0  0  0  0  # atno 17320 bound_to 7965
  146.3351  140.2653  142.8603 LP  0  0  0  0  0  0  0  0  0  0  0  0  # atno 17321 bound_to 7965
  139.5269  144.3031  152.1057 LP  0  0  0  0  0  0  0  0  0  0  0  0  # atno 17342 bound_to 10162
  140.2206  144.4470  150.6344 LP  0  0  0  0  0  0  0  0  0  0  0  0  # atno 17343 bound_to 10162
  156.3156  130.7253  151.2154 LP  0  0  0  0  0  0  0  0  0  0  0  0  # atno 17370 bound_to 10713
  157.7438  131.0469  150.4919 LP  0  0  0  0  0  0  0  0  0  0  0  0  # atno 17371 bound_to 10713
  140.1474  134.4893  155.7986 LP  0  0  0  0  0  0  0  0  0  0  0  0  # atno 17394 bound_to 11000
  141.2191  133.6849  156.7319 LP  0  0  0  0  0  0  0  0  0  0  0  0  # atno 17395 bound_to 11000

$$$$
