AV-unprocessed.smi:2931|AV-procd|sdf|11245|dock4
  -GOLD-   2272016143D 1   1.00000     0.00000
 Structure written by MMmdl.
 42 43  0  0  0  0  0  0  0  0  2 V2000
  144.6725  137.7566  154.3624 C   0  0  0  0  0  0  0  0  0  0  0  0
  145.4209  138.7036  153.5083 N   0  3  2  0  0  0  0  0  0  0  0  0
  146.1618  138.0196  152.4192 C   0  0  0  0  0  0  0  0  0  0  0  0
  146.8190  139.0404  151.4754 C   0  0  0  0  0  0  0  0  0  0  0  0
  147.7347  139.9984  152.2500 C   0  0  0  0  0  0  0  0  0  0  0  0
  146.9539  140.6671  153.3955 C   0  0  2  0  0  0  0  0  0  0  0  0
  147.8322  141.5180  154.1925 N   0  0  0  0  0  0  0  0  0  0  0  0
  148.8470  141.0782  154.9493 C   0  0  0  0  0  0  0  0  0  0  0  0
  149.1433  139.8904  155.0784 O   0  0  0  0  0  0  0  0  0  0  0  0
  149.5095  142.0890  155.5304 N   0  0  0  0  0  0  0  0  0  0  0  0
  150.7090  141.9506  156.3536 C   0  0  0  0  0  0  0  0  0  0  0  0
  150.4328  142.2512  157.8398 C   0  0  0  0  0  0  0  0  0  0  0  0
  151.6083  141.9468  158.7531 C   0  0  0  0  0  0  0  0  0  0  0  0
  152.1294  140.6396  158.8404 C   0  0  0  0  0  0  0  0  0  0  0  0
  153.2376  140.4123  159.6807 C   0  0  0  0  0  0  0  0  0  0  0  0
  153.8250  141.3837  160.4125 N   0  0  0  0  0  0  0  0  0  0  0  0
  153.3159  142.6316  160.3293 C   0  0  0  0  0  0  0  0  0  0  0  0
  152.2140  142.9662  159.5172 C   0  0  0  0  0  0  0  0  0  0  0  0
  146.2984  139.6042  154.2972 C   0  0  0  0  0  0  0  0  0  0  0  0
  145.3504  137.0809  154.8858 H   0  0  0  0  0  0  0  0  0  0  0  0
  143.9862  137.1574  153.7634 H   0  0  0  0  0  0  0  0  0  0  0  0
  144.0821  138.2931  155.1060 H   0  0  0  0  0  0  0  0  0  0  0  0
  146.9198  137.3624  152.8487 H   0  0  0  0  0  0  0  0  0  0  0  0
  145.4778  137.3873  151.8518 H   0  0  0  0  0  0  0  0  0  0  0  0
  147.3891  138.5228  150.7035 H   0  0  0  0  0  0  0  0  0  0  0  0
  146.0462  139.6110  150.9581 H   0  0  0  0  0  0  0  0  0  0  0  0
  148.5860  139.4462  152.6504 H   0  0  0  0  0  0  0  0  0  0  0  0
  148.1409  140.7515  151.5736 H   0  0  0  0  0  0  0  0  0  0  0  0
  146.1565  141.2786  152.9675 H   0  0  0  0  0  0  0  0  0  0  0  0
  147.6674  142.5133  154.1516 H   0  0  0  0  0  0  0  0  0  0  0  0
  149.1820  143.0294  155.3644 H   0  0  0  0  0  0  0  0  0  0  0  0
  151.0764  140.9295  156.2508 H   0  0  0  0  0  0  0  0  0  0  0  0
  151.5075  142.5965  155.9845 H   0  0  0  0  0  0  0  0  0  0  0  0
  150.1533  143.2993  157.9548 H   0  0  0  0  0  0  0  0  0  0  0  0
  149.5726  141.6716  158.1761 H   0  0  0  0  0  0  0  0  0  0  0  0
  151.6989  139.8309  158.2685 H   0  0  0  0  0  0  0  0  0  0  0  0
  153.6651  139.4242  159.7654 H   0  0  0  0  0  0  0  0  0  0  0  0
  153.8044  143.3884  160.9253 H   0  0  0  0  0  0  0  0  0  0  0  0
  151.8498  143.9822  159.4800 H   0  0  0  0  0  0  0  0  0  0  0  0
  145.7071  140.0963  155.0709 H   0  0  0  0  0  0  0  0  0  0  0  0
  147.0611  139.0132  154.8078 H   0  0  0  0  0  0  0  0  0  0  0  0
  144.7321  139.2923  153.0618 H   0  0  0  0  0  0  0  0  0  0  0  0
  1  2  1  0  0  0  0
  1 20  1  0  0  0  0
  1 21  1  0  0  0  0
  1 22  1  0  0  0  0
  2 19  1  0  0  0  0
  2  3  1  0  0  0  0
  2 42  1  0  0  0  0
  3  4  1  0  0  0  0
  3 23  1  0  0  0  0
  3 24  1  0  0  0  0
  4  5  1  0  0  0  0
  4 25  1  0  0  0  0
  4 26  1  0  0  0  0
  5  6  1  0  0  0  0
  5 27  1  0  0  0  0
  5 28  1  0  0  0  0
  6  7  1  0  0  0  0
  6 19  1  0  0  0  0
  6 29  1  0  0  0  0
  7  8  1  0  0  0  0
  7 30  1  0  0  0  0
  8  9  2  0  0  0  0
  8 10  1  0  0  0  0
 10 11  1  0  0  0  0
 10 31  1  0  0  0  0
 11 12  1  0  0  0  0
 11 32  1  0  0  0  0
 11 33  1  0  0  0  0
 12 13  1  0  0  0  0
 12 34  1  0  0  0  0
 12 35  1  0  0  0  0
 13 18  1  0  0  0  0
 13 14  2  0  0  0  0
 14 15  1  0  0  0  0
 14 36  1  0  0  0  0
 15 16  2  0  0  0  0
 15 37  1  0  0  0  0
 16 17  1  0  0  0  0
 17 18  2  0  0  0  0
 17 38  1  0  0  0  0
 18 39  1  0  0  0  0
 19 40  1  0  0  0  0
 19 41  1  0  0  0  0
M  CHG  1   2   1
M  END
> <s_m_source_file>
AV-unprocessed.smi

> <i_m_source_file_index>
2931

> <i_lp_mmshare_version>
43012

> <i_f3d_flags>
0

> <s_epik_input>
W0NIM11OMVtDSDJdW0NIMl1bQ0gyXVtDQEhdKFtDSDJdMSlbTkhdQyg9TylbTkhdW0NIMl1bQ0gyXWMyW2NIXVtjSF1uW2NIXVtjSF0y

> <s_epik_cmdline>
J2VwaWtfcHl0aG9uJywgJy1waCcsICc3LjAnLCAnLXRuJywgJzgnLCAnLW1hJywgJzIwMCcsICctbWV0YWxfYmluZGluZycsICctaW1hZScsICc8aW5maWxlLm1hZT4nLCAnLW9tYWUnLCAnPG91dGZpbGUubWFlPic=

> <r_epik_Ionization_Penalty>
0.0573876

> <r_epik_Ionization_Penalty_Charging>
0.00229982

> <r_epik_Ionization_Penalty_Neutral>
0.0550878

> <r_epik_State_Penalty>
0.0473925

> <r_epik_Charging_Adjusted_Penalty>
0.0496923

> <i_epik_Tot_Q>
1

> <i_epik_Tot_abs_Q>
1

> <r_epik_Metal_State_Penalty>
0.0433388

> <b_epik_Metal_Only>
0

> <s_lp_Force_Field>
OPLS_2005

> <r_lp_Energy>
13.2125

> <b_lp_Chiralities_Consistent>
1

> <s_lp_Variant>
AV-unprocessed.smi:2931-4

> <Gold.Version>
5.8.1

> <Gold.Id.Protein>
6NUR|6NUR_protein|mol2

> <Gold.PLP.Fitness>
41.3149

> <Gold.PLP.PLP>
-32.4664

> <Gold.PLP.part.hbond>
-2.0000

> <Gold.PLP.part.metal>
0.0000

> <Gold.PLP.part.buried>
1.4987

> <Gold.PLP.part.nonpolar>
-32.8823

> <Gold.PLP.part.repulsive>
0.3721

> <Gold.PLP.ligand.clash>
0.0000

> <Gold.PLP.ligand.torsion>
0.0878

> <Gold.PLP.Chemscore.Hbond>
3.0000

> <Gold.PLP.Chemscore.CHOScore>
0.0000

> <Gold.PLP.Chemscore.Metal>
0.0000

> <Gold.Chemscore.Hbonds>
donor molecule, donor type, donor heavy atom, donor atom, acceptor molecule, acceptor atom, score
      L1  H     2    42       P1 10175  2.00
      L1  H    10    31       P1  8028  1.00

> <Gold.PLP.Chemscore.Internal.Correction>
0.0242

> <Gold.Rescore>
     Score         DG    S(hbond)    S(metal)    S(lipo)     H(rot)  DE(clash)    DE(int)     intcor
     17.40     -19.99       1.99        0.00     101.32       1.56       1.54       1.04       ----

> <Gold.Chemscore.Fitness>
17.4030

> <Gold.Chemscore.DG>
-19.9852

> <Gold.Chemscore.ZeroCoef>
-5.4800

> <Gold.Chemscore.Hbond>
1.9886

> <Gold.Chemscore.Metal>
0.0000

> <Gold.Chemscore.Lipo>
101.3229

> <Gold.Chemscore.Internal_Hbond>
0.0000

> <Gold.Chemscore.DEClash>
1.5373

> <Gold.Chemscore.DEInternal>
1.0448

> <Gold.Chemscore.Rot>
1.5592

> <Gold.Chemscore.Internal.Correction>
   9.000000E+99

> <Gold.Chemscore.Hbonds>
donor molecule, donor type, donor heavy atom, donor atom, acceptor molecule, acceptor atom, score
      L1  H     2    42       P1 10175  1.00
      L1  H    10    31       P1  8028  1.00

> <Gold.Chemscore.Hbond.Weighted>
-6.6419

> <Gold.Chemscore.Metal.Weighted>
-0.0000

> <Gold.Chemscore.Lipo.Weighted>
-11.8548

> <Gold.Chemscore.Internal_Hbond.Weighted>
0.0000

> <Gold.Chemscore.DEClash.Weighted>
1.5373

> <Gold.Chemscore.DEInternal.Weighted>
1.0448

> <Gold.Chemscore.Rot.Weighted>
3.9915

> <Gold.Chemscore.Internal.Correction.Weighted>
   9.000000E+99

> <Gold.Protein.RotatedTorsions>
[ 6907 6896 6895 6894 ] final -173.05 input  -60.11 | X-H torsion
[ 7974 7965 7964 7962 ] final   46.31 input  175.53 | X-H torsion
[ 8008 7997 7996 7995 ] final  123.89 input   59.86 | X-H torsion
[ 10167 10162 10161 10158 ] final   91.52 input  -65.29 | X-H torsion
[ 10718 10713 10712 10709 ] final -116.76 input   66.30 | X-H torsion
[ 10763 10752 10751 10750 ] final  149.19 input  -60.55 | X-H torsion
[ 11005 11000 10999 10996 ] final  -29.17 input  -57.11 | X-H torsion

> <Gold.Protein.ActiveResidues>
 VAL166  LYS551  ARG553  GLY616  TRP617  ASP618  TYR619  PRO620  LYS621  CYS622 
 ASP623  PHE694  ASN695  SER759  ASP760  ASP761  ALA762  ILE779  LEU786  VAL792 
 PHE793  MET794  SER795  GLU796  ALA797  LYS798  CYS799  TRP800  GLU811  SER814 

> <Gold.Protein.RotatedAtoms>
  151.5498  133.3419  159.2950 H   0  0  0  0  0  0  0  0  0  0  0  0  # atno 6907 bound_to 6896
  150.8485  134.7805  159.7001 H   0  0  0  0  0  0  0  0  0  0  0  0  # atno 6908 bound_to 6896
  152.4537  134.5346  159.9873 H   0  0  0  0  0  0  0  0  0  0  0  0  # atno 6909 bound_to 6896
  146.0402  139.4870  142.9783 H   0  0  0  0  0  0  0  0  0  0  0  0  # atno 7974 bound_to 7965
  156.2782  140.2752  156.1700 H   0  0  0  0  0  0  0  0  0  0  0  0  # atno 8008 bound_to 7997
  155.0664  140.0387  157.2612 H   0  0  0  0  0  0  0  0  0  0  0  0  # atno 8009 bound_to 7997
  154.7075  140.2662  155.6666 H   0  0  0  0  0  0  0  0  0  0  0  0  # atno 8010 bound_to 7997
  139.8366  144.6661  150.9334 H   0  0  0  0  0  0  0  0  0  0  0  0  # atno 10167 bound_to 10162
  156.0986  130.6153  150.9077 H   0  0  0  0  0  0  0  0  0  0  0  0  # atno 10718 bound_to 10713
  154.0671  135.2869  155.3314 H   0  0  0  0  0  0  0  0  0  0  0  0  # atno 10763 bound_to 10752
  154.6770  135.5278  153.8216 H   0  0  0  0  0  0  0  0  0  0  0  0  # atno 10764 bound_to 10752
  153.0499  135.6572  154.0855 H   0  0  0  0  0  0  0  0  0  0  0  0  # atno 10765 bound_to 10752
  140.9273  133.7361  156.0885 H   0  0  0  0  0  0  0  0  0  0  0  0  # atno 11005 bound_to 11000
  145.6898  141.0167  143.1561 LP  0  0  0  0  0  0  0  0  0  0  0  0  # atno 17320 bound_to 7965
  144.7071  139.8519  143.7426 LP  0  0  0  0  0  0  0  0  0  0  0  0  # atno 17321 bound_to 7965
  140.7802  143.3951  151.1243 LP  0  0  0  0  0  0  0  0  0  0  0  0  # atno 17342 bound_to 10162
  139.7601  143.8649  152.3098 LP  0  0  0  0  0  0  0  0  0  0  0  0  # atno 17343 bound_to 10162
  157.6151  131.0934  150.8724 LP  0  0  0  0  0  0  0  0  0  0  0  0  # atno 17370 bound_to 10713
  156.8857  130.5195  149.5288 LP  0  0  0  0  0  0  0  0  0  0  0  0  # atno 17371 bound_to 10713
  140.7910  134.3618  157.5464 LP  0  0  0  0  0  0  0  0  0  0  0  0  # atno 17394 bound_to 11000
  139.8788  134.9140  156.3096 LP  0  0  0  0  0  0  0  0  0  0  0  0  # atno 17395 bound_to 11000

$$$$
