AV-unprocessed.smi:878|AV-procd|sdf|4031|dock9
  -GOLD-   22720 1523D 1   1.00000     0.00000
 Structure written by MMmdl.
 33 34  0  0  0  0  0  0  0  0  1 V2000
  151.2500  144.8579  158.0325 C   0  0  0  0  0  0  0  0  0  0  0  0
  151.1964  145.0877  159.8304 S   0  0  0  0  0  0  0  0  0  0  0  0
  152.1993  143.8349  160.5770 C   0  0  0  0  0  0  0  0  0  0  0  0
  152.3430  143.7409  161.9772 C   0  0  0  0  0  0  0  0  0  0  0  0
  153.1498  142.7322  162.5397 C   0  0  0  0  0  0  0  0  0  0  0  0
  153.8225  141.8018  161.7085 C   0  0  0  0  0  0  0  0  0  0  0  0
  154.6237  140.7823  162.1742 O   0  0  0  0  0  0  0  0  0  0  0  0
  155.0860  139.8083  161.2484 C   0  0  0  0  0  0  0  0  0  0  0  0
  153.9625  138.8036  160.9440 C   0  0  0  0  0  0  0  0  0  0  0  0
  154.2678  137.9279  159.8379 N   0  0  0  0  0  0  0  0  0  0  0  0
  155.5337  137.8658  159.2763 C   0  0  0  0  0  0  0  0  0  0  0  0
  155.8437  137.0653  158.2280 C   0  0  0  0  0  0  0  0  0  0  0  0
  157.4461  137.0449  157.5835 Cl  0  0  0  0  0  0  0  0  0  0  0  0
  154.8178  136.2113  157.6311 C   0  0  0  0  0  0  0  0  0  0  0  0
  154.9901  135.4465  156.6839 O   0  0  0  0  0  0  0  0  0  0  0  0
  153.5552  136.3126  158.2230 N   0  0  0  0  0  0  0  0  0  0  0  0
  153.2261  137.1361  159.3001 C   0  0  0  0  0  0  0  0  0  0  0  0
  152.0732  137.1457  159.7314 O   0  0  0  0  0  0  0  0  0  0  0  0
  153.6722  141.9075  160.3110 C   0  0  0  0  0  0  0  0  0  0  0  0
  152.8696  142.9169  159.7467 C   0  0  0  0  0  0  0  0  0  0  0  0
  152.8171  135.7422  157.8366 H   0  0  0  0  0  0  0  0  0  0  0  0
  150.6967  145.6566  157.5386 H   0  0  0  0  0  0  0  0  0  0  0  0
  150.7991  143.9063  157.7517 H   0  0  0  0  0  0  0  0  0  0  0  0
  152.2796  144.8817  157.6751 H   0  0  0  0  0  0  0  0  0  0  0  0
  151.8443  144.4336  162.6368 H   0  0  0  0  0  0  0  0  0  0  0  0
  153.2337  142.6921  163.6149 H   0  0  0  0  0  0  0  0  0  0  0  0
  155.4220  140.2840  160.3252 H   0  0  0  0  0  0  0  0  0  0  0  0
  155.9333  139.2706  161.6761 H   0  0  0  0  0  0  0  0  0  0  0  0
  153.8051  138.1456  161.8001 H   0  0  0  0  0  0  0  0  0  0  0  0
  153.0009  139.2862  160.7582 H   0  0  0  0  0  0  0  0  0  0  0  0
  156.3142  138.4876  159.6918 H   0  0  0  0  0  0  0  0  0  0  0  0
  154.1796  141.2066  159.6645 H   0  0  0  0  0  0  0  0  0  0  0  0
  152.7680  142.9823  158.6733 H   0  0  0  0  0  0  0  0  0  0  0  0
  1  2  1  0  0  0  0
  1 22  1  0  0  0  0
  1 23  1  0  0  0  0
  1 24  1  0  0  0  0
  2  3  1  0  0  0  0
  3 20  1  0  0  0  0
  3  4  2  0  0  0  0
  4  5  1  0  0  0  0
  4 25  1  0  0  0  0
  5  6  2  0  0  0  0
  5 26  1  0  0  0  0
  6  7  1  0  0  0  0
  6 19  1  0  0  0  0
  7  8  1  0  0  0  0
  8  9  1  0  0  0  0
  8 27  1  0  0  0  0
  8 28  1  0  0  0  0
  9 10  1  0  0  0  0
  9 29  1  0  0  0  0
  9 30  1  0  0  0  0
 10 17  1  0  0  0  0
 10 11  1  0  0  0  0
 11 12  2  0  0  0  0
 11 31  1  0  0  0  0
 12 13  1  0  0  0  0
 12 14  1  0  0  0  0
 14 15  2  0  0  0  0
 14 16  1  0  0  0  0
 16 21  1  0  0  0  0
 16 17  1  0  0  0  0
 17 18  2  0  0  0  0
 19 20  2  0  0  0  0
 19 32  1  0  0  0  0
 20 33  1  0  0  0  0
M  END
> <s_m_source_file>
AV-unprocessed.smi

> <i_m_source_file_index>
878

> <i_lp_mmshare_version>
43012

> <i_f3d_flags>
0

> <s_epik_input>
W0NIM11TYzFbY0hdW2NIXWMoW2NIXVtjSF0xKU9bQ0gyXVtDSDJdbjJbY0hdYyhDbCljKD1PKVtuSF1jMj1P

> <s_epik_cmdline>
J2VwaWtfcHl0aG9uJywgJy1waCcsICc3LjAnLCAnLXRuJywgJzgnLCAnLW1hJywgJzIwMCcsICctbWV0YWxfYmluZGluZycsICctaW1hZScsICc8aW5maWxlLm1hZT4nLCAnLW9tYWUnLCAnPG91dGZpbGUubWFlPic=

> <r_lp_tautomer_probability>
0.999537

> <r_epik_Ionization_Penalty>
0.037527

> <r_epik_Ionization_Penalty_Charging>
0.037527

> <r_epik_Ionization_Penalty_Neutral>
0

> <r_epik_State_Penalty>
0.0314158

> <r_epik_Charging_Adjusted_Penalty>
0.0689428

> <i_epik_Tot_Q>
0

> <i_epik_Tot_abs_Q>
0

> <r_epik_Metal_State_Penalty>
2.37917

> <b_epik_Metal_Only>
0

> <s_lp_Force_Field>
OPLS_2005

> <r_lp_Energy>
14.7844

> <b_lp_Chiralities_Consistent>
1

> <s_lp_Variant>
AV-unprocessed.smi:878-1

> <Gold.Version>
5.8.1

> <Gold.Id.Protein>
6NUR|6NUR_protein|mol2

> <Gold.PLP.Fitness>
44.0963

> <Gold.PLP.PLP>
-40.5228

> <Gold.PLP.part.hbond>
-2.6807

> <Gold.PLP.part.metal>
0.0000

> <Gold.PLP.part.buried>
-4.7939

> <Gold.PLP.part.nonpolar>
-33.7191

> <Gold.PLP.part.repulsive>
0.1378

> <Gold.PLP.ligand.clash>
1.8437

> <Gold.PLP.ligand.torsion>
0.2896

> <Gold.PLP.Chemscore.Hbond>
1.9913

> <Gold.PLP.Chemscore.CHOScore>
0.0000

> <Gold.PLP.Chemscore.Metal>
0.0000

> <Gold.Chemscore.Hbonds>
donor molecule, donor type, donor heavy atom, donor atom, acceptor molecule, acceptor atom, score
      P1  H  6896  6907       L1    18  0.98
      P1  H 10752 10765       L1    15  0.99

> <Gold.PLP.Chemscore.Internal.Correction>
0.0226

> <Gold.Rescore>
     Score         DG    S(hbond)    S(metal)    S(lipo)     H(rot)  DE(clash)    DE(int)     intcor
     19.53     -20.31       1.96        0.00     113.90       1.98       0.55       0.23       ----

> <Gold.Chemscore.Fitness>
19.5305

> <Gold.Chemscore.DG>
-20.3072

> <Gold.Chemscore.ZeroCoef>
-5.4800

> <Gold.Chemscore.Hbond>
1.9635

> <Gold.Chemscore.Metal>
0.0000

> <Gold.Chemscore.Lipo>
113.9011

> <Gold.Chemscore.Internal_Hbond>
0.0000

> <Gold.Chemscore.DEClash>
0.5470

> <Gold.Chemscore.DEInternal>
0.2296

> <Gold.Chemscore.Rot>
1.9755

> <Gold.Chemscore.Internal.Correction>
   9.000000E+99

> <Gold.Chemscore.Hbonds>
donor molecule, donor type, donor heavy atom, donor atom, acceptor molecule, acceptor atom, score
      P1  H  6896  6907       L1    18  0.32
      P1  H 10752 10765       L1    15  0.92

> <Gold.Chemscore.Hbond.Weighted>
-6.5582

> <Gold.Chemscore.Metal.Weighted>
-0.0000

> <Gold.Chemscore.Lipo.Weighted>
-13.3264

> <Gold.Chemscore.Internal_Hbond.Weighted>
0.0000

> <Gold.Chemscore.DEClash.Weighted>
0.5470

> <Gold.Chemscore.DEInternal.Weighted>
0.2296

> <Gold.Chemscore.Rot.Weighted>
5.0574

> <Gold.Chemscore.Internal.Correction.Weighted>
   9.000000E+99

> <Gold.Protein.RotatedTorsions>
[ 6907 6896 6895 6894 ] final    8.16 input  -60.11 | X-H torsion
[ 7974 7965 7964 7962 ] final  -62.25 input  175.53 | X-H torsion
[ 8008 7997 7996 7995 ] final -139.37 input   59.86 | X-H torsion
[ 10167 10162 10161 10158 ] final  -30.69 input  -65.29 | X-H torsion
[ 10718 10713 10712 10709 ] final  -14.06 input   66.30 | X-H torsion
[ 10763 10752 10751 10750 ] final  -70.96 input  -60.55 | X-H torsion
[ 11005 11000 10999 10996 ] final  -51.61 input  -57.11 | X-H torsion

> <Gold.Protein.ActiveResidues>
 VAL166  LYS551  ARG553  GLY616  TRP617  ASP618  TYR619  PRO620  LYS621  CYS622 
 ASP623  PHE694  ASN695  SER759  ASP760  ASP761  ALA762  ILE779  LEU786  VAL792 
 PHE793  MET794  SER795  GLU796  ALA797  LYS798  CYS799  TRP800  GLU811  SER814 

> <Gold.Protein.RotatedAtoms>
  151.7015  135.0929  160.0251 H   0  0  0  0  0  0  0  0  0  0  0  0  # atno 6907 bound_to 6896
  152.3717  133.6424  159.6101 H   0  0  0  0  0  0  0  0  0  0  0  0  # atno 6908 bound_to 6896
  150.7678  133.9175  159.3429 H   0  0  0  0  0  0  0  0  0  0  0  0  # atno 6909 bound_to 6896
  145.7936  140.8695  143.0268 H   0  0  0  0  0  0  0  0  0  0  0  0  # atno 7974 bound_to 7965
  155.4437  140.0533  157.3008 H   0  0  0  0  0  0  0  0  0  0  0  0  # atno 8008 bound_to 7997
  154.4807  140.2080  155.9728 H   0  0  0  0  0  0  0  0  0  0  0  0  # atno 8009 bound_to 7997
  156.1201  140.3190  155.8200 H   0  0  0  0  0  0  0  0  0  0  0  0  # atno 8010 bound_to 7997
  140.7246  143.3829  151.1568 H   0  0  0  0  0  0  0  0  0  0  0  0  # atno 10167 bound_to 10162
  156.6214  130.4876  149.6163 H   0  0  0  0  0  0  0  0  0  0  0  0  # atno 10718 bound_to 10713
  154.4251  135.5977  153.6034 H   0  0  0  0  0  0  0  0  0  0  0  0  # atno 10763 bound_to 10752
  152.9796  135.5961  154.3908 H   0  0  0  0  0  0  0  0  0  0  0  0  # atno 10764 bound_to 10752
  154.3738  135.2841  155.2229 H   0  0  0  0  0  0  0  0  0  0  0  0  # atno 10765 bound_to 10752
  141.0880  133.6638  156.3903 H   0  0  0  0  0  0  0  0  0  0  0  0  # atno 11005 bound_to 11000
  144.6778  140.0158  143.7484 LP  0  0  0  0  0  0  0  0  0  0  0  0  # atno 17320 bound_to 7965
  145.9951  139.3046  143.0961 LP  0  0  0  0  0  0  0  0  0  0  0  0  # atno 17321 bound_to 7965
  139.7421  143.8909  152.3053 LP  0  0  0  0  0  0  0  0  0  0  0  0  # atno 17342 bound_to 10162
  139.8733  144.7056  150.8962 LP  0  0  0  0  0  0  0  0  0  0  0  0  # atno 17343 bound_to 10162
  156.2309  130.6794  151.1462 LP  0  0  0  0  0  0  0  0  0  0  0  0  # atno 17370 bound_to 10713
  157.7226  131.0671  150.6069 LP  0  0  0  0  0  0  0  0  0  0  0  0  # atno 17371 bound_to 10713
  140.5318  134.6205  157.5352 LP  0  0  0  0  0  0  0  0  0  0  0  0  # atno 17394 bound_to 11000
  139.9701  134.7307  156.0058 LP  0  0  0  0  0  0  0  0  0  0  0  0  # atno 17395 bound_to 11000

$$$$
