#       Name:                AV-unprocessed.smi:1883
#       Creating user name   scv26
#       Creation time:       Fri Mar 27 09:37:07 2020


#       File generated by GOLD software.
#

@<TRIPOS>MOLECULE
AV-unprocessed.smi:1883
    38    40     1
SMALL
NO_CHARGES


@<TRIPOS>ATOM
      1 ****        -2.3812   0.7379  -2.3751 C.3            1 S1                 0.0000
      2 ****        -1.9447   1.4931  -1.1600 C.2            1 S1                 0.0000
      3 ****        -2.2846   2.7661  -0.9548 N.2            1 S1                 0.0000
      4 ****        -1.6794   3.0500   0.2544 C.ar           1 S1                 0.0000
      5 ****        -1.6622   4.2401   1.0165 C.ar           1 S1                 0.0000
      6 ****        -0.9628   4.2942   2.2401 C.ar           1 S1                 0.0000
      7 ****        -0.2726   3.1615   2.7190 C.ar           1 S1                 0.0000
      8 ****        -0.2787   1.9650   1.9763 C.ar           1 S1                 0.0000
      9 ****        -0.9778   1.9170   0.7554 C.ar           1 S1                 0.0000
     10 ****        -1.1779   0.9235  -0.1975 N.pl3          1 S1                 0.0000
     11 ****        -0.6587  -0.4362  -0.1396 C.3            1 S1                 0.0000
     12 ****         0.8373  -0.5156  -0.5026 C.3            1 S1                 0.0000
     13 ****         1.0436  -0.0141  -1.8099 O.3            1 S1                 0.0000
     14 ****         1.3691  -1.9321  -0.3313 C.ar           1 S1                 0.0000
     15 ****         1.1931  -2.8906  -1.3549 C.ar           1 S1                 0.0000
     16 ****         1.6766  -4.2032  -1.1929 C.ar           1 S1                 0.0000
     17 ****         1.5045  -5.1145  -2.1794 F              1 S1                 0.0000
     18 ****         2.3369  -4.5685  -0.0047 C.ar           1 S1                 0.0000
     19 ****         2.5088  -3.6218   1.0229 C.ar           1 S1                 0.0000
     20 ****         2.0247  -2.3083   0.8634 C.ar           1 S1                 0.0000
     21 ****         2.1894  -1.4133   1.8671 F              1 S1                 0.0000
     22 ****        -2.9153   1.3948  -3.0622 H              1 S1                 0.0000
     23 ****        -3.0463  -0.0780  -2.0920 H              1 S1                 0.0000
     24 ****        -1.5184   0.3260  -2.8983 H              1 S1                 0.0000
     25 ****        -2.1878   5.1128   0.6584 H              1 S1                 0.0000
     26 ****        -0.9556   5.2092   2.8139 H              1 S1                 0.0000
     27 ****         0.2609   3.2117   3.6569 H              1 S1                 0.0000
     28 ****         0.2485   1.0953   2.3395 H              1 S1                 0.0000
     29 ****        -0.8130  -0.8074   0.8743 H              1 S1                 0.0000
     30 ****        -1.2472  -1.0833  -0.7905 H              1 S1                 0.0000
     31 ****         1.3952   0.1441   0.1626 H              1 S1                 0.0000
     32 ****         1.9738   0.0485  -1.9640 H              1 S1                 0.0000
     33 ****         0.6825  -2.6239  -2.2689 H              1 S1                 0.0000
     34 ****         2.7081  -5.5752   0.1197 H              1 S1                 0.0000
     35 ****         3.0108  -3.9042   1.9366 H              1 S1                 0.0000
     36 ****        -2.8391   3.3656  -1.5319 LP             1 S1                 0.0000
     37 ****         0.6262   0.8907  -1.8937 LP             1 S1                 0.0000
     38 ****         0.6321  -0.6342  -2.4778 LP             1 S1                 0.0000
@<TRIPOS>BOND
    1    1    2 1     
    2    1   22 1     
    3    1   23 1     
    4    1   24 1     
    5    2   10 1     
    6    2    3 2     
    7    3    4 1     
    8    4    9 ar    
    9    4    5 ar    
   10    5    6 ar    
   11    5   25 1     
   12    6    7 ar    
   13    6   26 1     
   14    7    8 ar    
   15    7   27 1     
   16    8    9 ar    
   17    8   28 1     
   18    9   10 1     
   19   10   11 1     
   20   11   12 1     
   21   11   29 1     
   22   11   30 1     
   23   12   13 1     
   24   12   14 1     
   25   12   31 1     
   26   13   32 1     
   27   14   20 ar    
   28   14   15 ar    
   29   15   16 ar    
   30   15   33 1     
   31   16   17 1     
   32   16   18 ar    
   33   18   19 ar    
   34   18   34 1     
   35   19   20 ar    
   36   19   35 1     
   37   20   21 1     
   38    3   36 1     
   39   13   37 1     
   40   13   38 1     
@<TRIPOS>SUBSTRUCTURE
      1 S1             1
@<TRIPOS>SET
LONE_PAIRS      STATIC     ATOMS    <user>   **** ""
3 36 37 38
DONOR_HYDROGENS      STATIC     ATOMS    <user>   **** ""
1 32
ATOM$BLUE        STATIC     ATOMS    COLORGROUP SYSTEM
3 36 37 38
ATOM$RED        STATIC     ATOMS    COLORGROUP SYSTEM
1 32
