AV-unprocessed.smi:2272|AV-procd|sdf|9163|dock3
  -GOLD-   2272012373D 1   1.00000     0.00000
 Structure written by MMmdl.
 41 42  0  0  0  0  0  0  0  0  1 V2000
  150.3005  143.9201  157.3467 C   0  0  0  0  0  0  0  0  0  0  0  0
  150.9794  142.6198  156.9546 C   0  0  0  0  0  0  0  0  0  0  0  0
  150.7422  142.1842  155.6475 N   0  0  0  0  0  0  0  0  0  0  0  0
  151.2775  141.0849  155.2271 C   0  0  0  0  0  0  0  0  0  0  0  0
  152.1047  140.3053  156.0513 N   0  0  0  0  0  0  0  0  0  0  0  0
  152.6393  139.0698  155.4565 C   0  0  0  0  0  0  0  0  0  0  0  0
  151.5131  138.1524  154.9269 C   0  0  1  0  0  0  0  0  0  0  0  0
  152.0434  137.3177  153.9170 O   0  0  0  0  0  0  0  0  0  0  0  0
  150.9449  137.2377  156.0216 C   0  0  0  0  0  0  0  0  0  0  0  0
  150.1974  136.2004  155.4032 O   0  0  0  0  0  0  0  0  0  0  0  0
  150.1977  134.9778  156.1256 C   0  0  0  0  0  0  0  0  0  0  0  0
  149.4419  133.8639  155.4192 C   0  0  0  0  0  0  0  0  0  0  0  0
  148.8141  134.1142  154.1805 C   0  0  0  0  0  0  0  0  0  0  0  0
  148.1075  133.0881  153.5236 C   0  0  0  0  0  0  0  0  0  0  0  0
  148.0215  131.8085  154.1046 C   0  0  0  0  0  0  0  0  0  0  0  0
  148.6407  131.5560  155.3438 C   0  0  0  0  0  0  0  0  0  0  0  0
  149.3477  132.5809  156.0027 C   0  0  0  0  0  0  0  0  0  0  0  0
  149.9353  132.3258  157.1963 F   0  0  0  0  0  0  0  0  0  0  0  0
  152.3807  140.6520  157.3419 C   0  0  0  0  0  0  0  0  0  0  0  0
  153.0929  139.9500  158.0624 O   0  0  0  0  0  0  0  0  0  0  0  0
  151.7674  141.9071  157.8053 C   0  0  0  0  0  0  0  0  0  0  0  0
  152.0580  142.3305  159.2399 C   0  0  0  0  0  0  0  0  0  0  0  0
  151.0411  144.6668  157.6340 H   0  0  0  0  0  0  0  0  0  0  0  0
  149.6234  143.7583  158.1859 H   0  0  0  0  0  0  0  0  0  0  0  0
  149.7172  144.3295  156.5209 H   0  0  0  0  0  0  0  0  0  0  0  0
  151.1183  140.6968  154.2197 H   0  0  0  0  0  0  0  0  0  0  0  0
  153.3749  139.2724  154.6750 H   0  0  0  0  0  0  0  0  0  0  0  0
  153.2131  138.5441  156.2218 H   0  0  0  0  0  0  0  0  0  0  0  0
  150.6965  138.7360  154.4992 H   0  0  0  0  0  0  0  0  0  0  0  0
  151.3477  137.0908  153.3190 H   0  0  0  0  0  0  0  0  0  0  0  0
  151.7560  136.7924  156.6006 H   0  0  0  0  0  0  0  0  0  0  0  0
  150.3276  137.8144  156.7121 H   0  0  0  0  0  0  0  0  0  0  0  0
  151.2333  134.6578  156.2431 H   0  0  0  0  0  0  0  0  0  0  0  0
  149.8081  135.1362  157.1325 H   0  0  0  0  0  0  0  0  0  0  0  0
  148.8741  135.0930  153.7278 H   0  0  0  0  0  0  0  0  0  0  0  0
  147.6310  133.2832  152.5743 H   0  0  0  0  0  0  0  0  0  0  0  0
  147.4793  131.0217  153.6012 H   0  0  0  0  0  0  0  0  0  0  0  0
  148.5721  130.5751  155.7905 H   0  0  0  0  0  0  0  0  0  0  0  0
  151.6934  141.5741  159.9357 H   0  0  0  0  0  0  0  0  0  0  0  0
  151.5939  143.2772  159.5114 H   0  0  0  0  0  0  0  0  0  0  0  0
  153.1327  142.4388  159.3899 H   0  0  0  0  0  0  0  0  0  0  0  0
  1  2  1  0  0  0  0
  1 23  1  0  0  0  0
  1 24  1  0  0  0  0
  1 25  1  0  0  0  0
  2 21  2  0  0  0  0
  2  3  1  0  0  0  0
  3  4  2  0  0  0  0
  4  5  1  0  0  0  0
  4 26  1  0  0  0  0
  5  6  1  0  0  0  0
  5 19  1  0  0  0  0
  6  7  1  0  0  0  0
  6 27  1  0  0  0  0
  6 28  1  0  0  0  0
  7  8  1  0  0  0  0
  7  9  1  0  0  0  0
  7 29  1  0  0  0  0
  8 30  1  0  0  0  0
  9 10  1  0  0  0  0
  9 31  1  0  0  0  0
  9 32  1  0  0  0  0
 10 11  1  0  0  0  0
 11 12  1  0  0  0  0
 11 33  1  0  0  0  0
 11 34  1  0  0  0  0
 12 17  1  0  0  0  0
 12 13  2  0  0  0  0
 13 14  1  0  0  0  0
 13 35  1  0  0  0  0
 14 15  2  0  0  0  0
 14 36  1  0  0  0  0
 15 16  1  0  0  0  0
 15 37  1  0  0  0  0
 16 17  2  0  0  0  0
 16 38  1  0  0  0  0
 17 18  1  0  0  0  0
 19 20  2  0  0  0  0
 19 21  1  0  0  0  0
 21 22  1  0  0  0  0
 22 39  1  0  0  0  0
 22 40  1  0  0  0  0
 22 41  1  0  0  0  0
M  END
> <s_m_source_file>
AV-unprocessed.smi

> <i_m_source_file_index>
2272

> <i_lp_mmshare_version>
43012

> <i_f3d_flags>
0

> <s_epik_input>
W0NIM11jMW5bY0hdbihjKD1PKWMxW0NIM10pW0NIMl1bQ0BIXShbT0hdKVtDSDJdT1tDSDJdYzJbY0hdW2NIXVtjSF1bY0hdYzJG

> <s_epik_cmdline>
J2VwaWtfcHl0aG9uJywgJy1waCcsICc3LjAnLCAnLXRuJywgJzgnLCAnLW1hJywgJzIwMCcsICctbWV0YWxfYmluZGluZycsICctaW1hZScsICc8aW5maWxlLm1hZT4nLCAnLW9tYWUnLCAnPG91dGZpbGUubWFlPic=

> <r_lp_tautomer_probability>
1

> <r_epik_Ionization_Penalty>
5.35985e-05

> <r_epik_Ionization_Penalty_Charging>
1.17753e-07

> <r_epik_Ionization_Penalty_Neutral>
5.34808e-05

> <r_epik_State_Penalty>
-0

> <r_epik_Charging_Adjusted_Penalty>
1.17753e-07

> <i_epik_Tot_Q>
0

> <i_epik_Tot_abs_Q>
0

> <r_epik_Metal_State_Penalty>
-0

> <b_epik_Metal_Only>
0

> <s_lp_Force_Field>
OPLS_2005

> <r_lp_Energy>
21.4702

> <b_lp_Chiralities_Consistent>
1

> <s_lp_Variant>
AV-unprocessed.smi:2272-2

> <Gold.Version>
5.8.1

> <Gold.Id.Protein>
6NUR|6NUR_protein|mol2

> <Gold.PLP.Fitness>
48.6142

> <Gold.PLP.PLP>
-41.9700

> <Gold.PLP.part.hbond>
-3.0000

> <Gold.PLP.part.metal>
0.0000

> <Gold.PLP.part.buried>
-3.1676

> <Gold.PLP.part.nonpolar>
-36.0218

> <Gold.PLP.part.repulsive>
0.2007

> <Gold.PLP.ligand.clash>
0.0000

> <Gold.PLP.ligand.torsion>
0.5972

> <Gold.PLP.Chemscore.Hbond>
2.5680

> <Gold.PLP.Chemscore.CHOScore>
0.0000

> <Gold.PLP.Chemscore.Metal>
0.0000

> <Gold.Chemscore.Hbonds>
donor molecule, donor type, donor heavy atom, donor atom, acceptor molecule, acceptor atom, score
      L1  H     8    30       P1  7949  0.51
      P1  H  7997  8010       L1    20  0.72
      P1  H 10752 10764       L1     8  0.88

> <Gold.PLP.Chemscore.Internal.Correction>
0.1346

> <Gold.Rescore>
     Score         DG    S(hbond)    S(metal)    S(lipo)     H(rot)  DE(clash)    DE(int)     intcor
     12.97     -14.25       1.78        0.00      82.82       2.69       0.35       0.93       ----

> <Gold.Chemscore.Fitness>
12.9746

> <Gold.Chemscore.DG>
-14.2540

> <Gold.Chemscore.ZeroCoef>
-5.4800

> <Gold.Chemscore.Hbond>
1.7844

> <Gold.Chemscore.Metal>
0.0000

> <Gold.Chemscore.Lipo>
82.8167

> <Gold.Chemscore.Internal_Hbond>
0.0000

> <Gold.Chemscore.DEClash>
0.3461

> <Gold.Chemscore.DEInternal>
0.9334

> <Gold.Chemscore.Rot>
2.6857

> <Gold.Chemscore.Internal.Correction>
   9.000000E+99

> <Gold.Chemscore.Hbonds>
donor molecule, donor type, donor heavy atom, donor atom, acceptor molecule, acceptor atom, score
      L1  H     8    30       P1  7949  0.38
      P1  H  7997  8010       L1    20  0.32
      P1  H 10752 10764       L1     8  0.30

> <Gold.Chemscore.Hbond.Weighted>
-5.9600

> <Gold.Chemscore.Metal.Weighted>
-0.0000

> <Gold.Chemscore.Lipo.Weighted>
-9.6896

> <Gold.Chemscore.Internal_Hbond.Weighted>
0.0000

> <Gold.Chemscore.DEClash.Weighted>
0.3461

> <Gold.Chemscore.DEInternal.Weighted>
0.9334

> <Gold.Chemscore.Rot.Weighted>
6.8755

> <Gold.Chemscore.Internal.Correction.Weighted>
   9.000000E+99

> <Gold.Protein.RotatedTorsions>
[ 6907 6896 6895 6894 ] final  117.38 input  -60.11 | X-H torsion
[ 7974 7965 7964 7962 ] final  -92.08 input  175.53 | X-H torsion
[ 8008 7997 7996 7995 ] final   13.10 input   59.86 | X-H torsion
[ 10167 10162 10161 10158 ] final  123.02 input  -65.29 | X-H torsion
[ 10718 10713 10712 10709 ] final  -46.57 input   66.30 | X-H torsion
[ 10763 10752 10751 10750 ] final -106.89 input  -60.55 | X-H torsion
[ 11005 11000 10999 10996 ] final   29.43 input  -57.11 | X-H torsion

> <Gold.Protein.ActiveResidues>
 VAL166  LYS551  ARG553  GLY616  TRP617  ASP618  TYR619  PRO620  LYS621  CYS622 
 ASP623  PHE694  ASN695  SER759  ASP760  ASP761  ALA762  ILE779  LEU786  VAL792 
 PHE793  MET794  SER795  GLU796  ALA797  LYS798  CYS799  TRP800  GLU811  SER814 

> <Gold.Protein.RotatedAtoms>
  152.4616  133.7834  159.6862 H   0  0  0  0  0  0  0  0  0  0  0  0  # atno 6907 bound_to 6896
  150.8562  133.7702  159.3014 H   0  0  0  0  0  0  0  0  0  0  0  0  # atno 6908 bound_to 6896
  151.5282  135.1071  159.9947 H   0  0  0  0  0  0  0  0  0  0  0  0  # atno 6909 bound_to 6896
  145.4046  140.9540  143.2268 H   0  0  0  0  0  0  0  0  0  0  0  0  # atno 7974 bound_to 7965
  154.8298  140.2897  155.5730 H   0  0  0  0  0  0  0  0  0  0  0  0  # atno 8008 bound_to 7997
  156.3004  140.2534  156.3152 H   0  0  0  0  0  0  0  0  0  0  0  0  # atno 8009 bound_to 7997
  154.9244  140.0385  157.2004 H   0  0  0  0  0  0  0  0  0  0  0  0  # atno 8010 bound_to 7997
  139.5824  144.6992  151.3494 H   0  0  0  0  0  0  0  0  0  0  0  0  # atno 10167 bound_to 10162
  156.2170  130.4164  149.9042 H   0  0  0  0  0  0  0  0  0  0  0  0  # atno 10718 bound_to 10713
  154.8041  135.4695  154.0348 H   0  0  0  0  0  0  0  0  0  0  0  0  # atno 10763 bound_to 10752
  153.1831  135.6843  153.8458 H   0  0  0  0  0  0  0  0  0  0  0  0  # atno 10764 bound_to 10752
  153.8002  135.3231  155.3366 H   0  0  0  0  0  0  0  0  0  0  0  0  # atno 10765 bound_to 10752
  140.3050  134.2713  155.7746 H   0  0  0  0  0  0  0  0  0  0  0  0  # atno 11005 bound_to 11000
  144.8350  139.5565  143.6926 LP  0  0  0  0  0  0  0  0  0  0  0  0  # atno 17320 bound_to 7965
  146.2735  139.6693  142.9279 LP  0  0  0  0  0  0  0  0  0  0  0  0  # atno 17321 bound_to 7965
  140.7101  143.7414  150.7551 LP  0  0  0  0  0  0  0  0  0  0  0  0  # atno 17342 bound_to 10162
  140.0950  143.4842  152.2458 LP  0  0  0  0  0  0  0  0  0  0  0  0  # atno 17343 bound_to 10162
  156.6701  130.8817  151.3561 LP  0  0  0  0  0  0  0  0  0  0  0  0  # atno 17370 bound_to 10713
  157.7068  130.9394  150.0957 LP  0  0  0  0  0  0  0  0  0  0  0  0  # atno 17371 bound_to 10713
  141.2120  133.7671  156.9823 LP  0  0  0  0  0  0  0  0  0  0  0  0  # atno 17394 bound_to 11000
  140.1075  134.9497  157.2016 LP  0  0  0  0  0  0  0  0  0  0  0  0  # atno 17395 bound_to 11000

$$$$
