AV-unprocessed.smi:3213|AV-procd|sdf|12282|dock10
  -GOLD-   2272018123D 1   1.00000     0.00000
 Structure written by MMmdl.
 35 35  0  0  0  0  0  0  0  0  1 V2000
  148.3005  134.2417  154.1485 C   0  0  0  0  0  0  0  0  0  0  0  0
  149.4069  134.6555  155.1350 C   0  0  0  0  0  0  0  0  0  0  0  0
  148.7733  134.9066  156.5202 C   0  0  0  0  0  0  0  0  0  0  0  0
  150.4566  133.5272  155.2132 C   0  0  0  0  0  0  0  0  0  0  0  0
  150.0116  135.8844  154.6067 N   0  0  0  0  0  0  0  0  0  0  0  0
  151.0727  136.5649  155.0767 C   0  0  0  0  0  0  0  0  0  0  0  0
  151.7125  136.2358  156.0760 O   0  0  0  0  0  0  0  0  0  0  0  0
  151.4653  137.8205  154.2922 C   0  0  0  0  0  0  0  0  0  0  0  0
  150.4135  138.8223  154.3150 N   0  0  0  0  0  0  0  0  0  0  0  0
  149.0972  138.6909  153.9248 C   0  0  0  0  0  0  0  0  0  0  0  0
  148.4850  139.8949  154.1305 C   0  0  0  0  0  0  0  0  0  0  0  0
  147.0559  140.2801  153.8687 C   0  0  0  0  0  0  0  0  0  0  0  0
  146.8098  141.7661  154.1604 C   0  0  0  0  0  0  0  0  0  0  0  0
  145.4241  142.0338  154.1475 O   0  0  0  0  0  0  0  0  0  0  0  0
  149.5270  140.7094  154.6588 C   0  0  0  0  0  0  0  0  0  0  0  0
  150.6784  140.0669  154.7672 N   0  0  0  0  0  0  0  0  0  0  0  0
  147.7984  133.3299  154.4738 H   0  0  0  0  0  0  0  0  0  0  0  0
  148.7042  134.0545  153.1526 H   0  0  0  0  0  0  0  0  0  0  0  0
  147.5397  135.0177  154.0544 H   0  0  0  0  0  0  0  0  0  0  0  0
  148.0633  135.7338  156.4887 H   0  0  0  0  0  0  0  0  0  0  0  0
  149.5203  135.1414  157.2783 H   0  0  0  0  0  0  0  0  0  0  0  0
  148.2338  134.0257  156.8694 H   0  0  0  0  0  0  0  0  0  0  0  0
  149.9994  132.5873  155.5246 H   0  0  0  0  0  0  0  0  0  0  0  0
  151.2471  133.7509  155.9294 H   0  0  0  0  0  0  0  0  0  0  0  0
  150.9282  133.3567  154.2447 H   0  0  0  0  0  0  0  0  0  0  0  0
  149.5726  136.2580  153.7778 H   0  0  0  0  0  0  0  0  0  0  0  0
  152.3817  138.2583  154.6923 H   0  0  0  0  0  0  0  0  0  0  0  0
  151.6665  137.5463  153.2562 H   0  0  0  0  0  0  0  0  0  0  0  0
  148.7092  137.7595  153.5390 H   0  0  0  0  0  0  0  0  0  0  0  0
  146.7901  140.0673  152.8324 H   0  0  0  0  0  0  0  0  0  0  0  0
  146.3808  139.6775  154.4778 H   0  0  0  0  0  0  0  0  0  0  0  0
  147.2160  142.0398  155.1347 H   0  0  0  0  0  0  0  0  0  0  0  0
  147.2993  142.3921  153.4136 H   0  0  0  0  0  0  0  0  0  0  0  0
  144.9887  141.3423  153.6728 H   0  0  0  0  0  0  0  0  0  0  0  0
  149.4793  141.7439  154.9660 H   0  0  0  0  0  0  0  0  0  0  0  0
  1  2  1  0  0  0  0
  1 17  1  0  0  0  0
  1 18  1  0  0  0  0
  1 19  1  0  0  0  0
  2  3  1  0  0  0  0
  2  4  1  0  0  0  0
  2  5  1  0  0  0  0
  3 20  1  0  0  0  0
  3 21  1  0  0  0  0
  3 22  1  0  0  0  0
  4 23  1  0  0  0  0
  4 24  1  0  0  0  0
  4 25  1  0  0  0  0
  5  6  1  0  0  0  0
  5 26  1  0  0  0  0
  6  7  2  0  0  0  0
  6  8  1  0  0  0  0
  8  9  1  0  0  0  0
  8 27  1  0  0  0  0
  8 28  1  0  0  0  0
  9 16  1  0  0  0  0
  9 10  1  0  0  0  0
 10 11  2  0  0  0  0
 10 29  1  0  0  0  0
 11 12  1  0  0  0  0
 11 15  1  0  0  0  0
 12 13  1  0  0  0  0
 12 30  1  0  0  0  0
 12 31  1  0  0  0  0
 13 14  1  0  0  0  0
 13 32  1  0  0  0  0
 13 33  1  0  0  0  0
 14 34  1  0  0  0  0
 15 16  2  0  0  0  0
 15 35  1  0  0  0  0
M  END
> <s_m_source_file>
AV-unprocessed.smi

> <i_m_source_file_index>
3213

> <i_lp_mmshare_version>
43012

> <i_f3d_flags>
0

> <s_epik_input>
W0NIM11DKFtDSDNdKShbQ0gzXSlbTkhdQyg9TylbQ0gyXW4xW2NIXWMoW2NIXW4xKVtDSDJdW0NIMl1bT0hd

> <s_epik_cmdline>
J2VwaWtfcHl0aG9uJywgJy1waCcsICc3LjAnLCAnLXRuJywgJzgnLCAnLW1hJywgJzIwMCcsICctbWV0YWxfYmluZGluZycsICctaW1hZScsICc8aW5maWxlLm1hZT4nLCAnLW9tYWUnLCAnPG91dGZpbGUubWFlPic=

> <r_lp_tautomer_probability>
1

> <r_epik_Ionization_Penalty>
3.05354e-05

> <r_epik_Ionization_Penalty_Charging>
0

> <r_epik_Ionization_Penalty_Neutral>
3.05354e-05

> <r_epik_State_Penalty>
-0

> <r_epik_Charging_Adjusted_Penalty>
0

> <i_epik_Tot_Q>
0

> <i_epik_Tot_abs_Q>
0

> <r_epik_Metal_State_Penalty>
-0

> <b_epik_Metal_Only>
0

> <s_lp_Force_Field>
OPLS_2005

> <r_lp_Energy>
4.97676

> <b_lp_Chiralities_Consistent>
1

> <s_lp_Variant>
AV-unprocessed.smi:3213-1

> <Gold.Version>
5.8.1

> <Gold.Id.Protein>
6NUR|6NUR_protein|mol2

> <Gold.PLP.Fitness>
42.1044

> <Gold.PLP.PLP>
-27.3045

> <Gold.PLP.part.hbond>
-4.0000

> <Gold.PLP.part.metal>
0.0000

> <Gold.PLP.part.buried>
-0.5752

> <Gold.PLP.part.nonpolar>
-23.2932

> <Gold.PLP.part.repulsive>
0.1402

> <Gold.PLP.ligand.clash>
0.0000

> <Gold.PLP.ligand.torsion>
0.1077

> <Gold.PLP.Chemscore.Hbond>
4.0000

> <Gold.PLP.Chemscore.CHOScore>
1.0000

> <Gold.PLP.Chemscore.Metal>
0.0000

> <Gold.Chemscore.Hbonds>
donor molecule, donor type, donor heavy atom, donor atom, acceptor molecule, acceptor atom, score
      L1  H     5    26       P1  7948  1.00
      L1  H    14    34       P1 10175  1.00
      P1  H  7989  7998       L1    16  1.00
      P1  H 10752 10763       L1     7  0.95
      L1  C    10    29       P1  7948  1.00

> <Gold.PLP.Chemscore.Internal.Correction>
0.0153

> <Gold.Rescore>
     Score         DG    S(hbond)    S(metal)    S(lipo)     H(rot)  DE(clash)    DE(int)     intcor
     14.76     -16.07       3.16        0.00      54.32       2.48       0.20       1.11       ----

> <Gold.Chemscore.Fitness>
14.7584

> <Gold.Chemscore.DG>
-16.0684

> <Gold.Chemscore.ZeroCoef>
-5.4800

> <Gold.Chemscore.Hbond>
3.1649

> <Gold.Chemscore.Metal>
0.0000

> <Gold.Chemscore.Lipo>
54.3217

> <Gold.Chemscore.Internal_Hbond>
0.0000

> <Gold.Chemscore.DEClash>
0.2002

> <Gold.Chemscore.DEInternal>
1.1099

> <Gold.Chemscore.Rot>
2.4758

> <Gold.Chemscore.Internal.Correction>
   9.000000E+99

> <Gold.Chemscore.Hbonds>
donor molecule, donor type, donor heavy atom, donor atom, acceptor molecule, acceptor atom, score
      L1  H     5    26       P1  7948  0.57
      L1  H    14    34       P1 10175  0.29
      P1  H  7989  7998       L1    16  0.17
      P1  H 10752 10763       L1     7  0.21

> <Gold.Chemscore.Hbond.Weighted>
-10.5708

> <Gold.Chemscore.Metal.Weighted>
-0.0000

> <Gold.Chemscore.Lipo.Weighted>
-6.3556

> <Gold.Chemscore.Internal_Hbond.Weighted>
0.0000

> <Gold.Chemscore.DEClash.Weighted>
0.2002

> <Gold.Chemscore.DEInternal.Weighted>
1.1099

> <Gold.Chemscore.Rot.Weighted>
6.3380

> <Gold.Chemscore.Internal.Correction.Weighted>
   9.000000E+99

> <Gold.Protein.RotatedTorsions>
[ 6907 6896 6895 6894 ] final  162.88 input  -60.11 | X-H torsion
[ 7974 7965 7964 7962 ] final  -76.62 input  175.53 | X-H torsion
[ 8008 7997 7996 7995 ] final  169.51 input   59.86 | X-H torsion
[ 10167 10162 10161 10158 ] final  126.61 input  -65.29 | X-H torsion
[ 10718 10713 10712 10709 ] final   16.78 input   66.30 | X-H torsion
[ 10763 10752 10751 10750 ] final  101.98 input  -60.55 | X-H torsion
[ 11005 11000 10999 10996 ] final   99.87 input  -57.11 | X-H torsion

> <Gold.Protein.ActiveResidues>
 VAL166  LYS551  ARG553  GLY616  TRP617  ASP618  TYR619  PRO620  LYS621  CYS622 
 ASP623  PHE694  ASN695  SER759  ASP760  ASP761  ALA762  ILE779  LEU786  VAL792 
 PHE793  MET794  SER795  GLU796  ALA797  LYS798  CYS799  TRP800  GLU811  SER814 

> <Gold.Protein.RotatedAtoms>
  151.9337  133.3618  159.3939 H   0  0  0  0  0  0  0  0  0  0  0  0  # atno 6907 bound_to 6896
  150.7012  134.4511  159.5346 H   0  0  0  0  0  0  0  0  0  0  0  0  # atno 6908 bound_to 6896
  152.2156  134.8461  160.0543 H   0  0  0  0  0  0  0  0  0  0  0  0  # atno 6909 bound_to 6896
  145.6104  140.9388  143.1192 H   0  0  0  0  0  0  0  0  0  0  0  0  # atno 7974 bound_to 7965
  156.1450  140.1562  156.8860 H   0  0  0  0  0  0  0  0  0  0  0  0  # atno 8008 bound_to 7997
  154.5021  140.0822  156.7856 H   0  0  0  0  0  0  0  0  0  0  0  0  # atno 8009 bound_to 7997
  155.4005  140.3414  155.4259 H   0  0  0  0  0  0  0  0  0  0  0  0  # atno 8010 bound_to 7997
  139.5622  144.6889  151.4011 H   0  0  0  0  0  0  0  0  0  0  0  0  # atno 10167 bound_to 10162
  157.0728  130.6355  149.5809 H   0  0  0  0  0  0  0  0  0  0  0  0  # atno 10718 bound_to 10713
  153.3336  135.4026  155.1515 H   0  0  0  0  0  0  0  0  0  0  0  0  # atno 10763 bound_to 10752
  154.8628  135.3616  154.5438 H   0  0  0  0  0  0  0  0  0  0  0  0  # atno 10764 bound_to 10752
  153.5878  135.7075  153.5495 H   0  0  0  0  0  0  0  0  0  0  0  0  # atno 10765 bound_to 10752
  139.8770  134.9115  156.4671 H   0  0  0  0  0  0  0  0  0  0  0  0  # atno 11005 bound_to 11000
  144.7272  139.7838  143.7360 LP  0  0  0  0  0  0  0  0  0  0  0  0  # atno 17320 bound_to 7965
  146.1508  139.4591  143.0050 LP  0  0  0  0  0  0  0  0  0  0  0  0  # atno 17321 bound_to 7965
  140.6903  143.7878  150.7245 LP  0  0  0  0  0  0  0  0  0  0  0  0  # atno 17342 bound_to 10162
  140.1358  143.4485  152.2225 LP  0  0  0  0  0  0  0  0  0  0  0  0  # atno 17343 bound_to 10162
  155.9945  130.5010  150.7424 LP  0  0  0  0  0  0  0  0  0  0  0  0  # atno 17370 bound_to 10713
  157.4864  131.0907  151.0477 LP  0  0  0  0  0  0  0  0  0  0  0  0  # atno 17371 bound_to 10713
  140.8822  133.7909  155.9479 LP  0  0  0  0  0  0  0  0  0  0  0  0  # atno 17394 bound_to 11000
  140.8842  134.2575  157.5128 LP  0  0  0  0  0  0  0  0  0  0  0  0  # atno 17395 bound_to 11000

$$$$
