AV-unprocessed.smi:165|AV-procd|sdf|1387|dock6
  -GOLD-   2262019123D 1   1.00000     0.00000
 Structure written by MMmdl.
 55 59  0  0  0  0  0  0  0  0  1 V2000
  143.6653  133.8921  147.7035 O   0  0  0  0  0  0  0  0  0  0  0  0
  143.8459  132.6925  148.4275 C   0  0  0  0  0  0  0  0  0  0  0  0
  144.3355  132.9512  149.8635 C   0  0  0  0  0  0  0  0  0  0  0  0
  145.8078  132.5064  149.9906 C   0  0  0  0  0  0  0  0  0  0  0  0
  146.5076  133.2389  150.9754 O   0  0  0  0  0  0  0  0  0  0  0  0
  144.0741  134.3873  150.3733 C   0  0  0  0  0  0  0  0  0  0  0  0
  143.6639  133.8218  151.7339 C   0  0  0  0  0  0  0  0  0  0  0  0
  142.6617  134.4637  152.5386 N   0  0  0  0  0  0  0  0  0  0  0  0
  141.4676  133.9121  152.9470 C   0  0  0  0  0  0  0  0  0  0  0  0
  140.7151  134.6875  153.6781 N   0  0  0  0  0  0  0  0  0  0  0  0
  141.4466  135.8639  153.7886 C   0  0  0  0  0  0  0  0  0  0  0  0
  141.2203  137.1106  154.4371 C   0  0  0  0  0  0  0  0  0  0  0  0
  140.1042  137.3603  155.1664 N   0  0  0  0  0  0  0  0  0  0  0  0
  140.1272  137.0613  156.5932 C   0  0  0  0  0  0  0  0  0  0  0  0
  138.9221  137.7178  157.2811 C   0  0  0  0  0  0  0  0  0  0  0  0
  137.7130  137.3333  156.6284 O   0  0  0  0  0  0  0  0  0  0  0  0
  137.6410  137.6234  155.2253 C   0  0  1  0  0  0  0  0  0  0  0  0
  136.3402  136.9813  154.7081 C   0  0  0  0  0  0  0  0  0  0  0  0
  135.1089  137.7091  155.2603 C   0  0  0  0  0  0  0  0  0  0  0  0
  135.2068  139.2140  154.9764 C   0  0  0  0  0  0  0  0  0  0  0  0
  136.4141  139.7289  155.5239 O   0  0  0  0  0  0  0  0  0  0  0  0
  137.5835  139.1501  154.9524 C   0  0  0  0  0  0  0  0  0  0  0  0
  138.8534  136.9686  154.5259 C   0  0  0  0  0  0  0  0  0  0  0  0
  142.1773  138.0678  154.3066 N   0  0  0  0  0  0  0  0  0  0  0  0
  143.2855  137.8203  153.6024 C   0  0  0  0  0  0  0  0  0  0  0  0
  143.6316  136.7057  152.9563 N   0  0  0  0  0  0  0  0  0  0  0  0
  142.6713  135.7435  153.0725 C   0  0  0  0  0  0  0  0  0  0  0  0
  143.3831  132.5100  150.9997 C   0  0  0  0  0  0  0  0  0  0  0  0
  144.4900  134.3525  147.6739 H   0  0  0  0  0  0  0  0  0  0  0  0
  142.9116  132.1304  148.4218 H   0  0  0  0  0  0  0  0  0  0  0  0
  144.5686  132.0895  147.8766 H   0  0  0  0  0  0  0  0  0  0  0  0
  145.8776  131.4446  150.2293 H   0  0  0  0  0  0  0  0  0  0  0  0
  146.3399  132.6386  149.0482 H   0  0  0  0  0  0  0  0  0  0  0  0
  145.8830  133.5825  151.5954 H   0  0  0  0  0  0  0  0  0  0  0  0
  144.9537  135.0312  150.4015 H   0  0  0  0  0  0  0  0  0  0  0  0
  143.2509  134.8836  149.8575 H   0  0  0  0  0  0  0  0  0  0  0  0
  144.5442  133.7067  152.3690 H   0  0  0  0  0  0  0  0  0  0  0  0
  141.1665  132.9082  152.6847 H   0  0  0  0  0  0  0  0  0  0  0  0
  140.0953  135.9805  156.7373 H   0  0  0  0  0  0  0  0  0  0  0  0
  141.0513  137.4252  157.0443 H   0  0  0  0  0  0  0  0  0  0  0  0
  138.8711  137.3990  158.3222 H   0  0  0  0  0  0  0  0  0  0  0  0
  139.0252  138.8023  157.2993 H   0  0  0  0  0  0  0  0  0  0  0  0
  136.3180  137.0246  153.6183 H   0  0  0  0  0  0  0  0  0  0  0  0
  136.3028  135.9245  154.9756 H   0  0  0  0  0  0  0  0  0  0  0  0
  134.2013  137.3012  154.8150 H   0  0  0  0  0  0  0  0  0  0  0  0
  135.0315  137.5439  156.3357 H   0  0  0  0  0  0  0  0  0  0  0  0
  135.1670  139.4124  153.9043 H   0  0  0  0  0  0  0  0  0  0  0  0
  134.3637  139.7363  155.4288 H   0  0  0  0  0  0  0  0  0  0  0  0
  138.4594  139.6668  155.3420 H   0  0  0  0  0  0  0  0  0  0  0  0
  137.5848  139.3396  153.8778 H   0  0  0  0  0  0  0  0  0  0  0  0
  138.8476  137.2221  153.4662 H   0  0  0  0  0  0  0  0  0  0  0  0
  138.7718  135.8821  154.5821 H   0  0  0  0  0  0  0  0  0  0  0  0
  143.9970  138.6312  153.5503 H   0  0  0  0  0  0  0  0  0  0  0  0
  142.3479  132.4170  150.6684 H   0  0  0  0  0  0  0  0  0  0  0  0
  143.6950  131.6174  151.5426 H   0  0  0  0  0  0  0  0  0  0  0  0
  1  2  1  0  0  0  0
  1 29  1  0  0  0  0
  2  3  1  0  0  0  0
  2 30  1  0  0  0  0
  2 31  1  0  0  0  0
  3 28  1  0  0  0  0
  3  4  1  0  0  0  0
  3  6  1  0  0  0  0
  4  5  1  0  0  0  0
  4 32  1  0  0  0  0
  4 33  1  0  0  0  0
  5 34  1  0  0  0  0
  6  7  1  0  0  0  0
  6 35  1  0  0  0  0
  6 36  1  0  0  0  0
  7  8  1  0  0  0  0
  7 28  1  0  0  0  0
  7 37  1  0  0  0  0
  8 27  1  0  0  0  0
  8  9  1  0  0  0  0
  9 10  2  0  0  0  0
  9 38  1  0  0  0  0
 10 11  1  0  0  0  0
 11 27  2  0  0  0  0
 11 12  1  0  0  0  0
 12 13  1  0  0  0  0
 12 24  2  0  0  0  0
 13 23  1  0  0  0  0
 13 14  1  0  0  0  0
 14 15  1  0  0  0  0
 14 39  1  0  0  0  0
 14 40  1  0  0  0  0
 15 16  1  0  0  0  0
 15 41  1  0  0  0  0
 15 42  1  0  0  0  0
 16 17  1  0  0  0  0
 17 22  1  0  0  0  0
 17 18  1  0  0  0  0
 17 23  1  0  0  0  0
 18 19  1  0  0  0  0
 18 43  1  0  0  0  0
 18 44  1  0  0  0  0
 19 20  1  0  0  0  0
 19 45  1  0  0  0  0
 19 46  1  0  0  0  0
 20 21  1  0  0  0  0
 20 47  1  0  0  0  0
 20 48  1  0  0  0  0
 21 22  1  0  0  0  0
 22 49  1  0  0  0  0
 22 50  1  0  0  0  0
 23 51  1  0  0  0  0
 23 52  1  0  0  0  0
 24 25  1  0  0  0  0
 25 26  2  0  0  0  0
 25 53  1  0  0  0  0
 26 27  1  0  0  0  0
 28 54  1  0  0  0  0
 28 55  1  0  0  0  0
M  END
> <s_m_source_file>
AV-unprocessed.smi

> <i_m_source_file_index>
165

> <i_lp_mmshare_version>
43012

> <i_f3d_flags>
0

> <s_epik_input>
W09IXVtDSDJdQzEoW0NIMl1bT0hdKVtDSDJdW0NIXShbQ0gyXTEpbihbY0hdbjIpYyhjMjMpbltjSF1uYzNOKFtDSDJdNClbQ0gyXVtDSDJdT1tDQEBdNDVbQ0gyXVtDSDJdW0NIMl1PW0NIMl01

> <s_epik_cmdline>
J2VwaWtfcHl0aG9uJywgJy1waCcsICc3LjAnLCAnLXRuJywgJzgnLCAnLW1hJywgJzIwMCcsICctbWV0YWxfYmluZGluZycsICctaW1hZScsICc8aW5maWxlLm1hZT4nLCAnLW9tYWUnLCAnPG91dGZpbGUubWFlPic=

> <r_lp_tautomer_probability>
1

> <r_epik_Ionization_Penalty>
0.00466923

> <r_epik_Ionization_Penalty_Charging>
0

> <r_epik_Ionization_Penalty_Neutral>
0.00466923

> <r_epik_State_Penalty>
0.0032353

> <r_epik_Charging_Adjusted_Penalty>
0.0032353

> <i_epik_Tot_Q>
0

> <i_epik_Tot_abs_Q>
0

> <r_epik_Metal_State_Penalty>
-0

> <b_epik_Metal_Only>
0

> <s_lp_Force_Field>
OPLS_2005

> <r_lp_Energy>
53.1571

> <b_lp_Chiralities_Consistent>
1

> <s_lp_Variant>
AV-unprocessed.smi:165-2

> <Gold.Version>
5.8.1

> <Gold.Id.Protein>
6NUR|6NUR_protein|mol2

> <Gold.PLP.Fitness>
51.4445

> <Gold.PLP.PLP>
-44.3999

> <Gold.PLP.part.hbond>
-5.4420

> <Gold.PLP.part.metal>
0.0000

> <Gold.PLP.part.buried>
-3.1489

> <Gold.PLP.part.nonpolar>
-38.0623

> <Gold.PLP.part.repulsive>
0.5454

> <Gold.PLP.ligand.clash>
0.1467

> <Gold.PLP.ligand.torsion>
2.1404

> <Gold.PLP.Chemscore.Hbond>
2.6250

> <Gold.PLP.Chemscore.CHOScore>
0.9512

> <Gold.PLP.Chemscore.Metal>
0.0000

> <Gold.Chemscore.Hbonds>
donor molecule, donor type, donor heavy atom, donor atom, acceptor molecule, acceptor atom, score
      L1  H     1    29       P1  7921  1.00
      P1  H 10192 10197       L1     1  0.70
      P1  H 11000 11005       L1    10  0.76
      L1  C     9    38       P1 10957  0.09
      L1  C    25    53       P1 10175  0.87

> <Gold.PLP.Chemscore.Internal.Correction>
0.7435

> <Gold.Rescore>
     Score         DG    S(hbond)    S(metal)    S(lipo)     H(rot)  DE(clash)    DE(int)     intcor
     11.54     -16.22       2.39        0.00      92.09       3.14       1.61       3.07       ----

> <Gold.Chemscore.Fitness>
11.5358

> <Gold.Chemscore.DG>
-16.2192

> <Gold.Chemscore.ZeroCoef>
-5.4800

> <Gold.Chemscore.Hbond>
2.3926

> <Gold.Chemscore.Metal>
0.0000

> <Gold.Chemscore.Lipo>
92.0853

> <Gold.Chemscore.Internal_Hbond>
0.0000

> <Gold.Chemscore.DEClash>
1.6131

> <Gold.Chemscore.DEInternal>
3.0704

> <Gold.Chemscore.Rot>
3.1351

> <Gold.Chemscore.Internal.Correction>
   9.000000E+99

> <Gold.Chemscore.Hbonds>
donor molecule, donor type, donor heavy atom, donor atom, acceptor molecule, acceptor atom, score
      L1  H     1    29       P1  7921  1.00
      P1  H 10192 10197       L1     1  0.58
      P1  H 11000 11005       L1    10  0.19

> <Gold.Chemscore.Hbond.Weighted>
-7.9912

> <Gold.Chemscore.Metal.Weighted>
-0.0000

> <Gold.Chemscore.Lipo.Weighted>
-10.7740

> <Gold.Chemscore.Internal_Hbond.Weighted>
0.0000

> <Gold.Chemscore.DEClash.Weighted>
1.6131

> <Gold.Chemscore.DEInternal.Weighted>
3.0704

> <Gold.Chemscore.Rot.Weighted>
8.0260

> <Gold.Chemscore.Internal.Correction.Weighted>
   9.000000E+99

> <Gold.Protein.RotatedTorsions>
[ 6907 6896 6895 6894 ] final    0.42 input  -60.11 | X-H torsion
[ 7974 7965 7964 7962 ] final -118.45 input  175.53 | X-H torsion
[ 8008 7997 7996 7995 ] final   -1.97 input   59.86 | X-H torsion
[ 10167 10162 10161 10158 ] final  178.98 input  -65.29 | X-H torsion
[ 10718 10713 10712 10709 ] final  -43.97 input   66.30 | X-H torsion
[ 10763 10752 10751 10750 ] final   72.03 input  -60.55 | X-H torsion
[ 11005 11000 10999 10996 ] final   35.99 input  -57.11 | X-H torsion

> <Gold.Protein.ActiveResidues>
 VAL166  LYS551  ARG553  GLY616  TRP617  ASP618  TYR619  PRO620  LYS621  CYS622 
 ASP623  PHE694  ASN695  SER759  ASP760  ASP761  ALA762  ILE779  LEU786  VAL792 
 PHE793  MET794  SER795  GLU796  ALA797  LYS798  CYS799  TRP800  GLU811  SER814 

> <Gold.Protein.RotatedAtoms>
  151.5761  135.1060  160.0006 H   0  0  0  0  0  0  0  0  0  0  0  0  # atno 6907 bound_to 6896
  152.4377  133.7386  159.6639 H   0  0  0  0  0  0  0  0  0  0  0  0  # atno 6908 bound_to 6896
  150.8277  133.8074  159.3135 H   0  0  0  0  0  0  0  0  0  0  0  0  # atno 6909 bound_to 6896
  145.0736  140.8377  143.4081 H   0  0  0  0  0  0  0  0  0  0  0  0  # atno 7974 bound_to 7965
  154.6409  140.2546  155.7323 H   0  0  0  0  0  0  0  0  0  0  0  0  # atno 8008 bound_to 7997
  156.2528  140.2887  156.0722 H   0  0  0  0  0  0  0  0  0  0  0  0  # atno 8009 bound_to 7997
  155.1598  140.0384  157.2830 H   0  0  0  0  0  0  0  0  0  0  0  0  # atno 8010 bound_to 7997
  139.5317  144.2615  152.0703 H   0  0  0  0  0  0  0  0  0  0  0  0  # atno 10167 bound_to 10162
  156.2434  130.4182  149.8734 H   0  0  0  0  0  0  0  0  0  0  0  0  # atno 10718 bound_to 10713
  153.0434  135.5115  154.7682 H   0  0  0  0  0  0  0  0  0  0  0  0  # atno 10763 bound_to 10752
  154.6601  135.2937  154.9879 H   0  0  0  0  0  0  0  0  0  0  0  0  # atno 10764 bound_to 10752
  154.0733  135.6674  153.4880 H   0  0  0  0  0  0  0  0  0  0  0  0  # atno 10765 bound_to 10752
  140.2370  134.3459  155.7940 H   0  0  0  0  0  0  0  0  0  0  0  0  # atno 11005 bound_to 11000
  145.1262  139.2661  143.5563 LP  0  0  0  0  0  0  0  0  0  0  0  0  # atno 17320 bound_to 7965
  146.3529  140.0900  142.8613 LP  0  0  0  0  0  0  0  0  0  0  0  0  # atno 17321 bound_to 7965
  140.2080  144.4591  150.6399 LP  0  0  0  0  0  0  0  0  0  0  0  0  # atno 17342 bound_to 10162
  140.6499  143.2222  151.6102 LP  0  0  0  0  0  0  0  0  0  0  0  0  # atno 17343 bound_to 10162
  156.6307  130.8664  151.3495 LP  0  0  0  0  0  0  0  0  0  0  0  0  # atno 17370 bound_to 10713
  157.7185  130.9527  150.1345 LP  0  0  0  0  0  0  0  0  0  0  0  0  # atno 17371 bound_to 10713
  141.2213  133.7277  156.8824 LP  0  0  0  0  0  0  0  0  0  0  0  0  # atno 17394 bound_to 11000
  140.1692  134.9112  157.2812 LP  0  0  0  0  0  0  0  0  0  0  0  0  # atno 17395 bound_to 11000

$$$$
