#       Name:                AV-unprocessed.smi:2201
#       Creating user name   scv26
#       Creation time:       Fri Mar 27 12:14:18 2020


#       File generated by GOLD software.
#

@<TRIPOS>MOLECULE
AV-unprocessed.smi:2201
    36    36     1
SMALL
NO_CHARGES


@<TRIPOS>ATOM
      1 ****        -3.6131  -0.3661  -1.0724 C.3            1 S1                 0.0000
      2 ****        -2.9952  -0.0460   0.3045 C.3            1 S1                 0.0000
      3 ****        -3.6897   1.2015   0.8891 C.3            1 S1                 0.0000
      4 ****        -3.2402  -1.2442   1.2530 C.3            1 S1                 0.0000
      5 ****        -1.4902   0.2678   0.1121 C.2            1 S1                 0.0000
      6 ****        -1.1656   1.2053  -0.6184 O.2            1 S1                 0.0000
      7 ****        -0.6004  -0.5099   0.7616 N.am           1 S1                 0.0000
      8 ****         0.8169  -0.4336   0.7516 C.2            1 S1                 0.0000
      9 ****         1.5208   0.4670   0.0567 N.2            1 S1                 0.0000
     10 ****         2.9004   0.3086   0.2268 C.2            1 S1                 0.0000
     11 ****         3.8537   1.2307  -0.4769 C.3            1 S1                 0.0000
     12 ****         4.2144   0.6731  -1.8556 C.2            1 S1                 0.0000
     13 ****         5.1932  -0.2347  -1.9112 N.am           1 S1                 0.0000
     14 ****         3.6207   1.0597  -2.8600 O.2            1 S1                 0.0000
     15 ****         3.2255  -0.7246   1.0730 C.2            1 S1                 0.0000
     16 ****         1.8119  -1.5457   1.6779 S.3            1 S1                 0.0000
     17 ****        -4.6778  -0.5856  -0.9855 H              1 S1                 0.0000
     18 ****        -3.1380  -1.2349  -1.5297 H              1 S1                 0.0000
     19 ****        -3.5129   0.4681  -1.7682 H              1 S1                 0.0000
     20 ****        -3.5914   2.0679   0.2331 H              1 S1                 0.0000
     21 ****        -3.2701   1.4734   1.8586 H              1 S1                 0.0000
     22 ****        -4.7565   1.0276   1.0337 H              1 S1                 0.0000
     23 ****        -4.3069  -1.4398   1.3678 H              1 S1                 0.0000
     24 ****        -2.8411  -1.0596   2.2515 H              1 S1                 0.0000
     25 ****        -2.7873  -2.1616   0.8739 H              1 S1                 0.0000
     26 ****        -0.9900  -1.2460   1.3321 H              1 S1                 0.0000
     27 ****         3.4154   2.2228  -0.5954 H              1 S1                 0.0000
     28 ****         4.7631   1.3667   0.1099 H              1 S1                 0.0000
     29 ****         5.4679  -0.6285  -2.7991 H              1 S1                 0.0000
     30 ****         5.6575  -0.5214  -1.0616 H              1 S1                 0.0000
     31 ****         4.2091  -1.0530   1.3740 H              1 S1                 0.0000
     32 ****        -1.8689   1.7495  -1.0757 LP             1 S1                 0.0000
     33 ****        -0.1988   1.4220  -0.7540 LP             1 S1                 0.0000
     34 ****         1.1080   1.1730  -0.5188 LP             1 S1                 0.0000
     35 ****         2.8957   1.7438  -2.7800 LP             1 S1                 0.0000
     36 ****         3.8627   0.6901  -3.7571 LP             1 S1                 0.0000
@<TRIPOS>BOND
    1    1    2 1     
    2    1   17 1     
    3    1   18 1     
    4    1   19 1     
    5    2    3 1     
    6    2    4 1     
    7    2    5 1     
    8    3   20 1     
    9    3   21 1     
   10    3   22 1     
   11    4   23 1     
   12    4   24 1     
   13    4   25 1     
   14    5    6 2     
   15    5    7 am    
   16    7    8 1     
   17    7   26 1     
   18    8   16 1     
   19    8    9 2     
   20    9   10 1     
   21   10   11 1     
   22   10   15 2     
   23   11   12 1     
   24   11   27 1     
   25   11   28 1     
   26   12   13 am    
   27   12   14 2     
   28   13   29 1     
   29   13   30 1     
   30   15   16 1     
   31   15   31 1     
   32    6   32 1     
   33    6   33 1     
   34    9   34 1     
   35   14   35 1     
   36   14   36 1     
@<TRIPOS>SUBSTRUCTURE
      1 S1             1
@<TRIPOS>SET
LONE_PAIRS      STATIC     ATOMS    <user>   **** ""
5 32 33 34 35 36
DONOR_HYDROGENS      STATIC     ATOMS    <user>   **** ""
3 26 29 30
ATOM$BLUE        STATIC     ATOMS    COLORGROUP SYSTEM
5 32 33 34 35 36
ATOM$RED        STATIC     ATOMS    COLORGROUP SYSTEM
3 26 29 30
