#       Name:                AV-unprocessed.smi:1244
#       Creating user name   scv26
#       Creation time:       Fri Mar 27 04:32:40 2020


#       File generated by GOLD software.
#

@<TRIPOS>MOLECULE
AV-unprocessed.smi:1244
    61    63     1
SMALL
NO_CHARGES


@<TRIPOS>ATOM
      1 ****        -5.5525   2.2561  -2.7788 C.3            1 S1                 0.0000
      2 ****        -4.0501   1.9924  -2.6325 C.3            1 S1                 0.0000
      3 ****        -3.3584   3.0551  -1.7545 C.3            1 S1                 0.0000
      4 ****        -1.8938   2.8304  -1.6900 N.4            1 S1                 1.0000
      5 ****        -1.5007   1.7248  -0.7771 C.3            1 S1                 0.0000
      6 ****        -0.0556   1.8753  -0.2660 C.3            1 S1                 0.0000
      7 ****         0.3031   0.7908   0.6403 N.am           1 S1                 0.0000
      8 ****         0.6472  -0.4455   0.2528 C.2            1 S1                 0.0000
      9 ****         0.6951  -0.7959  -0.9265 O.2            1 S1                 0.0000
     10 ****         0.9369  -1.2233   1.3092 N.am           1 S1                 0.0000
     11 ****         1.3983  -2.5707   1.3156 C.ar           1 S1                 0.0000
     12 ****         1.0227  -3.4941   0.3089 C.ar           1 S1                 0.0000
     13 ****         1.4549  -4.8283   0.4000 C.ar           1 S1                 0.0000
     14 ****         2.2367  -5.1997   1.5064 C.ar           1 S1                 0.0000
     15 ****         2.5898  -4.3380   2.4808 N.ar           1 S1                 0.0000
     16 ****         2.1926  -3.0443   2.3992 C.ar           1 S1                 0.0000
     17 ****         2.6064  -2.1816   3.4397 N.3            1 S1                 0.0000
     18 ****         3.1173  -2.7257   4.6934 C.3            1 S1                 0.0000
     19 ****         3.8092  -1.5511   5.3790 C.3            1 S1                 0.0000
     20 ****         4.4079  -0.7929   4.1981 C.3            1 S1                 0.0000
     21 ****         3.3845  -1.0008   3.0762 C.3            1 S1                 0.0000
     22 ****        -1.3250   2.7363  -3.0591 C.3            1 S1                 0.0000
     23 ****        -2.0799   1.7015  -3.9223 C.3            1 S1                 0.0000
     24 ****        -1.5854   1.6936  -5.3728 C.3            1 S1                 0.0000
     25 ****        -3.4675   2.0199  -3.9310 O.3            1 S1                 0.0000
     26 ****        -6.0506   2.2363  -1.8092 H              1 S1                 0.0000
     27 ****        -6.0214   1.4991  -3.4080 H              1 S1                 0.0000
     28 ****        -5.7409   3.2294  -3.2327 H              1 S1                 0.0000
     29 ****        -3.9168   1.0006  -2.1974 H              1 S1                 0.0000
     30 ****        -3.5322   4.0455  -2.1778 H              1 S1                 0.0000
     31 ****        -3.7874   3.0736  -0.7518 H              1 S1                 0.0000
     32 ****        -2.1621   1.7255   0.0905 H              1 S1                 0.0000
     33 ****        -1.6439   0.7602  -1.2639 H              1 S1                 0.0000
     34 ****         0.6606   1.9059  -1.0876 H              1 S1                 0.0000
     35 ****         0.0517   2.8174   0.2723 H              1 S1                 0.0000
     36 ****         0.2947   0.9967   1.6289 H              1 S1                 0.0000
     37 ****         0.9309  -0.7687   2.2108 H              1 S1                 0.0000
     38 ****         0.3923  -3.2095  -0.5195 H              1 S1                 0.0000
     39 ****         1.1831  -5.5521  -0.3540 H              1 S1                 0.0000
     40 ****         2.5826  -6.2168   1.6162 H              1 S1                 0.0000
     41 ****         2.3131  -3.1363   5.3049 H              1 S1                 0.0000
     42 ****         3.8456  -3.5159   4.5067 H              1 S1                 0.0000
     43 ****         3.0725  -0.9273   5.8873 H              1 S1                 0.0000
     44 ****         4.5546  -1.8644   6.1105 H              1 S1                 0.0000
     45 ****         4.5914   0.2597   4.4153 H              1 S1                 0.0000
     46 ****         5.3582  -1.2482   3.9162 H              1 S1                 0.0000
     47 ****         3.8732  -1.1119   2.1071 H              1 S1                 0.0000
     48 ****         2.7155  -0.1418   3.0211 H              1 S1                 0.0000
     49 ****        -1.4072   3.7204  -3.5229 H              1 S1                 0.0000
     50 ****        -0.2607   2.5060  -3.0275 H              1 S1                 0.0000
     51 ****        -1.9462   0.6983  -3.5156 H              1 S1                 0.0000
     52 ****        -0.5247   1.4461  -5.4244 H              1 S1                 0.0000
     53 ****        -1.7256   2.6668  -5.8445 H              1 S1                 0.0000
     54 ****        -2.1271   0.9555  -5.9649 H              1 S1                 0.0000
     55 ****        -1.5069   3.6651  -1.2727 H              1 S1                 0.0000
     56 ****         0.4707  -0.1444  -1.6512 LP             1 S1                 0.0000
     57 ****         0.9584  -1.7320  -1.1597 LP             1 S1                 0.0000
     58 ****         3.1392  -4.6497   3.2560 LP             1 S1                 0.0000
     59 ****         1.6668  -1.9039   3.6399 LP             1 S1                 0.0000
     60 ****        -3.5821   2.9370  -4.3129 LP             1 S1                 0.0000
     61 ****        -3.9435   1.3566  -4.5085 LP             1 S1                 0.0000
@<TRIPOS>BOND
    1    1    2 1     
    2    1   26 1     
    3    1   27 1     
    4    1   28 1     
    5    2   25 1     
    6    2    3 1     
    7    2   29 1     
    8    3    4 1     
    9    3   30 1     
   10    3   31 1     
   11    4    5 1     
   12    4   22 1     
   13    4   55 1     
   14    5    6 1     
   15    5   32 1     
   16    5   33 1     
   17    6    7 1     
   18    6   34 1     
   19    6   35 1     
   20    7    8 am    
   21    7   36 1     
   22    8    9 2     
   23    8   10 am    
   24   10   11 1     
   25   10   37 1     
   26   11   16 ar    
   27   11   12 ar    
   28   12   13 ar    
   29   12   38 1     
   30   13   14 ar    
   31   13   39 1     
   32   14   15 ar    
   33   14   40 1     
   34   15   16 ar    
   35   16   17 1     
   36   17   21 1     
   37   17   18 1     
   38   18   19 1     
   39   18   41 1     
   40   18   42 1     
   41   19   20 1     
   42   19   43 1     
   43   19   44 1     
   44   20   21 1     
   45   20   45 1     
   46   20   46 1     
   47   21   47 1     
   48   21   48 1     
   49   22   23 1     
   50   22   49 1     
   51   22   50 1     
   52   23   24 1     
   53   23   25 1     
   54   23   51 1     
   55   24   52 1     
   56   24   53 1     
   57   24   54 1     
   58    9   56 1     
   59    9   57 1     
   60   15   58 1     
   61   17   59 1     
   62   25   60 1     
   63   25   61 1     
@<TRIPOS>SUBSTRUCTURE
      1 S1             1
@<TRIPOS>SET
LONE_PAIRS      STATIC     ATOMS    <user>   **** ""
6 56 57 58 59 60 61
DONOR_HYDROGENS      STATIC     ATOMS    <user>   **** ""
3 55 36 37
ATOM$BLUE        STATIC     ATOMS    COLORGROUP SYSTEM
6 56 57 58 59 60 61
ATOM$RED        STATIC     ATOMS    COLORGROUP SYSTEM
3 55 36 37
