AV-unprocessed.smi:2294|AV-procd|sdf|9216|dock10
  -GOLD-   2272012433D 1   1.00000     0.00000
 Structure written by MMmdl.
 34 35  0  0  0  0  0  0  0  0  1 V2000
  152.5283  143.9006  161.5888 C   0  0  0  0  0  0  0  0  0  0  0  0
  152.0931  143.2556  160.2849 C   0  0  0  0  0  0  0  0  0  0  0  0
  151.0552  143.9029  159.6085 N   0  0  0  0  0  0  0  0  0  0  0  0
  150.6191  143.4251  158.4892 C   0  0  0  0  0  0  0  0  0  0  0  0
  151.1632  142.2612  157.9202 N   0  0  0  0  0  0  0  0  0  0  0  0
  150.5740  141.8216  156.6435 C   0  0  0  0  0  0  0  0  0  0  0  0
  149.1254  141.3104  156.8093 C   0  0  2  0  0  0  0  0  0  0  0  0
  149.1523  140.0557  157.4618 O   0  0  0  0  0  0  0  0  0  0  0  0
  148.4258  141.2241  155.4583 C   0  0  0  0  0  0  0  0  0  0  0  0
  147.2816  142.0098  155.1911 C   0  0  0  0  0  0  0  0  0  0  0  0
  146.6309  141.9207  153.9454 C   0  0  0  0  0  0  0  0  0  0  0  0
  147.1161  141.0421  152.9586 C   0  0  0  0  0  0  0  0  0  0  0  0
  148.2500  140.2500  153.2204 C   0  0  0  0  0  0  0  0  0  0  0  0
  148.9024  140.3372  154.4659 C   0  0  0  0  0  0  0  0  0  0  0  0
  149.9860  139.5592  154.7033 F   0  0  0  0  0  0  0  0  0  0  0  0
  152.1751  141.5665  158.5162 C   0  0  0  0  0  0  0  0  0  0  0  0
  152.6449  140.5446  158.0128 O   0  0  0  0  0  0  0  0  0  0  0  0
  152.6608  142.1218  159.7902 C   0  0  0  0  0  0  0  0  0  0  0  0
  153.7922  141.3735  160.4846 C   0  0  0  0  0  0  0  0  0  0  0  0
  152.3841  143.2126  162.4221 H   0  0  0  0  0  0  0  0  0  0  0  0
  151.9528  144.8033  161.7967 H   0  0  0  0  0  0  0  0  0  0  0  0
  153.5811  144.1801  161.5446 H   0  0  0  0  0  0  0  0  0  0  0  0
  149.8072  143.8875  157.9245 H   0  0  0  0  0  0  0  0  0  0  0  0
  150.5743  142.6719  155.9579 H   0  0  0  0  0  0  0  0  0  0  0  0
  151.1905  141.0749  156.1391 H   0  0  0  0  0  0  0  0  0  0  0  0
  148.5590  141.9891  157.4479 H   0  0  0  0  0  0  0  0  0  0  0  0
  148.2836  139.8650  157.7816 H   0  0  0  0  0  0  0  0  0  0  0  0
  146.8951  142.6832  155.9422 H   0  0  0  0  0  0  0  0  0  0  0  0
  145.7581  142.5256  153.7482 H   0  0  0  0  0  0  0  0  0  0  0  0
  146.6169  140.9733  152.0033 H   0  0  0  0  0  0  0  0  0  0  0  0
  148.6195  139.5721  152.4652 H   0  0  0  0  0  0  0  0  0  0  0  0
  154.6665  141.3266  159.8348 H   0  0  0  0  0  0  0  0  0  0  0  0
  153.4845  140.3523  160.7120 H   0  0  0  0  0  0  0  0  0  0  0  0
  154.1042  141.8366  161.4192 H   0  0  0  0  0  0  0  0  0  0  0  0
  1  2  1  0  0  0  0
  1 20  1  0  0  0  0
  1 21  1  0  0  0  0
  1 22  1  0  0  0  0
  2 18  2  0  0  0  0
  2  3  1  0  0  0  0
  3  4  2  0  0  0  0
  4  5  1  0  0  0  0
  4 23  1  0  0  0  0
  5  6  1  0  0  0  0
  5 16  1  0  0  0  0
  6  7  1  0  0  0  0
  6 24  1  0  0  0  0
  6 25  1  0  0  0  0
  7  8  1  0  0  0  0
  7  9  1  0  0  0  0
  7 26  1  0  0  0  0
  8 27  1  0  0  0  0
  9 14  1  0  0  0  0
  9 10  2  0  0  0  0
 10 11  1  0  0  0  0
 10 28  1  0  0  0  0
 11 12  2  0  0  0  0
 11 29  1  0  0  0  0
 12 13  1  0  0  0  0
 12 30  1  0  0  0  0
 13 14  2  0  0  0  0
 13 31  1  0  0  0  0
 14 15  1  0  0  0  0
 16 17  2  0  0  0  0
 16 18  1  0  0  0  0
 18 19  1  0  0  0  0
 19 32  1  0  0  0  0
 19 33  1  0  0  0  0
 19 34  1  0  0  0  0
M  END
> <s_m_source_file>
AV-unprocessed.smi

> <i_m_source_file_index>
2294

> <i_lp_mmshare_version>
43012

> <i_f3d_flags>
0

> <s_epik_input>
W0NIM11jMW5bY0hdbihjKD1PKWMxW0NIM10pW0NIMl1bQ0BIXShbT0hdKWMyW2NIXVtjSF1bY0hdW2NIXWMyRg==

> <s_epik_cmdline>
J2VwaWtfcHl0aG9uJywgJy1waCcsICc3LjAnLCAnLXRuJywgJzgnLCAnLW1hJywgJzIwMCcsICctbWV0YWxfYmluZGluZycsICctaW1hZScsICc8aW5maWxlLm1hZT4nLCAnLW9tYWUnLCAnPG91dGZpbGUubWFlPic=

> <r_lp_tautomer_probability>
1

> <r_epik_Ionization_Penalty>
5.07259e-05

> <r_epik_Ionization_Penalty_Charging>
7.56727e-08

> <r_epik_Ionization_Penalty_Neutral>
5.06502e-05

> <r_epik_State_Penalty>
-0

> <r_epik_Charging_Adjusted_Penalty>
7.56727e-08

> <i_epik_Tot_Q>
0

> <i_epik_Tot_abs_Q>
0

> <r_epik_Metal_State_Penalty>
-0

> <b_epik_Metal_Only>
0

> <s_lp_Force_Field>
OPLS_2005

> <r_lp_Energy>
20.4384

> <b_lp_Chiralities_Consistent>
1

> <s_lp_Variant>
AV-unprocessed.smi:2294-1

> <Gold.Version>
5.8.1

> <Gold.Id.Protein>
6NUR|6NUR_protein|mol2

> <Gold.PLP.Fitness>
42.5017

> <Gold.PLP.PLP>
-37.9463

> <Gold.PLP.part.hbond>
-1.0000

> <Gold.PLP.part.metal>
0.0000

> <Gold.PLP.part.buried>
1.5823

> <Gold.PLP.part.nonpolar>
-37.1605

> <Gold.PLP.part.repulsive>
0.0752

> <Gold.PLP.ligand.clash>
0.0000

> <Gold.PLP.ligand.torsion>
0.1801

> <Gold.PLP.Chemscore.Hbond>
0.5834

> <Gold.PLP.Chemscore.CHOScore>
1.0526

> <Gold.PLP.Chemscore.Metal>
0.0000

> <Gold.Chemscore.Hbonds>
donor molecule, donor type, donor heavy atom, donor atom, acceptor molecule, acceptor atom, score
      P1  H  7997  8009       L1    17  0.47
      L1  C     4    23       P1  8028  0.93
      L1  C     4    23       P1  8029  0.05

> <Gold.PLP.Chemscore.Internal.Correction>
0.0076

> <Gold.Rescore>
     Score         DG    S(hbond)    S(metal)    S(lipo)     H(rot)  DE(clash)    DE(int)     intcor
     11.01     -14.19       0.87        0.00      93.68       2.02       1.56       1.61       ----

> <Gold.Chemscore.Fitness>
11.0124

> <Gold.Chemscore.DG>
-14.1855

> <Gold.Chemscore.ZeroCoef>
-5.4800

> <Gold.Chemscore.Hbond>
0.8716

> <Gold.Chemscore.Metal>
0.0000

> <Gold.Chemscore.Lipo>
93.6802

> <Gold.Chemscore.Internal_Hbond>
0.0000

> <Gold.Chemscore.DEClash>
1.5583

> <Gold.Chemscore.DEInternal>
1.6148

> <Gold.Chemscore.Rot>
2.0181

> <Gold.Chemscore.Internal.Correction>
   9.000000E+99

> <Gold.Chemscore.Hbonds>
donor molecule, donor type, donor heavy atom, donor atom, acceptor molecule, acceptor atom, score
      P1  H  7997  8009       L1    17  0.46

> <Gold.Chemscore.Hbond.Weighted>
-2.9113

> <Gold.Chemscore.Metal.Weighted>
-0.0000

> <Gold.Chemscore.Lipo.Weighted>
-10.9606

> <Gold.Chemscore.Internal_Hbond.Weighted>
0.0000

> <Gold.Chemscore.DEClash.Weighted>
1.5583

> <Gold.Chemscore.DEInternal.Weighted>
1.6148

> <Gold.Chemscore.Rot.Weighted>
5.1663

> <Gold.Chemscore.Internal.Correction.Weighted>
   9.000000E+99

> <Gold.Protein.RotatedTorsions>
[ 6907 6896 6895 6894 ] final  169.29 input  -60.11 | X-H torsion
[ 7974 7965 7964 7962 ] final   53.82 input  175.53 | X-H torsion
[ 8008 7997 7996 7995 ] final  167.59 input   59.86 | X-H torsion
[ 10167 10162 10161 10158 ] final  -54.72 input  -65.29 | X-H torsion
[ 10718 10713 10712 10709 ] final -125.09 input   66.30 | X-H torsion
[ 10763 10752 10751 10750 ] final  141.61 input  -60.55 | X-H torsion
[ 11005 11000 10999 10996 ] final  106.49 input  -57.11 | X-H torsion

> <Gold.Protein.ActiveResidues>
 VAL166  LYS551  ARG553  GLY616  TRP617  ASP618  TYR619  PRO620  LYS621  CYS622 
 ASP623  PHE694  ASN695  SER759  ASP760  ASP761  ALA762  ILE779  LEU786  VAL792 
 PHE793  MET794  SER795  GLU796  ALA797  LYS798  CYS799  TRP800  GLU811  SER814 

> <Gold.Protein.RotatedAtoms>
  151.8342  133.3413  159.3622 H   0  0  0  0  0  0  0  0  0  0  0  0  # atno 6907 bound_to 6896
  150.7255  134.5454  159.5777 H   0  0  0  0  0  0  0  0  0  0  0  0  # atno 6908 bound_to 6896
  152.2913  134.7718  160.0428 H   0  0  0  0  0  0  0  0  0  0  0  0  # atno 6909 bound_to 6896
  145.9672  139.4114  143.0212 H   0  0  0  0  0  0  0  0  0  0  0  0  # atno 7974 bound_to 7965
  156.1621  140.1613  156.8595 H   0  0  0  0  0  0  0  0  0  0  0  0  # atno 8008 bound_to 7997
  154.5171  140.0787  156.8137 H   0  0  0  0  0  0  0  0  0  0  0  0  # atno 8009 bound_to 7997
  155.3686  140.3399  155.4245 H   0  0  0  0  0  0  0  0  0  0  0  0  # atno 8010 bound_to 7997
  140.6415  143.2510  151.4977 H   0  0  0  0  0  0  0  0  0  0  0  0  # atno 10167 bound_to 10162
  156.1645  130.6625  151.0095 H   0  0  0  0  0  0  0  0  0  0  0  0  # atno 10718 bound_to 10713
  153.9421  135.2979  155.3442 H   0  0  0  0  0  0  0  0  0  0  0  0  # atno 10763 bound_to 10752
  154.7471  135.4997  153.9227 H   0  0  0  0  0  0  0  0  0  0  0  0  # atno 10764 bound_to 10752
  153.1037  135.6741  153.9732 H   0  0  0  0  0  0  0  0  0  0  0  0  # atno 10765 bound_to 10752
  139.8815  134.9371  156.5674 H   0  0  0  0  0  0  0  0  0  0  0  0  # atno 11005 bound_to 11000
  145.7957  140.9794  143.1025 LP  0  0  0  0  0  0  0  0  0  0  0  0  # atno 17320 bound_to 7965
  144.6828  139.9738  143.7482 LP  0  0  0  0  0  0  0  0  0  0  0  0  # atno 17321 bound_to 7965
  139.5624  144.2124  152.1712 LP  0  0  0  0  0  0  0  0  0  0  0  0  # atno 17342 bound_to 10162
  140.1396  144.5214  150.6752 LP  0  0  0  0  0  0  0  0  0  0  0  0  # atno 17343 bound_to 10162
  157.6757  131.0851  150.7499 LP  0  0  0  0  0  0  0  0  0  0  0  0  # atno 17370 bound_to 10713
  156.7561  130.4784  149.5446 LP  0  0  0  0  0  0  0  0  0  0  0  0  # atno 17371 bound_to 10713
  140.8124  133.8419  155.8822 LP  0  0  0  0  0  0  0  0  0  0  0  0  # atno 17394 bound_to 11000
  140.9494  134.1798  157.4739 LP  0  0  0  0  0  0  0  0  0  0  0  0  # atno 17395 bound_to 11000

$$$$
