AV-unprocessed.smi:2595|AV-procd|sdf|10168|dock2
  -GOLD-   2272014183D 1   1.00000     0.00000
 Structure written by MMmdl.
 31 32  0  0  0  0  0  0  0  0  1 V2000
  146.4745  131.0466  152.2586 C   0  0  0  0  0  0  0  0  0  0  0  0
  147.6076  131.6720  152.9552 C   0  0  0  0  0  0  0  0  0  0  0  0
  148.5398  132.1991  153.5420 C   0  0  0  0  0  0  0  0  0  0  0  0
  149.6491  132.8503  154.2594 C   0  0  0  0  0  0  0  0  0  0  0  0
  149.7292  134.2831  153.9961 N   0  0  0  0  0  0  0  0  0  0  0  0
  150.2068  135.2024  154.8482 C   0  0  0  0  0  0  0  0  0  0  0  0
  150.6356  134.9312  155.9694 O   0  0  0  0  0  0  0  0  0  0  0  0
  150.1376  136.4359  154.3199 N   0  0  0  0  0  0  0  0  0  0  0  0
  150.5477  137.6665  154.8986 C   0  0  0  0  0  0  0  0  0  0  0  0
  150.4425  138.9353  154.2768 C   0  0  0  0  0  0  0  0  0  0  0  0
  150.8388  140.0657  154.9009 N   0  0  0  0  0  0  0  0  0  0  0  0
  151.3419  139.9349  156.1314 C   0  0  0  0  0  0  0  0  0  0  0  0
  151.7447  141.1963  156.8300 C   0  0  0  0  0  0  0  0  0  0  0  0
  151.3246  141.4577  158.2621 C   0  0  0  0  0  0  0  0  0  0  0  0
  150.7224  142.2682  157.1482 C   0  0  0  0  0  0  0  0  0  0  0  0
  151.4678  138.7991  156.8233 N   0  0  0  0  0  0  0  0  0  0  0  0
  151.0717  137.6643  156.2083 C   0  0  0  0  0  0  0  0  0  0  0  0
  146.0858  130.2207  152.8543 H   0  0  0  0  0  0  0  0  0  0  0  0
  146.8007  130.6671  151.2904 H   0  0  0  0  0  0  0  0  0  0  0  0
  145.6836  131.7814  152.1072 H   0  0  0  0  0  0  0  0  0  0  0  0
  149.4952  132.6964  155.3274 H   0  0  0  0  0  0  0  0  0  0  0  0
  150.5804  132.3481  153.9933 H   0  0  0  0  0  0  0  0  0  0  0  0
  149.3957  134.5976  153.0967 H   0  0  0  0  0  0  0  0  0  0  0  0
  149.6955  136.5083  153.4151 H   0  0  0  0  0  0  0  0  0  0  0  0
  150.0246  139.0714  153.2917 H   0  0  0  0  0  0  0  0  0  0  0  0
  152.7388  141.5172  156.5248 H   0  0  0  0  0  0  0  0  0  0  0  0
  150.6857  140.7217  158.7468 H   0  0  0  0  0  0  0  0  0  0  0  0
  152.0445  141.9505  158.9121 H   0  0  0  0  0  0  0  0  0  0  0  0
  151.0377  143.3051  157.0523 H   0  0  0  0  0  0  0  0  0  0  0  0
  149.6830  142.0717  156.8926 H   0  0  0  0  0  0  0  0  0  0  0  0
  151.1762  136.7465  156.7682 H   0  0  0  0  0  0  0  0  0  0  0  0
  1  2  1  0  0  0  0
  1 18  1  0  0  0  0
  1 19  1  0  0  0  0
  1 20  1  0  0  0  0
  2  3  3  0  0  0  0
  3  4  1  0  0  0  0
  4  5  1  0  0  0  0
  4 21  1  0  0  0  0
  4 22  1  0  0  0  0
  5  6  1  0  0  0  0
  5 23  1  0  0  0  0
  6  7  2  0  0  0  0
  6  8  1  0  0  0  0
  8  9  1  0  0  0  0
  8 24  1  0  0  0  0
  9 17  1  0  0  0  0
  9 10  2  0  0  0  0
 10 11  1  0  0  0  0
 10 25  1  0  0  0  0
 11 12  2  0  0  0  0
 12 13  1  0  0  0  0
 12 16  1  0  0  0  0
 13 15  1  0  0  0  0
 13 14  1  0  0  0  0
 13 26  1  0  0  0  0
 14 15  1  0  0  0  0
 14 27  1  0  0  0  0
 14 28  1  0  0  0  0
 15 29  1  0  0  0  0
 15 30  1  0  0  0  0
 16 17  2  0  0  0  0
 17 31  1  0  0  0  0
M  END
> <s_m_source_file>
AV-unprocessed.smi

> <i_m_source_file_index>
2595

> <i_lp_mmshare_version>
43012

> <i_f3d_flags>
0

> <s_epik_input>
W0NIM11DI0NbQ0gyXVtOSF1DKD1PKVtOSF1jMVtjSF1uYyhuW2NIXTEpW0NIXTJbQ0gyXVtDSDJdMg==

> <s_epik_cmdline>
J2VwaWtfcHl0aG9uJywgJy1waCcsICc3LjAnLCAnLXRuJywgJzgnLCAnLW1hJywgJzIwMCcsICctbWV0YWxfYmluZGluZycsICctaW1hZScsICc8aW5maWxlLm1hZT4nLCAnLW9tYWUnLCAnPG91dGZpbGUubWFlPic=

> <r_lp_tautomer_probability>
1

> <r_epik_Ionization_Penalty>
2.31413e-05

> <r_epik_Ionization_Penalty_Charging>
0

> <r_epik_Ionization_Penalty_Neutral>
2.31413e-05

> <r_epik_State_Penalty>
-0

> <r_epik_Charging_Adjusted_Penalty>
0

> <i_epik_Tot_Q>
0

> <i_epik_Tot_abs_Q>
0

> <r_epik_Metal_State_Penalty>
-0

> <b_epik_Metal_Only>
0

> <s_lp_Force_Field>
OPLS_2005

> <r_lp_Energy>
1.44064

> <b_lp_Chiralities_Consistent>
1

> <s_lp_Variant>
AV-unprocessed.smi:2595-1

> <Gold.Version>
5.8.1

> <Gold.Id.Protein>
6NUR|6NUR_protein|mol2

> <Gold.PLP.Fitness>
37.7603

> <Gold.PLP.PLP>
-28.1110

> <Gold.PLP.part.hbond>
-3.6516

> <Gold.PLP.part.metal>
0.0000

> <Gold.PLP.part.buried>
-4.4558

> <Gold.PLP.part.nonpolar>
-21.2564

> <Gold.PLP.part.repulsive>
0.1650

> <Gold.PLP.ligand.clash>
0.0000

> <Gold.PLP.ligand.torsion>
0.3675

> <Gold.PLP.Chemscore.Hbond>
2.4212

> <Gold.PLP.Chemscore.CHOScore>
1.0000

> <Gold.PLP.Chemscore.Metal>
0.0000

> <Gold.Chemscore.Hbonds>
donor molecule, donor type, donor heavy atom, donor atom, acceptor molecule, acceptor atom, score
      L1  H     5    23       P1  7948  0.19
      L1  H     8    24       P1  7948  1.00
      P1  H  7989  7998       L1    11  0.90
      L1  C    10    25       P1  7957  1.00

> <Gold.PLP.Chemscore.Internal.Correction>
0.1207

> <Gold.Rescore>
     Score         DG    S(hbond)    S(metal)    S(lipo)     H(rot)  DE(clash)    DE(int)     intcor
     12.59     -14.73       1.63        0.00      58.84       1.20       0.30       1.83       ----

> <Gold.Chemscore.Fitness>
12.5918

> <Gold.Chemscore.DG>
-14.7256

> <Gold.Chemscore.ZeroCoef>
-5.4800

> <Gold.Chemscore.Hbond>
1.6267

> <Gold.Chemscore.Metal>
0.0000

> <Gold.Chemscore.Lipo>
58.8423

> <Gold.Chemscore.Internal_Hbond>
0.0000

> <Gold.Chemscore.DEClash>
0.2994

> <Gold.Chemscore.DEInternal>
1.8344

> <Gold.Chemscore.Rot>
1.2001

> <Gold.Chemscore.Internal.Correction>
   9.000000E+99

> <Gold.Chemscore.Hbonds>
donor molecule, donor type, donor heavy atom, donor atom, acceptor molecule, acceptor atom, score
      L1  H     8    24       P1  7948  0.40
      P1  H  7989  7998       L1    11  0.18

> <Gold.Chemscore.Hbond.Weighted>
-5.4333

> <Gold.Chemscore.Metal.Weighted>
-0.0000

> <Gold.Chemscore.Lipo.Weighted>
-6.8845

> <Gold.Chemscore.Internal_Hbond.Weighted>
0.0000

> <Gold.Chemscore.DEClash.Weighted>
0.2994

> <Gold.Chemscore.DEInternal.Weighted>
1.8344

> <Gold.Chemscore.Rot.Weighted>
3.0723

> <Gold.Chemscore.Internal.Correction.Weighted>
   9.000000E+99

> <Gold.Protein.RotatedTorsions>
[ 6907 6896 6895 6894 ] final   57.70 input  -60.11 | X-H torsion
[ 7974 7965 7964 7962 ] final  -45.96 input  175.53 | X-H torsion
[ 8008 7997 7996 7995 ] final  156.20 input   59.86 | X-H torsion
[ 10167 10162 10161 10158 ] final -106.37 input  -65.29 | X-H torsion
[ 10718 10713 10712 10709 ] final -144.87 input   66.30 | X-H torsion
[ 10763 10752 10751 10750 ] final   78.66 input  -60.55 | X-H torsion
[ 11005 11000 10999 10996 ] final   24.70 input  -57.11 | X-H torsion

> <Gold.Protein.ActiveResidues>
 VAL166  LYS551  ARG553  GLY616  TRP617  ASP618  TYR619  PRO620  LYS621  CYS622 
 ASP623  PHE694  ASN695  SER759  ASP760  ASP761  ALA762  ILE779  LEU786  VAL792 
 PHE793  MET794  SER795  GLU796  ALA797  LYS798  CYS799  TRP800  GLU811  SER814 

> <Gold.Protein.RotatedAtoms>
  152.3756  134.6669  160.0160 H   0  0  0  0  0  0  0  0  0  0  0  0  # atno 6907 bound_to 6896
  151.6948  133.3305  159.3260 H   0  0  0  0  0  0  0  0  0  0  0  0  # atno 6908 bound_to 6896
  150.7707  134.6602  159.6380 H   0  0  0  0  0  0  0  0  0  0  0  0  # atno 6909 bound_to 6896
  145.9767  140.7326  142.9383 H   0  0  0  0  0  0  0  0  0  0  0  0  # atno 7974 bound_to 7965
  156.2436  140.1919  156.6919 H   0  0  0  0  0  0  0  0  0  0  0  0  # atno 8008 bound_to 7997
  154.6245  140.0604  156.9683 H   0  0  0  0  0  0  0  0  0  0  0  0  # atno 8009 bound_to 7997
  155.1808  140.3276  155.4378 H   0  0  0  0  0  0  0  0  0  0  0  0  # atno 8010 bound_to 7997
  140.1885  143.3910  152.1225 H   0  0  0  0  0  0  0  0  0  0  0  0  # atno 10167 bound_to 10162
  156.3754  130.7810  151.1995 H   0  0  0  0  0  0  0  0  0  0  0  0  # atno 10718 bound_to 10713
  153.0892  135.4868  154.8656 H   0  0  0  0  0  0  0  0  0  0  0  0  # atno 10763 bound_to 10752
  154.7248  135.3047  154.8991 H   0  0  0  0  0  0  0  0  0  0  0  0  # atno 10764 bound_to 10752
  153.9644  135.6808  153.4799 H   0  0  0  0  0  0  0  0  0  0  0  0  # atno 10765 bound_to 10752
  140.3558  134.2179  155.7676 H   0  0  0  0  0  0  0  0  0  0  0  0  # atno 11005 bound_to 11000
  144.6851  140.2840  143.7288 LP  0  0  0  0  0  0  0  0  0  0  0  0  # atno 17320 bound_to 7965
  145.7828  139.1897  143.2148 LP  0  0  0  0  0  0  0  0  0  0  0  0  # atno 17321 bound_to 7965
  139.5266  144.7109  151.5208 LP  0  0  0  0  0  0  0  0  0  0  0  0  # atno 17342 bound_to 10162
  140.6472  143.8771  150.6749 LP  0  0  0  0  0  0  0  0  0  0  0  0  # atno 17343 bound_to 10162
  157.7488  131.0360  150.4388 LP  0  0  0  0  0  0  0  0  0  0  0  0  # atno 17370 bound_to 10713
  156.4622  130.4034  149.6569 LP  0  0  0  0  0  0  0  0  0  0  0  0  # atno 17371 bound_to 10713
  141.1999  133.8001  157.0516 LP  0  0  0  0  0  0  0  0  0  0  0  0  # atno 17394 bound_to 11000
  140.0666  134.9725  157.1396 LP  0  0  0  0  0  0  0  0  0  0  0  0  # atno 17395 bound_to 11000

$$$$
