AV-unprocessed.smi:3205|AV-procd|sdf|12255|dock5
  -GOLD-   2272018 93D 1   1.00000     0.00000
 Structure written by MMmdl.
 38 39  0  0  0  0  0  0  0  0  2 V2000
  148.6215  141.3257  154.5420 C   0  0  0  0  0  0  0  0  0  0  0  0
  150.0282  141.3311  155.1723 C   0  0  1  0  0  0  0  0  0  0  0  0
  150.0112  142.1188  156.4262 N   0  3  0  0  0  0  0  0  0  0  0  0
  151.3315  142.3762  157.0409 C   0  0  0  0  0  0  0  0  0  0  0  0
  151.3765  143.7602  157.7074 C   0  0  0  0  0  0  0  0  0  0  0  0
  151.8207  143.6867  159.0881 N   0  0  0  0  0  0  0  0  0  0  0  0
  151.8214  144.6822  160.0424 C   0  0  0  0  0  0  0  0  0  0  0  0
  152.3429  144.1481  161.1856 C   0  0  0  0  0  0  0  0  0  0  0  0
  152.6344  142.8019  160.8287 C   0  0  0  0  0  0  0  0  0  0  0  0
  152.3227  142.5295  159.5717 N   0  0  0  0  0  0  0  0  0  0  0  0
  150.5670  139.9051  155.4619 C   0  0  0  0  0  0  0  0  0  0  0  0
  152.1089  139.8823  155.5573 C   0  0  0  0  0  0  0  0  0  0  0  0
  152.6368  138.4554  155.7740 C   0  0  0  0  0  0  0  0  0  0  0  0
  152.1934  137.6119  154.7192 O   0  0  0  0  0  0  0  0  0  0  0  0
  150.7773  137.4961  154.6693 C   0  0  0  0  0  0  0  0  0  0  0  0
  150.1440  138.8705  154.3978 C   0  0  0  0  0  0  0  0  0  0  0  0
  148.6186  140.8463  153.5636 H   0  0  0  0  0  0  0  0  0  0  0  0
  148.2457  142.3365  154.3860 H   0  0  0  0  0  0  0  0  0  0  0  0
  147.9050  140.8008  155.1747 H   0  0  0  0  0  0  0  0  0  0  0  0
  150.7170  141.8121  154.4762 H   0  0  0  0  0  0  0  0  0  0  0  0
  149.5348  142.9948  156.2665 H   0  0  0  0  0  0  0  0  0  0  0  0
  151.5540  141.6064  157.7813 H   0  0  0  0  0  0  0  0  0  0  0  0
  152.1045  142.3162  156.2751 H   0  0  0  0  0  0  0  0  0  0  0  0
  152.0639  144.4096  157.1639 H   0  0  0  0  0  0  0  0  0  0  0  0
  150.3978  144.2413  157.6703 H   0  0  0  0  0  0  0  0  0  0  0  0
  151.4567  145.6769  159.8313 H   0  0  0  0  0  0  0  0  0  0  0  0
  152.4925  144.6433  162.1336 H   0  0  0  0  0  0  0  0  0  0  0  0
  153.0612  142.0209  161.4404 H   0  0  0  0  0  0  0  0  0  0  0  0
  150.1653  139.5768  156.4221 H   0  0  0  0  0  0  0  0  0  0  0  0
  152.5426  140.2899  154.6432 H   0  0  0  0  0  0  0  0  0  0  0  0
  152.4587  140.5141  156.3740 H   0  0  0  0  0  0  0  0  0  0  0  0
  153.7268  138.4582  155.7863 H   0  0  0  0  0  0  0  0  0  0  0  0
  152.3090  138.0595  156.7366 H   0  0  0  0  0  0  0  0  0  0  0  0
  150.5108  136.7987  153.8750 H   0  0  0  0  0  0  0  0  0  0  0  0
  150.4026  137.0727  155.6024 H   0  0  0  0  0  0  0  0  0  0  0  0
  149.0611  138.7518  154.3798 H   0  0  0  0  0  0  0  0  0  0  0  0
  150.4391  139.2158  153.4061 H   0  0  0  0  0  0  0  0  0  0  0  0
  149.4782  141.5895  157.1023 H   0  0  0  0  0  0  0  0  0  0  0  0
  1  2  1  0  0  0  0
  1 17  1  0  0  0  0
  1 18  1  0  0  0  0
  1 19  1  0  0  0  0
  2  3  1  0  0  0  0
  2 11  1  0  0  0  0
  2 20  1  0  0  0  0
  3  4  1  0  0  0  0
  3 21  1  0  0  0  0
  3 38  1  0  0  0  0
  4  5  1  0  0  0  0
  4 22  1  0  0  0  0
  4 23  1  0  0  0  0
  5  6  1  0  0  0  0
  5 24  1  0  0  0  0
  5 25  1  0  0  0  0
  6 10  1  0  0  0  0
  6  7  1  0  0  0  0
  7  8  2  0  0  0  0
  7 26  1  0  0  0  0
  8  9  1  0  0  0  0
  8 27  1  0  0  0  0
  9 10  2  0  0  0  0
  9 28  1  0  0  0  0
 11 16  1  0  0  0  0
 11 12  1  0  0  0  0
 11 29  1  0  0  0  0
 12 13  1  0  0  0  0
 12 30  1  0  0  0  0
 12 31  1  0  0  0  0
 13 14  1  0  0  0  0
 13 32  1  0  0  0  0
 13 33  1  0  0  0  0
 14 15  1  0  0  0  0
 15 16  1  0  0  0  0
 15 34  1  0  0  0  0
 15 35  1  0  0  0  0
 16 36  1  0  0  0  0
 16 37  1  0  0  0  0
M  CHG  1   3   1
M  END
> <s_m_source_file>
AV-unprocessed.smi

> <i_m_source_file_index>
3205

> <i_lp_mmshare_version>
43012

> <i_f3d_flags>
0

> <s_epik_input>
W0NIMl0xW0NIMl1PW0NIMl1bQ0gyXVtDSF0xW0NASF0oW0NIM10pW05IXVtDSDJdW0NIMl1uMltjSF1bY0hdW2NIXW4y

> <s_epik_cmdline>
J2VwaWtfcHl0aG9uJywgJy1waCcsICc3LjAnLCAnLXRuJywgJzgnLCAnLW1hJywgJzIwMCcsICctbWV0YWxfYmluZGluZycsICctaW1hZScsICc8aW5maWxlLm1hZT4nLCAnLW9tYWUnLCAnPG91dGZpbGUubWFlPic=

> <r_lp_tautomer_probability>
1

> <r_epik_Ionization_Penalty>
0.00310903

> <r_epik_Ionization_Penalty_Charging>
0.00310601

> <r_epik_Ionization_Penalty_Neutral>
3.02836e-06

> <r_epik_State_Penalty>
-0

> <r_epik_Charging_Adjusted_Penalty>
0.00310601

> <i_epik_Tot_Q>
1

> <i_epik_Tot_abs_Q>
1

> <r_epik_Metal_State_Penalty>
-0

> <b_epik_Metal_Only>
0

> <s_lp_Force_Field>
OPLS_2005

> <r_lp_Energy>
14.7607

> <b_lp_Chiralities_Consistent>
1

> <s_lp_Variant>
AV-unprocessed.smi:3205-2

> <Gold.Version>
5.8.1

> <Gold.Id.Protein>
6NUR|6NUR_protein|mol2

> <Gold.PLP.Fitness>
47.0270

> <Gold.PLP.PLP>
-41.5239

> <Gold.PLP.part.hbond>
-2.0000

> <Gold.PLP.part.metal>
0.0000

> <Gold.PLP.part.buried>
-4.4132

> <Gold.PLP.part.nonpolar>
-35.3762

> <Gold.PLP.part.repulsive>
0.1554

> <Gold.PLP.ligand.clash>
0.0000

> <Gold.PLP.ligand.torsion>
1.1501

> <Gold.PLP.Chemscore.Hbond>
2.5860

> <Gold.PLP.Chemscore.CHOScore>
0.0000

> <Gold.PLP.Chemscore.Metal>
0.0000

> <Gold.Chemscore.Hbonds>
donor molecule, donor type, donor heavy atom, donor atom, acceptor molecule, acceptor atom, score
      L1  H     3    21       P1  8028  2.00
      P1  H 10752 10765       L1    14  0.59

> <Gold.PLP.Chemscore.Internal.Correction>
0.0452

> <Gold.Rescore>
     Score         DG    S(hbond)    S(metal)    S(lipo)     H(rot)  DE(clash)    DE(int)     intcor
     17.96     -19.48       1.79        0.00     104.81       1.66       0.18       1.34       ----

> <Gold.Chemscore.Fitness>
17.9650

> <Gold.Chemscore.DG>
-19.4826

> <Gold.Chemscore.ZeroCoef>
-5.4800

> <Gold.Chemscore.Hbond>
1.7928

> <Gold.Chemscore.Metal>
0.0000

> <Gold.Chemscore.Lipo>
104.8097

> <Gold.Chemscore.Internal_Hbond>
0.0000

> <Gold.Chemscore.DEClash>
0.1775

> <Gold.Chemscore.DEInternal>
1.3402

> <Gold.Chemscore.Rot>
1.6594

> <Gold.Chemscore.Internal.Correction>
   9.000000E+99

> <Gold.Chemscore.Hbonds>
donor molecule, donor type, donor heavy atom, donor atom, acceptor molecule, acceptor atom, score
      L1  H     3    21       P1  8028  0.99
      P1  H 10752 10765       L1    14  0.32

> <Gold.Chemscore.Hbond.Weighted>
-5.9881

> <Gold.Chemscore.Metal.Weighted>
-0.0000

> <Gold.Chemscore.Lipo.Weighted>
-12.2627

> <Gold.Chemscore.Internal_Hbond.Weighted>
0.0000

> <Gold.Chemscore.DEClash.Weighted>
0.1775

> <Gold.Chemscore.DEInternal.Weighted>
1.3402

> <Gold.Chemscore.Rot.Weighted>
4.2482

> <Gold.Chemscore.Internal.Correction.Weighted>
   9.000000E+99

> <Gold.Protein.RotatedTorsions>
[ 6907 6896 6895 6894 ] final  -56.88 input  -60.11 | X-H torsion
[ 7974 7965 7964 7962 ] final  109.29 input  175.53 | X-H torsion
[ 8008 7997 7996 7995 ] final  -87.80 input   59.86 | X-H torsion
[ 10167 10162 10161 10158 ] final   36.95 input  -65.29 | X-H torsion
[ 10718 10713 10712 10709 ] final   84.53 input   66.30 | X-H torsion
[ 10763 10752 10751 10750 ] final  169.35 input  -60.55 | X-H torsion
[ 11005 11000 10999 10996 ] final  109.52 input  -57.11 | X-H torsion

> <Gold.Protein.ActiveResidues>
 VAL166  LYS551  ARG553  GLY616  TRP617  ASP618  TYR619  PRO620  LYS621  CYS622 
 ASP623  PHE694  ASN695  SER759  ASP760  ASP761  ALA762  ILE779  LEU786  VAL792 
 PHE793  MET794  SER795  GLU796  ALA797  LYS798  CYS799  TRP800  GLU811  SER814 

> <Gold.Protein.RotatedAtoms>
  150.8131  134.7297  159.6705 H   0  0  0  0  0  0  0  0  0  0  0  0  # atno 6907 bound_to 6896
  152.4250  134.5881  159.9976 H   0  0  0  0  0  0  0  0  0  0  0  0  # atno 6908 bound_to 6896
  151.6085  133.3312  159.3098 H   0  0  0  0  0  0  0  0  0  0  0  0  # atno 6909 bound_to 6896
  145.2697  139.2671  143.3973 H   0  0  0  0  0  0  0  0  0  0  0  0  # atno 7974 bound_to 7965
  154.6674  140.0561  157.0128 H   0  0  0  0  0  0  0  0  0  0  0  0  # atno 8008 bound_to 7997
  155.1139  140.3241  155.4496 H   0  0  0  0  0  0  0  0  0  0  0  0  # atno 8009 bound_to 7997
  156.2643  140.2009  156.6263 H   0  0  0  0  0  0  0  0  0  0  0  0  # atno 8010 bound_to 7997
  140.4079  144.1633  150.6137 H   0  0  0  0  0  0  0  0  0  0  0  0  # atno 10167 bound_to 10162
  157.6899  131.0137  150.2687 H   0  0  0  0  0  0  0  0  0  0  0  0  # atno 10718 bound_to 10713
  154.3819  135.2753  155.2206 H   0  0  0  0  0  0  0  0  0  0  0  0  # atno 10763 bound_to 10752
  154.4309  135.5977  153.6072 H   0  0  0  0  0  0  0  0  0  0  0  0  # atno 10764 bound_to 10752
  152.9834  135.5995  154.4063 H   0  0  0  0  0  0  0  0  0  0  0  0  # atno 10765 bound_to 10752
  139.8863  134.9460  156.6138 H   0  0  0  0  0  0  0  0  0  0  0  0  # atno 11005 bound_to 11000
  146.3250  140.3136  142.8628 LP  0  0  0  0  0  0  0  0  0  0  0  0  # atno 17320 bound_to 7965
  144.9346  140.8012  143.5668 LP  0  0  0  0  0  0  0  0  0  0  0  0  # atno 17321 bound_to 7965
  140.4669  143.2427  151.9142 LP  0  0  0  0  0  0  0  0  0  0  0  0  # atno 17342 bound_to 10162
  139.4783  144.5410  151.8529 LP  0  0  0  0  0  0  0  0  0  0  0  0  # atno 17343 bound_to 10162
  156.3253  130.3792  149.7538 LP  0  0  0  0  0  0  0  0  0  0  0  0  # atno 17370 bound_to 10713
  156.5095  130.8165  151.3163 LP  0  0  0  0  0  0  0  0  0  0  0  0  # atno 17371 bound_to 10713
  140.7791  133.8675  155.8553 LP  0  0  0  0  0  0  0  0  0  0  0  0  # atno 17394 bound_to 11000
  140.9776  134.1448  157.4523 LP  0  0  0  0  0  0  0  0  0  0  0  0  # atno 17395 bound_to 11000

$$$$
