AV-unprocessed.smi:2790|AV-procd|sdf|10767|dock10
  -GOLD-   2272015203D 1   1.00000     0.00000
 Structure written by MMmdl.
 47 48  0  0  0  0  0  0  0  0  3 V2000
  147.8913  139.0249  154.1811 C   0  0  0  0  0  0  0  0  0  0  0  0
  147.5242  140.2197  154.9769 N   0  3  0  0  0  0  0  0  0  0  0  0
  146.0784  140.5171  154.8816 C   0  0  0  0  0  0  0  0  0  0  0  0
  148.3646  141.4059  154.6697 C   0  0  0  0  0  0  0  0  0  0  0  0
  149.7898  141.2936  155.2206 C   0  0  0  0  0  0  0  0  0  0  0  0
  150.5014  140.3346  154.9206 O   0  0  0  0  0  0  0  0  0  0  0  0
  150.1867  142.2819  156.0367 N   0  0  0  0  0  0  0  0  0  0  0  0
  151.4980  142.3817  156.6782 C   0  0  0  0  0  0  0  0  0  0  0  0
  151.4566  142.1084  158.2125 C   0  0  0  0  0  0  0  0  0  0  0  0
  151.3411  140.5836  158.4429 C   0  0  0  0  0  0  0  0  0  0  0  0
  150.2013  139.8848  157.9693 C   0  0  0  0  0  0  0  0  0  0  0  0
  150.0867  138.4951  158.1729 C   0  0  0  0  0  0  0  0  0  0  0  0
  151.0609  137.8298  158.8260 N   0  3  0  0  0  0  0  0  0  0  0  0
  152.1614  138.4427  159.3083 C   0  0  0  0  0  0  0  0  0  0  0  0
  152.3286  139.8318  159.1341 C   0  0  0  0  0  0  0  0  0  0  0  0
  152.7729  142.6136  158.8741 C   0  0  0  0  0  0  0  0  0  0  0  0
  152.9404  144.1447  158.8700 C   0  0  0  0  0  0  0  0  0  0  0  0
  151.7461  144.8430  159.5290 C   0  0  0  0  0  0  0  0  0  0  0  0
  150.4328  144.4159  158.8655 C   0  0  0  0  0  0  0  0  0  0  0  0
  150.2767  142.8844  158.8799 C   0  0  0  0  0  0  0  0  0  0  0  0
  147.7203  139.1964  153.1176 H   0  0  0  0  0  0  0  0  0  0  0  0
  147.2960  138.1638  154.4869 H   0  0  0  0  0  0  0  0  0  0  0  0
  148.9406  138.7627  154.3190 H   0  0  0  0  0  0  0  0  0  0  0  0
  145.8044  140.8058  153.8658 H   0  0  0  0  0  0  0  0  0  0  0  0
  145.8059  141.3307  155.5547 H   0  0  0  0  0  0  0  0  0  0  0  0
  145.4855  139.6459  155.1621 H   0  0  0  0  0  0  0  0  0  0  0  0
  148.3843  141.5811  153.5925 H   0  0  0  0  0  0  0  0  0  0  0  0
  147.9230  142.2941  155.1242 H   0  0  0  0  0  0  0  0  0  0  0  0
  149.5286  143.0211  156.2378 H   0  0  0  0  0  0  0  0  0  0  0  0
  152.1368  141.6451  156.1905 H   0  0  0  0  0  0  0  0  0  0  0  0
  151.9609  143.3417  156.4515 H   0  0  0  0  0  0  0  0  0  0  0  0
  149.4092  140.4030  157.4500 H   0  0  0  0  0  0  0  0  0  0  0  0
  149.2499  137.9008  157.8354 H   0  0  0  0  0  0  0  0  0  0  0  0
  152.8722  137.8078  159.8168 H   0  0  0  0  0  0  0  0  0  0  0  0
  153.2193  140.2867  159.5382 H   0  0  0  0  0  0  0  0  0  0  0  0
  152.8023  142.2731  159.9105 H   0  0  0  0  0  0  0  0  0  0  0  0
  153.6456  142.1735  158.3920 H   0  0  0  0  0  0  0  0  0  0  0  0
  153.8560  144.4137  159.3976 H   0  0  0  0  0  0  0  0  0  0  0  0
  153.0645  144.5086  157.8500 H   0  0  0  0  0  0  0  0  0  0  0  0
  151.7177  144.5947  160.5907 H   0  0  0  0  0  0  0  0  0  0  0  0
  151.8634  145.9252  159.4665 H   0  0  0  0  0  0  0  0  0  0  0  0
  149.5942  144.8737  159.3908 H   0  0  0  0  0  0  0  0  0  0  0  0
  150.3905  144.7972  157.8458 H   0  0  0  0  0  0  0  0  0  0  0  0
  149.3244  142.6218  158.4190 H   0  0  0  0  0  0  0  0  0  0  0  0
  150.1992  142.5876  159.9270 H   0  0  0  0  0  0  0  0  0  0  0  0
  147.7017  139.9916  155.9454 H   0  0  0  0  0  0  0  0  0  0  0  0
  150.9608  136.8232  158.9616 H   0  0  0  0  0  0  0  0  0  0  0  0
  1  2  1  0  0  0  0
  1 21  1  0  0  0  0
  1 22  1  0  0  0  0
  1 23  1  0  0  0  0
  2  3  1  0  0  0  0
  2  4  1  0  0  0  0
  2 46  1  0  0  0  0
  3 24  1  0  0  0  0
  3 25  1  0  0  0  0
  3 26  1  0  0  0  0
  4  5  1  0  0  0  0
  4 27  1  0  0  0  0
  4 28  1  0  0  0  0
  5  6  2  0  0  0  0
  5  7  1  0  0  0  0
  7  8  1  0  0  0  0
  7 29  1  0  0  0  0
  8  9  1  0  0  0  0
  8 30  1  0  0  0  0
  8 31  1  0  0  0  0
  9 20  1  0  0  0  0
  9 10  1  0  0  0  0
  9 16  1  0  0  0  0
 10 15  1  0  0  0  0
 10 11  2  0  0  0  0
 11 12  1  0  0  0  0
 11 32  1  0  0  0  0
 12 13  2  0  0  0  0
 12 33  1  0  0  0  0
 13 14  1  0  0  0  0
 13 47  1  0  0  0  0
 14 15  2  0  0  0  0
 14 34  1  0  0  0  0
 15 35  1  0  0  0  0
 16 17  1  0  0  0  0
 16 36  1  0  0  0  0
 16 37  1  0  0  0  0
 17 18  1  0  0  0  0
 17 38  1  0  0  0  0
 17 39  1  0  0  0  0
 18 19  1  0  0  0  0
 18 40  1  0  0  0  0
 18 41  1  0  0  0  0
 19 20  1  0  0  0  0
 19 42  1  0  0  0  0
 19 43  1  0  0  0  0
 20 44  1  0  0  0  0
 20 45  1  0  0  0  0
M  CHG  1   2   1
M  CHG  1  13   1
M  END
> <s_m_source_file>
AV-unprocessed.smi

> <i_m_source_file_index>
2790

> <i_lp_mmshare_version>
43012

> <i_f3d_flags>
0

> <s_epik_input>
W0NIM11OKFtDSDNdKVtDSDJdQyg9TylbTkhdW0NIMl1DMShbQ0gyXVtDSDJdW0NIMl1bQ0gyXVtDSDJdMSljMltjSF1bY0hdbltjSF1bY0hdMg==

> <s_epik_cmdline>
J2VwaWtfcHl0aG9uJywgJy1waCcsICc3LjAnLCAnLXRuJywgJzgnLCAnLW1hJywgJzIwMCcsICctbWV0YWxfYmluZGluZycsICctaW1hZScsICc8aW5maWxlLm1hZT4nLCAnLW9tYWUnLCAnPG91dGZpbGUubWFlPic=

> <r_epik_Ionization_Penalty>
1.49613

> <r_epik_Ionization_Penalty_Charging>
1.4961

> <r_epik_Ionization_Penalty_Neutral>
2.84587e-05

> <r_epik_State_Penalty>
1.54102

> <r_epik_Charging_Adjusted_Penalty>
3.03712

> <i_epik_Tot_Q>
2

> <i_epik_Tot_abs_Q>
2

> <r_epik_Metal_State_Penalty>
1.62888

> <b_epik_Metal_Only>
0

> <s_lp_Force_Field>
OPLS_2005

> <r_lp_Energy>
33.1663

> <b_lp_Chiralities_Consistent>
1

> <s_lp_Variant>
AV-unprocessed.smi:2790-2

> <Gold.Version>
5.8.1

> <Gold.Id.Protein>
6NUR|6NUR_protein|mol2

> <Gold.PLP.Fitness>
39.7242

> <Gold.PLP.PLP>
-34.6049

> <Gold.PLP.part.hbond>
-2.0000

> <Gold.PLP.part.metal>
0.0000

> <Gold.PLP.part.buried>
-6.3391

> <Gold.PLP.part.nonpolar>
-27.0579

> <Gold.PLP.part.repulsive>
0.3397

> <Gold.PLP.ligand.clash>
0.0000

> <Gold.PLP.ligand.torsion>
0.4010

> <Gold.PLP.Chemscore.Hbond>
1.9600

> <Gold.PLP.Chemscore.CHOScore>
0.0000

> <Gold.PLP.Chemscore.Metal>
0.0000

> <Gold.Chemscore.Hbonds>
donor molecule, donor type, donor heavy atom, donor atom, acceptor molecule, acceptor atom, score
      L1  H     7    29       P1  8028  0.88
      P1  H  7989  7998       L1     6  1.00

> <Gold.PLP.Chemscore.Internal.Correction>
0.0413

> <Gold.Rescore>
     Score         DG    S(hbond)    S(metal)    S(lipo)     H(rot)  DE(clash)    DE(int)     intcor
     17.01     -19.38       1.67        0.00     109.01       1.73       1.24       1.13       ----

> <Gold.Chemscore.Fitness>
17.0121

> <Gold.Chemscore.DG>
-19.3760

> <Gold.Chemscore.ZeroCoef>
-5.4800

> <Gold.Chemscore.Hbond>
1.6707

> <Gold.Chemscore.Metal>
0.0000

> <Gold.Chemscore.Lipo>
109.0121

> <Gold.Chemscore.Internal_Hbond>
0.0000

> <Gold.Chemscore.DEClash>
1.2373

> <Gold.Chemscore.DEInternal>
1.1266

> <Gold.Chemscore.Rot>
1.7339

> <Gold.Chemscore.Internal.Correction>
   9.000000E+99

> <Gold.Chemscore.Hbonds>
donor molecule, donor type, donor heavy atom, donor atom, acceptor molecule, acceptor atom, score
      L1  H     7    29       P1  8028  0.86
      P1  H  7989  7998       L1     6  0.59

> <Gold.Chemscore.Hbond.Weighted>
-5.5803

> <Gold.Chemscore.Metal.Weighted>
-0.0000

> <Gold.Chemscore.Lipo.Weighted>
-12.7544

> <Gold.Chemscore.Internal_Hbond.Weighted>
0.0000

> <Gold.Chemscore.DEClash.Weighted>
1.2373

> <Gold.Chemscore.DEInternal.Weighted>
1.1266

> <Gold.Chemscore.Rot.Weighted>
4.4387

> <Gold.Chemscore.Internal.Correction.Weighted>
   9.000000E+99

> <Gold.Protein.RotatedTorsions>
[ 6907 6896 6895 6894 ] final   -4.40 input  -60.11 | X-H torsion
[ 7974 7965 7964 7962 ] final   97.90 input  175.53 | X-H torsion
[ 8008 7997 7996 7995 ] final   96.09 input   59.86 | X-H torsion
[ 10167 10162 10161 10158 ] final   12.14 input  -65.29 | X-H torsion
[ 10718 10713 10712 10709 ] final  101.27 input   66.30 | X-H torsion
[ 10763 10752 10751 10750 ] final  105.21 input  -60.55 | X-H torsion
[ 11005 11000 10999 10996 ] final  179.08 input  -57.11 | X-H torsion

> <Gold.Protein.ActiveResidues>
 VAL166  LYS551  ARG553  GLY616  TRP617  ASP618  TYR619  PRO620  LYS621  CYS622 
 ASP623  PHE694  ASN695  SER759  ASP760  ASP761  ALA762  ILE779  LEU786  VAL792 
 PHE793  MET794  SER795  GLU796  ALA797  LYS798  CYS799  TRP800  GLU811  SER814 

> <Gold.Protein.RotatedAtoms>
  151.4982  135.1060  159.9821 H   0  0  0  0  0  0  0  0  0  0  0  0  # atno 6907 bound_to 6896
  152.4713  133.8031  159.6974 H   0  0  0  0  0  0  0  0  0  0  0  0  # atno 6908 bound_to 6896
  150.8723  133.7425  159.2983 H   0  0  0  0  0  0  0  0  0  0  0  0  # atno 6909 bound_to 6896
  145.4193  139.2323  143.3205 H   0  0  0  0  0  0  0  0  0  0  0  0  # atno 7974 bound_to 7965
  156.0759  140.3277  155.7633 H   0  0  0  0  0  0  0  0  0  0  0  0  # atno 8008 bound_to 7997
  155.5231  140.0587  157.2920 H   0  0  0  0  0  0  0  0  0  0  0  0  # atno 8009 bound_to 7997
  154.4555  140.1940  156.0409 H   0  0  0  0  0  0  0  0  0  0  0  0  # atno 8010 bound_to 7997
  140.6087  143.8454  150.7041 H   0  0  0  0  0  0  0  0  0  0  0  0  # atno 10167 bound_to 10162
  157.6833  131.0721  150.5227 H   0  0  0  0  0  0  0  0  0  0  0  0  # atno 10718 bound_to 10713
  153.3764  135.3917  155.1825 H   0  0  0  0  0  0  0  0  0  0  0  0  # atno 10763 bound_to 10752
  154.8701  135.3715  154.4913 H   0  0  0  0  0  0  0  0  0  0  0  0  # atno 10764 bound_to 10752
  153.5385  135.7085  153.5709 H   0  0  0  0  0  0  0  0  0  0  0  0  # atno 10765 bound_to 10752
  140.4022  134.6767  157.4568 H   0  0  0  0  0  0  0  0  0  0  0  0  # atno 11005 bound_to 11000
  146.2665  140.4915  142.8832 LP  0  0  0  0  0  0  0  0  0  0  0  0  # atno 17320 bound_to 7965
  144.8256  140.6623  143.6324 LP  0  0  0  0  0  0  0  0  0  0  0  0  # atno 17321 bound_to 7965
  140.2017  143.3954  152.1786 LP  0  0  0  0  0  0  0  0  0  0  0  0  # atno 17342 bound_to 10162
  139.5344  144.7194  151.4943 LP  0  0  0  0  0  0  0  0  0  0  0  0  # atno 17343 bound_to 10162
  156.5539  130.4238  149.6094 LP  0  0  0  0  0  0  0  0  0  0  0  0  # atno 17370 bound_to 10713
  156.2878  130.7107  151.1948 LP  0  0  0  0  0  0  0  0  0  0  0  0  # atno 17371 bound_to 10713
  140.0328  134.6381  155.9083 LP  0  0  0  0  0  0  0  0  0  0  0  0  # atno 17394 bound_to 11000
  141.1852  133.6554  156.5190 LP  0  0  0  0  0  0  0  0  0  0  0  0  # atno 17395 bound_to 11000

$$$$
