#       Name:                AV-unprocessed.smi:2445
#       Creating user name   scv26
#       Creation time:       Fri Mar 27 13:27:06 2020


#       File generated by GOLD software.
#

@<TRIPOS>MOLECULE
AV-unprocessed.smi:2445
    45    46     1
SMALL
NO_CHARGES


@<TRIPOS>ATOM
      1 ****        -3.6305  -0.9140   2.5687 C.3            1 S1                 0.0000
      2 ****        -3.0813   0.2049   1.7511 C.2            1 S1                 0.0000
      3 ****        -2.5078   1.3694   2.1978 C.2            1 S1                 0.0000
      4 ****        -2.0835   2.2182   1.1736 N.2            1 S1                 0.0000
      5 ****        -2.3253   1.7157  -0.0405 C.2            1 S1                 0.0000
      6 ****        -1.9245   2.3918  -1.3170 C.3            1 S1                 0.0000
      7 ****        -2.5967   3.7635  -1.4752 C.3            1 S1                 0.0000
      8 ****        -0.3950   2.4414  -1.5263 C.3            1 S1                 0.0000
      9 ****         0.2133   1.1129  -1.4705 N.am           1 S1                 0.0000
     10 ****         0.8329   0.5833  -0.4057 C.2            1 S1                 0.0000
     11 ****         1.0235   1.1815   0.6530 O.2            1 S1                 0.0000
     12 ****         1.2005  -0.6861  -0.6278 N.am           1 S1                 0.0000
     13 ****         1.8335  -1.5661   0.3550 C.3            1 S1                 0.0000
     14 ****         1.3093  -2.9941   0.2117 C.3            1 S1                 0.0000
     15 ****         2.5699  -3.8514   0.1712 C.3            1 S1                 0.0000
     16 ****         3.5279  -2.9931  -0.4222 O.3            1 S1                 0.0000
     17 ****         3.3612  -1.7116   0.1670 C.3            1 S1                 0.0000
     18 ****         4.0795  -0.6450  -0.6751 C.3            1 S1                 0.0000
     19 ****        -3.1118   0.1417   0.0088 S.3            1 S1                 0.0000
     20 ****        -3.4694  -0.7388   3.6327 H              1 S1                 0.0000
     21 ****        -3.1491  -1.8564   2.3065 H              1 S1                 0.0000
     22 ****        -4.7025  -1.0233   2.4033 H              1 S1                 0.0000
     23 ****        -2.3579   1.6731   3.2234 H              1 S1                 0.0000
     24 ****        -2.3219   1.7713  -2.1214 H              1 S1                 0.0000
     25 ****        -3.6822   3.6776  -1.4158 H              1 S1                 0.0000
     26 ****        -2.3531   4.2120  -2.4386 H              1 S1                 0.0000
     27 ****        -2.2739   4.4549  -0.6962 H              1 S1                 0.0000
     28 ****        -0.1702   2.8709  -2.5028 H              1 S1                 0.0000
     29 ****         0.0634   3.1056  -0.7916 H              1 S1                 0.0000
     30 ****         0.1168   0.5377  -2.2944 H              1 S1                 0.0000
     31 ****         1.0051  -1.0862  -1.5337 H              1 S1                 0.0000
     32 ****         1.6316  -1.2091   1.3666 H              1 S1                 0.0000
     33 ****         0.6413  -3.2806   1.0246 H              1 S1                 0.0000
     34 ****         0.7614  -3.1178  -0.7239 H              1 S1                 0.0000
     35 ****         2.8928  -4.1184   1.1788 H              1 S1                 0.0000
     36 ****         2.4382  -4.7686  -0.4029 H              1 S1                 0.0000
     37 ****         3.8271  -1.7462   1.1536 H              1 S1                 0.0000
     38 ****         3.9503   0.3480  -0.2444 H              1 S1                 0.0000
     39 ****         3.7073  -0.6227  -1.6996 H              1 S1                 0.0000
     40 ****         5.1497  -0.8476  -0.7201 H              1 S1                 0.0000
     41 ****        -1.6470   3.1040   1.3313 LP             1 S1                 0.0000
     42 ****         0.7082   2.1247   0.7581 LP             1 S1                 0.0000
     43 ****         1.4937   0.7244   1.4079 LP             1 S1                 0.0000
     44 ****         3.3759  -2.9394  -1.4092 LP             1 S1                 0.0000
     45 ****         4.4509  -3.3347  -0.2453 LP             1 S1                 0.0000
@<TRIPOS>BOND
    1    1    2 1     
    2    1   20 1     
    3    1   21 1     
    4    1   22 1     
    5    2   19 1     
    6    2    3 2     
    7    3    4 1     
    8    3   23 1     
    9    4    5 2     
   10    5    6 1     
   11    5   19 1     
   12    6    7 1     
   13    6    8 1     
   14    6   24 1     
   15    7   25 1     
   16    7   26 1     
   17    7   27 1     
   18    8    9 1     
   19    8   28 1     
   20    8   29 1     
   21    9   10 am    
   22    9   30 1     
   23   10   11 2     
   24   10   12 am    
   25   12   13 1     
   26   12   31 1     
   27   13   17 1     
   28   13   14 1     
   29   13   32 1     
   30   14   15 1     
   31   14   33 1     
   32   14   34 1     
   33   15   16 1     
   34   15   35 1     
   35   15   36 1     
   36   16   17 1     
   37   17   18 1     
   38   17   37 1     
   39   18   38 1     
   40   18   39 1     
   41   18   40 1     
   42    4   41 1     
   43   11   42 1     
   44   11   43 1     
   45   16   44 1     
   46   16   45 1     
@<TRIPOS>SUBSTRUCTURE
      1 S1             1
@<TRIPOS>SET
LONE_PAIRS      STATIC     ATOMS    <user>   **** ""
5 41 42 43 44 45
DONOR_HYDROGENS      STATIC     ATOMS    <user>   **** ""
2 30 31
ATOM$BLUE        STATIC     ATOMS    COLORGROUP SYSTEM
5 41 42 43 44 45
ATOM$RED        STATIC     ATOMS    COLORGROUP SYSTEM
2 30 31
