AV-unprocessed.smi:3309|AV-procd|sdf|12716|dock4
  -GOLD-   2272019 53D 1   1.00000     0.00000
 Structure written by MMmdl.
 41 42  0  0  0  0  0  0  0  0  2 V2000
  150.7362  140.6644  157.2067 O   0  0  0  0  0  0  0  0  0  0  0  0
  150.2967  141.6908  156.6879 C   0  0  0  0  0  0  0  0  0  0  0  0
  149.7676  141.6734  155.2504 C   0  0  0  0  0  0  0  0  0  0  0  0
  148.2648  141.3549  155.1630 C   0  0  0  0  0  0  0  0  0  0  0  0
  147.5408  142.4154  154.4352 N   0  3  0  0  0  0  0  0  0  0  0  0
  146.0860  142.1890  154.3357 C   0  0  0  0  0  0  0  0  0  0  0  0
  145.4064  143.3138  153.5412 C   0  0  0  0  0  0  0  0  0  0  0  0
  144.5041  144.0904  154.3692 N   0  0  0  0  0  0  0  0  0  0  0  0
  143.7314  145.1763  154.0146 C   0  0  0  0  0  0  0  0  0  0  0  0
  143.0429  145.5653  155.1278 C   0  0  0  0  0  0  0  0  0  0  0  0
  143.4633  144.6422  156.1258 C   0  0  0  0  0  0  0  0  0  0  0  0
  144.3370  143.7596  155.6679 N   0  0  0  0  0  0  0  0  0  0  0  0
  150.2549  142.8740  157.3191 N   0  0  0  0  0  0  0  0  0  0  0  0
  150.7119  143.1153  158.6857 C   0  0  0  0  0  0  0  0  0  0  0  0
  150.4931  144.5878  159.0840 C   0  0  0  0  0  0  0  0  0  0  0  0
  151.8120  145.0629  159.6963 C   0  0  0  0  0  0  0  0  0  0  0  0
  152.8769  144.2258  158.9953 C   0  0  0  0  0  0  0  0  0  0  0  0
  152.2245  142.8528  158.8311 C   0  0  0  0  0  0  0  0  0  0  0  0
  149.9626  142.6433  154.7894 H   0  0  0  0  0  0  0  0  0  0  0  0
  150.3387  140.9358  154.6850 H   0  0  0  0  0  0  0  0  0  0  0  0
  148.1070  140.4056  154.6486 H   0  0  0  0  0  0  0  0  0  0  0  0
  147.8419  141.2554  156.1641 H   0  0  0  0  0  0  0  0  0  0  0  0
  147.6977  143.2948  154.9064 H   0  0  0  0  0  0  0  0  0  0  0  0
  145.9077  141.2271  153.8529 H   0  0  0  0  0  0  0  0  0  0  0  0
  145.6617  142.1308  155.3391 H   0  0  0  0  0  0  0  0  0  0  0  0
  146.1540  143.9855  153.1173 H   0  0  0  0  0  0  0  0  0  0  0  0
  144.8386  142.9026  152.7049 H   0  0  0  0  0  0  0  0  0  0  0  0
  143.7346  145.5783  153.0120 H   0  0  0  0  0  0  0  0  0  0  0  0
  142.3436  146.3837  155.2160 H   0  0  0  0  0  0  0  0  0  0  0  0
  143.1613  144.5871  157.1613 H   0  0  0  0  0  0  0  0  0  0  0  0
  149.8830  143.6685  156.8190 H   0  0  0  0  0  0  0  0  0  0  0  0
  150.1639  142.4696  159.3745 H   0  0  0  0  0  0  0  0  0  0  0  0
  150.2722  145.1965  158.2057 H   0  0  0  0  0  0  0  0  0  0  0  0
  149.6579  144.7076  159.7750 H   0  0  0  0  0  0  0  0  0  0  0  0
  151.9706  146.1345  159.5724 H   0  0  0  0  0  0  0  0  0  0  0  0
  151.8207  144.8462  160.7656 H   0  0  0  0  0  0  0  0  0  0  0  0
  153.0919  144.6512  158.0141 H   0  0  0  0  0  0  0  0  0  0  0  0
  153.8129  144.1820  159.5530 H   0  0  0  0  0  0  0  0  0  0  0  0
  152.3998  142.2632  159.7320 H   0  0  0  0  0  0  0  0  0  0  0  0
  152.6537  142.2952  157.9973 H   0  0  0  0  0  0  0  0  0  0  0  0
  147.9190  142.4763  153.5005 H   0  0  0  0  0  0  0  0  0  0  0  0
  1  2  2  0  0  0  0
  2  3  1  0  0  0  0
  2 13  1  0  0  0  0
  3  4  1  0  0  0  0
  3 19  1  0  0  0  0
  3 20  1  0  0  0  0
  4  5  1  0  0  0  0
  4 21  1  0  0  0  0
  4 22  1  0  0  0  0
  5  6  1  0  0  0  0
  5 23  1  0  0  0  0
  5 41  1  0  0  0  0
  6  7  1  0  0  0  0
  6 24  1  0  0  0  0
  6 25  1  0  0  0  0
  7  8  1  0  0  0  0
  7 26  1  0  0  0  0
  7 27  1  0  0  0  0
  8 12  1  0  0  0  0
  8  9  1  0  0  0  0
  9 10  2  0  0  0  0
  9 28  1  0  0  0  0
 10 11  1  0  0  0  0
 10 29  1  0  0  0  0
 11 12  2  0  0  0  0
 11 30  1  0  0  0  0
 13 14  1  0  0  0  0
 13 31  1  0  0  0  0
 14 18  1  0  0  0  0
 14 15  1  0  0  0  0
 14 32  1  0  0  0  0
 15 16  1  0  0  0  0
 15 33  1  0  0  0  0
 15 34  1  0  0  0  0
 16 17  1  0  0  0  0
 16 35  1  0  0  0  0
 16 36  1  0  0  0  0
 17 18  1  0  0  0  0
 17 37  1  0  0  0  0
 17 38  1  0  0  0  0
 18 39  1  0  0  0  0
 18 40  1  0  0  0  0
M  CHG  1   5   1
M  END
> <s_m_source_file>
AV-unprocessed.smi

> <i_m_source_file_index>
3309

> <i_lp_mmshare_version>
43012

> <i_f3d_flags>
0

> <s_epik_input>
W0NIMl0xW0NIMl1bQ0gyXVtDSDJdW0NIXTFbTkhdQyg9TylbQ0gyXVtDSDJdW05IXVtDSDJdW0NIMl1uMltjSF1bY0hdW2NIXW4y

> <s_epik_cmdline>
J2VwaWtfcHl0aG9uJywgJy1waCcsICc3LjAnLCAnLXRuJywgJzgnLCAnLW1hJywgJzIwMCcsICctbWV0YWxfYmluZGluZycsICctaW1hZScsICc8aW5maWxlLm1hZT4nLCAnLW9tYWUnLCAnPG91dGZpbGUubWFlPic=

> <r_lp_tautomer_probability>
1

> <r_epik_Ionization_Penalty>
0.00584123

> <r_epik_Ionization_Penalty_Charging>
0.00583842

> <r_epik_Ionization_Penalty_Neutral>
2.81118e-06

> <r_epik_State_Penalty>
-0

> <r_epik_Charging_Adjusted_Penalty>
0.00583842

> <i_epik_Tot_Q>
1

> <i_epik_Tot_abs_Q>
1

> <r_epik_Metal_State_Penalty>
-0

> <b_epik_Metal_Only>
0

> <s_lp_Force_Field>
OPLS_2005

> <r_lp_Energy>
18.8454

> <b_lp_Chiralities_Consistent>
1

> <s_lp_Variant>
AV-unprocessed.smi:3309-1

> <Gold.Version>
5.8.1

> <Gold.Id.Protein>
6NUR|6NUR_protein|mol2

> <Gold.PLP.Fitness>
48.8072

> <Gold.PLP.PLP>
-41.9533

> <Gold.PLP.part.hbond>
-2.0000

> <Gold.PLP.part.metal>
0.0000

> <Gold.PLP.part.buried>
-7.2069

> <Gold.PLP.part.nonpolar>
-33.6763

> <Gold.PLP.part.repulsive>
0.3301

> <Gold.PLP.ligand.clash>
0.0000

> <Gold.PLP.ligand.torsion>
1.1184

> <Gold.PLP.Chemscore.Hbond>
3.0000

> <Gold.PLP.Chemscore.CHOScore>
0.0000

> <Gold.PLP.Chemscore.Metal>
0.0000

> <Gold.Chemscore.Hbonds>
donor molecule, donor type, donor heavy atom, donor atom, acceptor molecule, acceptor atom, score
      L1  H     5    23       P1  8028  2.00
      L1  H    13    31       P1  8028  1.00

> <Gold.PLP.Chemscore.Internal.Correction>
0.0907

> <Gold.Rescore>
     Score         DG    S(hbond)    S(metal)    S(lipo)     H(rot)  DE(clash)    DE(int)     intcor
     16.48     -17.85       1.72        0.00     106.11       2.27       0.21       1.16       ----

> <Gold.Chemscore.Fitness>
16.4806

> <Gold.Chemscore.DG>
-17.8513

> <Gold.Chemscore.ZeroCoef>
-5.4800

> <Gold.Chemscore.Hbond>
1.7236

> <Gold.Chemscore.Metal>
0.0000

> <Gold.Chemscore.Lipo>
106.1113

> <Gold.Chemscore.Internal_Hbond>
0.0000

> <Gold.Chemscore.DEClash>
0.2120

> <Gold.Chemscore.DEInternal>
1.1586

> <Gold.Chemscore.Rot>
2.2658

> <Gold.Chemscore.Internal.Correction>
   9.000000E+99

> <Gold.Chemscore.Hbonds>
donor molecule, donor type, donor heavy atom, donor atom, acceptor molecule, acceptor atom, score
      L1  H     5    23       P1  8028  0.48
      L1  H    13    31       P1  8028  0.99

> <Gold.Chemscore.Hbond.Weighted>
-5.7567

> <Gold.Chemscore.Metal.Weighted>
-0.0000

> <Gold.Chemscore.Lipo.Weighted>
-12.4150

> <Gold.Chemscore.Internal_Hbond.Weighted>
0.0000

> <Gold.Chemscore.DEClash.Weighted>
0.2120

> <Gold.Chemscore.DEInternal.Weighted>
1.1586

> <Gold.Chemscore.Rot.Weighted>
5.8005

> <Gold.Chemscore.Internal.Correction.Weighted>
   9.000000E+99

> <Gold.Protein.RotatedTorsions>
[ 6907 6896 6895 6894 ] final    0.56 input  -60.11 | X-H torsion
[ 7974 7965 7964 7962 ] final  -92.35 input  175.53 | X-H torsion
[ 8008 7997 7996 7995 ] final -166.92 input   59.86 | X-H torsion
[ 10167 10162 10161 10158 ] final   75.87 input  -65.29 | X-H torsion
[ 10718 10713 10712 10709 ] final  147.24 input   66.30 | X-H torsion
[ 10763 10752 10751 10750 ] final  116.77 input  -60.55 | X-H torsion
[ 11005 11000 10999 10996 ] final   45.54 input  -57.11 | X-H torsion

> <Gold.Protein.ActiveResidues>
 VAL166  LYS551  ARG553  GLY616  TRP617  ASP618  TYR619  PRO620  LYS621  CYS622 
 ASP623  PHE694  ASN695  SER759  ASP760  ASP761  ALA762  ILE779  LEU786  VAL792 
 PHE793  MET794  SER795  GLU796  ALA797  LYS798  CYS799  TRP800  GLU811  SER814 

> <Gold.Protein.RotatedAtoms>
  151.5785  135.1059  160.0011 H   0  0  0  0  0  0  0  0  0  0  0  0  # atno 6907 bound_to 6896
  152.4366  133.7367  159.6629 H   0  0  0  0  0  0  0  0  0  0  0  0  # atno 6908 bound_to 6896
  150.8264  133.8094  159.3140 H   0  0  0  0  0  0  0  0  0  0  0  0  # atno 6909 bound_to 6896
  145.4010  140.9537  143.2287 H   0  0  0  0  0  0  0  0  0  0  0  0  # atno 7974 bound_to 7965
  155.8705  140.0992  157.1553 H   0  0  0  0  0  0  0  0  0  0  0  0  # atno 8008 bound_to 7997
  154.3997  140.1348  156.4136 H   0  0  0  0  0  0  0  0  0  0  0  0  # atno 8009 bound_to 7997
  155.7755  140.3460  155.5272 H   0  0  0  0  0  0  0  0  0  0  0  0  # atno 8010 bound_to 7997
  139.9984  144.5705  150.7758 H   0  0  0  0  0  0  0  0  0  0  0  0  # atno 10167 bound_to 10162
  157.3234  131.0908  151.1221 H   0  0  0  0  0  0  0  0  0  0  0  0  # atno 10718 bound_to 10713
  153.5422  135.3556  155.2723 H   0  0  0  0  0  0  0  0  0  0  0  0  # atno 10763 bound_to 10752
  154.8716  135.4094  154.3031 H   0  0  0  0  0  0  0  0  0  0  0  0  # atno 10764 bound_to 10752
  153.3740  135.7065  153.6684 H   0  0  0  0  0  0  0  0  0  0  0  0  # atno 10765 bound_to 10752
  140.1451  134.4533  155.8421 H   0  0  0  0  0  0  0  0  0  0  0  0  # atno 11005 bound_to 11000
  144.8374  139.5528  143.6916 LP  0  0  0  0  0  0  0  0  0  0  0  0  # atno 17320 bound_to 7965
  146.2752  139.6734  142.9268 LP  0  0  0  0  0  0  0  0  0  0  0  0  # atno 17321 bound_to 7965
  140.7428  143.2837  151.3523 LP  0  0  0  0  0  0  0  0  0  0  0  0  # atno 17342 bound_to 10162
  139.6290  144.0759  152.2459 LP  0  0  0  0  0  0  0  0  0  0  0  0  # atno 17343 bound_to 10162
  157.2498  130.6608  149.5926 LP  0  0  0  0  0  0  0  0  0  0  0  0  # atno 17370 bound_to 10713
  155.9688  130.4542  150.5841 LP  0  0  0  0  0  0  0  0  0  0  0  0  # atno 17371 bound_to 10713
  141.2191  133.6849  156.7318 LP  0  0  0  0  0  0  0  0  0  0  0  0  # atno 17394 bound_to 11000
  140.2674  134.8419  157.3815 LP  0  0  0  0  0  0  0  0  0  0  0  0  # atno 17395 bound_to 11000

$$$$
