AV-unprocessed.smi:3171|AV-procd|sdf|12111|dock10
  -GOLD-   2272017553D 1   1.00000     0.00000
 Structure written by MMmdl.
 33 34  0  0  0  0  0  0  0  0  1 V2000
  154.0227  140.7034  160.7780 C   0  0  0  0  0  0  0  0  0  0  0  0
  153.0575  141.3043  159.7715 C   0  0  0  0  0  0  0  0  0  0  0  0
  152.8048  140.5321  158.6923 N   0  0  0  0  0  0  0  0  0  0  0  0
  151.9633  140.9492  157.7453 N   0  0  0  0  0  0  0  0  0  0  0  0
  151.3439  142.1507  157.8414 C   0  0  0  0  0  0  0  0  0  0  0  0
  150.4606  142.5151  156.8075 N   0  0  0  0  0  0  0  0  0  0  0  0
  150.3444  141.7029  155.6016 C   0  0  0  0  0  0  0  0  0  0  0  0
  148.9634  141.8407  154.9407 C   0  0  2  0  0  0  0  0  0  0  0  0
  147.8637  141.0687  155.6643 C   0  0  0  0  0  0  0  0  0  0  0  0
  146.8111  140.8701  154.5866 C   0  0  0  0  0  0  0  0  0  0  0  0
  147.5808  141.0676  153.2769 C   0  0  0  0  0  0  0  0  0  0  0  0
  148.9399  141.2364  153.6572 O   0  0  0  0  0  0  0  0  0  0  0  0
  151.5610  143.0112  158.9493 C   0  0  0  0  0  0  0  0  0  0  0  0
  150.8819  144.3012  159.0533 C   0  0  0  0  0  0  0  0  0  0  0  0
  150.3444  145.3226  159.1359 N   0  0  0  0  0  0  0  0  0  0  0  0
  152.4610  142.5752  159.9545 C   0  0  0  0  0  0  0  0  0  0  0  0
  152.7623  143.4322  161.1817 C   0  0  0  0  0  0  0  0  0  0  0  0
  153.5649  140.6583  161.7665 H   0  0  0  0  0  0  0  0  0  0  0  0
  154.9309  141.3030  160.8398 H   0  0  0  0  0  0  0  0  0  0  0  0
  154.3103  139.6887  160.4994 H   0  0  0  0  0  0  0  0  0  0  0  0
  150.2113  143.4904  156.7276 H   0  0  0  0  0  0  0  0  0  0  0  0
  151.1427  141.9213  154.8917 H   0  0  0  0  0  0  0  0  0  0  0  0
  150.4892  140.6658  155.9045 H   0  0  0  0  0  0  0  0  0  0  0  0
  148.6795  142.8915  154.8531 H   0  0  0  0  0  0  0  0  0  0  0  0
  148.2398  140.0978  155.9903 H   0  0  0  0  0  0  0  0  0  0  0  0
  147.4824  141.5939  156.5404 H   0  0  0  0  0  0  0  0  0  0  0  0
  146.3570  139.8807  154.6522 H   0  0  0  0  0  0  0  0  0  0  0  0
  146.0163  141.6117  154.6744 H   0  0  0  0  0  0  0  0  0  0  0  0
  147.4736  140.2213  152.5979 H   0  0  0  0  0  0  0  0  0  0  0  0
  147.2362  141.9642  152.7601 H   0  0  0  0  0  0  0  0  0  0  0  0
  152.9896  144.4583  160.8903 H   0  0  0  0  0  0  0  0  0  0  0  0
  153.6166  143.0734  161.7532 H   0  0  0  0  0  0  0  0  0  0  0  0
  151.8985  143.4493  161.8467 H   0  0  0  0  0  0  0  0  0  0  0  0
  1  2  1  0  0  0  0
  1 18  1  0  0  0  0
  1 19  1  0  0  0  0
  1 20  1  0  0  0  0
  2 16  1  0  0  0  0
  2  3  2  0  0  0  0
  3  4  1  0  0  0  0
  4  5  2  0  0  0  0
  5  6  1  0  0  0  0
  5 13  1  0  0  0  0
  6  7  1  0  0  0  0
  6 21  1  0  0  0  0
  7  8  1  0  0  0  0
  7 22  1  0  0  0  0
  7 23  1  0  0  0  0
  8 12  1  0  0  0  0
  8  9  1  0  0  0  0
  8 24  1  0  0  0  0
  9 10  1  0  0  0  0
  9 25  1  0  0  0  0
  9 26  1  0  0  0  0
 10 11  1  0  0  0  0
 10 27  1  0  0  0  0
 10 28  1  0  0  0  0
 11 12  1  0  0  0  0
 11 29  1  0  0  0  0
 11 30  1  0  0  0  0
 13 14  1  0  0  0  0
 13 16  2  0  0  0  0
 14 15  3  0  0  0  0
 16 17  1  0  0  0  0
 17 31  1  0  0  0  0
 17 32  1  0  0  0  0
 17 33  1  0  0  0  0
M  END
> <s_m_source_file>
AV-unprocessed.smi

> <i_m_source_file_index>
3171

> <i_lp_mmshare_version>
43012

> <i_f3d_flags>
0

> <s_epik_input>
W0NIM11jMW5uYyhjKEMjTiljMVtDSDNdKVtOSF1bQ0gyXVtDQEBIXTJbQ0gyXVtDSDJdW0NIMl1PMg==

> <s_epik_cmdline>
J2VwaWtfcHl0aG9uJywgJy1waCcsICc3LjAnLCAnLXRuJywgJzgnLCAnLW1hJywgJzIwMCcsICctbWV0YWxfYmluZGluZycsICctaW1hZScsICc8aW5maWxlLm1hZT4nLCAnLW9tYWUnLCAnPG91dGZpbGUubWFlPic=

> <r_lp_tautomer_probability>
1

> <r_epik_Ionization_Penalty>
0.00108228

> <r_epik_Ionization_Penalty_Charging>
0

> <r_epik_Ionization_Penalty_Neutral>
0.00108228

> <r_epik_State_Penalty>
-0

> <r_epik_Charging_Adjusted_Penalty>
0

> <i_epik_Tot_Q>
0

> <i_epik_Tot_abs_Q>
0

> <r_epik_Metal_State_Penalty>
-0

> <b_epik_Metal_Only>
0

> <s_lp_Force_Field>
OPLS_2005

> <r_lp_Energy>
28.7028

> <b_lp_Chiralities_Consistent>
1

> <s_lp_Variant>
AV-unprocessed.smi:3171-1

> <Gold.Version>
5.8.1

> <Gold.Id.Protein>
6NUR|6NUR_protein|mol2

> <Gold.PLP.Fitness>
35.2594

> <Gold.PLP.PLP>
-31.3516

> <Gold.PLP.part.hbond>
-2.4730

> <Gold.PLP.part.metal>
0.0000

> <Gold.PLP.part.buried>
-3.6326

> <Gold.PLP.part.nonpolar>
-25.8755

> <Gold.PLP.part.repulsive>
1.5890

> <Gold.PLP.ligand.clash>
0.0000

> <Gold.PLP.ligand.torsion>
0.2833

> <Gold.PLP.Chemscore.Hbond>
1.4883

> <Gold.PLP.Chemscore.CHOScore>
0.0000

> <Gold.PLP.Chemscore.Metal>
0.0000

> <Gold.Chemscore.Hbonds>
donor molecule, donor type, donor heavy atom, donor atom, acceptor molecule, acceptor atom, score
      L1  H     6    21       P1  8028  0.69
      P1  H  8011  8017       L1    12  0.90

> <Gold.PLP.Chemscore.Internal.Correction>
0.0097

> <Gold.Rescore>
     Score         DG    S(hbond)    S(metal)    S(lipo)     H(rot)  DE(clash)    DE(int)     intcor
     15.45     -16.94       1.49        0.00      82.15       1.22       1.13       0.35       ----

> <Gold.Chemscore.Fitness>
15.4549

> <Gold.Chemscore.DG>
-16.9371

> <Gold.Chemscore.ZeroCoef>
-5.4800

> <Gold.Chemscore.Hbond>
1.4862

> <Gold.Chemscore.Metal>
0.0000

> <Gold.Chemscore.Lipo>
82.1488

> <Gold.Chemscore.Internal_Hbond>
0.0000

> <Gold.Chemscore.DEClash>
1.1301

> <Gold.Chemscore.DEInternal>
0.3521

> <Gold.Chemscore.Rot>
1.2181

> <Gold.Chemscore.Internal.Correction>
   9.000000E+99

> <Gold.Chemscore.Hbonds>
donor molecule, donor type, donor heavy atom, donor atom, acceptor molecule, acceptor atom, score
      L1  H     6    21       P1  8028  0.67
      P1  H  8011  8017       L1    12  0.42

> <Gold.Chemscore.Hbond.Weighted>
-4.9639

> <Gold.Chemscore.Metal.Weighted>
-0.0000

> <Gold.Chemscore.Lipo.Weighted>
-9.6114

> <Gold.Chemscore.Internal_Hbond.Weighted>
0.0000

> <Gold.Chemscore.DEClash.Weighted>
1.1301

> <Gold.Chemscore.DEInternal.Weighted>
0.3521

> <Gold.Chemscore.Rot.Weighted>
3.1182

> <Gold.Chemscore.Internal.Correction.Weighted>
   9.000000E+99

> <Gold.Protein.RotatedTorsions>
[ 6907 6896 6895 6894 ] final  -45.35 input  -60.11 | X-H torsion
[ 7974 7965 7964 7962 ] final  -90.13 input  175.53 | X-H torsion
[ 8008 7997 7996 7995 ] final  160.48 input   59.86 | X-H torsion
[ 10167 10162 10161 10158 ] final  140.52 input  -65.29 | X-H torsion
[ 10718 10713 10712 10709 ] final  -67.82 input   66.30 | X-H torsion
[ 10763 10752 10751 10750 ] final  134.88 input  -60.55 | X-H torsion
[ 11005 11000 10999 10996 ] final -167.95 input  -57.11 | X-H torsion

> <Gold.Protein.ActiveResidues>
 VAL166  LYS551  ARG553  GLY616  TRP617  ASP618  TYR619  PRO620  LYS621  CYS622 
 ASP623  PHE694  ASN695  SER759  ASP760  ASP761  ALA762  ILE779  LEU786  VAL792 
 PHE793  MET794  SER795  GLU796  ALA797  LYS798  CYS799  TRP800  GLU811  SER814 

> <Gold.Protein.RotatedAtoms>
  150.9229  134.8646  159.7500 H   0  0  0  0  0  0  0  0  0  0  0  0  # atno 6907 bound_to 6896
  152.5001  134.4191  159.9484 H   0  0  0  0  0  0  0  0  0  0  0  0  # atno 6908 bound_to 6896
  151.4224  133.3654  159.2793 H   0  0  0  0  0  0  0  0  0  0  0  0  # atno 6909 bound_to 6896
  145.4306  140.9555  143.2130 H   0  0  0  0  0  0  0  0  0  0  0  0  # atno 7974 bound_to 7965
  156.2169  140.1803  156.7567 H   0  0  0  0  0  0  0  0  0  0  0  0  # atno 8008 bound_to 7997
  154.5806  140.0667  156.9127 H   0  0  0  0  0  0  0  0  0  0  0  0  # atno 8009 bound_to 7997
  155.2510  140.3329  155.4284 H   0  0  0  0  0  0  0  0  0  0  0  0  # atno 8010 bound_to 7997
  139.5046  144.6229  151.6007 H   0  0  0  0  0  0  0  0  0  0  0  0  # atno 10167 bound_to 10162
  156.0537  130.4284  150.1910 H   0  0  0  0  0  0  0  0  0  0  0  0  # atno 10718 bound_to 10713
  153.8308  135.3104  155.3418 H   0  0  0  0  0  0  0  0  0  0  0  0  # atno 10763 bound_to 10752
  154.7974  135.4747  154.0196 H   0  0  0  0  0  0  0  0  0  0  0  0  # atno 10764 bound_to 10752
  153.1635  135.6865  153.8799 H   0  0  0  0  0  0  0  0  0  0  0  0  # atno 10765 bound_to 10752
  140.5475  134.5461  157.5114 H   0  0  0  0  0  0  0  0  0  0  0  0  # atno 11005 bound_to 11000
  144.8185  139.5833  143.6997 LP  0  0  0  0  0  0  0  0  0  0  0  0  # atno 17320 bound_to 7965
  146.2609  139.6408  142.9363 LP  0  0  0  0  0  0  0  0  0  0  0  0  # atno 17321 bound_to 7965
  140.5937  143.9734  150.6341 LP  0  0  0  0  0  0  0  0  0  0  0  0  # atno 17342 bound_to 10162
  140.2923  143.3316  152.1050 LP  0  0  0  0  0  0  0  0  0  0  0  0  # atno 17343 bound_to 10162
  156.9990  130.9916  151.3396 LP  0  0  0  0  0  0  0  0  0  0  0  0  # atno 17370 bound_to 10713
  157.5488  130.8168  149.8119 LP  0  0  0  0  0  0  0  0  0  0  0  0  # atno 17371 bound_to 10713
  139.9472  134.7681  156.0534 LP  0  0  0  0  0  0  0  0  0  0  0  0  # atno 17394 bound_to 11000
  141.1191  133.6618  156.3169 LP  0  0  0  0  0  0  0  0  0  0  0  0  # atno 17395 bound_to 11000

$$$$
