#       Name:                AV-unprocessed.smi:2244
#       Creating user name   scv26
#       Creation time:       Fri Mar 27 12:27:49 2020


#       File generated by GOLD software.
#

@<TRIPOS>MOLECULE
AV-unprocessed.smi:2244
    55    57     1
SMALL
NO_CHARGES


@<TRIPOS>ATOM
      1 ****         0.1655  -8.6568   0.9207 C.3            1 S1                 0.0000
      2 ****         1.4805  -7.8797   0.6862 C.3            1 S1                 0.0000
      3 ****         2.4198  -8.1884   1.8705 C.3            1 S1                 0.0000
      4 ****         2.1004  -8.4049  -0.6257 C.3            1 S1                 0.0000
      5 ****         1.2549  -6.3605   0.5838 C.ar           1 S1                 0.0000
      6 ****        -0.0173  -5.7573   0.7038 C.ar           1 S1                 0.0000
      7 ****        -0.0919  -4.3592   0.5885 C.ar           1 S1                 0.0000
      8 ****         1.0964  -3.6352   0.3630 C.ar           1 S1                 0.0000
      9 ****         0.9242  -2.2250   0.2469 N.am           1 S1                 0.0000
     10 ****         1.8170  -1.2269   0.0755 C.2            1 S1                 0.0000
     11 ****         3.0207  -1.4635  -0.0152 O.2            1 S1                 0.0000
     12 ****         1.3144   0.0167   0.0040 N.am           1 S1                 0.0000
     13 ****         2.0940   1.2385  -0.1657 C.3            1 S1                 0.0000
     14 ****         1.2668   2.4478   0.2908 C.3            1 S1                 0.0000
     15 ****         2.0210   3.7576   0.0156 C.3            1 S1                 0.0000
     16 ****         2.3602   3.8567  -1.3661 O.3            1 S1                 0.0000
     17 ****         3.1786   2.7996  -1.8697 C.3            1 S1                 0.0000
     18 ****         4.5981   2.8720  -1.3227 C.3            1 S1                 0.0000
     19 ****         5.5740   3.8955  -1.8522 C.3            1 S1                 0.0000
     20 ****         5.7741   2.4307  -2.1620 C.3            1 S1                 0.0000
     21 ****         2.5032   1.4337  -1.6369 C.3            1 S1                 0.0000
     22 ****         2.2846  -4.2836   0.2589 N.ar           1 S1                 0.0000
     23 ****         2.3644  -5.6126   0.3681 N.ar           1 S1                 0.0000
     24 ****         0.3469  -9.7304   0.9846 H              1 S1                 0.0000
     25 ****        -0.5447  -8.5021   0.1075 H              1 S1                 0.0000
     26 ****        -0.3177  -8.3604   1.8524 H              1 S1                 0.0000
     27 ****         2.0026  -7.8243   2.8101 H              1 S1                 0.0000
     28 ****         3.3986  -7.7247   1.7445 H              1 S1                 0.0000
     29 ****         2.5843  -9.2611   1.9780 H              1 S1                 0.0000
     30 ****         2.2549  -9.4839  -0.5882 H              1 S1                 0.0000
     31 ****         3.0707  -7.9497  -0.8270 H              1 S1                 0.0000
     32 ****         1.4550  -8.1951  -1.4795 H              1 S1                 0.0000
     33 ****        -0.9197  -6.3231   0.8766 H              1 S1                 0.0000
     34 ****        -1.0448  -3.8565   0.6712 H              1 S1                 0.0000
     35 ****        -0.0388  -1.9224   0.2601 H              1 S1                 0.0000
     36 ****         0.3130   0.1239   0.0859 H              1 S1                 0.0000
     37 ****         2.9873   1.1743   0.4577 H              1 S1                 0.0000
     38 ****         0.3124   2.4661  -0.2379 H              1 S1                 0.0000
     39 ****         1.0336   2.3685   1.3532 H              1 S1                 0.0000
     40 ****         1.3926   4.6088   0.2785 H              1 S1                 0.0000
     41 ****         2.9132   3.8301   0.6377 H              1 S1                 0.0000
     42 ****         3.2423   2.9566  -2.9472 H              1 S1                 0.0000
     43 ****         4.6813   2.6568  -0.2599 H              1 S1                 0.0000
     44 ****         5.2415   4.5402  -2.6633 H              1 S1                 0.0000
     45 ****         6.2523   4.3572  -1.1376 H              1 S1                 0.0000
     46 ****         6.5863   1.9146  -1.6542 H              1 S1                 0.0000
     47 ****         5.5765   2.1003  -3.1797 H              1 S1                 0.0000
     48 ****         3.1638   0.6298  -1.9642 H              1 S1                 0.0000
     49 ****         1.6140   1.3731  -2.2665 H              1 S1                 0.0000
     50 ****         3.3504  -2.4061   0.0378 LP             1 S1                 0.0000
     51 ****         3.6696  -0.7132  -0.1420 LP             1 S1                 0.0000
     52 ****         2.8488   4.7184  -1.5035 LP             1 S1                 0.0000
     53 ****         1.5104   3.8678  -1.8931 LP             1 S1                 0.0000
     54 ****         3.1179  -3.7550   0.0970 LP             1 S1                 0.0000
     55 ****         3.2545  -6.0616   0.2896 LP             1 S1                 0.0000
@<TRIPOS>BOND
    1    1    2 1     
    2    1   24 1     
    3    1   25 1     
    4    1   26 1     
    5    2    3 1     
    6    2    4 1     
    7    2    5 1     
    8    3   27 1     
    9    3   28 1     
   10    3   29 1     
   11    4   30 1     
   12    4   31 1     
   13    4   32 1     
   14    5   23 ar    
   15    5    6 ar    
   16    6    7 ar    
   17    6   33 1     
   18    7    8 ar    
   19    7   34 1     
   20    8    9 1     
   21    8   22 ar    
   22    9   10 am    
   23    9   35 1     
   24   10   11 2     
   25   10   12 am    
   26   12   13 1     
   27   12   36 1     
   28   13   21 1     
   29   13   14 1     
   30   13   37 1     
   31   14   15 1     
   32   14   38 1     
   33   14   39 1     
   34   15   16 1     
   35   15   40 1     
   36   15   41 1     
   37   16   17 1     
   38   17   18 1     
   39   17   21 1     
   40   17   42 1     
   41   18   20 1     
   42   18   19 1     
   43   18   43 1     
   44   19   20 1     
   45   19   44 1     
   46   19   45 1     
   47   20   46 1     
   48   20   47 1     
   49   21   48 1     
   50   21   49 1     
   51   22   23 ar    
   52   11   50 1     
   53   11   51 1     
   54   16   52 1     
   55   16   53 1     
   56   22   54 1     
   57   23   55 1     
@<TRIPOS>SUBSTRUCTURE
      1 S1             1
@<TRIPOS>SET
LONE_PAIRS      STATIC     ATOMS    <user>   **** ""
6 50 51 52 53 54 55
DONOR_HYDROGENS      STATIC     ATOMS    <user>   **** ""
2 35 36
ATOM$BLUE        STATIC     ATOMS    COLORGROUP SYSTEM
6 50 51 52 53 54 55
ATOM$RED        STATIC     ATOMS    COLORGROUP SYSTEM
2 35 36
