#       Name:                AV-unprocessed.smi:867
#       Creating user name   scv26
#       Creation time:       Fri Mar 27 01:48:00 2020


#       File generated by GOLD software.
#

@<TRIPOS>MOLECULE
AV-unprocessed.smi:867
    56    59     1
SMALL
NO_CHARGES


@<TRIPOS>ATOM
      1 ****         2.0614   0.5898  -1.6958 O.2            1 S1                 0.0000
      2 ****         1.6347  -0.4095  -1.1159 C.2            1 S1                 0.0000
      3 ****         2.3787  -1.5178  -0.9548 N.am           1 S1                 0.0000
      4 ****         3.7663  -1.6894  -1.3781 C.3            1 S1                 0.0000
      5 ****         3.8837  -2.3635  -2.7584 C.3            1 S1                 0.0000
      6 ****         3.2671  -1.5546  -3.8860 C.ar           1 S1                 0.0000
      7 ****         2.0311  -1.9322  -4.4568 C.ar           1 S1                 0.0000
      8 ****         1.4785  -1.1472  -5.4901 C.ar           1 S1                 0.0000
      9 ****         2.1749  -0.0035  -5.9311 C.ar           1 S1                 0.0000
     10 ****         3.3562   0.3248  -5.3635 N.pl3          1 S1                 1.0000
     11 ****         3.9188  -0.4007  -4.3726 C.ar           1 S1                 0.0000
     12 ****         0.3658  -0.5083  -0.6468 N.am           1 S1                 0.0000
     13 ****        -0.1256  -1.4997   0.3193 C.3            1 S1                 0.0000
     14 ****        -0.3106  -0.8133   1.6850 C.3            1 S1                 0.0000
     15 ****        -1.2239   0.3626   1.5939 N.4            1 S1                 1.0000
     16 ****        -1.4150   1.0444   2.9068 C.3            1 S1                 0.0000
     17 ****        -2.0302   0.1504   4.0122 C.3            1 S1                 0.0000
     18 ****        -3.1771   1.0170   4.5659 C.3            1 S1                 0.0000
     19 ****        -4.3421   0.9939   3.5620 C.3            1 S1                 0.0000
     20 ****        -3.7935   1.8345   2.3955 C.3            1 S1                 0.0000
     21 ****        -2.3911   2.2478   2.8939 C.3            1 S1                 0.0000
     22 ****        -2.6412   2.4323   4.3871 C.3            1 S1                 0.0000
     23 ****        -0.8284   1.2975   0.5010 C.3            1 S1                 0.0000
     24 ****        -0.6189   0.5596  -0.8342 C.3            1 S1                 0.0000
     25 ****         1.9509  -2.3052  -0.4896 H              1 S1                 0.0000
     26 ****         4.2938  -0.7340  -1.3739 H              1 S1                 0.0000
     27 ****         4.2631  -2.3100  -0.6321 H              1 S1                 0.0000
     28 ****         4.9358  -2.5302  -2.9919 H              1 S1                 0.0000
     29 ****         3.4225  -3.3515  -2.7268 H              1 S1                 0.0000
     30 ****         1.5071  -2.8087  -4.1043 H              1 S1                 0.0000
     31 ****         0.5333  -1.4181  -5.9372 H              1 S1                 0.0000
     32 ****         1.8259   0.6535  -6.7143 H              1 S1                 0.0000
     33 ****         4.8624  -0.0336  -3.9958 H              1 S1                 0.0000
     34 ****        -1.0801  -1.8961  -0.0301 H              1 S1                 0.0000
     35 ****         0.5232  -2.3680   0.4326 H              1 S1                 0.0000
     36 ****        -0.6944  -1.5453   2.3946 H              1 S1                 0.0000
     37 ****         0.6588  -0.4872   2.0659 H              1 S1                 0.0000
     38 ****        -0.4389   1.4001   3.2430 H              1 S1                 0.0000
     39 ****        -2.4106  -0.8031   3.6443 H              1 S1                 0.0000
     40 ****        -1.2905  -0.0627   4.7847 H              1 S1                 0.0000
     41 ****        -3.4723   0.7584   5.5832 H              1 S1                 0.0000
     42 ****        -4.6119  -0.0182   3.2577 H              1 S1                 0.0000
     43 ****        -5.2305   1.4622   3.9879 H              1 S1                 0.0000
     44 ****        -3.7656   1.2770   1.4592 H              1 S1                 0.0000
     45 ****        -4.4195   2.7132   2.2356 H              1 S1                 0.0000
     46 ****        -1.9933   3.1353   2.4009 H              1 S1                 0.0000
     47 ****        -3.3782   3.2056   4.6118 H              1 S1                 0.0000
     48 ****        -1.7332   2.6271   4.9609 H              1 S1                 0.0000
     49 ****        -1.5932   2.0602   0.3576 H              1 S1                 0.0000
     50 ****         0.0888   1.8165   0.7843 H              1 S1                 0.0000
     51 ****        -0.3282   1.2678  -1.6116 H              1 S1                 0.0000
     52 ****        -1.5607   0.1244  -1.1720 H              1 S1                 0.0000
     53 ****        -2.1279  -0.0031   1.3307 H              1 S1                 0.0000
     54 ****         3.8437   1.1572  -5.6960 H              1 S1                 0.0000
     55 ****         2.9904   0.5947  -2.0657 LP             1 S1                 0.0000
     56 ****         1.4788   1.3963  -1.7967 LP             1 S1                 0.0000
@<TRIPOS>BOND
    1    1    2 2     
    2    2    3 am    
    3    2   12 am    
    4    3    4 1     
    5    3   25 1     
    6    4    5 1     
    7    4   26 1     
    8    4   27 1     
    9    5    6 1     
   10    5   28 1     
   11    5   29 1     
   12    6   11 ar    
   13    6    7 ar    
   14    7    8 ar    
   15    7   30 1     
   16    8    9 ar    
   17    8   31 1     
   18    9   10 ar    
   19    9   32 1     
   20   10   11 ar    
   21   10   54 1     
   22   11   33 1     
   23   12   24 1     
   24   12   13 1     
   25   13   14 1     
   26   13   34 1     
   27   13   35 1     
   28   14   15 1     
   29   14   36 1     
   30   14   37 1     
   31   15   16 1     
   32   15   23 1     
   33   15   53 1     
   34   16   21 1     
   35   16   17 1     
   36   16   38 1     
   37   17   18 1     
   38   17   39 1     
   39   17   40 1     
   40   18   22 1     
   41   18   19 1     
   42   18   41 1     
   43   19   20 1     
   44   19   42 1     
   45   19   43 1     
   46   20   21 1     
   47   20   44 1     
   48   20   45 1     
   49   21   22 1     
   50   21   46 1     
   51   22   47 1     
   52   22   48 1     
   53   23   24 1     
   54   23   49 1     
   55   23   50 1     
   56   24   51 1     
   57   24   52 1     
   58    1   55 1     
   59    1   56 1     
@<TRIPOS>SUBSTRUCTURE
      1 S1             1
@<TRIPOS>SET
LONE_PAIRS      STATIC     ATOMS    <user>   **** ""
2 55 56
DONOR_HYDROGENS      STATIC     ATOMS    <user>   **** ""
3 25 54 53
ATOM$BLUE        STATIC     ATOMS    COLORGROUP SYSTEM
2 55 56
ATOM$RED        STATIC     ATOMS    COLORGROUP SYSTEM
3 25 54 53
