AV-unprocessed.smi:157|AV-procd|sdf|1307|dock3
  -GOLD-   2262018593D 1   1.00000     0.00000
 Structure written by MMmdl.
 36 38  0  0  0  0  0  0  0  0  2 V2000
  154.9158  139.2723  154.3613 O   0  0  0  0  0  0  0  0  0  0  0  0
  154.7042  138.1330  155.1676 C   0  0  0  0  0  0  0  0  0  0  0  0
  153.2274  138.0492  155.5834 C   0  0  1  0  0  0  0  0  0  0  0  0
  152.9305  139.1242  156.4687 O   0  0  0  0  0  0  0  0  0  0  0  0
  151.5856  139.4211  156.3305 C   0  0  1  0  0  0  0  0  0  0  0  0
  151.3431  140.7951  156.8650 N   0  0  0  0  0  0  0  0  0  0  0  0
  150.5400  141.7209  156.3019 C   0  0  0  0  0  0  0  0  0  0  0  0
  150.4732  142.8625  156.9658 N   0  3  0  0  0  0  0  0  0  0  0  0
  151.2823  142.7190  158.0730 C   0  0  0  0  0  0  0  0  0  0  0  0
  151.8200  141.4317  157.9910 C   0  0  0  0  0  0  0  0  0  0  0  0
  152.7069  140.7750  158.8592 N   0  0  0  0  0  0  0  0  0  0  0  0
  153.4154  141.3959  159.7452 C   0  0  0  0  0  0  0  0  0  0  0  0
  153.3978  142.7363  160.0927 N   0  0  0  0  0  0  0  0  0  0  0  0
  152.1698  143.4715  160.3371 C   0  0  0  0  0  0  0  0  0  0  0  0
  151.4064  143.8399  159.0579 C   0  0  1  0  0  0  0  0  0  0  0  0
  151.9977  144.9930  158.4952 O   0  0  0  0  0  0  0  0  0  0  0  0
  151.3035  139.3408  154.8365 C   0  0  0  0  0  0  0  0  0  0  0  0
  152.2467  138.2268  154.4018 C   0  0  2  0  0  0  0  0  0  0  0  0
  151.5209  137.0346  154.1752 O   0  0  0  0  0  0  0  0  0  0  0  0
  153.0244  137.1080  156.0991 H   0  0  0  0  0  0  0  0  0  0  0  0
  150.9730  138.7444  156.9291 H   0  0  0  0  0  0  0  0  0  0  0  0
  150.3981  144.1347  159.3506 H   0  0  0  0  0  0  0  0  0  0  0  0
  152.7589  138.5082  153.4806 H   0  0  0  0  0  0  0  0  0  0  0  0
  154.5882  139.0924  153.4934 H   0  0  0  0  0  0  0  0  0  0  0  0
  155.0215  137.2303  154.6443 H   0  0  0  0  0  0  0  0  0  0  0  0
  155.3373  138.2376  156.0493 H   0  0  0  0  0  0  0  0  0  0  0  0
  149.9998  141.5405  155.3898 H   0  0  0  0  0  0  0  0  0  0  0  0
  154.1382  140.8295  160.3341 H   0  0  0  0  0  0  0  0  0  0  0  0
  154.1636  143.1040  160.6396 H   0  0  0  0  0  0  0  0  0  0  0  0
  151.5319  142.8417  160.9591 H   0  0  0  0  0  0  0  0  0  0  0  0
  152.3854  144.3609  160.9306 H   0  0  0  0  0  0  0  0  0  0  0  0
  152.2387  144.8058  157.6010 H   0  0  0  0  0  0  0  0  0  0  0  0
  150.2468  139.1492  154.6447 H   0  0  0  0  0  0  0  0  0  0  0  0
  151.5849  140.2769  154.3533 H   0  0  0  0  0  0  0  0  0  0  0  0
  151.3114  136.9778  153.2555 H   0  0  0  0  0  0  0  0  0  0  0  0
  149.9252  143.6744  156.7115 H   0  0  0  0  0  0  0  0  0  0  0  0
  1  2  1  0  0  0  0
  1 24  1  0  0  0  0
  2  3  1  0  0  0  0
  2 25  1  0  0  0  0
  2 26  1  0  0  0  0
  3 20  1  0  0  0  0
  3 18  1  0  0  0  0
  3  4  1  0  0  0  0
  4  5  1  0  0  0  0
  5 21  1  0  0  0  0
  5  6  1  0  0  0  0
  5 17  1  0  0  0  0
  6 10  1  0  0  0  0
  6  7  1  0  0  0  0
  7  8  2  0  0  0  0
  7 27  1  0  0  0  0
  8  9  1  0  0  0  0
  8 36  1  0  0  0  0
  9 15  1  0  0  0  0
  9 10  2  0  0  0  0
 10 11  1  0  0  0  0
 11 12  2  0  0  0  0
 12 13  1  0  0  0  0
 12 28  1  0  0  0  0
 13 14  1  0  0  0  0
 13 29  1  0  0  0  0
 14 15  1  0  0  0  0
 14 30  1  0  0  0  0
 14 31  1  0  0  0  0
 15 22  1  0  0  0  0
 15 16  1  0  0  0  0
 16 32  1  0  0  0  0
 17 18  1  0  0  0  0
 17 33  1  0  0  0  0
 17 34  1  0  0  0  0
 18 23  1  0  0  0  0
 18 19  1  0  0  0  0
 19 35  1  0  0  0  0
M  CHG  1   8   1
M  END
> <s_m_source_file>
AV-unprocessed.smi

> <i_m_source_file_index>
157

> <i_lp_mmshare_version>
43012

> <i_f3d_flags>
0

> <s_epik_input>
W09IXVtDSDJdW0NASF0xT1tDQEhdKFtDSDJdW0NAQEhdMVtPSF0pbihbY0hdbjIpYyhjMjMpTj1bQ0hdW05IXVtDSDJdW0NASF0zW09IXQ==

> <s_epik_cmdline>
J2VwaWtfcHl0aG9uJywgJy1waCcsICc3LjAnLCAnLXRuJywgJzgnLCAnLW1hJywgJzIwMCcsICctbWV0YWxfYmluZGluZycsICctaW1hZScsICc8aW5maWxlLm1hZT4nLCAnLW9tYWUnLCAnPG91dGZpbGUubWFlPic=

> <r_epik_Ionization_Penalty>
1.68594

> <r_epik_Ionization_Penalty_Charging>
0

> <r_epik_Ionization_Penalty_Neutral>
1.68594

> <r_epik_State_Penalty>
1.79006

> <r_epik_Charging_Adjusted_Penalty>
1.79006

> <i_epik_Tot_Q>
1

> <i_epik_Tot_abs_Q>
1

> <r_epik_Metal_State_Penalty>
5.85324

> <b_epik_Metal_Only>
0

> <s_epik_Chemistry_Notes>
This compound has an imine and may undergo hydrolysis. This compound contains an acetal/aminal-like group ( X-CH(R)-Y where X, Y are N, S, or O) that may be acid/base labile, releasing an aldehyde.

> <s_lp_Force_Field>
OPLS_2005

> <r_lp_Energy>
53.8219

> <b_lp_Chiralities_Consistent>
1

> <s_lp_Variant>
AV-unprocessed.smi:157-17

> <Gold.Version>
5.8.1

> <Gold.Id.Protein>
6NUR|6NUR_protein|mol2

> <Gold.PLP.Fitness>
49.6960

> <Gold.PLP.PLP>
-33.6634

> <Gold.PLP.part.hbond>
-4.6273

> <Gold.PLP.part.metal>
0.0000

> <Gold.PLP.part.buried>
0.1885

> <Gold.PLP.part.nonpolar>
-30.1910

> <Gold.PLP.part.repulsive>
0.0491

> <Gold.PLP.ligand.clash>
0.0000

> <Gold.PLP.ligand.torsion>
0.6213

> <Gold.PLP.Chemscore.Hbond>
5.7513

> <Gold.PLP.Chemscore.CHOScore>
0.0000

> <Gold.PLP.Chemscore.Metal>
0.0000

> <Gold.Chemscore.Hbonds>
donor molecule, donor type, donor heavy atom, donor atom, acceptor molecule, acceptor atom, score
      L1  H     8    36       P1  8028  2.00
      L1  H    19    35       P1  7949  1.00
      P1  H  7997  8009       L1     4  0.91
      P1  H  7997  8010       L1     1  0.77
      P1  H 10752 10765       L1    19  1.00

> <Gold.PLP.Chemscore.Internal.Correction>
0.0214

> <Gold.Rescore>
     Score         DG    S(hbond)    S(metal)    S(lipo)     H(rot)  DE(clash)    DE(int)     intcor
      9.72     -13.09       2.98        0.00      60.26       3.67       1.68       1.69       ----

> <Gold.Chemscore.Fitness>
9.7161

> <Gold.Chemscore.DG>
-13.0903

> <Gold.Chemscore.ZeroCoef>
-5.4800

> <Gold.Chemscore.Hbond>
2.9773

> <Gold.Chemscore.Metal>
0.0000

> <Gold.Chemscore.Lipo>
60.2644

> <Gold.Chemscore.Internal_Hbond>
0.0000

> <Gold.Chemscore.DEClash>
1.6800

> <Gold.Chemscore.DEInternal>
1.6942

> <Gold.Chemscore.Rot>
3.6659

> <Gold.Chemscore.Internal.Correction>
   9.000000E+99

> <Gold.Chemscore.Hbonds>
donor molecule, donor type, donor heavy atom, donor atom, acceptor molecule, acceptor atom, score
      L1  H     8    36       P1  8028  0.99
      L1  H    19    35       P1  7949  0.63
      P1  H  7997  8009       L1     4  0.63
      P1  H  7997  8010       L1     1  0.25
      P1  H 10752 10765       L1    19  0.10

> <Gold.Chemscore.Hbond.Weighted>
-9.9441

> <Gold.Chemscore.Metal.Weighted>
-0.0000

> <Gold.Chemscore.Lipo.Weighted>
-7.0509

> <Gold.Chemscore.Internal_Hbond.Weighted>
0.0000

> <Gold.Chemscore.DEClash.Weighted>
1.6800

> <Gold.Chemscore.DEInternal.Weighted>
1.6942

> <Gold.Chemscore.Rot.Weighted>
9.3848

> <Gold.Chemscore.Internal.Correction.Weighted>
   9.000000E+99

> <Gold.Protein.RotatedTorsions>
[ 6907 6896 6895 6894 ] final -124.04 input  -60.11 | X-H torsion
[ 7974 7965 7964 7962 ] final  179.26 input  175.53 | X-H torsion
[ 8008 7997 7996 7995 ] final  167.38 input   59.86 | X-H torsion
[ 10167 10162 10161 10158 ] final  -23.36 input  -65.29 | X-H torsion
[ 10718 10713 10712 10709 ] final   76.82 input   66.30 | X-H torsion
[ 10763 10752 10751 10750 ] final  163.88 input  -60.55 | X-H torsion
[ 11005 11000 10999 10996 ] final  -37.13 input  -57.11 | X-H torsion

> <Gold.Protein.ActiveResidues>
 VAL166  LYS551  ARG553  GLY616  TRP617  ASP618  TYR619  PRO620  LYS621  CYS622 
 ASP623  PHE694  ASN695  SER759  ASP760  ASP761  ALA762  ILE779  LEU786  VAL792 
 PHE793  MET794  SER795  GLU796  ALA797  LYS798  CYS799  TRP800  GLU811  SER814 

> <Gold.Protein.RotatedAtoms>
  150.8729  133.7480  159.2955 H   0  0  0  0  0  0  0  0  0  0  0  0  # atno 6907 bound_to 6896
  151.5086  135.1063  159.9857 H   0  0  0  0  0  0  0  0  0  0  0  0  # atno 6908 bound_to 6896
  152.4707  133.7979  159.6993 H   0  0  0  0  0  0  0  0  0  0  0  0  # atno 6909 bound_to 6896
  144.7147  140.0521  143.6435 H   0  0  0  0  0  0  0  0  0  0  0  0  # atno 7974 bound_to 7965
  156.1639  140.1618  156.8565 H   0  0  0  0  0  0  0  0  0  0  0  0  # atno 8008 bound_to 7997
  154.5188  140.0783  156.8167 H   0  0  0  0  0  0  0  0  0  0  0  0  # atno 8009 bound_to 7997
  155.3651  140.3397  155.4244 H   0  0  0  0  0  0  0  0  0  0  0  0  # atno 8010 bound_to 7997
  140.7288  143.4450  151.0600 H   0  0  0  0  0  0  0  0  0  0  0  0  # atno 10167 bound_to 10162
  157.6687  130.9792  150.1551 H   0  0  0  0  0  0  0  0  0  0  0  0  # atno 10718 bound_to 10713
  154.3005  135.2759  155.2613 H   0  0  0  0  0  0  0  0  0  0  0  0  # atno 10763 bound_to 10752
  154.5052  135.5797  153.6565 H   0  0  0  0  0  0  0  0  0  0  0  0  # atno 10764 bound_to 10752
  152.9901  135.6167  154.3175 H   0  0  0  0  0  0  0  0  0  0  0  0  # atno 10765 bound_to 10752
  140.9928  133.6996  156.1880 H   0  0  0  0  0  0  0  0  0  0  0  0  # atno 11005 bound_to 11000
  145.9935  139.3034  143.0970 LP  0  0  0  0  0  0  0  0  0  0  0  0  # atno 17320 bound_to 7965
  145.8876  140.9324  143.0569 LP  0  0  0  0  0  0  0  0  0  0  0  0  # atno 17321 bound_to 7965
  139.8121  143.7936  152.3172 LP  0  0  0  0  0  0  0  0  0  0  0  0  # atno 17342 bound_to 10162
  139.7989  144.7381  150.9852 LP  0  0  0  0  0  0  0  0  0  0  0  0  # atno 17343 bound_to 10162
  156.2341  130.3685  149.8411 LP  0  0  0  0  0  0  0  0  0  0  0  0  # atno 17370 bound_to 10713
  156.6230  130.8634  151.3479 LP  0  0  0  0  0  0  0  0  0  0  0  0  # atno 17371 bound_to 10713
  140.7013  134.4561  157.5586 LP  0  0  0  0  0  0  0  0  0  0  0  0  # atno 17394 bound_to 11000
  139.9000  134.8578  156.1936 LP  0  0  0  0  0  0  0  0  0  0  0  0  # atno 17395 bound_to 11000

$$$$
