#       Name:                AV-unprocessed.smi:2915
#       Creating user name   scv26
#       Creation time:       Fri Mar 27 16:07:58 2020


#       File generated by GOLD software.
#

@<TRIPOS>MOLECULE
AV-unprocessed.smi:2915
    46    47     1
SMALL
NO_CHARGES


@<TRIPOS>ATOM
      1 ****        -4.7152   4.1058  -0.9574 C.3            1 S1                 0.0000
      2 ****        -4.1643   3.4128   0.2413 C.2            1 S1                 0.0000
      3 ****        -3.5177   2.2454   0.1885 N.2            1 S1                 0.0000
      4 ****        -3.0927   1.8077   1.4475 C.2            1 S1                 0.0000
      5 ****        -2.3413   0.5123   1.5789 C.3            1 S1                 0.0000
      6 ****        -0.8226   0.7062   1.4757 C.2            1 S1                 0.0000
      7 ****        -0.3231   1.8304   1.4050 O.2            1 S1                 0.0000
      8 ****        -0.0969  -0.4225   1.4648 N.am           1 S1                 0.0000
      9 ****         1.3593  -0.5105   1.3469 C.3            1 S1                 0.0000
     10 ****         1.8381  -1.1441   0.0098 C.3            1 S1                 0.0000
     11 ****         3.3936  -1.1422   0.0279 C.3            1 S1                 0.0000
     12 ****         4.1071  -1.8489  -1.1446 C.3            1 S1                 0.0000
     13 ****         5.5042  -1.7342  -0.9830 O.3            1 S1                 0.0000
     14 ****         1.2713  -2.5814  -0.1566 C.3            1 S1                 0.0000
     15 ****         0.7296  -2.6682  -1.5839 C.3            1 S1                 0.0000
     16 ****         0.2484  -1.2529  -1.8813 C.3            1 S1                 0.0000
     17 ****         1.2868  -0.3530  -1.2089 C.3            1 S1                 0.0000
     18 ****        -3.4433   2.6629   2.4632 C.2            1 S1                 0.0000
     19 ****        -4.3057   4.0561   1.8725 S.3            1 S1                 0.0000
     20 ****        -4.4011   3.6014  -1.8718 H              1 S1                 0.0000
     21 ****        -4.3604   5.1360  -0.9875 H              1 S1                 0.0000
     22 ****        -5.8044   4.1107  -0.9160 H              1 S1                 0.0000
     23 ****        -2.5668   0.0400   2.5356 H              1 S1                 0.0000
     24 ****        -2.6581  -0.1900   0.8064 H              1 S1                 0.0000
     25 ****        -0.5952  -1.2983   1.5280 H              1 S1                 0.0000
     26 ****         1.8159   0.4723   1.4758 H              1 S1                 0.0000
     27 ****         1.7135  -1.1112   2.1853 H              1 S1                 0.0000
     28 ****         3.7405  -0.1086   0.0746 H              1 S1                 0.0000
     29 ****         3.7338  -1.6072   0.9545 H              1 S1                 0.0000
     30 ****         3.8582  -2.9086  -1.1840 H              1 S1                 0.0000
     31 ****         3.8389  -1.4185  -2.1081 H              1 S1                 0.0000
     32 ****         5.7357  -0.8181  -1.0036 H              1 S1                 0.0000
     33 ****         2.0027  -3.3618   0.0533 H              1 S1                 0.0000
     34 ****         0.4460  -2.7642   0.5313 H              1 S1                 0.0000
     35 ****         1.5313  -2.9379  -2.2724 H              1 S1                 0.0000
     36 ****        -0.0624  -3.4105  -1.6874 H              1 S1                 0.0000
     37 ****         0.1527  -1.0568  -2.9495 H              1 S1                 0.0000
     38 ****        -0.7293  -1.0932  -1.4242 H              1 S1                 0.0000
     39 ****         0.8614   0.6133  -0.9377 H              1 S1                 0.0000
     40 ****         2.0742  -0.1296  -1.9269 H              1 S1                 0.0000
     41 ****        -3.2407   2.5606   3.5190 H              1 S1                 0.0000
     42 ****        -3.3551   1.7393  -0.6586 LP             1 S1                 0.0000
     43 ****        -0.9102   2.6398   1.4142 LP             1 S1                 0.0000
     44 ****         0.6693   1.9332   1.3384 LP             1 S1                 0.0000
     45 ****         5.9699  -2.2162  -1.7252 LP             1 S1                 0.0000
     46 ****         5.7756  -2.1307  -0.1060 LP             1 S1                 0.0000
@<TRIPOS>BOND
    1    1    2 1     
    2    1   20 1     
    3    1   21 1     
    4    1   22 1     
    5    2   19 1     
    6    2    3 2     
    7    3    4 1     
    8    4    5 1     
    9    4   18 2     
   10    5    6 1     
   11    5   23 1     
   12    5   24 1     
   13    6    7 2     
   14    6    8 am    
   15    8    9 1     
   16    8   25 1     
   17    9   10 1     
   18    9   26 1     
   19    9   27 1     
   20   10   17 1     
   21   10   11 1     
   22   10   14 1     
   23   11   12 1     
   24   11   28 1     
   25   11   29 1     
   26   12   13 1     
   27   12   30 1     
   28   12   31 1     
   29   13   32 1     
   30   14   15 1     
   31   14   33 1     
   32   14   34 1     
   33   15   16 1     
   34   15   35 1     
   35   15   36 1     
   36   16   17 1     
   37   16   37 1     
   38   16   38 1     
   39   17   39 1     
   40   17   40 1     
   41   18   19 1     
   42   18   41 1     
   43    3   42 1     
   44    7   43 1     
   45    7   44 1     
   46   13   45 1     
   47   13   46 1     
@<TRIPOS>SUBSTRUCTURE
      1 S1             1
@<TRIPOS>SET
LONE_PAIRS      STATIC     ATOMS    <user>   **** ""
5 42 43 44 45 46
DONOR_HYDROGENS      STATIC     ATOMS    <user>   **** ""
2 25 32
ATOM$BLUE        STATIC     ATOMS    COLORGROUP SYSTEM
5 42 43 44 45 46
ATOM$RED        STATIC     ATOMS    COLORGROUP SYSTEM
2 25 32
