AV-unprocessed.smi:1244|AV-procd|sdf|5221|dock4
  -GOLD-   22720 4313D 1   1.00000     0.00000
 Structure written by MMmdl.
 54 56  0  0  0  0  0  0  0  0  1 V2000
  142.4555  146.8387  153.8352 C   0  0  0  0  0  0  0  0  0  0  0  0
  143.9891  146.8535  153.9554 C   0  0  2  0  0  0  0  0  0  0  0  0
  144.6284  145.4591  153.7991 C   0  0  0  0  0  0  0  0  0  0  0  0
  144.4192  144.6064  154.9646 N   0  0  0  0  0  0  0  0  0  0  0  0
  145.0420  143.2975  154.7728 C   0  0  0  0  0  0  0  0  0  0  0  0
  146.3661  143.3200  153.9851 C   0  0  0  0  0  0  0  0  0  0  0  0
  147.4930  142.9103  154.8148 N   0  0  0  0  0  0  0  0  0  0  0  0
  148.3562  141.9312  154.5099 C   0  0  0  0  0  0  0  0  0  0  0  0
  148.3016  141.2751  153.4696 O   0  0  0  0  0  0  0  0  0  0  0  0
  149.2585  141.7543  155.4897 N   0  0  0  0  0  0  0  0  0  0  0  0
  150.3186  140.8055  155.5441 C   0  0  0  0  0  0  0  0  0  0  0  0
  150.5120  139.8553  154.5115 C   0  0  0  0  0  0  0  0  0  0  0  0
  151.5614  138.9265  154.6149 C   0  0  0  0  0  0  0  0  0  0  0  0
  152.3868  138.9815  155.7499 C   0  0  0  0  0  0  0  0  0  0  0  0
  152.2286  139.8913  156.7315 N   0  0  0  0  0  0  0  0  0  0  0  0
  151.2302  140.8045  156.6394 C   0  0  0  0  0  0  0  0  0  0  0  0
  151.1273  141.7422  157.6930 N   0  0  0  0  0  0  0  0  0  0  0  0
  151.4880  141.3652  159.0559 C   0  0  0  0  0  0  0  0  0  0  0  0
  151.6220  142.6853  159.8093 C   0  0  0  0  0  0  0  0  0  0  0  0
  152.2041  143.6085  158.7435 C   0  0  0  0  0  0  0  0  0  0  0  0
  151.5572  143.1152  157.4449 C   0  0  0  0  0  0  0  0  0  0  0  0
  144.9145  145.2968  156.1515 C   0  0  0  0  0  0  0  0  0  0  0  0
  144.2372  146.6658  156.3457 C   0  0  1  0  0  0  0  0  0  0  0  0
  144.8215  147.4328  157.5367 C   0  0  0  0  0  0  0  0  0  0  0  0
  144.4205  147.4595  155.1749 O   0  0  0  0  0  0  0  0  0  0  0  0
  142.1476  146.4837  152.8515 H   0  0  0  0  0  0  0  0  0  0  0  0
  142.0456  147.8403  153.9677 H   0  0  0  0  0  0  0  0  0  0  0  0
  141.9919  146.1871  154.5756 H   0  0  0  0  0  0  0  0  0  0  0  0
  144.3648  147.4858  153.1504 H   0  0  0  0  0  0  0  0  0  0  0  0
  144.2313  144.9756  152.9057 H   0  0  0  0  0  0  0  0  0  0  0  0
  145.6993  145.5821  153.6301 H   0  0  0  0  0  0  0  0  0  0  0  0
  145.2429  142.8635  155.7533 H   0  0  0  0  0  0  0  0  0  0  0  0
  144.3374  142.6213  154.2861 H   0  0  0  0  0  0  0  0  0  0  0  0
  146.3252  142.6353  153.1391 H   0  0  0  0  0  0  0  0  0  0  0  0
  146.5492  144.3144  153.5745 H   0  0  0  0  0  0  0  0  0  0  0  0
  147.6131  143.3958  155.6915 H   0  0  0  0  0  0  0  0  0  0  0  0
  149.1121  142.2890  156.3332 H   0  0  0  0  0  0  0  0  0  0  0  0
  149.8764  139.8295  153.6395 H   0  0  0  0  0  0  0  0  0  0  0  0
  151.7276  138.1890  153.8437 H   0  0  0  0  0  0  0  0  0  0  0  0
  153.2010  138.2823  155.8697 H   0  0  0  0  0  0  0  0  0  0  0  0
  150.7337  140.7167  159.5024 H   0  0  0  0  0  0  0  0  0  0  0  0
  152.4448  140.8418  159.0725 H   0  0  0  0  0  0  0  0  0  0  0  0
  150.6380  143.0431  160.1163 H   0  0  0  0  0  0  0  0  0  0  0  0
  152.2490  142.6061  160.6978 H   0  0  0  0  0  0  0  0  0  0  0  0
  152.0103  144.6633  158.9402 H   0  0  0  0  0  0  0  0  0  0  0  0
  153.2847  143.4692  158.6910 H   0  0  0  0  0  0  0  0  0  0  0  0
  152.2478  143.1854  156.6033 H   0  0  0  0  0  0  0  0  0  0  0  0
  150.6798  143.7205  157.2161 H   0  0  0  0  0  0  0  0  0  0  0  0
  144.7347  144.6951  157.0415 H   0  0  0  0  0  0  0  0  0  0  0  0
  145.9948  145.4300  156.0765 H   0  0  0  0  0  0  0  0  0  0  0  0
  143.1707  146.5220  156.5212 H   0  0  0  0  0  0  0  0  0  0  0  0
  144.6968  146.8727  158.4638 H   0  0  0  0  0  0  0  0  0  0  0  0
  144.3251  148.3954  157.6609 H   0  0  0  0  0  0  0  0  0  0  0  0
  145.8866  147.6224  157.4000 H   0  0  0  0  0  0  0  0  0  0  0  0
  1  2  1  0  0  0  0
  1 26  1  0  0  0  0
  1 27  1  0  0  0  0
  1 28  1  0  0  0  0
  2 25  1  0  0  0  0
  2  3  1  0  0  0  0
  2 29  1  0  0  0  0
  3  4  1  0  0  0  0
  3 30  1  0  0  0  0
  3 31  1  0  0  0  0
  4  5  1  0  0  0  0
  4 22  1  0  0  0  0
  5  6  1  0  0  0  0
  5 32  1  0  0  0  0
  5 33  1  0  0  0  0
  6  7  1  0  0  0  0
  6 34  1  0  0  0  0
  6 35  1  0  0  0  0
  7  8  1  0  0  0  0
  7 36  1  0  0  0  0
  8  9  2  0  0  0  0
  8 10  1  0  0  0  0
 10 11  1  0  0  0  0
 10 37  1  0  0  0  0
 11 16  1  0  0  0  0
 11 12  2  0  0  0  0
 12 13  1  0  0  0  0
 12 38  1  0  0  0  0
 13 14  2  0  0  0  0
 13 39  1  0  0  0  0
 14 15  1  0  0  0  0
 14 40  1  0  0  0  0
 15 16  2  0  0  0  0
 16 17  1  0  0  0  0
 17 21  1  0  0  0  0
 17 18  1  0  0  0  0
 18 19  1  0  0  0  0
 18 41  1  0  0  0  0
 18 42  1  0  0  0  0
 19 20  1  0  0  0  0
 19 43  1  0  0  0  0
 19 44  1  0  0  0  0
 20 21  1  0  0  0  0
 20 45  1  0  0  0  0
 20 46  1  0  0  0  0
 21 47  1  0  0  0  0
 21 48  1  0  0  0  0
 22 23  1  0  0  0  0
 22 49  1  0  0  0  0
 22 50  1  0  0  0  0
 23 24  1  0  0  0  0
 23 25  1  0  0  0  0
 23 51  1  0  0  0  0
 24 52  1  0  0  0  0
 24 53  1  0  0  0  0
 24 54  1  0  0  0  0
M  END
> <s_m_source_file>
AV-unprocessed.smi

> <i_m_source_file_index>
1244

> <i_lp_mmshare_version>
43012

> <i_f3d_flags>
0

> <s_epik_input>
W0NIM11bQ0BASF0xW0NIMl1OKFtDSDJdW0NASF0oTzEpW0NIM10pW0NIMl1bQ0gyXVtOSF1DKD1PKVtOSF1jMltjSF1bY0hdW2NIXW5jMk4zW0NIMl1bQ0gyXVtDSDJdW0NIMl0z

> <s_epik_cmdline>
J2VwaWtfcHl0aG9uJywgJy1waCcsICc3LjAnLCAnLXRuJywgJzgnLCAnLW1hJywgJzIwMCcsICctbWV0YWxfYmluZGluZycsICctaW1hZScsICc8aW5maWxlLm1hZT4nLCAnLW9tYWUnLCAnPG91dGZpbGUubWFlPic=

> <r_lp_tautomer_probability>
1

> <r_epik_Ionization_Penalty>
0.363951

> <r_epik_Ionization_Penalty_Charging>
0

> <r_epik_Ionization_Penalty_Neutral>
0.363951

> <r_epik_State_Penalty>
0.349372

> <r_epik_Charging_Adjusted_Penalty>
0.349372

> <i_epik_Tot_Q>
0

> <i_epik_Tot_abs_Q>
0

> <r_epik_Metal_State_Penalty>
0.333054

> <b_epik_Metal_Only>
0

> <s_lp_Force_Field>
OPLS_2005

> <r_lp_Energy>
51.1959

> <b_lp_Chiralities_Consistent>
1

> <s_lp_Variant>
AV-unprocessed.smi:1244-1

> <Gold.Version>
5.8.1

> <Gold.Id.Protein>
6NUR|6NUR_protein|mol2

> <Gold.PLP.Fitness>
48.7465

> <Gold.PLP.PLP>
-48.8832

> <Gold.PLP.part.hbond>
-3.7211

> <Gold.PLP.part.metal>
0.0000

> <Gold.PLP.part.buried>
-5.2743

> <Gold.PLP.part.nonpolar>
-39.4982

> <Gold.PLP.part.repulsive>
0.5534

> <Gold.PLP.ligand.clash>
0.0000

> <Gold.PLP.ligand.torsion>
1.2232

> <Gold.PLP.Chemscore.Hbond>
0.6516

> <Gold.PLP.Chemscore.CHOScore>
0.0000

> <Gold.PLP.Chemscore.Metal>
0.0000

> <Gold.Chemscore.Hbonds>
donor molecule, donor type, donor heavy atom, donor atom, acceptor molecule, acceptor atom, score
      L1  H     7    36       P1  8028  0.22
      P1  H  7997  8010       L1    15  0.20
      P1  H  8011  8017       L1     9  0.43

> <Gold.PLP.Chemscore.Internal.Correction>
0.3548

> <Gold.Rescore>
     Score         DG    S(hbond)    S(metal)    S(lipo)     H(rot)  DE(clash)    DE(int)     intcor
     11.77     -14.49       0.01        0.00     110.63       1.55       0.04       2.68       ----

> <Gold.Chemscore.Fitness>
11.7737

> <Gold.Chemscore.DG>
-14.4944

> <Gold.Chemscore.ZeroCoef>
-5.4800

> <Gold.Chemscore.Hbond>
0.0099

> <Gold.Chemscore.Metal>
0.0000

> <Gold.Chemscore.Lipo>
110.6324

> <Gold.Chemscore.Internal_Hbond>
0.0000

> <Gold.Chemscore.DEClash>
0.0421

> <Gold.Chemscore.DEInternal>
2.6786

> <Gold.Chemscore.Rot>
1.5479

> <Gold.Chemscore.Internal.Correction>
   9.000000E+99

> <Gold.Chemscore.Hbonds>
donor molecule, donor type, donor heavy atom, donor atom, acceptor molecule, acceptor atom, score
      L1  H     7    36       P1  8028  0.03
      P1  H  8011  8017       L1     9  0.09

> <Gold.Chemscore.Hbond.Weighted>
-0.0331

> <Gold.Chemscore.Metal.Weighted>
-0.0000

> <Gold.Chemscore.Lipo.Weighted>
-12.9440

> <Gold.Chemscore.Internal_Hbond.Weighted>
0.0000

> <Gold.Chemscore.DEClash.Weighted>
0.0421

> <Gold.Chemscore.DEInternal.Weighted>
2.6786

> <Gold.Chemscore.Rot.Weighted>
3.9627

> <Gold.Chemscore.Internal.Correction.Weighted>
   9.000000E+99

> <Gold.Protein.RotatedTorsions>
[ 6907 6896 6895 6894 ] final   58.54 input  -60.11 | X-H torsion
[ 7974 7965 7964 7962 ] final  179.08 input  175.53 | X-H torsion
[ 8008 7997 7996 7995 ] final   52.02 input   59.86 | X-H torsion
[ 10167 10162 10161 10158 ] final  168.38 input  -65.29 | X-H torsion
[ 10718 10713 10712 10709 ] final  174.31 input   66.30 | X-H torsion
[ 10763 10752 10751 10750 ] final  -44.99 input  -60.55 | X-H torsion
[ 11005 11000 10999 10996 ] final   34.41 input  -57.11 | X-H torsion

> <Gold.Protein.ActiveResidues>
 VAL166  LYS551  ARG553  GLY616  TRP617  ASP618  TYR619  PRO620  LYS621  CYS622 
 ASP623  PHE694  ASN695  SER759  ASP760  ASP761  ALA762  ILE779  LEU786  VAL792 
 PHE793  MET794  SER795  GLU796  ALA797  LYS798  CYS799  TRP800  GLU811  SER814 

> <Gold.Protein.RotatedAtoms>
  152.3833  134.6556  160.0134 H   0  0  0  0  0  0  0  0  0  0  0  0  # atno 6907 bound_to 6896
  151.6812  133.3306  159.3228 H   0  0  0  0  0  0  0  0  0  0  0  0  # atno 6908 bound_to 6896
  150.7765  134.6715  159.6439 H   0  0  0  0  0  0  0  0  0  0  0  0  # atno 6909 bound_to 6896
  144.7149  140.0494  143.6435 H   0  0  0  0  0  0  0  0  0  0  0  0  # atno 7974 bound_to 7965
  155.4449  140.3456  155.4294 H   0  0  0  0  0  0  0  0  0  0  0  0  # atno 8008 bound_to 7997
  156.1256  140.1499  156.9172 H   0  0  0  0  0  0  0  0  0  0  0  0  # atno 8009 bound_to 7997
  154.4855  140.0856  156.7457 H   0  0  0  0  0  0  0  0  0  0  0  0  # atno 8010 bound_to 7997
  139.4967  144.3820  151.9611 H   0  0  0  0  0  0  0  0  0  0  0  0  # atno 10167 bound_to 10162
  156.9515  131.0032  151.2947 H   0  0  0  0  0  0  0  0  0  0  0  0  # atno 10718 bound_to 10713
  154.0212  135.6669  153.4772 H   0  0  0  0  0  0  0  0  0  0  0  0  # atno 10763 bound_to 10752
  153.0579  135.5045  154.8021 H   0  0  0  0  0  0  0  0  0  0  0  0  # atno 10764 bound_to 10752
  154.6936  135.3066  154.9408 H   0  0  0  0  0  0  0  0  0  0  0  0  # atno 10765 bound_to 10752
  140.2531  134.3280  155.7883 H   0  0  0  0  0  0  0  0  0  0  0  0  # atno 11005 bound_to 11000
  145.9957  139.3050  143.0958 LP  0  0  0  0  0  0  0  0  0  0  0  0  # atno 17320 bound_to 7965
  145.8851  140.9338  143.0581 LP  0  0  0  0  0  0  0  0  0  0  0  0  # atno 17321 bound_to 7965
  140.3257  144.3376  150.5999 LP  0  0  0  0  0  0  0  0  0  0  0  0  # atno 17342 bound_to 10162
  140.5686  143.2183  151.7639 LP  0  0  0  0  0  0  0  0  0  0  0  0  # atno 17343 bound_to 10162
  157.5719  130.8316  149.8403 LP  0  0  0  0  0  0  0  0  0  0  0  0  # atno 17370 bound_to 10713
  156.0361  130.3751  150.1557 LP  0  0  0  0  0  0  0  0  0  0  0  0  # atno 17371 bound_to 10713
  141.2199  133.7365  156.9068 LP  0  0  0  0  0  0  0  0  0  0  0  0  # atno 17394 bound_to 11000
  140.1538  134.9212  157.2627 LP  0  0  0  0  0  0  0  0  0  0  0  0  # atno 17395 bound_to 11000

$$$$
