AV-unprocessed.smi:753|AV-procd|sdf|3606|dock4
  -GOLD-   22720 1 03D 1   1.00000     0.00000
 Structure written by MMmdl.
 44 46  0  0  0  0  0  0  0  0  2 V2000
  146.2020  129.8743  151.3951 C   0  0  0  0  0  0  0  0  0  0  0  0
  145.7212  131.2938  151.1809 C   0  0  0  0  0  0  0  0  0  0  0  0
  144.3541  131.6423  151.2234 C   0  0  0  0  0  0  0  0  0  0  0  0
  143.9791  132.9855  151.0132 C   0  0  0  0  0  0  0  0  0  0  0  0
  144.9780  133.9528  150.7665 C   0  0  0  0  0  0  0  0  0  0  0  0
  144.6047  135.4028  150.5326 C   0  0  0  0  0  0  0  0  0  0  0  0
  145.2865  136.3443  151.5380 C   0  0  0  0  0  0  0  0  0  0  0  0
  144.3480  137.3248  152.0685 N   0  0  0  0  0  0  0  0  0  0  0  0
  143.3073  137.0389  152.8687 C   0  0  0  0  0  0  0  0  0  0  0  0
  143.0244  135.8974  153.2281 O   0  0  0  0  0  0  0  0  0  0  0  0
  142.5873  138.1057  153.2578 N   0  0  0  0  0  0  0  0  0  0  0  0
  141.4044  138.1299  154.1219 C   0  0  1  0  0  0  0  0  0  0  0  0
  140.7183  139.5139  154.1123 C   0  0  0  0  0  0  0  0  0  0  0  0
  139.2847  139.1848  153.6562 C   0  0  2  0  0  0  0  0  0  0  0  0
  138.5555  138.4040  154.7670 C   0  0  0  0  0  0  0  0  0  0  0  0
  139.2338  137.0209  154.7151 C   0  0  0  0  0  0  0  0  0  0  0  0
  140.2802  137.2027  153.6002 C   0  0  1  0  0  0  0  0  0  0  0  0
  139.5300  138.0982  152.6188 C   0  0  0  0  0  0  0  0  0  0  0  0
  146.3290  133.5460  150.7345 C   0  0  0  0  0  0  0  0  0  0  0  0
  146.6470  132.2491  150.9394 N   0  3  0  0  0  0  0  0  0  0  0  0
  145.3709  129.2087  151.6298 H   0  0  0  0  0  0  0  0  0  0  0  0
  146.9135  129.8345  152.2206 H   0  0  0  0  0  0  0  0  0  0  0  0
  146.6945  129.5009  150.4969 H   0  0  0  0  0  0  0  0  0  0  0  0
  143.5995  130.8931  151.4138 H   0  0  0  0  0  0  0  0  0  0  0  0
  142.9365  133.2673  151.0399 H   0  0  0  0  0  0  0  0  0  0  0  0
  144.8764  135.6765  149.5120 H   0  0  0  0  0  0  0  0  0  0  0  0
  143.5208  135.5054  150.5994 H   0  0  0  0  0  0  0  0  0  0  0  0
  145.6866  135.7711  152.3746 H   0  0  0  0  0  0  0  0  0  0  0  0
  146.1344  136.8515  151.0746 H   0  0  0  0  0  0  0  0  0  0  0  0
  144.5036  138.2910  151.8197 H   0  0  0  0  0  0  0  0  0  0  0  0
  142.8855  139.0019  152.9010 H   0  0  0  0  0  0  0  0  0  0  0  0
  141.6947  137.8654  155.1404 H   0  0  0  0  0  0  0  0  0  0  0  0
  140.7387  139.9924  155.0922 H   0  0  0  0  0  0  0  0  0  0  0  0
  141.1945  140.1944  153.4043 H   0  0  0  0  0  0  0  0  0  0  0  0
  138.7313  140.0518  153.2940 H   0  0  0  0  0  0  0  0  0  0  0  0
  138.6560  138.8819  155.7422 H   0  0  0  0  0  0  0  0  0  0  0  0
  137.4912  138.3159  154.5453 H   0  0  0  0  0  0  0  0  0  0  0  0
  139.6824  136.7385  155.6681 H   0  0  0  0  0  0  0  0  0  0  0  0
  138.5102  136.2507  154.4447 H   0  0  0  0  0  0  0  0  0  0  0  0
  140.6299  136.2577  153.1834 H   0  0  0  0  0  0  0  0  0  0  0  0
  138.6116  137.6491  152.2361 H   0  0  0  0  0  0  0  0  0  0  0  0
  140.1421  138.4312  151.7790 H   0  0  0  0  0  0  0  0  0  0  0  0
  147.1590  134.2122  150.5497 H   0  0  0  0  0  0  0  0  0  0  0  0
  147.6303  131.9785  150.9100 H   0  0  0  0  0  0  0  0  0  0  0  0
  1  2  1  0  0  0  0
  1 21  1  0  0  0  0
  1 22  1  0  0  0  0
  1 23  1  0  0  0  0
  2 20  1  0  0  0  0
  2  3  2  0  0  0  0
  3  4  1  0  0  0  0
  3 24  1  0  0  0  0
  4  5  2  0  0  0  0
  4 25  1  0  0  0  0
  5  6  1  0  0  0  0
  5 19  1  0  0  0  0
  6  7  1  0  0  0  0
  6 26  1  0  0  0  0
  6 27  1  0  0  0  0
  7  8  1  0  0  0  0
  7 28  1  0  0  0  0
  7 29  1  0  0  0  0
  8  9  1  0  0  0  0
  8 30  1  0  0  0  0
  9 10  2  0  0  0  0
  9 11  1  0  0  0  0
 11 12  1  0  0  0  0
 11 31  1  0  0  0  0
 12 17  1  0  0  0  0
 12 13  1  0  0  0  0
 12 32  1  0  0  0  0
 13 14  1  0  0  0  0
 13 33  1  0  0  0  0
 13 34  1  0  0  0  0
 14 18  1  0  0  0  0
 14 15  1  0  0  0  0
 14 35  1  0  0  0  0
 15 16  1  0  0  0  0
 15 36  1  0  0  0  0
 15 37  1  0  0  0  0
 16 17  1  0  0  0  0
 16 38  1  0  0  0  0
 16 39  1  0  0  0  0
 17 18  1  0  0  0  0
 17 40  1  0  0  0  0
 18 41  1  0  0  0  0
 18 42  1  0  0  0  0
 19 20  2  0  0  0  0
 19 43  1  0  0  0  0
 20 44  1  0  0  0  0
M  CHG  1  20   1
M  END
> <s_m_source_file>
AV-unprocessed.smi

> <i_m_source_file_index>
753

> <i_lp_mmshare_version>
43012

> <i_f3d_flags>
0

> <s_epik_input>
W0NIM11jMVtjSF1bY0hdYyhbY0hdbjEpW0NIMl1bQ0gyXVtOSF1DKD1PKVtOSF1bQ0BIXShbQ0gyXVtDQEBIXTIzKVtDQEBIXShbQ0gyXTMpW0NIMl1bQ0gyXTI=

> <s_epik_cmdline>
J2VwaWtfcHl0aG9uJywgJy1waCcsICc3LjAnLCAnLXRuJywgJzgnLCAnLW1hJywgJzIwMCcsICctbWV0YWxfYmluZGluZycsICctaW1hZScsICc8aW5maWxlLm1hZT4nLCAnLW9tYWUnLCAnPG91dGZpbGUubWFlPic=

> <r_epik_Ionization_Penalty>
1.41708

> <r_epik_Ionization_Penalty_Charging>
1.41702

> <r_epik_Ionization_Penalty_Neutral>
5.73163e-05

> <r_epik_State_Penalty>
1.50048

> <r_epik_Charging_Adjusted_Penalty>
2.9175

> <i_epik_Tot_Q>
1

> <i_epik_Tot_abs_Q>
1

> <r_epik_Metal_State_Penalty>
1.55295

> <b_epik_Metal_Only>
0

> <s_lp_Force_Field>
OPLS_2005

> <r_lp_Energy>
57.1024

> <b_lp_Chiralities_Consistent>
1

> <s_lp_Variant>
AV-unprocessed.smi:753-8

> <Gold.Version>
5.8.1

> <Gold.Id.Protein>
6NUR|6NUR_protein|mol2

> <Gold.PLP.Fitness>
47.2306

> <Gold.PLP.PLP>
-41.6256

> <Gold.PLP.part.hbond>
-3.4021

> <Gold.PLP.part.metal>
0.0000

> <Gold.PLP.part.buried>
-5.2014

> <Gold.PLP.part.nonpolar>
-32.4567

> <Gold.PLP.part.repulsive>
0.2199

> <Gold.PLP.ligand.clash>
0.0000

> <Gold.PLP.ligand.torsion>
0.4188

> <Gold.PLP.Chemscore.Hbond>
2.1386

> <Gold.PLP.Chemscore.CHOScore>
0.0000

> <Gold.PLP.Chemscore.Metal>
0.0000

> <Gold.Chemscore.Hbonds>
donor molecule, donor type, donor heavy atom, donor atom, acceptor molecule, acceptor atom, score
      L1  H     8    30       P1 10171  0.15
      L1  H    11    31       P1 10175  1.00
      L1  H    20    44       P1 10747  1.00

> <Gold.PLP.Chemscore.Internal.Correction>
0.0267

> <Gold.Rescore>
     Score         DG    S(hbond)    S(metal)    S(lipo)     H(rot)  DE(clash)    DE(int)     intcor
     21.44     -22.13       2.41        0.00     106.38       1.50       0.30       0.39       ----

> <Gold.Chemscore.Fitness>
21.4365

> <Gold.Chemscore.DG>
-22.1264

> <Gold.Chemscore.ZeroCoef>
-5.4800

> <Gold.Chemscore.Hbond>
2.4091

> <Gold.Chemscore.Metal>
0.0000

> <Gold.Chemscore.Lipo>
106.3825

> <Gold.Chemscore.Internal_Hbond>
0.0000

> <Gold.Chemscore.DEClash>
0.2983

> <Gold.Chemscore.DEInternal>
0.3915

> <Gold.Chemscore.Rot>
1.5027

> <Gold.Chemscore.Internal.Correction>
   9.000000E+99

> <Gold.Chemscore.Hbonds>
donor molecule, donor type, donor heavy atom, donor atom, acceptor molecule, acceptor atom, score
      L1  H     8    30       P1 10171  0.14
      L1  H    11    31       P1 10175  1.00
      L1  H    20    44       P1 10747  0.94

> <Gold.Chemscore.Hbond.Weighted>
-8.0464

> <Gold.Chemscore.Metal.Weighted>
-0.0000

> <Gold.Chemscore.Lipo.Weighted>
-12.4467

> <Gold.Chemscore.Internal_Hbond.Weighted>
0.0000

> <Gold.Chemscore.DEClash.Weighted>
0.2983

> <Gold.Chemscore.DEInternal.Weighted>
0.3915

> <Gold.Chemscore.Rot.Weighted>
3.8468

> <Gold.Chemscore.Internal.Correction.Weighted>
   9.000000E+99

> <Gold.Protein.RotatedTorsions>
[ 6907 6896 6895 6894 ] final  -83.17 input  -60.11 | X-H torsion
[ 7974 7965 7964 7962 ] final  -23.87 input  175.53 | X-H torsion
[ 8008 7997 7996 7995 ] final -137.58 input   59.86 | X-H torsion
[ 10167 10162 10161 10158 ] final  -89.92 input  -65.29 | X-H torsion
[ 10718 10713 10712 10709 ] final   32.49 input   66.30 | X-H torsion
[ 10763 10752 10751 10750 ] final  -64.00 input  -60.55 | X-H torsion
[ 11005 11000 10999 10996 ] final -107.95 input  -57.11 | X-H torsion

> <Gold.Protein.ActiveResidues>
 VAL166  LYS551  ARG553  GLY616  TRP617  ASP618  TYR619  PRO620  LYS621  CYS622 
 ASP623  PHE694  ASN695  SER759  ASP760  ASP761  ALA762  ILE779  LEU786  VAL792 
 PHE793  MET794  SER795  GLU796  ALA797  LYS798  CYS799  TRP800  GLU811  SER814 

> <Gold.Protein.RotatedAtoms>
  150.6888  134.3553  159.4926 H   0  0  0  0  0  0  0  0  0  0  0  0  # atno 6907 bound_to 6896
  152.1389  134.9075  160.0564 H   0  0  0  0  0  0  0  0  0  0  0  0  # atno 6908 bound_to 6896
  152.0217  133.3866  159.4298 H   0  0  0  0  0  0  0  0  0  0  0  0  # atno 6909 bound_to 6896
  146.1589  140.4675  142.8579 H   0  0  0  0  0  0  0  0  0  0  0  0  # atno 7974 bound_to 7965
  155.4142  140.0514  157.3030 H   0  0  0  0  0  0  0  0  0  0  0  0  # atno 8008 bound_to 7997
  154.4932  140.2128  155.9462 H   0  0  0  0  0  0  0  0  0  0  0  0  # atno 8009 bound_to 7997
  156.1371  140.3161  155.8442 H   0  0  0  0  0  0  0  0  0  0  0  0  # atno 8010 bound_to 7997
  140.3601  143.2846  151.9625 H   0  0  0  0  0  0  0  0  0  0  0  0  # atno 10167 bound_to 10162
  157.2859  130.7278  149.6583 H   0  0  0  0  0  0  0  0  0  0  0  0  # atno 10718 bound_to 10713
  154.3236  135.6191  153.5519 H   0  0  0  0  0  0  0  0  0  0  0  0  # atno 10763 bound_to 10752
  152.9817  135.5730  154.5042 H   0  0  0  0  0  0  0  0  0  0  0  0  # atno 10764 bound_to 10752
  154.4715  135.2859  155.1616 H   0  0  0  0  0  0  0  0  0  0  0  0  # atno 10765 bound_to 10752
  141.0927  133.9026  157.2037 H   0  0  0  0  0  0  0  0  0  0  0  0  # atno 11005 bound_to 11000
  144.8001  140.6196  143.6484 LP  0  0  0  0  0  0  0  0  0  0  0  0  # atno 17320 bound_to 7965
  145.4638  139.1510  143.3852 LP  0  0  0  0  0  0  0  0  0  0  0  0  # atno 17321 bound_to 7965
  139.4815  144.6000  151.7622 LP  0  0  0  0  0  0  0  0  0  0  0  0  # atno 17342 bound_to 10162
  140.5136  144.0988  150.6002 LP  0  0  0  0  0  0  0  0  0  0  0  0  # atno 17343 bound_to 10162
  155.9665  130.4324  150.4960 LP  0  0  0  0  0  0  0  0  0  0  0  0  # atno 17370 bound_to 10713
  157.2913  131.0627  151.2132 LP  0  0  0  0  0  0  0  0  0  0  0  0  # atno 17371 bound_to 10713
  139.9756  135.0115  156.9623 LP  0  0  0  0  0  0  0  0  0  0  0  0  # atno 17394 bound_to 11000
  140.5214  134.0904  155.7293 LP  0  0  0  0  0  0  0  0  0  0  0  0  # atno 17395 bound_to 11000

$$$$
