AV-unprocessed.smi:2821|AV-procd|sdf|10859|dock10
  -GOLD-   2272015303D 1   1.00000     0.00000
 Structure written by MMmdl.
 36 37  0  0  0  0  0  0  0  0  1 V2000
  146.3662  138.3596  153.6713 C   0  0  0  0  0  0  0  0  0  0  0  0
  147.0369  139.6718  153.2588 C   0  0  0  0  0  0  0  0  0  0  0  0
  147.1906  140.4907  154.4141 O   0  0  0  0  0  0  0  0  0  0  0  0
  148.4589  140.6611  154.9291 C   0  0  0  0  0  0  0  0  0  0  0  0
  149.5448  139.9703  154.3502 C   0  0  0  0  0  0  0  0  0  0  0  0
  150.8082  140.1120  154.8080 N   0  0  0  0  0  0  0  0  0  0  0  0
  150.9835  140.9546  155.8498 C   0  0  0  0  0  0  0  0  0  0  0  0
  149.9071  141.6547  156.4380 C   0  0  0  0  0  0  0  0  0  0  0  0
  150.1574  142.5226  157.5107 N   0  0  0  0  0  0  0  0  0  0  0  0
  151.5054  142.7284  158.0393 C   0  0  1  0  0  0  0  0  0  0  0  0
  151.8609  144.2211  157.9789 C   0  0  0  0  0  0  0  0  0  0  0  0
  151.6762  142.1714  159.4750 C   0  0  1  0  0  0  0  0  0  0  0  0
  153.0534  141.5664  159.8055 C   0  0  0  0  0  0  0  0  0  0  0  0
  153.5968  142.4829  160.8846 C   0  0  0  0  0  0  0  0  0  0  0  0
  152.3236  142.9974  161.5401 C   0  0  0  0  0  0  0  0  0  0  0  0
  151.4503  143.1953  160.4408 O   0  0  0  0  0  0  0  0  0  0  0  0
  148.6421  141.4969  155.9817 N   0  0  0  0  0  0  0  0  0  0  0  0
  146.2270  137.7063  152.8099 H   0  0  0  0  0  0  0  0  0  0  0  0
  145.3872  138.5429  154.1144 H   0  0  0  0  0  0  0  0  0  0  0  0
  146.9716  137.8242  154.4031 H   0  0  0  0  0  0  0  0  0  0  0  0
  148.0085  139.4592  152.8090 H   0  0  0  0  0  0  0  0  0  0  0  0
  146.4228  140.1789  152.5127 H   0  0  0  0  0  0  0  0  0  0  0  0
  149.3994  139.3035  153.5131 H   0  0  0  0  0  0  0  0  0  0  0  0
  151.9943  141.0744  156.2121 H   0  0  0  0  0  0  0  0  0  0  0  0
  149.3809  142.7883  158.0986 H   0  0  0  0  0  0  0  0  0  0  0  0
  152.2179  142.2180  157.3905 H   0  0  0  0  0  0  0  0  0  0  0  0
  152.8801  144.3960  158.3247 H   0  0  0  0  0  0  0  0  0  0  0  0
  151.1929  144.8198  158.5990 H   0  0  0  0  0  0  0  0  0  0  0  0
  151.7936  144.5987  156.9580 H   0  0  0  0  0  0  0  0  0  0  0  0
  150.9129  141.4119  159.6508 H   0  0  0  0  0  0  0  0  0  0  0  0
  152.9250  140.5595  160.2048 H   0  0  0  0  0  0  0  0  0  0  0  0
  153.7245  141.4952  158.9495 H   0  0  0  0  0  0  0  0  0  0  0  0
  154.2630  141.9760  161.5830 H   0  0  0  0  0  0  0  0  0  0  0  0
  154.1416  143.3123  160.4317 H   0  0  0  0  0  0  0  0  0  0  0  0
  151.9006  142.2490  162.2120 H   0  0  0  0  0  0  0  0  0  0  0  0
  152.4784  143.9198  162.1001 H   0  0  0  0  0  0  0  0  0  0  0  0
  1  2  1  0  0  0  0
  1 18  1  0  0  0  0
  1 19  1  0  0  0  0
  1 20  1  0  0  0  0
  2  3  1  0  0  0  0
  2 21  1  0  0  0  0
  2 22  1  0  0  0  0
  3  4  1  0  0  0  0
  4 17  1  0  0  0  0
  4  5  2  0  0  0  0
  5  6  1  0  0  0  0
  5 23  1  0  0  0  0
  6  7  2  0  0  0  0
  7  8  1  0  0  0  0
  7 24  1  0  0  0  0
  8  9  1  0  0  0  0
  8 17  2  0  0  0  0
  9 10  1  0  0  0  0
  9 25  1  0  0  0  0
 10 11  1  0  0  0  0
 10 12  1  0  0  0  0
 10 26  1  0  0  0  0
 11 27  1  0  0  0  0
 11 28  1  0  0  0  0
 11 29  1  0  0  0  0
 12 16  1  0  0  0  0
 12 13  1  0  0  0  0
 12 30  1  0  0  0  0
 13 14  1  0  0  0  0
 13 31  1  0  0  0  0
 13 32  1  0  0  0  0
 14 15  1  0  0  0  0
 14 33  1  0  0  0  0
 14 34  1  0  0  0  0
 15 16  1  0  0  0  0
 15 35  1  0  0  0  0
 15 36  1  0  0  0  0
M  END
> <s_m_source_file>
AV-unprocessed.smi

> <i_m_source_file_index>
2821

> <i_lp_mmshare_version>
43012

> <i_f3d_flags>
0

> <s_epik_input>
W0NIM11bQ0gyXU9jMVtjSF1uW2NIXWMobjEpW05IXVtDQEhdKFtDSDNdKVtDQEBIXTJbQ0gyXVtDSDJdW0NIMl1PMg==

> <s_epik_cmdline>
J2VwaWtfcHl0aG9uJywgJy1waCcsICc3LjAnLCAnLXRuJywgJzgnLCAnLW1hJywgJzIwMCcsICctbWV0YWxfYmluZGluZycsICctaW1hZScsICc8aW5maWxlLm1hZT4nLCAnLW9tYWUnLCAnPG91dGZpbGUubWFlPic=

> <r_lp_tautomer_probability>
1

> <r_epik_Ionization_Penalty>
4.69533e-05

> <r_epik_Ionization_Penalty_Charging>
0

> <r_epik_Ionization_Penalty_Neutral>
4.69533e-05

> <r_epik_State_Penalty>
-0

> <r_epik_Charging_Adjusted_Penalty>
0

> <i_epik_Tot_Q>
0

> <i_epik_Tot_abs_Q>
0

> <r_epik_Metal_State_Penalty>
-0

> <b_epik_Metal_Only>
0

> <s_lp_Force_Field>
OPLS_2005

> <r_lp_Energy>
30.0608

> <b_lp_Chiralities_Consistent>
1

> <s_lp_Variant>
AV-unprocessed.smi:2821-4

> <Gold.Version>
5.8.1

> <Gold.Id.Protein>
6NUR|6NUR_protein|mol2

> <Gold.PLP.Fitness>
38.5002

> <Gold.PLP.PLP>
-35.4963

> <Gold.PLP.part.hbond>
-2.4993

> <Gold.PLP.part.metal>
0.0000

> <Gold.PLP.part.buried>
-4.0578

> <Gold.PLP.part.nonpolar>
-29.4551

> <Gold.PLP.part.repulsive>
0.5643

> <Gold.PLP.ligand.clash>
0.0000

> <Gold.PLP.ligand.torsion>
1.2495

> <Gold.PLP.Chemscore.Hbond>
1.0000

> <Gold.PLP.Chemscore.CHOScore>
0.8210

> <Gold.PLP.Chemscore.Metal>
0.0000

> <Gold.Chemscore.Hbonds>
donor molecule, donor type, donor heavy atom, donor atom, acceptor molecule, acceptor atom, score
      P1  H  7989  7998       L1     6  1.00
      L1  C     5    23       P1  7957  0.86

> <Gold.PLP.Chemscore.Internal.Correction>
0.0400

> <Gold.Rescore>
     Score         DG    S(hbond)    S(metal)    S(lipo)     H(rot)  DE(clash)    DE(int)     intcor
     13.24     -14.23       0.71        0.00      88.57       1.55       0.12       0.87       ----

> <Gold.Chemscore.Fitness>
13.2379

> <Gold.Chemscore.DG>
-14.2288

> <Gold.Chemscore.ZeroCoef>
-5.4800

> <Gold.Chemscore.Hbond>
0.7060

> <Gold.Chemscore.Metal>
0.0000

> <Gold.Chemscore.Lipo>
88.5655

> <Gold.Chemscore.Internal_Hbond>
0.0000

> <Gold.Chemscore.DEClash>
0.1175

> <Gold.Chemscore.DEInternal>
0.8734

> <Gold.Chemscore.Rot>
1.5514

> <Gold.Chemscore.Internal.Correction>
   9.000000E+99

> <Gold.Chemscore.Hbonds>
donor molecule, donor type, donor heavy atom, donor atom, acceptor molecule, acceptor atom, score
      P1  H  7989  7998       L1     6  0.20

> <Gold.Chemscore.Hbond.Weighted>
-2.3582

> <Gold.Chemscore.Metal.Weighted>
-0.0000

> <Gold.Chemscore.Lipo.Weighted>
-10.3622

> <Gold.Chemscore.Internal_Hbond.Weighted>
0.0000

> <Gold.Chemscore.DEClash.Weighted>
0.1175

> <Gold.Chemscore.DEInternal.Weighted>
0.8734

> <Gold.Chemscore.Rot.Weighted>
3.9715

> <Gold.Chemscore.Internal.Correction.Weighted>
   9.000000E+99

> <Gold.Protein.RotatedTorsions>
[ 6907 6896 6895 6894 ] final  166.46 input  -60.11 | X-H torsion
[ 7974 7965 7964 7962 ] final -159.39 input  175.53 | X-H torsion
[ 8008 7997 7996 7995 ] final  107.17 input   59.86 | X-H torsion
[ 10167 10162 10161 10158 ] final  -16.23 input  -65.29 | X-H torsion
[ 10718 10713 10712 10709 ] final -112.96 input   66.30 | X-H torsion
[ 10763 10752 10751 10750 ] final   17.90 input  -60.55 | X-H torsion
[ 11005 11000 10999 10996 ] final   95.55 input  -57.11 | X-H torsion

> <Gold.Protein.ActiveResidues>
 VAL166  LYS551  ARG553  GLY616  TRP617  ASP618  TYR619  PRO620  LYS621  CYS622 
 ASP623  PHE694  ASN695  SER759  ASP760  ASP761  ALA762  ILE779  LEU786  VAL792 
 PHE793  MET794  SER795  GLU796  ALA797  LYS798  CYS799  TRP800  GLU811  SER814 

> <Gold.Protein.RotatedAtoms>
  151.8785  133.3490  159.3758 H   0  0  0  0  0  0  0  0  0  0  0  0  # atno 6907 bound_to 6896
  150.7134  134.5042  159.5585 H   0  0  0  0  0  0  0  0  0  0  0  0  # atno 6908 bound_to 6896
  152.2589  134.8055  160.0485 H   0  0  0  0  0  0  0  0  0  0  0  0  # atno 6909 bound_to 6896
  144.7467  140.3692  143.6079 H   0  0  0  0  0  0  0  0  0  0  0  0  # atno 7974 bound_to 7965
  156.1802  140.3099  155.9135 H   0  0  0  0  0  0  0  0  0  0  0  0  # atno 8008 bound_to 7997
  155.3399  140.0465  157.3061 H   0  0  0  0  0  0  0  0  0  0  0  0  # atno 8009 bound_to 7997
  154.5335  140.2238  155.8774 H   0  0  0  0  0  0  0  0  0  0  0  0  # atno 8010 bound_to 7997
  140.7230  143.5137  150.9718 H   0  0  0  0  0  0  0  0  0  0  0  0  # atno 10167 bound_to 10162
  156.0737  130.5948  150.8579 H   0  0  0  0  0  0  0  0  0  0  0  0  # atno 10718 bound_to 10713
  153.1297  135.6737  153.9198 H   0  0  0  0  0  0  0  0  0  0  0  0  # atno 10763 bound_to 10752
  153.8688  135.3072  155.3442 H   0  0  0  0  0  0  0  0  0  0  0  0  # atno 10764 bound_to 10752
  154.7696  135.4946  153.9704 H   0  0  0  0  0  0  0  0  0  0  0  0  # atno 10765 bound_to 10752
  139.8788  134.8905  156.4028 H   0  0  0  0  0  0  0  0  0  0  0  0  # atno 11005 bound_to 11000
  145.7096  139.1681  143.2546 LP  0  0  0  0  0  0  0  0  0  0  0  0  # atno 17320 bound_to 7965
  146.1356  140.7126  142.9391 LP  0  0  0  0  0  0  0  0  0  0  0  0  # atno 17321 bound_to 7965
  139.8852  143.7022  152.3152 LP  0  0  0  0  0  0  0  0  0  0  0  0  # atno 17342 bound_to 10162
  139.7318  144.7580  151.0789 LP  0  0  0  0  0  0  0  0  0  0  0  0  # atno 17343 bound_to 10162
  157.5822  131.0946  150.9253 LP  0  0  0  0  0  0  0  0  0  0  0  0  # atno 17370 bound_to 10713
  156.9446  130.5397  149.5281 LP  0  0  0  0  0  0  0  0  0  0  0  0  # atno 17371 bound_to 10713
  140.9255  133.7615  155.9959 LP  0  0  0  0  0  0  0  0  0  0  0  0  # atno 17394 bound_to 11000
  140.8390  134.3088  157.5320 LP  0  0  0  0  0  0  0  0  0  0  0  0  # atno 17395 bound_to 11000

$$$$
