#       Name:                AV-unprocessed.smi:12
#       Creating user name   scv26
#       Creation time:       Thu Mar 26 15:18:51 2020


#       File generated by GOLD software.
#

@<TRIPOS>MOLECULE
AV-unprocessed.smi:12
    52    55     1
SMALL
NO_CHARGES


@<TRIPOS>ATOM
      1 ****        -4.5733   3.0701  -3.2554 C.3            1 S1                 0.0000
      2 ****        -4.1208   2.2072  -2.0913 C.2            1 S1                 0.0000
      3 ****        -3.2319   2.6571  -1.1743 C.2            1 S1                 0.0000
      4 ****        -2.8533   1.8370  -0.1484 N.pl3          1 S1                 0.0000
      5 ****        -3.3996   0.5415  -0.0513 C.2            1 S1                 0.0000
      6 ****        -4.2530   0.0366  -0.8869 N.2            1 S1                 0.0000
      7 ****        -4.6727   0.8344  -1.9686 C.2            1 S1                 0.0000
      8 ****        -5.4797   0.3995  -2.7891 O.2            1 S1                 0.0000
      9 ****        -2.8883  -0.0653   1.0533 O.3            1 S1                 0.0000
     10 ****        -2.0339   0.8419   1.7720 C.3            1 S1                 0.0000
     11 ****        -0.5882   0.3658   1.8137 C.3            1 S1                 0.0000
     12 ****        -0.4926  -1.0283   2.0269 O.3            1 S1                 0.0000
     13 ****        -0.0310   0.8578   0.4782 C.3            1 S1                 0.0000
     14 ****         1.4974   0.9793   0.4294 C.3            1 S1                 0.0000
     15 ****         2.0752  -0.3162   0.4242 O.3            1 S1                 0.0000
     16 ****         3.4145  -0.4596   0.4408 C.2            1 S1                 0.0000
     17 ****         4.2020   0.4885   0.4568 O.2            1 S1                 0.0000
     18 ****         3.8443  -1.8881   0.4382 C.ar           1 S1                 0.0000
     19 ****         5.2250  -2.1962   0.4323 C.ar           1 S1                 0.0000
     20 ****         5.6613  -3.5353   0.4300 C.ar           1 S1                 0.0000
     21 ****         4.7222  -4.5829   0.4342 C.ar           1 S1                 0.0000
     22 ****         3.3461  -4.2899   0.4404 C.ar           1 S1                 0.0000
     23 ****         2.9075  -2.9513   0.4423 C.ar           1 S1                 0.0000
     24 ****        -0.6171   2.1537   0.3910 O.3            1 S1                 0.0000
     25 ****        -1.9084   2.1322   0.9316 C.3            1 S1                 0.0000
     26 ****        -4.0989   4.0516  -3.2304 H              1 S1                 0.0000
     27 ****        -5.6533   3.2172  -3.2241 H              1 S1                 0.0000
     28 ****        -4.3169   2.5951  -4.2030 H              1 S1                 0.0000
     29 ****        -2.8141   3.6510  -1.2440 H              1 S1                 0.0000
     30 ****        -2.4414   1.0566   2.7606 H              1 S1                 0.0000
     31 ****        -0.0710   0.8760   2.6278 H              1 S1                 0.0000
     32 ****         0.4203  -1.2728   2.0111 H              1 S1                 0.0000
     33 ****        -0.3960   0.2465  -0.3492 H              1 S1                 0.0000
     34 ****         1.7979   1.5095  -0.4752 H              1 S1                 0.0000
     35 ****         1.8606   1.5539   1.2826 H              1 S1                 0.0000
     36 ****         5.9649  -1.4088   0.4290 H              1 S1                 0.0000
     37 ****         6.7180  -3.7584   0.4249 H              1 S1                 0.0000
     38 ****         5.0573  -5.6097   0.4327 H              1 S1                 0.0000
     39 ****         2.6244  -5.0934   0.4436 H              1 S1                 0.0000
     40 ****         1.8438  -2.7625   0.4472 H              1 S1                 0.0000
     41 ****        -2.2460   3.0596   1.3952 H              1 S1                 0.0000
     42 ****        -4.6030  -0.8924  -0.7666 LP             1 S1                 0.0000
     43 ****        -5.7738   0.9731  -3.5536 LP             1 S1                 0.0000
     44 ****        -5.8416  -0.5276  -2.6915 LP             1 S1                 0.0000
     45 ****        -2.3584  -0.8661   0.7741 LP             1 S1                 0.0000
     46 ****        -3.6386  -0.3531   1.6485 LP             1 S1                 0.0000
     47 ****        -0.9844  -1.5144   1.3045 LP             1 S1                 0.0000
     48 ****        -0.8888  -1.2616   2.9150 LP             1 S1                 0.0000
     49 ****         3.8553   1.4265   0.4580 LP             1 S1                 0.0000
     50 ****         5.1875   0.3197   0.4687 LP             1 S1                 0.0000
     51 ****        -0.6643   2.4320  -0.5683 LP             1 S1                 0.0000
     52 ****        -0.0557   2.8061   0.9002 LP             1 S1                 0.0000
@<TRIPOS>BOND
    1    1    2 1     
    2    1   26 1     
    3    1   27 1     
    4    1   28 1     
    5    2    7 1     
    6    2    3 2     
    7    3    4 1     
    8    3   29 1     
    9    4   25 1     
   10    4    5 1     
   11    5    6 2     
   12    5    9 1     
   13    6    7 1     
   14    7    8 2     
   15    9   10 1     
   16   10   25 1     
   17   10   11 1     
   18   10   30 1     
   19   11   12 1     
   20   11   13 1     
   21   11   31 1     
   22   12   32 1     
   23   13   14 1     
   24   13   24 1     
   25   13   33 1     
   26   14   15 1     
   27   14   34 1     
   28   14   35 1     
   29   15   16 1     
   30   16   17 2     
   31   16   18 1     
   32   18   23 ar    
   33   18   19 ar    
   34   19   20 ar    
   35   19   36 1     
   36   20   21 ar    
   37   20   37 1     
   38   21   22 ar    
   39   21   38 1     
   40   22   23 ar    
   41   22   39 1     
   42   23   40 1     
   43   24   25 1     
   44   25   41 1     
   45    6   42 1     
   46    8   43 1     
   47    8   44 1     
   48    9   45 1     
   49    9   46 1     
   50   12   47 1     
   51   12   48 1     
   52   17   49 1     
   53   17   50 1     
   54   24   51 1     
   55   24   52 1     
@<TRIPOS>SUBSTRUCTURE
      1 S1             1
@<TRIPOS>SET
LONE_PAIRS      STATIC     ATOMS    <user>   **** ""
11 42 43 44 45 46 47 48 49 50 51 52
DONOR_HYDROGENS      STATIC     ATOMS    <user>   **** ""
1 32
ATOM$BLUE        STATIC     ATOMS    COLORGROUP SYSTEM
11 42 43 44 45 46 47 48 49 50 51 52
ATOM$RED        STATIC     ATOMS    COLORGROUP SYSTEM
1 32
