AV-unprocessed.smi:887|AV-procd|sdf|4052|dock2
  -GOLD-   22720 1543D 1   1.00000     0.00000
 Structure written by MMmdl.
 31 32  0  0  0  0  0  0  0  0  1 V2000
  146.9413  138.9947  152.9655 C   0  0  0  0  0  0  0  0  0  0  0  0
  148.3930  138.9769  153.0614 N   0  0  0  0  0  0  0  0  0  0  0  0
  149.0721  138.8479  154.2108 C   0  0  0  0  0  0  0  0  0  0  0  0
  148.5264  138.7317  155.3082 O   0  0  0  0  0  0  0  0  0  0  0  0
  150.5994  138.8475  154.1093 C   0  0  0  0  0  0  0  0  0  0  0  0
  151.2111  139.5150  155.2994 C   0  0  0  0  0  0  0  0  0  0  0  0
  152.2415  138.9753  155.9406 N   0  0  0  0  0  0  0  0  0  0  0  0
  152.4892  139.8849  156.9783 O   0  0  0  0  0  0  0  0  0  0  0  0
  151.5905  140.8867  156.8187 C   0  0  0  0  0  0  0  0  0  0  0  0
  151.5432  141.9794  157.8408 C   0  0  2  0  0  0  0  0  0  0  0  0
  151.6083  143.3777  157.1890 C   0  0  0  0  0  0  0  0  0  0  0  0
  151.8617  144.4840  158.1985 C   0  0  0  0  0  0  0  0  0  0  0  0
  152.2497  144.2609  159.4656 C   0  0  0  0  0  0  0  0  0  0  0  0
  152.4914  142.8748  160.0340 C   0  0  0  0  0  0  0  0  0  0  0  0
  152.6198  141.8089  158.9303 C   0  0  0  0  0  0  0  0  0  0  0  0
  150.7408  140.6850  155.8131 N   0  0  0  0  0  0  0  0  0  0  0  0
  146.6393  139.1360  151.9278 H   0  0  0  0  0  0  0  0  0  0  0  0
  146.5217  139.8097  153.5567 H   0  0  0  0  0  0  0  0  0  0  0  0
  146.5179  138.0538  153.3190 H   0  0  0  0  0  0  0  0  0  0  0  0
  148.9142  139.0685  152.2012 H   0  0  0  0  0  0  0  0  0  0  0  0
  150.9538  137.8182  154.0433 H   0  0  0  0  0  0  0  0  0  0  0  0
  150.9243  139.3523  153.1982 H   0  0  0  0  0  0  0  0  0  0  0  0
  150.5767  141.8990  158.3408 H   0  0  0  0  0  0  0  0  0  0  0  0
  152.4187  143.4172  156.4603 H   0  0  0  0  0  0  0  0  0  0  0  0
  150.6846  143.5821  156.6470 H   0  0  0  0  0  0  0  0  0  0  0  0
  151.7205  145.4976  157.8526 H   0  0  0  0  0  0  0  0  0  0  0  0
  152.3932  145.0943  160.1375 H   0  0  0  0  0  0  0  0  0  0  0  0
  153.3954  142.8877  160.6434 H   0  0  0  0  0  0  0  0  0  0  0  0
  151.6623  142.6325  160.6995 H   0  0  0  0  0  0  0  0  0  0  0  0
  152.5571  140.8152  159.3754 H   0  0  0  0  0  0  0  0  0  0  0  0
  153.6088  141.8803  158.4749 H   0  0  0  0  0  0  0  0  0  0  0  0
  1  2  1  0  0  0  0
  1 17  1  0  0  0  0
  1 18  1  0  0  0  0
  1 19  1  0  0  0  0
  2  3  1  0  0  0  0
  2 20  1  0  0  0  0
  3  4  2  0  0  0  0
  3  5  1  0  0  0  0
  5  6  1  0  0  0  0
  5 21  1  0  0  0  0
  5 22  1  0  0  0  0
  6 16  1  0  0  0  0
  6  7  2  0  0  0  0
  7  8  1  0  0  0  0
  8  9  1  0  0  0  0
  9 10  1  0  0  0  0
  9 16  2  0  0  0  0
 10 15  1  0  0  0  0
 10 11  1  0  0  0  0
 10 23  1  0  0  0  0
 11 12  1  0  0  0  0
 11 24  1  0  0  0  0
 11 25  1  0  0  0  0
 12 13  2  0  0  0  0
 12 26  1  0  0  0  0
 13 14  1  0  0  0  0
 13 27  1  0  0  0  0
 14 15  1  0  0  0  0
 14 28  1  0  0  0  0
 14 29  1  0  0  0  0
 15 30  1  0  0  0  0
 15 31  1  0  0  0  0
M  END
> <s_m_source_file>
AV-unprocessed.smi

> <i_m_source_file_index>
887

> <i_lp_mmshare_version>
43012

> <i_f3d_flags>
0

> <s_epik_input>
W0NIM11bTkhdQyg9TylbQ0gyXWMxbm9jKG4xKVtDQEBIXTJbQ0gyXVtDSF09W0NIXVtDSDJdW0NIMl0y

> <s_epik_cmdline>
J2VwaWtfcHl0aG9uJywgJy1waCcsICc3LjAnLCAnLXRuJywgJzgnLCAnLW1hJywgJzIwMCcsICctbWV0YWxfYmluZGluZycsICctaW1hZScsICc8aW5maWxlLm1hZT4nLCAnLW9tYWUnLCAnPG91dGZpbGUubWFlPic=

> <r_lp_tautomer_probability>
1

> <r_epik_Ionization_Penalty>
1.02915e-07

> <r_epik_Ionization_Penalty_Charging>
0

> <r_epik_Ionization_Penalty_Neutral>
1.02915e-07

> <r_epik_State_Penalty>
-0

> <r_epik_Charging_Adjusted_Penalty>
0

> <i_epik_Tot_Q>
0

> <i_epik_Tot_abs_Q>
0

> <r_epik_Metal_State_Penalty>
-0

> <b_epik_Metal_Only>
0

> <s_lp_Force_Field>
OPLS_2005

> <r_lp_Energy>
6.3781

> <b_lp_Chiralities_Consistent>
1

> <s_lp_Variant>
AV-unprocessed.smi:887-1

> <Gold.Version>
5.8.1

> <Gold.Id.Protein>
6NUR|6NUR_protein|mol2

> <Gold.PLP.Fitness>
41.0032

> <Gold.PLP.PLP>
-36.0936

> <Gold.PLP.part.hbond>
-2.7995

> <Gold.PLP.part.metal>
0.0000

> <Gold.PLP.part.buried>
-4.8772

> <Gold.PLP.part.nonpolar>
-27.8315

> <Gold.PLP.part.repulsive>
0.1754

> <Gold.PLP.ligand.clash>
0.0000

> <Gold.PLP.ligand.torsion>
0.5992

> <Gold.PLP.Chemscore.Hbond>
2.0000

> <Gold.PLP.Chemscore.CHOScore>
0.0000

> <Gold.PLP.Chemscore.Metal>
0.0000

> <Gold.Chemscore.Hbonds>
donor molecule, donor type, donor heavy atom, donor atom, acceptor molecule, acceptor atom, score
      L1  H     2    20       P1  7957  0.98
      P1  H  7997  8010       L1     8  1.00

> <Gold.PLP.Chemscore.Internal.Correction>
0.1081

> <Gold.Rescore>
     Score         DG    S(hbond)    S(metal)    S(lipo)     H(rot)  DE(clash)    DE(int)     intcor
     14.67     -16.68       1.69        0.00      83.32       1.63       0.73       1.29       ----

> <Gold.Chemscore.Fitness>
14.6676

> <Gold.Chemscore.DG>
-16.6818

> <Gold.Chemscore.ZeroCoef>
-5.4800

> <Gold.Chemscore.Hbond>
1.6855

> <Gold.Chemscore.Metal>
0.0000

> <Gold.Chemscore.Lipo>
83.3161

> <Gold.Chemscore.Internal_Hbond>
0.0000

> <Gold.Chemscore.DEClash>
0.7275

> <Gold.Chemscore.DEInternal>
1.2867

> <Gold.Chemscore.Rot>
1.6312

> <Gold.Chemscore.Internal.Correction>
   9.000000E+99

> <Gold.Chemscore.Hbonds>
donor molecule, donor type, donor heavy atom, donor atom, acceptor molecule, acceptor atom, score
      L1  H     2    20       P1  7957  0.89
      P1  H  7997  8010       L1     8  0.24

> <Gold.Chemscore.Hbond.Weighted>
-5.6296

> <Gold.Chemscore.Metal.Weighted>
-0.0000

> <Gold.Chemscore.Lipo.Weighted>
-9.7480

> <Gold.Chemscore.Internal_Hbond.Weighted>
0.0000

> <Gold.Chemscore.DEClash.Weighted>
0.7275

> <Gold.Chemscore.DEInternal.Weighted>
1.2867

> <Gold.Chemscore.Rot.Weighted>
4.1758

> <Gold.Chemscore.Internal.Correction.Weighted>
   9.000000E+99

> <Gold.Protein.RotatedTorsions>
[ 6907 6896 6895 6894 ] final   50.95 input  -60.11 | X-H torsion
[ 7974 7965 7964 7962 ] final   73.43 input  175.53 | X-H torsion
[ 8008 7997 7996 7995 ] final   47.90 input   59.86 | X-H torsion
[ 10167 10162 10161 10158 ] final  106.19 input  -65.29 | X-H torsion
[ 10718 10713 10712 10709 ] final  -99.81 input   66.30 | X-H torsion
[ 10763 10752 10751 10750 ] final   49.66 input  -60.55 | X-H torsion
[ 11005 11000 10999 10996 ] final  116.86 input  -57.11 | X-H torsion

> <Gold.Protein.ActiveResidues>
 VAL166  LYS551  ARG553  GLY616  TRP617  ASP618  TYR619  PRO620  LYS621  CYS622 
 ASP623  PHE694  ASN695  SER759  ASP760  ASP761  ALA762  ILE779  LEU786  VAL792 
 PHE793  MET794  SER795  GLU796  ALA797  LYS798  CYS799  TRP800  GLU811  SER814 

> <Gold.Protein.RotatedAtoms>
  152.3074  134.7539  160.0344 H   0  0  0  0  0  0  0  0  0  0  0  0  # atno 6907 bound_to 6896
  151.8032  133.3367  159.3541 H   0  0  0  0  0  0  0  0  0  0  0  0  # atno 6908 bound_to 6896
  150.7303  134.5664  159.5912 H   0  0  0  0  0  0  0  0  0  0  0  0  # atno 6909 bound_to 6896
  145.7410  139.2721  143.1486 H   0  0  0  0  0  0  0  0  0  0  0  0  # atno 7974 bound_to 7965
  155.3767  140.3426  155.4245 H   0  0  0  0  0  0  0  0  0  0  0  0  # atno 8008 bound_to 7997
  156.1633  140.1607  156.8609 H   0  0  0  0  0  0  0  0  0  0  0  0  # atno 8009 bound_to 7997
  154.5160  140.0778  156.8064 H   0  0  0  0  0  0  0  0  0  0  0  0  # atno 8010 bound_to 7997
  139.7029  144.7091  151.1154 H   0  0  0  0  0  0  0  0  0  0  0  0  # atno 10167 bound_to 10162
  156.0144  130.5299  150.6725 H   0  0  0  0  0  0  0  0  0  0  0  0  # atno 10718 bound_to 10713
  152.9786  135.5904  154.4125 H   0  0  0  0  0  0  0  0  0  0  0  0  # atno 10763 bound_to 10752
  154.3758  135.2767  155.2242 H   0  0  0  0  0  0  0  0  0  0  0  0  # atno 10764 bound_to 10752
  154.4177  135.6066  153.6045 H   0  0  0  0  0  0  0  0  0  0  0  0  # atno 10765 bound_to 10752
  139.9055  134.9603  156.7262 H   0  0  0  0  0  0  0  0  0  0  0  0  # atno 11005 bound_to 11000
  146.0448  140.8129  142.9811 LP  0  0  0  0  0  0  0  0  0  0  0  0  # atno 17320 bound_to 7965
  144.6871  140.2964  143.7270 LP  0  0  0  0  0  0  0  0  0  0  0  0  # atno 17321 bound_to 7965
  140.7714  143.5398  150.9326 LP  0  0  0  0  0  0  0  0  0  0  0  0  # atno 17342 bound_to 10162
  139.9080  143.6754  152.3120 LP  0  0  0  0  0  0  0  0  0  0  0  0  # atno 17343 bound_to 10162
  157.4444  131.0865  151.0910 LP  0  0  0  0  0  0  0  0  0  0  0  0  # atno 17370 bound_to 10713
  157.1444  130.6157  149.5564 LP  0  0  0  0  0  0  0  0  0  0  0  0  # atno 17371 bound_to 10713
  140.6961  133.9347  155.7996 LP  0  0  0  0  0  0  0  0  0  0  0  0  # atno 17394 bound_to 11000
  141.0406  134.0627  157.3907 LP  0  0  0  0  0  0  0  0  0  0  0  0  # atno 17395 bound_to 11000

$$$$
