#       Name:                AV-unprocessed.smi:2913
#       Creating user name   scv26
#       Creation time:       Fri Mar 27 16:07:49 2020


#       File generated by GOLD software.
#

@<TRIPOS>MOLECULE
AV-unprocessed.smi:2913
    47    48     1
SMALL
NO_CHARGES


@<TRIPOS>ATOM
      1 ****        -2.0635  -3.1176   0.9326 C.3            1 S1                 0.0000
      2 ****        -2.8694  -1.8292   0.9085 C.2            1 S1                 0.0000
      3 ****        -4.2191  -1.8810   0.9591 C.2            1 S1                 0.0000
      4 ****        -5.0593  -0.6824   0.9443 C.2            1 S1                 0.0000
      5 ****        -6.2886  -0.7405   0.9864 O.2            1 S1                 0.0000
      6 ****        -4.3906   0.5017   0.8837 N.am           1 S1                 0.0000
      7 ****        -5.1404   1.7608   0.8785 C.3            1 S1                 0.0000
      8 ****        -2.9881   0.5700   0.8292 C.2            1 S1                 0.0000
      9 ****        -2.2069  -0.5331   0.8315 C.2            1 S1                 0.0000
     10 ****        -0.8023  -0.5124   0.7884 N.am           1 S1                 0.0000
     11 ****         0.0358   0.5107   0.5374 C.2            1 S1                 0.0000
     12 ****        -0.2939   1.6611   0.2510 O.2            1 S1                 0.0000
     13 ****         1.3114   0.1058   0.6196 N.am           1 S1                 0.0000
     14 ****         2.4936   0.9293   0.3731 C.3            1 S1                 0.0000
     15 ****         3.3314   1.0011   1.6579 C.3            1 S1                 0.0000
     16 ****         3.2964   0.3516  -0.8086 C.3            1 S1                 0.0000
     17 ****         2.5219   0.2562  -2.1264 C.3            1 S1                 0.0000
     18 ****         3.6003   0.3639  -3.1949 C.3            1 S1                 0.0000
     19 ****         4.8527   0.7853  -2.4229 C.3            1 S1                 0.0000
     20 ****         4.3733   1.2081  -1.1554 O.3            1 S1                 0.0000
     21 ****        -2.7073  -3.9966   0.9804 H              1 S1                 0.0000
     22 ****        -1.4059  -3.1363   1.8019 H              1 S1                 0.0000
     23 ****        -1.4512  -3.1993   0.0342 H              1 S1                 0.0000
     24 ****        -4.7101  -2.8417   1.0155 H              1 S1                 0.0000
     25 ****        -4.4964   2.6381   0.8134 H              1 S1                 0.0000
     26 ****        -5.7294   1.8577   1.7916 H              1 S1                 0.0000
     27 ****        -5.8230   1.7971   0.0283 H              1 S1                 0.0000
     28 ****        -2.6117   1.5795   0.7971 H              1 S1                 0.0000
     29 ****        -0.3671  -1.4068   0.9600 H              1 S1                 0.0000
     30 ****         1.4823  -0.8597   0.8594 H              1 S1                 0.0000
     31 ****         2.1974   1.9472   0.1135 H              1 S1                 0.0000
     32 ****         4.2122   1.6286   1.5183 H              1 S1                 0.0000
     33 ****         3.6727   0.0124   1.9666 H              1 S1                 0.0000
     34 ****         2.7534   1.4264   2.4791 H              1 S1                 0.0000
     35 ****         3.6995  -0.6295  -0.5489 H              1 S1                 0.0000
     36 ****         1.9416  -0.6637  -2.2035 H              1 S1                 0.0000
     37 ****         1.8312   1.0952  -2.2216 H              1 S1                 0.0000
     38 ****         3.7600  -0.5841  -3.7093 H              1 S1                 0.0000
     39 ****         3.3248   1.1094  -3.9415 H              1 S1                 0.0000
     40 ****         5.5233  -0.0645  -2.2869 H              1 S1                 0.0000
     41 ****         5.4073   1.5800  -2.9222 H              1 S1                 0.0000
     42 ****        -6.7459  -1.6286   1.0326 LP             1 S1                 0.0000
     43 ****        -6.8296   0.1005   0.9745 LP             1 S1                 0.0000
     44 ****        -1.2622   1.9027   0.1879 LP             1 S1                 0.0000
     45 ****         0.4065   2.3544   0.0814 LP             1 S1                 0.0000
     46 ****         5.1008   1.1379  -0.4728 LP             1 S1                 0.0000
     47 ****         4.0554   2.1548  -1.2074 LP             1 S1                 0.0000
@<TRIPOS>BOND
    1    1    2 1     
    2    1   21 1     
    3    1   22 1     
    4    1   23 1     
    5    2    9 1     
    6    2    3 2     
    7    3    4 1     
    8    3   24 1     
    9    4    5 2     
   10    4    6 am    
   11    6    7 1     
   12    6    8 1     
   13    7   25 1     
   14    7   26 1     
   15    7   27 1     
   16    8    9 2     
   17    8   28 1     
   18    9   10 1     
   19   10   11 am    
   20   10   29 1     
   21   11   12 2     
   22   11   13 am    
   23   13   14 1     
   24   13   30 1     
   25   14   15 1     
   26   14   16 1     
   27   14   31 1     
   28   15   32 1     
   29   15   33 1     
   30   15   34 1     
   31   16   20 1     
   32   16   17 1     
   33   16   35 1     
   34   17   18 1     
   35   17   36 1     
   36   17   37 1     
   37   18   19 1     
   38   18   38 1     
   39   18   39 1     
   40   19   20 1     
   41   19   40 1     
   42   19   41 1     
   43    5   42 1     
   44    5   43 1     
   45   12   44 1     
   46   12   45 1     
   47   20   46 1     
   48   20   47 1     
@<TRIPOS>SUBSTRUCTURE
      1 S1             1
@<TRIPOS>SET
LONE_PAIRS      STATIC     ATOMS    <user>   **** ""
6 42 43 44 45 46 47
DONOR_HYDROGENS      STATIC     ATOMS    <user>   **** ""
2 29 30
ATOM$BLUE        STATIC     ATOMS    COLORGROUP SYSTEM
6 42 43 44 45 46 47
ATOM$RED        STATIC     ATOMS    COLORGROUP SYSTEM
2 29 30
