AV-unprocessed.smi:2855|AV-procd|sdf|10983|dock3
  -GOLD-   2272015433D 1   1.00000     0.00000
 Structure written by MMmdl.
 47 48  0  0  0  0  0  0  0  0  1 V2000
  152.8032  144.7462  158.2850 C   0  0  0  0  0  0  0  0  0  0  0  0
  151.8266  143.5815  158.5011 C   0  0  2  0  0  0  0  0  0  0  0  0
  152.5585  142.3100  158.9796 C   0  0  0  0  0  0  0  0  0  0  0  0
  151.6011  141.1095  159.1166 C   0  0  0  0  0  0  0  0  0  0  0  0
  150.8526  140.8058  157.7938 C   0  0  2  0  0  0  0  0  0  0  0  0
  151.7967  140.2387  156.6748 C   0  0  0  0  0  0  0  0  0  0  0  0
  151.0877  139.9234  155.3432 C   0  0  0  0  0  0  0  0  0  0  0  0
  152.5443  138.9693  157.1315 C   0  0  0  0  0  0  0  0  0  0  0  0
  150.0546  142.0998  157.4525 C   0  0  2  0  0  0  0  0  0  0  0  0
  149.1188  141.9551  156.3431 N   0  0  0  0  0  0  0  0  0  0  0  0
  148.2700  140.9299  156.1545 C   0  0  0  0  0  0  0  0  0  0  0  0
  148.1893  139.9800  156.9326 O   0  0  0  0  0  0  0  0  0  0  0  0
  147.3763  140.9469  154.9021 C   0  0  0  0  0  0  0  0  0  0  0  0
  146.3817  142.0326  154.8647 N   0  0  0  0  0  0  0  0  0  0  0  0
  146.3647  142.9246  153.8017 C   0  0  0  0  0  0  0  0  0  0  0  0
  145.4889  143.9525  153.7040 C   0  0  0  0  0  0  0  0  0  0  0  0
  144.4913  144.1743  154.7453 C   0  0  0  0  0  0  0  0  0  0  0  0
  143.6572  145.0767  154.7478 O   0  0  0  0  0  0  0  0  0  0  0  0
  144.5391  143.2555  155.7971 N   0  0  0  0  0  0  0  0  0  0  0  0
  145.4394  142.1945  155.9042 C   0  0  0  0  0  0  0  0  0  0  0  0
  145.4008  141.4472  156.8807 O   0  0  0  0  0  0  0  0  0  0  0  0
  150.9920  143.3012  157.2344 C   0  0  0  0  0  0  0  0  0  0  0  0
  143.8674  143.3701  156.5423 H   0  0  0  0  0  0  0  0  0  0  0  0
  153.5292  144.5150  157.5048 H   0  0  0  0  0  0  0  0  0  0  0  0
  153.3553  144.9702  159.1983 H   0  0  0  0  0  0  0  0  0  0  0  0
  152.2742  145.6526  157.9896 H   0  0  0  0  0  0  0  0  0  0  0  0
  151.1350  143.8785  159.2912 H   0  0  0  0  0  0  0  0  0  0  0  0
  153.3657  142.0631  158.2898 H   0  0  0  0  0  0  0  0  0  0  0  0
  153.0355  142.5024  159.9411 H   0  0  0  0  0  0  0  0  0  0  0  0
  152.1367  140.2379  159.4889 H   0  0  0  0  0  0  0  0  0  0  0  0
  150.8706  141.3345  159.8952 H   0  0  0  0  0  0  0  0  0  0  0  0
  150.1255  140.0235  158.0170 H   0  0  0  0  0  0  0  0  0  0  0  0
  152.5608  140.9809  156.4462 H   0  0  0  0  0  0  0  0  0  0  0  0
  150.1912  139.3221  155.4979 H   0  0  0  0  0  0  0  0  0  0  0  0
  151.7401  139.3723  154.6652 H   0  0  0  0  0  0  0  0  0  0  0  0
  150.8094  140.8311  154.8107 H   0  0  0  0  0  0  0  0  0  0  0  0
  151.8509  138.2057  157.4852 H   0  0  0  0  0  0  0  0  0  0  0  0
  153.2567  139.1776  157.9289 H   0  0  0  0  0  0  0  0  0  0  0  0
  153.1243  138.5352  156.3167 H   0  0  0  0  0  0  0  0  0  0  0  0
  149.4433  142.3491  158.3226 H   0  0  0  0  0  0  0  0  0  0  0  0
  149.1194  142.6932  155.6542 H   0  0  0  0  0  0  0  0  0  0  0  0
  148.0252  141.0111  154.0271 H   0  0  0  0  0  0  0  0  0  0  0  0
  146.8832  139.9771  154.8159 H   0  0  0  0  0  0  0  0  0  0  0  0
  147.0895  142.8018  153.0094 H   0  0  0  0  0  0  0  0  0  0  0  0
  145.5273  144.6151  152.8513 H   0  0  0  0  0  0  0  0  0  0  0  0
  150.4026  144.1861  156.9897 H   0  0  0  0  0  0  0  0  0  0  0  0
  151.6439  143.1251  156.3785 H   0  0  0  0  0  0  0  0  0  0  0  0
  1  2  1  0  0  0  0
  1 24  1  0  0  0  0
  1 25  1  0  0  0  0
  1 26  1  0  0  0  0
  2 22  1  0  0  0  0
  2  3  1  0  0  0  0
  2 27  1  0  0  0  0
  3  4  1  0  0  0  0
  3 28  1  0  0  0  0
  3 29  1  0  0  0  0
  4  5  1  0  0  0  0
  4 30  1  0  0  0  0
  4 31  1  0  0  0  0
  5  6  1  0  0  0  0
  5  9  1  0  0  0  0
  5 32  1  0  0  0  0
  6  7  1  0  0  0  0
  6  8  1  0  0  0  0
  6 33  1  0  0  0  0
  7 34  1  0  0  0  0
  7 35  1  0  0  0  0
  7 36  1  0  0  0  0
  8 37  1  0  0  0  0
  8 38  1  0  0  0  0
  8 39  1  0  0  0  0
  9 10  1  0  0  0  0
  9 22  1  0  0  0  0
  9 40  1  0  0  0  0
 10 11  1  0  0  0  0
 10 41  1  0  0  0  0
 11 12  2  0  0  0  0
 11 13  1  0  0  0  0
 13 14  1  0  0  0  0
 13 42  1  0  0  0  0
 13 43  1  0  0  0  0
 14 20  1  0  0  0  0
 14 15  1  0  0  0  0
 15 16  2  0  0  0  0
 15 44  1  0  0  0  0
 16 17  1  0  0  0  0
 16 45  1  0  0  0  0
 17 18  2  0  0  0  0
 17 19  1  0  0  0  0
 19 23  1  0  0  0  0
 19 20  1  0  0  0  0
 20 21  2  0  0  0  0
 22 46  1  0  0  0  0
 22 47  1  0  0  0  0
M  END
> <s_m_source_file>
AV-unprocessed.smi

> <i_m_source_file_index>
2855

> <i_lp_mmshare_version>
43012

> <i_f3d_flags>
0

> <s_epik_input>
W0NIM11bQ0BASF0xW0NIMl1bQ0gyXVtDQEBIXShbQ0hdKFtDSDNdKVtDSDNdKVtDQEhdKFtDSDJdMSlbTkhdQyg9TylbQ0gyXW4yW2NIXVtjSF1jKD1PKVtuSF1jMj1P

> <s_epik_cmdline>
J2VwaWtfcHl0aG9uJywgJy1waCcsICc3LjAnLCAnLXRuJywgJzgnLCAnLW1hJywgJzIwMCcsICctbWV0YWxfYmluZGluZycsICctaW1hZScsICc8aW5maWxlLm1hZT4nLCAnLW9tYWUnLCAnPG91dGZpbGUubWFlPic=

> <r_lp_tautomer_probability>
0.999537

> <r_epik_Ionization_Penalty>
0.00306256

> <r_epik_Ionization_Penalty_Charging>
0.00306254

> <r_epik_Ionization_Penalty_Neutral>
2.0223e-08

> <r_epik_State_Penalty>
0.0021533

> <r_epik_Charging_Adjusted_Penalty>
0.00521583

> <i_epik_Tot_Q>
0

> <i_epik_Tot_abs_Q>
0

> <r_epik_Metal_State_Penalty>
0.362116

> <b_epik_Metal_Only>
0

> <s_lp_Force_Field>
OPLS_2005

> <r_lp_Energy>
18.1406

> <b_lp_Chiralities_Consistent>
1

> <s_lp_Variant>
AV-unprocessed.smi:2855-7

> <Gold.Version>
5.8.1

> <Gold.Id.Protein>
6NUR|6NUR_protein|mol2

> <Gold.PLP.Fitness>
41.3599

> <Gold.PLP.PLP>
-39.4662

> <Gold.PLP.part.hbond>
-1.0000

> <Gold.PLP.part.metal>
0.0000

> <Gold.PLP.part.buried>
-3.3581

> <Gold.PLP.part.nonpolar>
-35.0826

> <Gold.PLP.part.repulsive>
0.1148

> <Gold.PLP.ligand.clash>
0.0000

> <Gold.PLP.ligand.torsion>
0.1678

> <Gold.PLP.Chemscore.Hbond>
0.7296

> <Gold.PLP.Chemscore.CHOScore>
0.0000

> <Gold.PLP.Chemscore.Metal>
0.0000

> <Gold.Chemscore.Hbonds>
donor molecule, donor type, donor heavy atom, donor atom, acceptor molecule, acceptor atom, score
      L1  H    10    41       P1  8028  0.73

> <Gold.PLP.Chemscore.Internal.Correction>
0.0407

> <Gold.Rescore>
     Score         DG    S(hbond)    S(metal)    S(lipo)     H(rot)  DE(clash)    DE(int)     intcor
     11.31     -14.38       0.75        0.00      95.18       1.85       0.71       2.35       ----

> <Gold.Chemscore.Fitness>
11.3134

> <Gold.Chemscore.DG>
-14.3798

> <Gold.Chemscore.ZeroCoef>
-5.4800

> <Gold.Chemscore.Hbond>
0.7515

> <Gold.Chemscore.Metal>
0.0000

> <Gold.Chemscore.Lipo>
95.1786

> <Gold.Chemscore.Internal_Hbond>
0.0000

> <Gold.Chemscore.DEClash>
0.7144

> <Gold.Chemscore.DEInternal>
2.3520

> <Gold.Chemscore.Rot>
1.8539

> <Gold.Chemscore.Internal.Correction>
   9.000000E+99

> <Gold.Chemscore.Hbonds>
donor molecule, donor type, donor heavy atom, donor atom, acceptor molecule, acceptor atom, score
      L1  H    10    41       P1  8028  0.68

> <Gold.Chemscore.Hbond.Weighted>
-2.5099

> <Gold.Chemscore.Metal.Weighted>
-0.0000

> <Gold.Chemscore.Lipo.Weighted>
-11.1359

> <Gold.Chemscore.Internal_Hbond.Weighted>
0.0000

> <Gold.Chemscore.DEClash.Weighted>
0.7144

> <Gold.Chemscore.DEInternal.Weighted>
2.3520

> <Gold.Chemscore.Rot.Weighted>
4.7460

> <Gold.Chemscore.Internal.Correction.Weighted>
   9.000000E+99

> <Gold.Protein.RotatedTorsions>
[ 6907 6896 6895 6894 ] final  -55.71 input  -60.11 | X-H torsion
[ 7974 7965 7964 7962 ] final -172.67 input  175.53 | X-H torsion
[ 8008 7997 7996 7995 ] final -161.31 input   59.86 | X-H torsion
[ 10167 10162 10161 10158 ] final   11.18 input  -65.29 | X-H torsion
[ 10718 10713 10712 10709 ] final  -89.27 input   66.30 | X-H torsion
[ 10763 10752 10751 10750 ] final  166.05 input  -60.55 | X-H torsion
[ 11005 11000 10999 10996 ] final  -92.97 input  -57.11 | X-H torsion

> <Gold.Protein.ActiveResidues>
 VAL166  LYS551  ARG553  GLY616  TRP617  ASP618  TYR619  PRO620  LYS621  CYS622 
 ASP623  PHE694  ASN695  SER759  ASP760  ASP761  ALA762  ILE779  LEU786  VAL792 
 PHE793  MET794  SER795  GLU796  ALA797  LYS798  CYS799  TRP800  GLU811  SER814 

> <Gold.Protein.RotatedAtoms>
  150.8229  134.7445  159.6787 H   0  0  0  0  0  0  0  0  0  0  0  0  # atno 6907 bound_to 6896
  152.4343  134.5714  159.9932 H   0  0  0  0  0  0  0  0  0  0  0  0  # atno 6908 bound_to 6896
  151.5894  133.3331  159.3060 H   0  0  0  0  0  0  0  0  0  0  0  0  # atno 6909 bound_to 6896
  144.7144  140.1738  143.6365 H   0  0  0  0  0  0  0  0  0  0  0  0  # atno 7974 bound_to 7965
  155.7903  140.0877  157.2012 H   0  0  0  0  0  0  0  0  0  0  0  0  # atno 8008 bound_to 7997
  154.3986  140.1491  156.3213 H   0  0  0  0  0  0  0  0  0  0  0  0  # atno 8009 bound_to 7997
  155.8565  140.3432  155.5730 H   0  0  0  0  0  0  0  0  0  0  0  0  # atno 8010 bound_to 7997
  140.6148  143.8332  150.7106 H   0  0  0  0  0  0  0  0  0  0  0  0  # atno 10167 bound_to 10162
  155.9984  130.4866  150.5146 H   0  0  0  0  0  0  0  0  0  0  0  0  # atno 10718 bound_to 10713
  154.3332  135.2754  155.2461 H   0  0  0  0  0  0  0  0  0  0  0  0  # atno 10763 bound_to 10752
  154.4763  135.5870  153.6361 H   0  0  0  0  0  0  0  0  0  0  0  0  # atno 10764 bound_to 10752
  152.9864  135.6100  154.3527 H   0  0  0  0  0  0  0  0  0  0  0  0  # atno 10765 bound_to 10752
  141.1509  133.7856  157.0095 H   0  0  0  0  0  0  0  0  0  0  0  0  # atno 11005 bound_to 11000
  145.8919  139.2381  143.1544 LP  0  0  0  0  0  0  0  0  0  0  0  0  # atno 17320 bound_to 7965
  145.9895  140.8615  143.0074 LP  0  0  0  0  0  0  0  0  0  0  0  0  # atno 17321 bound_to 7965
  140.1908  143.4038  152.1864 LP  0  0  0  0  0  0  0  0  0  0  0  0  # atno 17342 bound_to 10162
  139.5390  144.7238  151.4798 LP  0  0  0  0  0  0  0  0  0  0  0  0  # atno 17343 bound_to 10162
  157.3115  131.0664  151.1997 LP  0  0  0  0  0  0  0  0  0  0  0  0  # atno 17370 bound_to 10713
  157.2942  130.6811  149.6130 LP  0  0  0  0  0  0  0  0  0  0  0  0  # atno 17371 bound_to 10713
  140.0887  134.9605  157.1741 LP  0  0  0  0  0  0  0  0  0  0  0  0  # atno 17394 bound_to 11000
  140.3476  134.2635  155.7203 LP  0  0  0  0  0  0  0  0  0  0  0  0  # atno 17395 bound_to 11000

$$$$
