#       Name:                AV-unprocessed.smi:1338
#       Creating user name   scv26
#       Creation time:       Fri Mar 27 05:08:22 2020


#       File generated by GOLD software.
#

@<TRIPOS>MOLECULE
AV-unprocessed.smi:1338
    45    46     1
SMALL
NO_CHARGES


@<TRIPOS>ATOM
      1 ****        -6.2268  -1.6322   0.9636 C.3            1 S1                 0.0000
      2 ****        -4.7153  -1.6028   1.0434 C.2            1 S1                 0.0000
      3 ****        -4.1253  -0.5058   1.3308 N.2            1 S1                 0.0000
      4 ****        -2.7227  -0.4749   1.4111 C.2            1 S1                 0.0000
      5 ****        -2.1102   0.8701   1.7620 C.3            1 S1                 0.0000
      6 ****        -1.9777  -1.5952   1.1854 C.2            1 S1                 0.0000
      7 ****        -0.4519  -1.6156   1.2671 C.3            1 S1                 0.0000
      8 ****         0.2772  -1.1048   0.0233 C.2            1 S1                 0.0000
      9 ****         0.1099  -1.6607  -1.0619 O.2            1 S1                 0.0000
     10 ****         1.0824  -0.0446   0.1939 N.am           1 S1                 0.0000
     11 ****         1.8596   0.6036  -0.8573 C.3            1 S1                 0.0000
     12 ****         3.1760  -0.1607  -1.1111 C.3            1 S1                 0.0000
     13 ****         4.0471   0.5512  -2.1587 C.3            1 S1                 0.0000
     14 ****         4.3249   2.0078  -1.7562 C.3            1 S1                 0.0000
     15 ****         3.0154   2.7737  -1.5103 C.3            1 S1                 0.0000
     16 ****         2.1431   2.0651  -0.4613 C.3            1 S1                 0.0000
     17 ****        -2.6965  -2.8381   0.8512 C.2            1 S1                 0.0000
     18 ****        -2.0740  -3.8754   0.6267 O.2            1 S1                 0.0000
     19 ****        -4.0582  -2.7875   0.7997 N.pl3          1 S1                -1.0000
     20 ****        -6.6422  -0.6243   1.0023 H              1 S1                 0.0000
     21 ****        -6.6356  -2.2038   1.7972 H              1 S1                 0.0000
     22 ****        -6.5504  -2.0983   0.0323 H              1 S1                 0.0000
     23 ****        -1.5203   0.7983   2.6756 H              1 S1                 0.0000
     24 ****        -2.8810   1.6247   1.9227 H              1 S1                 0.0000
     25 ****        -1.4653   1.2193   0.9557 H              1 S1                 0.0000
     26 ****        -0.1445  -1.0268   2.1317 H              1 S1                 0.0000
     27 ****        -0.0894  -2.6208   1.4836 H              1 S1                 0.0000
     28 ****         1.1550   0.3475   1.1214 H              1 S1                 0.0000
     29 ****         1.2724   0.6113  -1.7778 H              1 S1                 0.0000
     30 ****         3.7354  -0.2519  -0.1789 H              1 S1                 0.0000
     31 ****         2.9641  -1.1773  -1.4444 H              1 S1                 0.0000
     32 ****         4.9875   0.0144  -2.2862 H              1 S1                 0.0000
     33 ****         3.5446   0.5285  -3.1266 H              1 S1                 0.0000
     34 ****         4.9361   2.0278  -0.8529 H              1 S1                 0.0000
     35 ****         4.9063   2.5042  -2.5336 H              1 S1                 0.0000
     36 ****         3.2351   3.7909  -1.1849 H              1 S1                 0.0000
     37 ****         2.4623   2.8613  -2.4463 H              1 S1                 0.0000
     38 ****         1.2047   2.6073  -0.3378 H              1 S1                 0.0000
     39 ****         2.6471   2.0959   0.5059 H              1 S1                 0.0000
     40 ****        -4.6578   0.3240   1.4972 LP             1 S1                 0.0000
     41 ****        -0.5034  -2.4475  -1.1314 LP             1 S1                 0.0000
     42 ****         0.5873  -1.3256  -1.8742 LP             1 S1                 0.0000
     43 ****        -1.0749  -3.8784   0.6704 LP             1 S1                 0.0000
     44 ****        -2.5671  -4.7155   0.4005 LP             1 S1                 0.0000
     45 ****        -4.5804  -3.6127   0.5845 LP             1 S1                 0.0000
@<TRIPOS>BOND
    1    1    2 1     
    2    1   20 1     
    3    1   21 1     
    4    1   22 1     
    5    2   19 1     
    6    2    3 2     
    7    3    4 1     
    8    4    5 1     
    9    4    6 2     
   10    5   23 1     
   11    5   24 1     
   12    5   25 1     
   13    6    7 1     
   14    6   17 1     
   15    7    8 1     
   16    7   26 1     
   17    7   27 1     
   18    8    9 2     
   19    8   10 am    
   20   10   11 1     
   21   10   28 1     
   22   11   16 1     
   23   11   12 1     
   24   11   29 1     
   25   12   13 1     
   26   12   30 1     
   27   12   31 1     
   28   13   14 1     
   29   13   32 1     
   30   13   33 1     
   31   14   15 1     
   32   14   34 1     
   33   14   35 1     
   34   15   16 1     
   35   15   36 1     
   36   15   37 1     
   37   16   38 1     
   38   16   39 1     
   39   17   18 2     
   40   17   19 1     
   41    3   40 1     
   42    9   41 1     
   43    9   42 1     
   44   18   43 1     
   45   18   44 1     
   46   19   45 1     
@<TRIPOS>SUBSTRUCTURE
      1 S1             1
@<TRIPOS>SET
LONE_PAIRS      STATIC     ATOMS    <user>   **** ""
6 40 41 42 43 44 45
DONOR_HYDROGENS      STATIC     ATOMS    <user>   **** ""
1 28
ATOM$BLUE        STATIC     ATOMS    COLORGROUP SYSTEM
6 40 41 42 43 44 45
ATOM$RED        STATIC     ATOMS    COLORGROUP SYSTEM
1 28
