AV-unprocessed.smi:489|AV-procd|sdf|2702|dock6
  -GOLD-   2262023133D 1   1.00000     0.00000
 Structure written by MMmdl.
 42 43  0  0  0  0  0  0  0  0  1 V2000
  145.2714  144.4742  153.2012 C   0  0  0  0  0  0  0  0  0  0  0  0
  145.7574  143.4680  154.2093 C   0  0  0  0  0  0  0  0  0  0  0  0
  146.7448  142.7157  153.8491 N   0  0  0  0  0  0  0  0  0  0  0  0
  147.2699  141.7613  154.6988 N   0  0  0  0  0  0  0  0  0  0  0  0
  148.3989  141.0096  154.1313 C   0  0  0  0  0  0  0  0  0  0  0  0
  149.5558  140.8443  155.1276 C   0  0  0  0  0  0  0  0  0  0  0  0
  150.1294  139.7554  155.2119 O   0  0  0  0  0  0  0  0  0  0  0  0
  149.8502  141.9494  155.8503 N   0  0  0  0  0  0  0  0  0  0  0  0
  150.8135  142.1787  156.7738 C   0  0  0  0  0  0  0  0  0  0  0  0
  151.4709  141.2475  157.2361 O   0  0  0  0  0  0  0  0  0  0  0  0
  151.0028  143.4545  157.1606 N   0  0  0  0  0  0  0  0  0  0  0  0
  151.9873  143.9045  158.1403 C   0  0  0  0  0  0  0  0  0  0  0  0
  152.0469  142.9724  159.3697 C   0  0  0  0  0  0  0  0  0  0  0  0
  151.9543  143.8803  160.5969 C   0  0  0  0  0  0  0  0  0  0  0  0
  151.1402  145.0777  160.1178 C   0  0  0  0  0  0  0  0  0  0  0  0
  151.6111  145.2967  158.6796 C   0  0  0  0  0  0  0  0  0  0  0  0
  146.8061  141.5012  155.9553 C   0  0  0  0  0  0  0  0  0  0  0  0
  147.2906  140.6234  156.6713 O   0  0  0  0  0  0  0  0  0  0  0  0
  145.6925  142.3623  156.3599 C   0  0  0  0  0  0  0  0  0  0  0  0
  145.1905  142.1370  157.6768 C   0  0  0  0  0  0  0  0  0  0  0  0
  144.7904  141.9736  158.7508 N   0  0  0  0  0  0  0  0  0  0  0  0
  145.1761  143.3107  155.5388 C   0  0  0  0  0  0  0  0  0  0  0  0
  144.0202  144.2293  155.9107 C   0  0  0  0  0  0  0  0  0  0  0  0
  144.2444  144.2591  152.9057 H   0  0  0  0  0  0  0  0  0  0  0  0
  145.8817  144.4718  152.2968 H   0  0  0  0  0  0  0  0  0  0  0  0
  145.3010  145.4826  153.6139 H   0  0  0  0  0  0  0  0  0  0  0  0
  148.0544  140.0330  153.7849 H   0  0  0  0  0  0  0  0  0  0  0  0
  148.7880  141.5139  153.2451 H   0  0  0  0  0  0  0  0  0  0  0  0
  149.2520  142.7423  155.6688 H   0  0  0  0  0  0  0  0  0  0  0  0
  150.4163  144.1645  156.7451 H   0  0  0  0  0  0  0  0  0  0  0  0
  152.9664  143.9634  157.6613 H   0  0  0  0  0  0  0  0  0  0  0  0
  151.1990  142.2855  159.3741 H   0  0  0  0  0  0  0  0  0  0  0  0
  152.9519  142.3644  159.3800 H   0  0  0  0  0  0  0  0  0  0  0  0
  151.5046  143.3806  161.4553 H   0  0  0  0  0  0  0  0  0  0  0  0
  152.9532  144.2088  160.8874 H   0  0  0  0  0  0  0  0  0  0  0  0
  150.0785  144.8267  160.1238 H   0  0  0  0  0  0  0  0  0  0  0  0
  151.2790  145.9590  160.7445 H   0  0  0  0  0  0  0  0  0  0  0  0
  152.4997  145.9298  158.6873 H   0  0  0  0  0  0  0  0  0  0  0  0
  150.8600  145.8081  158.0758 H   0  0  0  0  0  0  0  0  0  0  0  0
  143.6049  143.9949  156.8901 H   0  0  0  0  0  0  0  0  0  0  0  0
  143.2103  144.1429  155.1857 H   0  0  0  0  0  0  0  0  0  0  0  0
  144.3524  145.2675  155.9337 H   0  0  0  0  0  0  0  0  0  0  0  0
  1  2  1  0  0  0  0
  1 24  1  0  0  0  0
  1 25  1  0  0  0  0
  1 26  1  0  0  0  0
  2 22  1  0  0  0  0
  2  3  2  0  0  0  0
  3  4  1  0  0  0  0
  4  5  1  0  0  0  0
  4 17  1  0  0  0  0
  5  6  1  0  0  0  0
  5 27  1  0  0  0  0
  5 28  1  0  0  0  0
  6  7  2  0  0  0  0
  6  8  1  0  0  0  0
  8  9  1  0  0  0  0
  8 29  1  0  0  0  0
  9 10  2  0  0  0  0
  9 11  1  0  0  0  0
 11 12  1  0  0  0  0
 11 30  1  0  0  0  0
 12 16  1  0  0  0  0
 12 13  1  0  0  0  0
 12 31  1  0  0  0  0
 13 14  1  0  0  0  0
 13 32  1  0  0  0  0
 13 33  1  0  0  0  0
 14 15  1  0  0  0  0
 14 34  1  0  0  0  0
 14 35  1  0  0  0  0
 15 16  1  0  0  0  0
 15 36  1  0  0  0  0
 15 37  1  0  0  0  0
 16 38  1  0  0  0  0
 16 39  1  0  0  0  0
 17 18  2  0  0  0  0
 17 19  1  0  0  0  0
 19 20  1  0  0  0  0
 19 22  2  0  0  0  0
 20 21  3  0  0  0  0
 22 23  1  0  0  0  0
 23 40  1  0  0  0  0
 23 41  1  0  0  0  0
 23 42  1  0  0  0  0
M  END
> <s_m_source_file>
AV-unprocessed.smi

> <i_m_source_file_index>
489

> <i_lp_mmshare_version>
43012

> <i_f3d_flags>
0

> <s_epik_input>
TiNDYyhjMVtDSDNdKWMoPU8pbihuYzFbQ0gzXSlbQ0gyXUMoPU8pW05IXUMoPU8pW05IXVtDSF0yW0NIMl1bQ0gyXVtDSDJdW0NIMl0y

> <s_epik_cmdline>
J2VwaWtfcHl0aG9uJywgJy1waCcsICc3LjAnLCAnLXRuJywgJzgnLCAnLW1hJywgJzIwMCcsICctbWV0YWxfYmluZGluZycsICctaW1hZScsICc8aW5maWxlLm1hZT4nLCAnLW9tYWUnLCAnPG91dGZpbGUubWFlPic=

> <r_lp_tautomer_probability>
1

> <r_epik_Ionization_Penalty>
3.28905e-05

> <r_epik_Ionization_Penalty_Charging>
1.69167e-11

> <r_epik_Ionization_Penalty_Neutral>
3.28905e-05

> <r_epik_State_Penalty>
-0

> <r_epik_Charging_Adjusted_Penalty>
1.69167e-11

> <i_epik_Tot_Q>
0

> <i_epik_Tot_abs_Q>
0

> <r_epik_Metal_State_Penalty>
-0

> <b_epik_Metal_Only>
0

> <s_lp_Force_Field>
OPLS_2005

> <r_lp_Energy>
37.6869

> <b_lp_Chiralities_Consistent>
1

> <s_lp_Variant>
AV-unprocessed.smi:489-1

> <Gold.Version>
5.8.1

> <Gold.Id.Protein>
6NUR|6NUR_protein|mol2

> <Gold.PLP.Fitness>
49.9945

> <Gold.PLP.PLP>
-45.4114

> <Gold.PLP.part.hbond>
-2.0000

> <Gold.PLP.part.metal>
0.0000

> <Gold.PLP.part.buried>
-6.5784

> <Gold.PLP.part.nonpolar>
-37.1246

> <Gold.PLP.part.repulsive>
0.4251

> <Gold.PLP.ligand.clash>
0.0000

> <Gold.PLP.ligand.torsion>
0.7166

> <Gold.PLP.Chemscore.Hbond>
2.0008

> <Gold.PLP.Chemscore.CHOScore>
0.0000

> <Gold.PLP.Chemscore.Metal>
0.0000

> <Gold.Chemscore.Hbonds>
donor molecule, donor type, donor heavy atom, donor atom, acceptor molecule, acceptor atom, score
      L1  H     8    29       P1  8028  1.00
      L1  H    11    30       P1  8028  1.00

> <Gold.PLP.Chemscore.Internal.Correction>
0.0139

> <Gold.Rescore>
     Score         DG    S(hbond)    S(metal)    S(lipo)     H(rot)  DE(clash)    DE(int)     intcor
     13.48     -18.14       1.88        0.00      89.93       1.61       0.08       4.58       ----

> <Gold.Chemscore.Fitness>
13.4801

> <Gold.Chemscore.DG>
-18.1412

> <Gold.Chemscore.ZeroCoef>
-5.4800

> <Gold.Chemscore.Hbond>
1.8760

> <Gold.Chemscore.Metal>
0.0000

> <Gold.Chemscore.Lipo>
89.9350

> <Gold.Chemscore.Internal_Hbond>
0.0000

> <Gold.Chemscore.DEClash>
0.0843

> <Gold.Chemscore.DEInternal>
4.5767

> <Gold.Chemscore.Rot>
1.6122

> <Gold.Chemscore.Internal.Correction>
   9.000000E+99

> <Gold.Chemscore.Hbonds>
donor molecule, donor type, donor heavy atom, donor atom, acceptor molecule, acceptor atom, score
      L1  H     8    29       P1  8028  0.92
      L1  H    11    30       P1  8028  0.96

> <Gold.Chemscore.Hbond.Weighted>
-6.2660

> <Gold.Chemscore.Metal.Weighted>
-0.0000

> <Gold.Chemscore.Lipo.Weighted>
-10.5224

> <Gold.Chemscore.Internal_Hbond.Weighted>
0.0000

> <Gold.Chemscore.DEClash.Weighted>
0.0843

> <Gold.Chemscore.DEInternal.Weighted>
4.5767

> <Gold.Chemscore.Rot.Weighted>
4.1272

> <Gold.Chemscore.Internal.Correction.Weighted>
   9.000000E+99

> <Gold.Protein.RotatedTorsions>
[ 6907 6896 6895 6894 ] final  152.01 input  -60.11 | X-H torsion
[ 7974 7965 7964 7962 ] final  -21.76 input  175.53 | X-H torsion
[ 8008 7997 7996 7995 ] final  114.82 input   59.86 | X-H torsion
[ 10167 10162 10161 10158 ] final -117.66 input  -65.29 | X-H torsion
[ 10718 10713 10712 10709 ] final  -89.51 input   66.30 | X-H torsion
[ 10763 10752 10751 10750 ] final  175.39 input  -60.55 | X-H torsion
[ 11005 11000 10999 10996 ] final   18.99 input  -57.11 | X-H torsion

> <Gold.Protein.ActiveResidues>
 VAL166  LYS551  ARG553  GLY616  TRP617  ASP618  TYR619  PRO620  LYS621  CYS622 
 ASP623  PHE694  ASN695  SER759  ASP760  ASP761  ALA762  ILE779  LEU786  VAL792 
 PHE793  MET794  SER795  GLU796  ALA797  LYS798  CYS799  TRP800  GLU811  SER814 

> <Gold.Protein.RotatedAtoms>
  152.0928  133.4209  159.4551 H   0  0  0  0  0  0  0  0  0  0  0  0  # atno 6907 bound_to 6896
  150.6862  134.2852  159.4653 H   0  0  0  0  0  0  0  0  0  0  0  0  # atno 6908 bound_to 6896
  152.0705  134.9536  160.0625 H   0  0  0  0  0  0  0  0  0  0  0  0  # atno 6909 bound_to 6896
  146.1715  140.4385  142.8530 H   0  0  0  0  0  0  0  0  0  0  0  0  # atno 7974 bound_to 7965
  156.2345  140.2951  156.0274 H   0  0  0  0  0  0  0  0  0  0  0  0  # atno 8008 bound_to 7997
  155.2132  140.0413  157.2954 H   0  0  0  0  0  0  0  0  0  0  0  0  # atno 8009 bound_to 7997
  154.6053  140.2437  155.7746 H   0  0  0  0  0  0  0  0  0  0  0  0  # atno 8010 bound_to 7997
  140.0660  143.4923  152.2006 H   0  0  0  0  0  0  0  0  0  0  0  0  # atno 10167 bound_to 10162
  155.9984  130.4875  150.5182 H   0  0  0  0  0  0  0  0  0  0  0  0  # atno 10718 bound_to 10713
  154.4669  135.2769  155.1672 H   0  0  0  0  0  0  0  0  0  0  0  0  # atno 10763 bound_to 10752
  154.3436  135.6165  153.5612 H   0  0  0  0  0  0  0  0  0  0  0  0  # atno 10764 bound_to 10752
  152.9860  135.5794  154.5042 H   0  0  0  0  0  0  0  0  0  0  0  0  # atno 10765 bound_to 10752
  140.4187  134.1542  155.7671 H   0  0  0  0  0  0  0  0  0  0  0  0  # atno 11005 bound_to 11000
  144.8170  140.6484  143.6378 LP  0  0  0  0  0  0  0  0  0  0  0  0  # atno 17320 bound_to 7965
  145.4328  139.1546  143.4013 LP  0  0  0  0  0  0  0  0  0  0  0  0  # atno 17321 bound_to 7965
  139.5865  144.7533  151.3508 LP  0  0  0  0  0  0  0  0  0  0  0  0  # atno 17342 bound_to 10162
  140.7149  143.7293  150.7636 LP  0  0  0  0  0  0  0  0  0  0  0  0  # atno 17343 bound_to 10162
  157.3147  131.0670  151.1976 LP  0  0  0  0  0  0  0  0  0  0  0  0  # atno 17370 bound_to 10713
  157.2910  130.6796  149.6114 LP  0  0  0  0  0  0  0  0  0  0  0  0  # atno 17371 bound_to 10713
  141.1793  133.8448  157.1315 LP  0  0  0  0  0  0  0  0  0  0  0  0  # atno 17394 bound_to 11000
  140.0216  134.9943  157.0602 LP  0  0  0  0  0  0  0  0  0  0  0  0  # atno 17395 bound_to 11000

$$$$
