#       Name:                AV-unprocessed.smi:3250
#       Creating user name   scv26
#       Creation time:       Fri Mar 27 18:31:15 2020


#       File generated by GOLD software.
#

@<TRIPOS>MOLECULE
AV-unprocessed.smi:3250
    45    46     1
SMALL
NO_CHARGES


@<TRIPOS>ATOM
      1 ****         0.9507   2.9402  -2.6542 C.3            1 S1                 0.0000
      2 ****        -0.5315   2.5557  -2.7682 C.3            1 S1                 0.0000
      3 ****        -0.9848   1.6871  -1.6533 N.4            1 S1                 1.0000
      4 ****        -2.4614   1.6630  -1.5254 C.3            1 S1                 0.0000
      5 ****        -2.8874   0.7871  -0.3360 C.3            1 S1                 0.0000
      6 ****        -2.3509  -0.5205  -0.4927 O.3            1 S1                 0.0000
      7 ****        -0.9281  -0.5192  -0.5068 C.3            1 S1                 0.0000
      8 ****        -0.4589  -1.9847  -0.5560 C.3            1 S1                 0.0000
      9 ****         0.9855  -2.1200  -0.4131 N.pl3          1 S1                 0.0000
     10 ****         1.6799  -1.9444   0.7705 C.ar           1 S1                 0.0000
     11 ****         3.0092  -2.0048   0.6713 N.ar           1 S1                 0.0000
     12 ****         3.7176  -1.8293   1.8084 C.ar           1 S1                 0.0000
     13 ****         3.0881  -1.5894   3.0462 C.ar           1 S1                 0.0000
     14 ****         1.6796  -1.5455   3.0372 C.ar           1 S1                 0.0000
     15 ****         0.9976  -1.3129   4.2134 O.3            1 S1                 0.0000
     16 ****        -0.4244  -1.2650   4.1654 C.3            1 S1                 0.0000
     17 ****         0.9801  -1.7245   1.8891 N.ar           1 S1                 0.0000
     18 ****        -0.4481   0.3053  -1.7191 C.3            1 S1                 0.0000
     19 ****         1.2179   3.6628  -3.4256 H              1 S1                 0.0000
     20 ****         1.6081   2.0801  -2.7785 H              1 S1                 0.0000
     21 ****         1.1675   3.3951  -1.6873 H              1 S1                 0.0000
     22 ****        -1.1168   3.4761  -2.7584 H              1 S1                 0.0000
     23 ****        -0.7310   2.0723  -3.7256 H              1 S1                 0.0000
     24 ****        -2.8382   2.6769  -1.3852 H              1 S1                 0.0000
     25 ****        -2.9018   1.2797  -2.4472 H              1 S1                 0.0000
     26 ****        -2.5549   1.2210   0.6085 H              1 S1                 0.0000
     27 ****        -3.9745   0.7199  -0.2892 H              1 S1                 0.0000
     28 ****        -0.5738  -0.0561   0.4157 H              1 S1                 0.0000
     29 ****        -0.9460  -2.5590   0.2332 H              1 S1                 0.0000
     30 ****        -0.7601  -2.4432  -1.4981 H              1 S1                 0.0000
     31 ****         1.5320  -2.2930  -1.2444 H              1 S1                 0.0000
     32 ****         4.7936  -1.8781   1.7298 H              1 S1                 0.0000
     33 ****         3.6562  -1.4475   3.9537 H              1 S1                 0.0000
     34 ****        -0.8135  -1.0748   5.1656 H              1 S1                 0.0000
     35 ****        -0.8449  -2.2113   3.8214 H              1 S1                 0.0000
     36 ****        -0.7743  -0.4617   3.5154 H              1 S1                 0.0000
     37 ****        -0.7676  -0.1689  -2.6486 H              1 S1                 0.0000
     38 ****         0.6411   0.3296  -1.7304 H              1 S1                 0.0000
     39 ****        -0.6330   2.1003  -0.8011 H              1 S1                 0.0000
     40 ****        -2.6812  -0.9029  -1.3556 LP             1 S1                 0.0000
     41 ****        -2.6649  -1.0906   0.2664 LP             1 S1                 0.0000
     42 ****         3.4608  -2.1724  -0.2051 LP             1 S1                 0.0000
     43 ****         1.3125  -0.4334   4.5704 LP             1 S1                 0.0000
     44 ****         1.2489  -2.0408   4.8513 LP             1 S1                 0.0000
     45 ****        -0.0193  -1.6933   1.8792 LP             1 S1                 0.0000
@<TRIPOS>BOND
    1    1    2 1     
    2    1   19 1     
    3    1   20 1     
    4    1   21 1     
    5    2    3 1     
    6    2   22 1     
    7    2   23 1     
    8    3   18 1     
    9    3    4 1     
   10    3   39 1     
   11    4    5 1     
   12    4   24 1     
   13    4   25 1     
   14    5    6 1     
   15    5   26 1     
   16    5   27 1     
   17    6    7 1     
   18    7    8 1     
   19    7   18 1     
   20    7   28 1     
   21    8    9 1     
   22    8   29 1     
   23    8   30 1     
   24    9   10 1     
   25    9   31 1     
   26   10   17 ar    
   27   10   11 ar    
   28   11   12 ar    
   29   12   13 ar    
   30   12   32 1     
   31   13   14 ar    
   32   13   33 1     
   33   14   15 1     
   34   14   17 ar    
   35   15   16 1     
   36   16   34 1     
   37   16   35 1     
   38   16   36 1     
   39   18   37 1     
   40   18   38 1     
   41    6   40 1     
   42    6   41 1     
   43   11   42 1     
   44   15   43 1     
   45   15   44 1     
   46   17   45 1     
@<TRIPOS>SUBSTRUCTURE
      1 S1             1
@<TRIPOS>SET
LONE_PAIRS      STATIC     ATOMS    <user>   **** ""
6 40 41 42 43 44 45
DONOR_HYDROGENS      STATIC     ATOMS    <user>   **** ""
2 39 31
ATOM$BLUE        STATIC     ATOMS    COLORGROUP SYSTEM
6 40 41 42 43 44 45
ATOM$RED        STATIC     ATOMS    COLORGROUP SYSTEM
2 39 31
