#       Name:                AV-unprocessed.smi:234
#       Creating user name   scv26
#       Creation time:       Thu Mar 26 20:35:48 2020


#       File generated by GOLD software.
#

@<TRIPOS>MOLECULE
AV-unprocessed.smi:234
    69    72     1
SMALL
NO_CHARGES


@<TRIPOS>ATOM
      1 ****        -5.1453  -2.0850  -3.9428 C.3            1 S1                 0.0000
      2 ****        -4.3992  -0.7858  -3.6324 C.3            1 S1                 0.0000
      3 ****        -3.2656  -1.0893  -2.8372 O.3            1 S1                 0.0000
      4 ****        -2.4907   0.0540  -2.5102 C.3            1 S1                 0.0000
      5 ****        -1.3530  -0.2832  -1.5486 C.3            1 S1                 0.0000
      6 ****        -0.5359   0.7565  -2.3260 C.3            1 S1                 0.0000
      7 ****         0.8793   0.4144  -2.4893 N.3            1 S1                 0.0000
      8 ****         1.6777   1.2849  -3.3420 C.3            1 S1                 0.0000
      9 ****         1.5525   0.0848  -1.3628 C.ar           1 S1                 0.0000
     10 ****         2.3957  -0.9753  -1.4359 N.ar           1 S1                 0.0000
     11 ****         3.0817  -1.3612  -0.3560 C.ar           1 S1                 0.0000
     12 ****         3.0743  -0.8345   0.8702 N.ar           1 S1                 0.0000
     13 ****         2.2378   0.2404   0.9436 C.ar           1 S1                 0.0000
     14 ****         1.4502   0.7695  -0.1175 C.ar           1 S1                 0.0000
     15 ****         0.7404   1.8779   0.3297 N.2            1 S1                 0.0000
     16 ****         1.0749   1.9865   1.5861 C.2            1 S1                 0.0000
     17 ****         1.9621   1.0375   2.0406 N.pl3          1 S1                 0.0000
     18 ****         2.4879   0.9157   3.3909 C.3            1 S1                 0.0000
     19 ****         1.5695   0.0982   4.3298 C.3            1 S1                 0.0000
     20 ****         0.3319   0.7813   4.4551 O.3            1 S1                 0.0000
     21 ****         1.2942  -1.3192   3.8499 C.3            1 S1                 0.0000
     22 ****         0.9250  -2.0392   5.1406 C.3            1 S1                 0.0000
     23 ****         1.7541  -1.4521   6.1356 O.3            1 S1                 0.0000
     24 ****         2.1937  -0.1598   5.7184 C.3            1 S1                 0.0000
     25 ****         1.9148   0.8918   6.8043 C.3            1 S1                 0.0000
     26 ****        -1.4284   0.4652  -3.5651 C.3            1 S1                 0.0000
     27 ****        -0.9699  -0.6536  -4.5181 C.3            1 S1                 0.0000
     28 ****        -1.7898   1.6774  -4.4251 C.3            1 S1                 0.0000
     29 ****        -6.0289  -1.8909  -4.5510 H              1 S1                 0.0000
     30 ****        -5.4704  -2.5782  -3.0264 H              1 S1                 0.0000
     31 ****        -4.5076  -2.7796  -4.4900 H              1 S1                 0.0000
     32 ****        -4.0969  -0.3036  -4.5620 H              1 S1                 0.0000
     33 ****        -5.0561  -0.0957  -3.1008 H              1 S1                 0.0000
     34 ****        -3.0863   0.8921  -2.1398 H              1 S1                 0.0000
     35 ****        -1.5463  -0.0265  -0.5067 H              1 S1                 0.0000
     36 ****        -0.9865  -1.3061  -1.6525 H              1 S1                 0.0000
     37 ****        -0.7013   1.7664  -1.9459 H              1 S1                 0.0000
     38 ****         2.6631   0.8559  -3.5291 H              1 S1                 0.0000
     39 ****         1.8108   2.2613  -2.8743 H              1 S1                 0.0000
     40 ****         1.1967   1.4348  -4.3073 H              1 S1                 0.0000
     41 ****         3.7263  -2.2169  -0.4932 H              1 S1                 0.0000
     42 ****         0.6750   2.7621   2.2232 H              1 S1                 0.0000
     43 ****         3.4748   0.4550   3.3304 H              1 S1                 0.0000
     44 ****         2.6431   1.9182   3.7921 H              1 S1                 0.0000
     45 ****        -0.2202   0.2911   5.0451 H              1 S1                 0.0000
     46 ****         0.5199  -1.3837   3.0840 H              1 S1                 0.0000
     47 ****         2.2047  -1.7617   3.4440 H              1 S1                 0.0000
     48 ****        -0.1193  -1.8557   5.3964 H              1 S1                 0.0000
     49 ****         1.0748  -3.1171   5.0787 H              1 S1                 0.0000
     50 ****         3.2749  -0.2476   5.6009 H              1 S1                 0.0000
     51 ****         2.2372   1.8826   6.4830 H              1 S1                 0.0000
     52 ****         2.4520   0.6496   7.7214 H              1 S1                 0.0000
     53 ****         0.8543   0.9449   7.0520 H              1 S1                 0.0000
     54 ****        -0.1244  -0.3421  -5.1313 H              1 S1                 0.0000
     55 ****        -1.7675  -0.9488  -5.2000 H              1 S1                 0.0000
     56 ****        -0.6629  -1.5511  -3.9813 H              1 S1                 0.0000
     57 ****        -0.9344   2.0357  -4.9974 H              1 S1                 0.0000
     58 ****        -2.1388   2.5102  -3.8139 H              1 S1                 0.0000
     59 ****        -2.5826   1.4457  -5.1362 H              1 S1                 0.0000
     60 ****        -2.6875  -1.7321  -3.3398 LP             1 S1                 0.0000
     61 ****        -3.5777  -1.5153  -1.9880 LP             1 S1                 0.0000
     62 ****         0.7644  -0.4334  -3.0069 LP             1 S1                 0.0000
     63 ****         2.5041  -1.4686  -2.2989 LP             1 S1                 0.0000
     64 ****         3.6131  -1.1832   1.6371 LP             1 S1                 0.0000
     65 ****         0.1162   2.4592  -0.1922 LP             1 S1                 0.0000
     66 ****        -0.1079   0.8506   3.5598 LP             1 S1                 0.0000
     67 ****         0.4878   1.6985   4.8218 LP             1 S1                 0.0000
     68 ****         2.5504  -2.0375   6.2884 LP             1 S1                 0.0000
     69 ****         1.2363  -1.3650   6.9866 LP             1 S1                 0.0000
@<TRIPOS>BOND
    1    1    2 1     
    2    1   29 1     
    3    1   30 1     
    4    1   31 1     
    5    2    3 1     
    6    2   32 1     
    7    2   33 1     
    8    3    4 1     
    9    4   26 1     
   10    4    5 1     
   11    4   34 1     
   12    5    6 1     
   13    5   35 1     
   14    5   36 1     
   15    6    7 1     
   16    6   26 1     
   17    6   37 1     
   18    7    8 1     
   19    7    9 1     
   20    8   38 1     
   21    8   39 1     
   22    8   40 1     
   23    9   14 ar    
   24    9   10 ar    
   25   10   11 ar    
   26   11   12 ar    
   27   11   41 1     
   28   12   13 ar    
   29   13   17 1     
   30   13   14 ar    
   31   14   15 1     
   32   15   16 2     
   33   16   17 1     
   34   16   42 1     
   35   17   18 1     
   36   18   19 1     
   37   18   43 1     
   38   18   44 1     
   39   19   24 1     
   40   19   20 1     
   41   19   21 1     
   42   20   45 1     
   43   21   22 1     
   44   21   46 1     
   45   21   47 1     
   46   22   23 1     
   47   22   48 1     
   48   22   49 1     
   49   23   24 1     
   50   24   25 1     
   51   24   50 1     
   52   25   51 1     
   53   25   52 1     
   54   25   53 1     
   55   26   27 1     
   56   26   28 1     
   57   27   54 1     
   58   27   55 1     
   59   27   56 1     
   60   28   57 1     
   61   28   58 1     
   62   28   59 1     
   63    3   60 1     
   64    3   61 1     
   65    7   62 1     
   66   10   63 1     
   67   12   64 1     
   68   15   65 1     
   69   20   66 1     
   70   20   67 1     
   71   23   68 1     
   72   23   69 1     
@<TRIPOS>SUBSTRUCTURE
      1 S1             1
@<TRIPOS>SET
LONE_PAIRS      STATIC     ATOMS    <user>   **** ""
10 60 61 62 63 64 65 66 67 68 69
DONOR_HYDROGENS      STATIC     ATOMS    <user>   **** ""
1 45
ATOM$BLUE        STATIC     ATOMS    COLORGROUP SYSTEM
10 60 61 62 63 64 65 66 67 68 69
ATOM$RED        STATIC     ATOMS    COLORGROUP SYSTEM
1 45
