AV-unprocessed.smi:193|AV-procd|sdf|1514|dock7
  -GOLD-   2262019353D 1   1.00000     0.00000
 Structure written by MMmdl.
 61 65  0  0  0  0  0  0  0  0  1 V2000
  151.4561  137.6104  158.4987 C   0  0  0  0  0  0  0  0  0  0  0  0
  151.0345  138.9838  157.9566 C   0  0  2  0  0  0  0  0  0  0  0  0
  150.3151  138.8011  156.6006 C   0  0  0  0  0  0  0  0  0  0  0  0
  149.6942  140.0281  156.0996 N   0  0  0  0  0  0  0  0  0  0  0  0
  148.6280  139.9261  155.2660 C   0  0  0  0  0  0  0  0  0  0  0  0
  148.1737  141.0325  154.6191 N   0  0  0  0  0  0  0  0  0  0  0  0
  147.1214  140.9507  153.7995 C   0  0  0  0  0  0  0  0  0  0  0  0
  146.3875  139.8808  153.4877 N   0  0  0  0  0  0  0  0  0  0  0  0
  146.8406  138.7657  154.1287 C   0  0  0  0  0  0  0  0  0  0  0  0
  147.9477  138.6991  155.0212 C   0  0  0  0  0  0  0  0  0  0  0  0
  148.1257  137.3906  155.4559 N   0  0  0  0  0  0  0  0  0  0  0  0
  147.1712  136.7257  154.8658 C   0  0  0  0  0  0  0  0  0  0  0  0
  146.3431  137.4755  154.0614 N   0  0  0  0  0  0  0  0  0  0  0  0
  145.2052  136.9905  153.2951 C   0  0  0  0  0  0  0  0  0  0  0  0
  145.5829  136.0408  152.1241 C   0  0  0  0  0  0  0  0  0  0  0  0
  146.3380  136.7915  151.1923 O   0  0  0  0  0  0  0  0  0  0  0  0
  146.4686  134.8735  152.6028 C   0  0  0  0  0  0  0  0  0  0  0  0
  145.6512  133.8205  153.3745 C   0  0  0  0  0  0  0  0  0  0  0  0
  144.5674  133.3569  152.5756 O   0  0  0  0  0  0  0  0  0  0  0  0
  143.6527  134.3869  152.2160 C   0  0  0  0  0  0  0  0  0  0  0  0
  144.3732  135.4496  151.3688 C   0  0  0  0  0  0  0  0  0  0  0  0
  150.5088  141.2361  155.9906 C   0  0  0  0  0  0  0  0  0  0  0  0
  150.7774  141.8217  157.3845 C   0  0  0  0  0  0  0  0  0  0  0  0
  152.0208  141.3378  157.9877 N   0  0  0  0  0  0  0  0  0  0  0  0
  152.0191  141.6956  159.4007 C   0  0  1  0  0  0  0  0  0  0  0  0
  153.3120  142.1955  160.0057 C   0  0  0  0  0  0  0  0  0  0  0  0
  152.1658  143.1558  159.7916 C   0  0  1  0  0  0  0  0  0  0  0  0
  152.2952  144.2763  158.7776 C   0  0  0  0  0  0  0  0  0  0  0  0
  152.2755  139.9012  157.8235 C   0  0  0  0  0  0  0  0  0  0  0  0
  152.1601  137.1179  157.8270 H   0  0  0  0  0  0  0  0  0  0  0  0
  150.5946  136.9529  158.6178 H   0  0  0  0  0  0  0  0  0  0  0  0
  151.9333  137.7019  159.4748 H   0  0  0  0  0  0  0  0  0  0  0  0
  150.3357  139.4006  158.6834 H   0  0  0  0  0  0  0  0  0  0  0  0
  151.0103  138.4214  155.8508 H   0  0  0  0  0  0  0  0  0  0  0  0
  149.5421  138.0410  156.7229 H   0  0  0  0  0  0  0  0  0  0  0  0
  146.8243  141.8749  153.3261 H   0  0  0  0  0  0  0  0  0  0  0  0
  147.0401  135.6630  155.0083 H   0  0  0  0  0  0  0  0  0  0  0  0
  144.5215  136.4883  153.9811 H   0  0  0  0  0  0  0  0  0  0  0  0
  144.6653  137.8621  152.9262 H   0  0  0  0  0  0  0  0  0  0  0  0
  147.2533  136.7133  151.4129 H   0  0  0  0  0  0  0  0  0  0  0  0
  146.9280  134.3842  151.7424 H   0  0  0  0  0  0  0  0  0  0  0  0
  147.2900  135.2405  153.2195 H   0  0  0  0  0  0  0  0  0  0  0  0
  146.2856  132.9704  153.6259 H   0  0  0  0  0  0  0  0  0  0  0  0
  145.2771  134.2185  154.3181 H   0  0  0  0  0  0  0  0  0  0  0  0
  142.8378  133.9443  151.6430 H   0  0  0  0  0  0  0  0  0  0  0  0
  143.2076  134.8246  153.1103 H   0  0  0  0  0  0  0  0  0  0  0  0
  143.6763  136.2263  151.0547 H   0  0  0  0  0  0  0  0  0  0  0  0
  144.7160  134.9728  150.4490 H   0  0  0  0  0  0  0  0  0  0  0  0
  151.4375  141.0196  155.4617 H   0  0  0  0  0  0  0  0  0  0  0  0
  150.0041  141.9876  155.3842 H   0  0  0  0  0  0  0  0  0  0  0  0
  150.8559  142.9056  157.3034 H   0  0  0  0  0  0  0  0  0  0  0  0
  149.9227  141.6318  158.0363 H   0  0  0  0  0  0  0  0  0  0  0  0
  151.4052  141.1009  160.0751 H   0  0  0  0  0  0  0  0  0  0  0  0
  153.5335  141.8999  161.0291 H   0  0  0  0  0  0  0  0  0  0  0  0
  154.1775  142.2865  159.3518 H   0  0  0  0  0  0  0  0  0  0  0  0
  151.6187  143.4512  160.6846 H   0  0  0  0  0  0  0  0  0  0  0  0
  152.8944  143.9654  157.9213 H   0  0  0  0  0  0  0  0  0  0  0  0
  152.7761  145.1396  159.2376 H   0  0  0  0  0  0  0  0  0  0  0  0
  151.3096  144.5780  158.4236 H   0  0  0  0  0  0  0  0  0  0  0  0
  153.0417  139.6066  158.5419 H   0  0  0  0  0  0  0  0  0  0  0  0
  152.7345  139.7412  156.8476 H   0  0  0  0  0  0  0  0  0  0  0  0
  1  2  1  0  0  0  0
  1 30  1  0  0  0  0
  1 31  1  0  0  0  0
  1 32  1  0  0  0  0
  2 29  1  0  0  0  0
  2  3  1  0  0  0  0
  2 33  1  0  0  0  0
  3  4  1  0  0  0  0
  3 34  1  0  0  0  0
  3 35  1  0  0  0  0
  4  5  1  0  0  0  0
  4 22  1  0  0  0  0
  5 10  1  0  0  0  0
  5  6  2  0  0  0  0
  6  7  1  0  0  0  0
  7  8  2  0  0  0  0
  7 36  1  0  0  0  0
  8  9  1  0  0  0  0
  9 13  1  0  0  0  0
  9 10  2  0  0  0  0
 10 11  1  0  0  0  0
 11 12  2  0  0  0  0
 12 13  1  0  0  0  0
 12 37  1  0  0  0  0
 13 14  1  0  0  0  0
 14 15  1  0  0  0  0
 14 38  1  0  0  0  0
 14 39  1  0  0  0  0
 15 21  1  0  0  0  0
 15 16  1  0  0  0  0
 15 17  1  0  0  0  0
 16 40  1  0  0  0  0
 17 18  1  0  0  0  0
 17 41  1  0  0  0  0
 17 42  1  0  0  0  0
 18 19  1  0  0  0  0
 18 43  1  0  0  0  0
 18 44  1  0  0  0  0
 19 20  1  0  0  0  0
 20 21  1  0  0  0  0
 20 45  1  0  0  0  0
 20 46  1  0  0  0  0
 21 47  1  0  0  0  0
 21 48  1  0  0  0  0
 22 23  1  0  0  0  0
 22 49  1  0  0  0  0
 22 50  1  0  0  0  0
 23 24  1  0  0  0  0
 23 51  1  0  0  0  0
 23 52  1  0  0  0  0
 24 25  1  0  0  0  0
 24 29  1  0  0  0  0
 25 27  1  0  0  0  0
 25 26  1  0  0  0  0
 25 53  1  0  0  0  0
 26 27  1  0  0  0  0
 26 54  1  0  0  0  0
 26 55  1  0  0  0  0
 27 28  1  0  0  0  0
 27 56  1  0  0  0  0
 28 57  1  0  0  0  0
 28 58  1  0  0  0  0
 28 59  1  0  0  0  0
 29 60  1  0  0  0  0
 29 61  1  0  0  0  0
M  END
> <s_m_source_file>
AV-unprocessed.smi

> <i_m_source_file_index>
193

> <i_lp_mmshare_version>
43012

> <i_f3d_flags>
0

> <s_epik_input>
W0NIM11bQ0BASF0xW0NIMl1bQ0BIXTFOKFtDSDJdMilbQ0gyXVtDSDJdTihbQ0gyXVtDQEhdMltDSDNdKWMobltjSF1uMyljKGMzNCluW2NIXW40W0NIMl1DNShbT0hdKVtDSDJdW0NIMl1PW0NIMl1bQ0gyXTU=

> <s_epik_cmdline>
J2VwaWtfcHl0aG9uJywgJy1waCcsICc3LjAnLCAnLXRuJywgJzgnLCAnLW1hJywgJzIwMCcsICctbWV0YWxfYmluZGluZycsICctaW1hZScsICc8aW5maWxlLm1hZT4nLCAnLW9tYWUnLCAnPG91dGZpbGUubWFlPic=

> <r_lp_tautomer_probability>
1

> <r_epik_Ionization_Penalty>
1.45227

> <r_epik_Ionization_Penalty_Charging>
0

> <r_epik_Ionization_Penalty_Neutral>
1.45227

> <r_epik_State_Penalty>
2.02377

> <r_epik_Charging_Adjusted_Penalty>
2.02377

> <i_epik_Tot_Q>
0

> <i_epik_Tot_abs_Q>
0

> <r_epik_Metal_State_Penalty>
2.01937

> <b_epik_Metal_Only>
0

> <s_lp_Force_Field>
OPLS_2005

> <r_lp_Energy>
54.496

> <b_lp_Chiralities_Consistent>
1

> <s_lp_Variant>
AV-unprocessed.smi:193-19

> <Gold.Version>
5.8.1

> <Gold.Id.Protein>
6NUR|6NUR_protein|mol2

> <Gold.PLP.Fitness>
44.6030

> <Gold.PLP.PLP>
-41.8112

> <Gold.PLP.part.hbond>
-1.4481

> <Gold.PLP.part.metal>
0.0000

> <Gold.PLP.part.buried>
-4.4200

> <Gold.PLP.part.nonpolar>
-35.7833

> <Gold.PLP.part.repulsive>
0.5394

> <Gold.PLP.ligand.clash>
0.0000

> <Gold.PLP.ligand.torsion>
0.7729

> <Gold.PLP.Chemscore.Hbond>
1.0000

> <Gold.PLP.Chemscore.CHOScore>
0.0000

> <Gold.PLP.Chemscore.Metal>
0.0000

> <Gold.Chemscore.Hbonds>
donor molecule, donor type, donor heavy atom, donor atom, acceptor molecule, acceptor atom, score
      L1  H    16    40       P1  7948  1.00

> <Gold.PLP.Chemscore.Internal.Correction>
1.3375

> <Gold.Rescore>
     Score         DG    S(hbond)    S(metal)    S(lipo)     H(rot)  DE(clash)    DE(int)     intcor
     14.04     -16.35       1.00        0.00     106.14       1.91       0.08       2.23       ----

> <Gold.Chemscore.Fitness>
14.0355

> <Gold.Chemscore.DG>
-16.3531

> <Gold.Chemscore.ZeroCoef>
-5.4800

> <Gold.Chemscore.Hbond>
0.9987

> <Gold.Chemscore.Metal>
0.0000

> <Gold.Chemscore.Lipo>
106.1443

> <Gold.Chemscore.Internal_Hbond>
0.0000

> <Gold.Chemscore.DEClash>
0.0829

> <Gold.Chemscore.DEInternal>
2.2347

> <Gold.Chemscore.Rot>
1.9068

> <Gold.Chemscore.Internal.Correction>
   9.000000E+99

> <Gold.Chemscore.Hbonds>
donor molecule, donor type, donor heavy atom, donor atom, acceptor molecule, acceptor atom, score
      L1  H    16    40       P1  7948  1.00

> <Gold.Chemscore.Hbond.Weighted>
-3.3356

> <Gold.Chemscore.Metal.Weighted>
-0.0000

> <Gold.Chemscore.Lipo.Weighted>
-12.4189

> <Gold.Chemscore.Internal_Hbond.Weighted>
0.0000

> <Gold.Chemscore.DEClash.Weighted>
0.0829

> <Gold.Chemscore.DEInternal.Weighted>
2.2347

> <Gold.Chemscore.Rot.Weighted>
4.8814

> <Gold.Chemscore.Internal.Correction.Weighted>
   9.000000E+99

> <Gold.Protein.RotatedTorsions>
[ 6907 6896 6895 6894 ] final  114.97 input  -60.11 | X-H torsion
[ 7974 7965 7964 7962 ] final  -24.24 input  175.53 | X-H torsion
[ 8008 7997 7996 7995 ] final   88.01 input   59.86 | X-H torsion
[ 10167 10162 10161 10158 ] final  156.60 input  -65.29 | X-H torsion
[ 10718 10713 10712 10709 ] final  -48.26 input   66.30 | X-H torsion
[ 10763 10752 10751 10750 ] final   86.37 input  -60.55 | X-H torsion
[ 11005 11000 10999 10996 ] final   13.38 input  -57.11 | X-H torsion

> <Gold.Protein.ActiveResidues>
 VAL166  LYS551  ARG553  GLY616  TRP617  ASP618  TYR619  PRO620  LYS621  CYS622 
 ASP623  PHE694  ASN695  SER759  ASP760  ASP761  ALA762  ILE779  LEU786  VAL792 
 PHE793  MET794  SER795  GLU796  ALA797  LYS798  CYS799  TRP800  GLU811  SER814 

> <Gold.Protein.RotatedAtoms>
  152.4770  133.8163  159.7029 H   0  0  0  0  0  0  0  0  0  0  0  0  # atno 6907 bound_to 6896
  150.8794  133.7384  159.2943 H   0  0  0  0  0  0  0  0  0  0  0  0  # atno 6908 bound_to 6896
  151.4893  135.1060  159.9851 H   0  0  0  0  0  0  0  0  0  0  0  0  # atno 6909 bound_to 6896
  146.1566  140.4725  142.8589 H   0  0  0  0  0  0  0  0  0  0  0  0  # atno 7974 bound_to 7965
  155.9824  140.3376  155.6676 H   0  0  0  0  0  0  0  0  0  0  0  0  # atno 8008 bound_to 7997
  155.6530  140.0707  157.2598 H   0  0  0  0  0  0  0  0  0  0  0  0  # atno 8009 bound_to 7997
  154.4196  140.1722  156.1682 H   0  0  0  0  0  0  0  0  0  0  0  0  # atno 8010 bound_to 7997
  139.4821  144.4994  151.8191 H   0  0  0  0  0  0  0  0  0  0  0  0  # atno 10167 bound_to 10162
  156.2005  130.4156  149.9248 H   0  0  0  0  0  0  0  0  0  0  0  0  # atno 10718 bound_to 10713
  153.1564  135.4583  154.9710 H   0  0  0  0  0  0  0  0  0  0  0  0  # atno 10763 bound_to 10752
  154.7864  135.3205  154.7879 H   0  0  0  0  0  0  0  0  0  0  0  0  # atno 10764 bound_to 10752
  153.8375  135.6933  153.4861 H   0  0  0  0  0  0  0  0  0  0  0  0  # atno 10765 bound_to 10752
  140.4813  134.0932  155.7751 H   0  0  0  0  0  0  0  0  0  0  0  0  # atno 11005 bound_to 11000
  144.7972  140.6145  143.6502 LP  0  0  0  0  0  0  0  0  0  0  0  0  # atno 17320 bound_to 7965
  145.4692  139.1505  143.3823 LP  0  0  0  0  0  0  0  0  0  0  0  0  # atno 17321 bound_to 7965
  140.4486  144.1887  150.5896 LP  0  0  0  0  0  0  0  0  0  0  0  0  # atno 17342 bound_to 10162
  140.4609  143.2449  151.9221 LP  0  0  0  0  0  0  0  0  0  0  0  0  # atno 17343 bound_to 10162
  156.6959  130.8914  151.3594 LP  0  0  0  0  0  0  0  0  0  0  0  0  # atno 17370 bound_to 10713
  157.6983  130.9305  150.0708 LP  0  0  0  0  0  0  0  0  0  0  0  0  # atno 17371 bound_to 10713
  141.1529  133.8935  157.2051 LP  0  0  0  0  0  0  0  0  0  0  0  0  # atno 17394 bound_to 11000
  139.9824  135.0093  156.9782 LP  0  0  0  0  0  0  0  0  0  0  0  0  # atno 17395 bound_to 11000

$$$$
