#       Name:                AV-unprocessed.smi:1263
#       Creating user name   scv26
#       Creation time:       Fri Mar 27 04:43:45 2020


#       File generated by GOLD software.
#

@<TRIPOS>MOLECULE
AV-unprocessed.smi:1263
    49    51     1
SMALL
NO_CHARGES


@<TRIPOS>ATOM
      1 ****        -4.2562  -4.4860   0.4318 C.3            1 S1                 0.0000
      2 ****        -3.6408  -3.2025   0.4194 O.3            1 S1                 0.0000
      3 ****        -4.4504  -2.0826   0.4402 C.ar           1 S1                 0.0000
      4 ****        -5.7952  -2.2600   0.4730 N.ar           1 S1                 0.0000
      5 ****        -6.5873  -1.1687   0.5002 C.ar           1 S1                 0.0000
      6 ****        -6.0871   0.1461   0.5025 C.ar           1 S1                 0.0000
      7 ****        -4.6930   0.3331   0.4674 C.ar           1 S1                 0.0000
      8 ****        -3.8482  -0.8026   0.4235 C.ar           1 S1                 0.0000
      9 ****        -2.4280  -0.7271   0.4081 N.am           1 S1                 0.0000
     10 ****        -1.6459   0.2894   0.0066 C.2            1 S1                 0.0000
     11 ****        -2.0485   1.3487  -0.4741 O.2            1 S1                 0.0000
     12 ****        -0.3494  -0.0059   0.1778 N.am           1 S1                 0.0000
     13 ****         0.7783   0.8591  -0.1591 C.3            1 S1                 0.0000
     14 ****         1.6209   0.2175  -1.2729 C.3            1 S1                 0.0000
     15 ****         2.9048   1.0257  -1.5301 C.3            1 S1                 0.0000
     16 ****         3.6946   1.1237  -0.3023 N.3            1 S1                 0.0000
     17 ****         4.9207   1.8500  -0.5896 C.3            1 S1                 0.0000
     18 ****         6.0938   1.0573  -1.1191 C.3            1 S1                 0.0000
     19 ****         6.1160   1.5825   0.2962 C.3            1 S1                 0.0000
     20 ****         2.9400   1.8522   0.7178 C.3            1 S1                 0.0000
     21 ****         1.6583   1.0818   1.0808 C.3            1 S1                 0.0000
     22 ****        -3.4852  -5.2562   0.4129 H              1 S1                 0.0000
     23 ****        -4.8912  -4.6326  -0.4432 H              1 S1                 0.0000
     24 ****        -4.8502  -4.6350   1.3347 H              1 S1                 0.0000
     25 ****        -7.6517  -1.3497   0.5285 H              1 S1                 0.0000
     26 ****        -6.7575   0.9921   0.5361 H              1 S1                 0.0000
     27 ****        -4.3021   1.3384   0.4912 H              1 S1                 0.0000
     28 ****        -1.9499  -1.5711   0.6885 H              1 S1                 0.0000
     29 ****        -0.1210  -0.9056   0.5747 H              1 S1                 0.0000
     30 ****         0.4297   1.8325  -0.5088 H              1 S1                 0.0000
     31 ****         1.8869  -0.8049  -0.9996 H              1 S1                 0.0000
     32 ****         1.0370   0.1505  -2.1916 H              1 S1                 0.0000
     33 ****         3.4941   0.5329  -2.3043 H              1 S1                 0.0000
     34 ****         2.6578   2.0218  -1.9013 H              1 S1                 0.0000
     35 ****         4.8435   2.8689  -0.9660 H              1 S1                 0.0000
     36 ****         5.9652  -0.0150  -1.2540 H              1 S1                 0.0000
     37 ****         6.7397   1.5440  -1.8470 H              1 S1                 0.0000
     38 ****         6.7773   2.4192   0.5119 H              1 S1                 0.0000
     39 ****         6.0026   0.8590   1.1015 H              1 S1                 0.0000
     40 ****         3.5554   1.9724   1.6101 H              1 S1                 0.0000
     41 ****         2.6929   2.8540   0.3623 H              1 S1                 0.0000
     42 ****         1.1011   1.6310   1.8405 H              1 S1                 0.0000
     43 ****         1.9275   0.1230   1.5269 H              1 S1                 0.0000
     44 ****        -3.0851  -3.1496  -0.4103 LP             1 S1                 0.0000
     45 ****        -3.0467  -3.1522   1.2222 LP             1 S1                 0.0000
     46 ****        -6.1900  -3.1788   0.4769 LP             1 S1                 0.0000
     47 ****        -3.0294   1.5036  -0.5916 LP             1 S1                 0.0000
     48 ****        -1.3946   2.0543  -0.7472 LP             1 S1                 0.0000
     49 ****         3.9040   0.2051   0.0328 LP             1 S1                 0.0000
@<TRIPOS>BOND
    1    1    2 1     
    2    1   22 1     
    3    1   23 1     
    4    1   24 1     
    5    2    3 1     
    6    3    8 ar    
    7    3    4 ar    
    8    4    5 ar    
    9    5    6 ar    
   10    5   25 1     
   11    6    7 ar    
   12    6   26 1     
   13    7    8 ar    
   14    7   27 1     
   15    8    9 1     
   16    9   10 am    
   17    9   28 1     
   18   10   11 2     
   19   10   12 am    
   20   12   13 1     
   21   12   29 1     
   22   13   21 1     
   23   13   14 1     
   24   13   30 1     
   25   14   15 1     
   26   14   31 1     
   27   14   32 1     
   28   15   16 1     
   29   15   33 1     
   30   15   34 1     
   31   16   17 1     
   32   16   20 1     
   33   17   19 1     
   34   17   18 1     
   35   17   35 1     
   36   18   19 1     
   37   18   36 1     
   38   18   37 1     
   39   19   38 1     
   40   19   39 1     
   41   20   21 1     
   42   20   40 1     
   43   20   41 1     
   44   21   42 1     
   45   21   43 1     
   46    2   44 1     
   47    2   45 1     
   48    4   46 1     
   49   11   47 1     
   50   11   48 1     
   51   16   49 1     
@<TRIPOS>SUBSTRUCTURE
      1 S1             1
@<TRIPOS>SET
LONE_PAIRS      STATIC     ATOMS    <user>   **** ""
6 44 45 46 47 48 49
DONOR_HYDROGENS      STATIC     ATOMS    <user>   **** ""
2 28 29
ATOM$BLUE        STATIC     ATOMS    COLORGROUP SYSTEM
6 44 45 46 47 48 49
ATOM$RED        STATIC     ATOMS    COLORGROUP SYSTEM
2 28 29
