AV-unprocessed.smi:52|AV-procd|sdf|508|dock8
  -GOLD-   2262016383D 1   1.00000     0.00000
 Structure written by MMmdl.
 27 28  0  0  0  0  0  0  0  0  3 V2000
  151.3739  136.8795  158.5677 O   0  0  0  0  0  0  0  0  0  0  0  0
  151.8065  137.1406  157.4238 C   0  0  0  0  0  0  0  0  0  0  0  0
  152.4231  136.2943  156.7400 O   0  5  0  0  0  0  0  0  0  0  0  0
  151.5852  138.4977  156.8625 C   0  0  0  0  0  0  0  0  0  0  0  0
  151.8239  138.9042  155.5739 C   0  0  0  0  0  0  0  0  0  0  0  0
  151.4782  140.2226  155.4467 O   0  0  0  0  0  0  0  0  0  0  0  0
  151.0396  140.5736  156.6859 C   0  0  0  0  0  0  0  0  0  0  0  0
  150.5436  141.9631  156.9119 C   0  0  0  0  0  0  0  0  0  0  0  0
  151.6157  142.6086  157.7076 N   0  3  1  0  0  0  0  0  0  0  0  0
  151.6128  144.0908  157.6974 C   0  0  0  0  0  0  0  0  0  0  0  0
  152.2782  144.5014  159.0068 C   0  0  0  0  0  0  0  0  0  0  0  0
  151.7662  143.4420  159.9761 C   0  0  2  0  0  0  0  0  0  0  0  0
  152.6281  143.2761  161.0815 O   0  0  0  0  0  0  0  0  0  0  0  0
  151.6663  142.1701  159.1228 C   0  0  0  0  0  0  0  0  0  0  0  0
  151.0862  139.5825  157.5719 N   0  0  0  0  0  0  0  0  0  0  0  0
  150.7733  143.7235  160.3300 H   0  0  0  0  0  0  0  0  0  0  0  0
  152.2048  138.4098  154.6924 H   0  0  0  0  0  0  0  0  0  0  0  0
  150.3661  142.4766  155.9661 H   0  0  0  0  0  0  0  0  0  0  0  0
  149.6088  141.9234  157.4724 H   0  0  0  0  0  0  0  0  0  0  0  0
  152.1311  144.4920  156.8257 H   0  0  0  0  0  0  0  0  0  0  0  0
  150.5866  144.4615  157.6789 H   0  0  0  0  0  0  0  0  0  0  0  0
  153.3626  144.4345  158.9034 H   0  0  0  0  0  0  0  0  0  0  0  0
  152.0280  145.5179  159.3126 H   0  0  0  0  0  0  0  0  0  0  0  0
  153.1822  144.0388  161.1514 H   0  0  0  0  0  0  0  0  0  0  0  0
  150.7967  141.5773  159.4104 H   0  0  0  0  0  0  0  0  0  0  0  0
  152.5482  141.5395  159.2435 H   0  0  0  0  0  0  0  0  0  0  0  0
  152.4947  142.3216  157.3009 H   0  0  0  0  0  0  0  0  0  0  0  0
  1  2  2  0  0  0  0
  2  3  1  0  0  0  0
  2  4  1  0  0  0  0
  4 15  1  0  0  0  0
  4  5  2  0  0  0  0
  5  6  1  0  0  0  0
  5 17  1  0  0  0  0
  6  7  1  0  0  0  0
  7  8  1  0  0  0  0
  7 15  2  0  0  0  0
  8  9  1  0  0  0  0
  8 18  1  0  0  0  0
  8 19  1  0  0  0  0
  9 14  1  0  0  0  0
  9 10  1  0  0  0  0
  9 27  1  0  0  0  0
 10 11  1  0  0  0  0
 10 20  1  0  0  0  0
 10 21  1  0  0  0  0
 11 12  1  0  0  0  0
 11 22  1  0  0  0  0
 11 23  1  0  0  0  0
 12 16  1  0  0  0  0
 12 13  1  0  0  0  0
 12 14  1  0  0  0  0
 13 24  1  0  0  0  0
 14 25  1  0  0  0  0
 14 26  1  0  0  0  0
M  CHG  1   3  -1
M  CHG  1   9   1
M  END
> <s_m_source_file>
AV-unprocessed.smi

> <i_m_source_file_index>
52

> <i_lp_mmshare_version>
43012

> <i_f3d_flags>
0

> <s_epik_input>
Tz1DKFtPSF0pYzFbY0hdb2MobjEpW0NIMl1OMltDSDJdW0NIMl1bQ0BIXShbT0hdKVtDSDJdMg==

> <s_epik_cmdline>
J2VwaWtfcHl0aG9uJywgJy1waCcsICc3LjAnLCAnLXRuJywgJzgnLCAnLW1hJywgJzIwMCcsICctbWV0YWxfYmluZGluZycsICctaW1hZScsICc8aW5maWxlLm1hZT4nLCAnLW9tYWUnLCAnPG91dGZpbGUubWFlPic=

> <r_epik_Ionization_Penalty>
0.0376014

> <r_epik_Ionization_Penalty_Charging>
0.0376013

> <r_epik_Ionization_Penalty_Neutral>
1.78687e-08

> <r_epik_State_Penalty>
0.0314164

> <r_epik_Charging_Adjusted_Penalty>
0.0690177

> <i_epik_Tot_Q>
0

> <i_epik_Tot_abs_Q>
2

> <r_epik_Metal_State_Penalty>
0.0314164

> <b_epik_Metal_Only>
0

> <s_lp_Force_Field>
OPLS_2005

> <r_lp_Energy>
18.2584

> <b_lp_Chiralities_Consistent>
1

> <s_lp_Variant>
AV-unprocessed.smi:52-2

> <Gold.Version>
5.8.1

> <Gold.Id.Protein>
6NUR|6NUR_protein|mol2

> <Gold.PLP.Fitness>
38.0264

> <Gold.PLP.PLP>
-26.7170

> <Gold.PLP.part.hbond>
-2.9934

> <Gold.PLP.part.metal>
0.0000

> <Gold.PLP.part.buried>
-4.5152

> <Gold.PLP.part.nonpolar>
-20.7684

> <Gold.PLP.part.repulsive>
0.0480

> <Gold.PLP.ligand.clash>
0.0000

> <Gold.PLP.ligand.torsion>
0.3428

> <Gold.PLP.Chemscore.Hbond>
3.9950

> <Gold.PLP.Chemscore.CHOScore>
0.0000

> <Gold.PLP.Chemscore.Metal>
0.0000

> <Gold.Chemscore.Hbonds>
donor molecule, donor type, donor heavy atom, donor atom, acceptor molecule, acceptor atom, score
      P1  H  6896  6908       L1     1  1.02
      P1  H  7989  7998       L1     6  0.89
      P1  H 10752 10765       L1     3  2.00

> <Gold.PLP.Chemscore.Internal.Correction>
0.0102

> <Gold.Rescore>
     Score         DG    S(hbond)    S(metal)    S(lipo)     H(rot)  DE(clash)    DE(int)     intcor
     15.78     -16.29       2.51        0.00      64.39       1.99       0.08       0.43       ----

> <Gold.Chemscore.Fitness>
15.7842

> <Gold.Chemscore.DG>
-16.2921

> <Gold.Chemscore.ZeroCoef>
-5.4800

> <Gold.Chemscore.Hbond>
2.5084

> <Gold.Chemscore.Metal>
0.0000

> <Gold.Chemscore.Lipo>
64.3859

> <Gold.Chemscore.Internal_Hbond>
0.0000

> <Gold.Chemscore.DEClash>
0.0811

> <Gold.Chemscore.DEInternal>
0.4268

> <Gold.Chemscore.Rot>
1.9919

> <Gold.Chemscore.Internal.Correction>
   9.000000E+99

> <Gold.Chemscore.Hbonds>
donor molecule, donor type, donor heavy atom, donor atom, acceptor molecule, acceptor atom, score
      P1  H  6896  6908       L1     1  0.50
      P1  H  7989  7998       L1     6  0.68
      P1  H 10752 10765       L1     3  0.98

> <Gold.Chemscore.Hbond.Weighted>
-8.3781

> <Gold.Chemscore.Metal.Weighted>
-0.0000

> <Gold.Chemscore.Lipo.Weighted>
-7.5332

> <Gold.Chemscore.Internal_Hbond.Weighted>
0.0000

> <Gold.Chemscore.DEClash.Weighted>
0.0811

> <Gold.Chemscore.DEInternal.Weighted>
0.4268

> <Gold.Chemscore.Rot.Weighted>
5.0991

> <Gold.Chemscore.Internal.Correction.Weighted>
   9.000000E+99

> <Gold.Protein.RotatedTorsions>
[ 6907 6896 6895 6894 ] final -132.62 input  -60.11 | X-H torsion
[ 7974 7965 7964 7962 ] final  107.36 input  175.53 | X-H torsion
[ 8008 7997 7996 7995 ] final  173.56 input   59.86 | X-H torsion
[ 10167 10162 10161 10158 ] final   42.61 input  -65.29 | X-H torsion
[ 10718 10713 10712 10709 ] final -140.47 input   66.30 | X-H torsion
[ 10763 10752 10751 10750 ] final -135.49 input  -60.55 | X-H torsion
[ 11005 11000 10999 10996 ] final -127.97 input  -57.11 | X-H torsion

> <Gold.Protein.ActiveResidues>
 VAL166  LYS551  ARG553  GLY616  TRP617  ASP618  TYR619  PRO620  LYS621  CYS622 
 ASP623  PHE694  ASN695  SER759  ASP760  ASP761  ALA762  ILE779  LEU786  VAL792 
 PHE793  MET794  SER795  GLU796  ALA797  LYS798  CYS799  TRP800  GLU811  SER814 

> <Gold.Protein.RotatedAtoms>
  150.9646  133.6409  159.2748 H   0  0  0  0  0  0  0  0  0  0  0  0  # atno 6907 bound_to 6896
  151.3719  135.0923  159.9478 H   0  0  0  0  0  0  0  0  0  0  0  0  # atno 6908 bound_to 6896
  152.5160  133.9198  159.7583 H   0  0  0  0  0  0  0  0  0  0  0  0  # atno 6909 bound_to 6896
  145.2946  139.2589  143.3846 H   0  0  0  0  0  0  0  0  0  0  0  0  # atno 7974 bound_to 7965
  156.1063  140.1457  156.9400 H   0  0  0  0  0  0  0  0  0  0  0  0  # atno 8008 bound_to 7997
  154.4736  140.0902  156.7251 H   0  0  0  0  0  0  0  0  0  0  0  0  # atno 8009 bound_to 7997
  155.4674  140.3440  155.4323 H   0  0  0  0  0  0  0  0  0  0  0  0  # atno 8010 bound_to 7997
  140.3526  144.2330  150.6144 H   0  0  0  0  0  0  0  0  0  0  0  0  # atno 10167 bound_to 10162
  156.3227  130.7543  151.1644 H   0  0  0  0  0  0  0  0  0  0  0  0  # atno 10718 bound_to 10713
  154.8702  135.3702  154.4906 H   0  0  0  0  0  0  0  0  0  0  0  0  # atno 10763 bound_to 10752
  153.5553  135.7024  153.5577 H   0  0  0  0  0  0  0  0  0  0  0  0  # atno 10764 bound_to 10752
  153.3677  135.4029  155.1729 H   0  0  0  0  0  0  0  0  0  0  0  0  # atno 10765 bound_to 10752
  140.9556  134.1007  157.4020 H   0  0  0  0  0  0  0  0  0  0  0  0  # atno 11005 bound_to 11000
  146.3173  140.3445  142.8651 LP  0  0  0  0  0  0  0  0  0  0  0  0  # atno 17320 bound_to 7965
  144.9144  140.7795  143.5787 LP  0  0  0  0  0  0  0  0  0  0  0  0  # atno 17321 bound_to 7965
  140.5204  143.2267  151.8397 LP  0  0  0  0  0  0  0  0  0  0  0  0  # atno 17342 bound_to 10162
  139.4824  144.4843  151.9266 LP  0  0  0  0  0  0  0  0  0  0  0  0  # atno 17343 bound_to 10162
  157.7415  131.0503  150.5093 LP  0  0  0  0  0  0  0  0  0  0  0  0  # atno 17370 bound_to 10713
  156.5247  130.4170  149.6232 LP  0  0  0  0  0  0  0  0  0  0  0  0  # atno 17371 bound_to 10713
  139.8861  135.0078  156.6477 LP  0  0  0  0  0  0  0  0  0  0  0  0  # atno 17394 bound_to 11000
  140.7541  133.8872  155.8369 LP  0  0  0  0  0  0  0  0  0  0  0  0  # atno 17395 bound_to 11000

$$$$
