AV-unprocessed.smi:1555|AV-procd|sdf|6266|dock6
  -GOLD-   22720 6453D 1   1.00000     0.00000
 Structure written by MMmdl.
 41 42  0  0  0  0  0  0  0  0  1 V2000
  151.2000  139.6163  155.6431 C   0  0  0  0  0  0  0  0  0  0  0  0
  150.3913  140.8197  156.1546 C   0  0  2  0  0  0  0  0  0  0  0  0
  149.8509  141.7127  155.0161 C   0  0  0  0  0  0  0  0  0  0  0  0
  148.4825  141.3931  154.6569 N   0  0  0  0  0  0  0  0  0  0  0  0
  148.0588  140.3981  153.7861 C   0  0  0  0  0  0  0  0  0  0  0  0
  146.6840  140.4627  153.7542 C   0  0  0  0  0  0  0  0  0  0  0  0
  146.2431  141.4819  154.5951 N   0  0  0  0  0  0  0  0  0  0  0  0
  147.3635  141.9849  155.0973 C   0  0  0  0  0  0  0  0  0  0  0  0
  151.2263  141.6026  157.0609 N   0  0  0  0  0  0  0  0  0  0  0  0
  151.8903  141.1240  158.1275 C   0  0  0  0  0  0  0  0  0  0  0  0
  151.8429  139.9353  158.4476 O   0  0  0  0  0  0  0  0  0  0  0  0
  152.6065  142.0509  158.8137 N   0  0  0  0  0  0  0  0  0  0  0  0
  152.3116  143.4907  158.9088 C   0  0  0  0  0  0  0  0  0  0  0  0
  151.7839  143.7958  160.3220 C   0  0  0  0  0  0  0  0  0  0  0  0
  152.7941  143.3542  161.4073 C   0  0  0  0  0  0  0  0  0  0  0  0
  152.2394  143.5393  162.8314 C   0  0  0  0  0  0  0  0  0  0  0  0
  153.2090  143.1893  163.7967 O   0  0  0  0  0  0  0  0  0  0  0  0
  153.2436  141.8952  161.1692 C   0  0  0  0  0  0  0  0  0  0  0  0
  153.7026  141.6770  159.7155 C   0  0  0  0  0  0  0  0  0  0  0  0
  150.5870  138.9503  155.0355 H   0  0  0  0  0  0  0  0  0  0  0  0
  151.5919  139.0263  156.4723 H   0  0  0  0  0  0  0  0  0  0  0  0
  152.0458  139.9385  155.0347 H   0  0  0  0  0  0  0  0  0  0  0  0
  149.5453  140.4267  156.7218 H   0  0  0  0  0  0  0  0  0  0  0  0
  149.8831  142.7641  155.3042 H   0  0  0  0  0  0  0  0  0  0  0  0
  150.4762  141.6147  154.1272 H   0  0  0  0  0  0  0  0  0  0  0  0
  148.7516  139.7459  153.2749 H   0  0  0  0  0  0  0  0  0  0  0  0
  145.9845  139.8576  153.1967 H   0  0  0  0  0  0  0  0  0  0  0  0
  147.3703  142.8069  155.7981 H   0  0  0  0  0  0  0  0  0  0  0  0
  151.3112  142.5885  156.8610 H   0  0  0  0  0  0  0  0  0  0  0  0
  153.2268  144.0556  158.7257 H   0  0  0  0  0  0  0  0  0  0  0  0
  151.6020  143.8490  158.1634 H   0  0  0  0  0  0  0  0  0  0  0  0
  151.5787  144.8629  160.4112 H   0  0  0  0  0  0  0  0  0  0  0  0
  150.8318  143.2844  160.4706 H   0  0  0  0  0  0  0  0  0  0  0  0
  153.6819  143.9812  161.3095 H   0  0  0  0  0  0  0  0  0  0  0  0
  151.9217  144.5696  162.9949 H   0  0  0  0  0  0  0  0  0  0  0  0
  151.3656  142.9051  162.9839 H   0  0  0  0  0  0  0  0  0  0  0  0
  153.5731  143.9830  164.1585 H   0  0  0  0  0  0  0  0  0  0  0  0
  154.0529  141.6378  161.8532 H   0  0  0  0  0  0  0  0  0  0  0  0
  152.4213  141.2142  161.3936 H   0  0  0  0  0  0  0  0  0  0  0  0
  154.0288  140.6448  159.5805 H   0  0  0  0  0  0  0  0  0  0  0  0
  154.5769  142.2930  159.5003 H   0  0  0  0  0  0  0  0  0  0  0  0
  1  2  1  0  0  0  0
  1 20  1  0  0  0  0
  1 21  1  0  0  0  0
  1 22  1  0  0  0  0
  2  3  1  0  0  0  0
  2  9  1  0  0  0  0
  2 23  1  0  0  0  0
  3  4  1  0  0  0  0
  3 24  1  0  0  0  0
  3 25  1  0  0  0  0
  4  8  1  0  0  0  0
  4  5  1  0  0  0  0
  5  6  2  0  0  0  0
  5 26  1  0  0  0  0
  6  7  1  0  0  0  0
  6 27  1  0  0  0  0
  7  8  2  0  0  0  0
  8 28  1  0  0  0  0
  9 10  1  0  0  0  0
  9 29  1  0  0  0  0
 10 11  2  0  0  0  0
 10 12  1  0  0  0  0
 12 19  1  0  0  0  0
 12 13  1  0  0  0  0
 13 14  1  0  0  0  0
 13 30  1  0  0  0  0
 13 31  1  0  0  0  0
 14 15  1  0  0  0  0
 14 32  1  0  0  0  0
 14 33  1  0  0  0  0
 15 16  1  0  0  0  0
 15 18  1  0  0  0  0
 15 34  1  0  0  0  0
 16 17  1  0  0  0  0
 16 35  1  0  0  0  0
 16 36  1  0  0  0  0
 17 37  1  0  0  0  0
 18 19  1  0  0  0  0
 18 38  1  0  0  0  0
 18 39  1  0  0  0  0
 19 40  1  0  0  0  0
 19 41  1  0  0  0  0
M  END
> <s_m_source_file>
AV-unprocessed.smi

> <i_m_source_file_index>
1555

> <i_lp_mmshare_version>
43012

> <i_f3d_flags>
0

> <s_epik_input>
W2NIXTFuW2NIXVtjSF1uMVtDSDJdW0NAQEhdKFtDSDNdKVtOSF1DKD1PKU4yW0NIMl1bQ0gyXVtDSF0oW0NIMl1bT0hdKVtDSDJdW0NIMl0y

> <s_epik_cmdline>
J2VwaWtfcHl0aG9uJywgJy1waCcsICc3LjAnLCAnLXRuJywgJzgnLCAnLW1hJywgJzIwMCcsICctbWV0YWxfYmluZGluZycsICctaW1hZScsICc8aW5maWxlLm1hZT4nLCAnLW9tYWUnLCAnPG91dGZpbGUubWFlPic=

> <r_lp_tautomer_probability>
1

> <r_epik_Ionization_Penalty>
0.625883

> <r_epik_Ionization_Penalty_Charging>
0.625812

> <r_epik_Ionization_Penalty_Neutral>
7.07114e-05

> <r_epik_State_Penalty>
0.642234

> <r_epik_Charging_Adjusted_Penalty>
1.26805

> <i_epik_Tot_Q>
0

> <i_epik_Tot_abs_Q>
0

> <r_epik_Metal_State_Penalty>
0.307949

> <b_epik_Metal_Only>
0

> <s_lp_Force_Field>
OPLS_2005

> <r_lp_Energy>
32.8415

> <b_lp_Chiralities_Consistent>
1

> <s_lp_Variant>
AV-unprocessed.smi:1555-3

> <Gold.Version>
5.8.1

> <Gold.Id.Protein>
6NUR|6NUR_protein|mol2

> <Gold.PLP.Fitness>
45.6106

> <Gold.PLP.PLP>
-39.5822

> <Gold.PLP.part.hbond>
-1.1269

> <Gold.PLP.part.metal>
0.0000

> <Gold.PLP.part.buried>
1.7140

> <Gold.PLP.part.nonpolar>
-39.7074

> <Gold.PLP.part.repulsive>
0.2236

> <Gold.PLP.ligand.clash>
0.0000

> <Gold.PLP.ligand.torsion>
1.1381

> <Gold.PLP.Chemscore.Hbond>
0.0000

> <Gold.PLP.Chemscore.CHOScore>
2.7459

> <Gold.PLP.Chemscore.Metal>
0.0000

> <Gold.Chemscore.Hbonds>
donor molecule, donor type, donor heavy atom, donor atom, acceptor molecule, acceptor atom, score
      L1  C     5    26       P1  7957  0.93
      L1  C     6    27       P1 10175  0.95
      L1  C     8    28       P1  8028  0.84

> <Gold.PLP.Chemscore.Internal.Correction>
0.0669

> <Gold.Rescore>
     Score         DG    S(hbond)    S(metal)    S(lipo)     H(rot)  DE(clash)    DE(int)     intcor
      7.92     -11.15       0.00        0.00     102.90       2.49       1.38       1.86       ----

> <Gold.Chemscore.Fitness>
7.9211

> <Gold.Chemscore.DG>
-11.1535

> <Gold.Chemscore.ZeroCoef>
-5.4800

> <Gold.Chemscore.Hbond>
0.0000

> <Gold.Chemscore.Metal>
0.0000

> <Gold.Chemscore.Lipo>
102.9016

> <Gold.Chemscore.Internal_Hbond>
0.0000

> <Gold.Chemscore.DEClash>
1.3773

> <Gold.Chemscore.DEInternal>
1.8551

> <Gold.Chemscore.Rot>
2.4867

> <Gold.Chemscore.Internal.Correction>
   9.000000E+99

> <Gold.Chemscore.Hbond.Weighted>
-0.0000

> <Gold.Chemscore.Metal.Weighted>
-0.0000

> <Gold.Chemscore.Lipo.Weighted>
-12.0395

> <Gold.Chemscore.Internal_Hbond.Weighted>
0.0000

> <Gold.Chemscore.DEClash.Weighted>
1.3773

> <Gold.Chemscore.DEInternal.Weighted>
1.8551

> <Gold.Chemscore.Rot.Weighted>
6.3660

> <Gold.Chemscore.Internal.Correction.Weighted>
   9.000000E+99

> <Gold.Protein.RotatedTorsions>
[ 6907 6896 6895 6894 ] final   77.17 input  -60.11 | X-H torsion
[ 7974 7965 7964 7962 ] final  -23.19 input  175.53 | X-H torsion
[ 8008 7997 7996 7995 ] final  -44.16 input   59.86 | X-H torsion
[ 10167 10162 10161 10158 ] final  -13.44 input  -65.29 | X-H torsion
[ 10718 10713 10712 10709 ] final   89.43 input   66.30 | X-H torsion
[ 10763 10752 10751 10750 ] final   11.46 input  -60.55 | X-H torsion
[ 11005 11000 10999 10996 ] final -103.51 input  -57.11 | X-H torsion

> <Gold.Protein.ActiveResidues>
 VAL166  LYS551  ARG553  GLY616  TRP617  ASP618  TYR619  PRO620  LYS621  CYS622 
 ASP623  PHE694  ASN695  SER759  ASP760  ASP761  ALA762  ILE779  LEU786  VAL792 
 PHE793  MET794  SER795  GLU796  ALA797  LYS798  CYS799  TRP800  GLU811  SER814 

> <Gold.Protein.RotatedAtoms>
  152.5106  134.3857  159.9366 H   0  0  0  0  0  0  0  0  0  0  0  0  # atno 6907 bound_to 6896
  151.3816  133.3813  159.2718 H   0  0  0  0  0  0  0  0  0  0  0  0  # atno 6908 bound_to 6896
  150.9500  134.8921  159.7725 H   0  0  0  0  0  0  0  0  0  0  0  0  # atno 6909 bound_to 6896
  146.1631  140.4582  142.8563 H   0  0  0  0  0  0  0  0  0  0  0  0  # atno 7974 bound_to 7965
  154.3997  140.1429  156.3638 H   0  0  0  0  0  0  0  0  0  0  0  0  # atno 8008 bound_to 7997
  155.8156  140.3471  155.5463 H   0  0  0  0  0  0  0  0  0  0  0  0  # atno 8009 bound_to 7997
  155.8341  140.0916  157.1765 H   0  0  0  0  0  0  0  0  0  0  0  0  # atno 8010 bound_to 7997
  140.7182  143.5426  150.9392 H   0  0  0  0  0  0  0  0  0  0  0  0  # atno 10167 bound_to 10162
  157.6955  131.0333  150.3425 H   0  0  0  0  0  0  0  0  0  0  0  0  # atno 10718 bound_to 10713
  153.1924  135.6844  153.8336 H   0  0  0  0  0  0  0  0  0  0  0  0  # atno 10763 bound_to 10752
  153.7630  135.3207  155.3341 H   0  0  0  0  0  0  0  0  0  0  0  0  # atno 10764 bound_to 10752
  154.8125  135.4708  154.0652 H   0  0  0  0  0  0  0  0  0  0  0  0  # atno 10765 bound_to 10752
  141.1142  133.8646  157.1496 H   0  0  0  0  0  0  0  0  0  0  0  0  # atno 11005 bound_to 11000
  144.8054  140.6290  143.6450 LP  0  0  0  0  0  0  0  0  0  0  0  0  # atno 17320 bound_to 7965
  145.4538  139.1520  143.3904 LP  0  0  0  0  0  0  0  0  0  0  0  0  # atno 17321 bound_to 7965
  139.9149  143.6676  152.3108 LP  0  0  0  0  0  0  0  0  0  0  0  0  # atno 17342 bound_to 10162
  139.7072  144.7626  151.1173 LP  0  0  0  0  0  0  0  0  0  0  0  0  # atno 17343 bound_to 10162
  156.3884  130.3893  149.7048 LP  0  0  0  0  0  0  0  0  0  0  0  0  # atno 17370 bound_to 10713
  156.4407  130.7859  151.2881 LP  0  0  0  0  0  0  0  0  0  0  0  0  # atno 17371 bound_to 10713
  140.0054  135.0010  157.0281 LP  0  0  0  0  0  0  0  0  0  0  0  0  # atno 17394 bound_to 11000
  140.4691  134.1404  155.7201 LP  0  0  0  0  0  0  0  0  0  0  0  0  # atno 17395 bound_to 11000

$$$$
