AV-unprocessed.smi:181|AV-procd|sdf|1454|dock10
  -GOLD-   2262019253D 1   1.00000     0.00000
 Structure written by MMmdl.
 50 53  0  0  0  0  0  0  0  0  1 V2000
  147.7690  138.0899  157.8128 C   0  0  0  0  0  0  0  0  0  0  0  0
  148.7877  138.4255  156.7169 C   0  0  0  0  0  0  0  0  0  0  0  0
  148.2092  138.4019  155.3714 N   0  0  0  0  0  0  0  0  0  0  0  0
  147.6265  137.2415  154.9687 C   0  0  0  0  0  0  0  0  0  0  0  0
  148.1164  136.0536  155.4084 N   0  0  0  0  0  0  0  0  0  0  0  0
  147.5554  134.9049  155.0207 C   0  0  0  0  0  0  0  0  0  0  0  0
  146.5087  134.7183  154.2150 N   0  0  0  0  0  0  0  0  0  0  0  0
  146.0020  135.9071  153.7801 C   0  0  0  0  0  0  0  0  0  0  0  0
  146.4973  137.2025  154.1026 C   0  0  0  0  0  0  0  0  0  0  0  0
  145.7200  138.1732  153.4815 N   0  0  0  0  0  0  0  0  0  0  0  0
  144.8261  137.4908  152.8199 C   0  0  0  0  0  0  0  0  0  0  0  0
  144.9145  136.1234  152.9520 N   0  0  0  0  0  0  0  0  0  0  0  0
  144.0469  135.1316  152.3349 C   0  0  0  0  0  0  0  0  0  0  0  0
  144.6870  134.3889  151.1350 C   0  0  0  0  0  0  0  0  0  0  0  0
  144.9021  135.3359  150.1031 O   0  0  0  0  0  0  0  0  0  0  0  0
  146.0435  133.7398  151.4884 C   0  0  0  0  0  0  0  0  0  0  0  0
  146.5635  132.8315  150.3596 C   0  0  0  0  0  0  0  0  0  0  0  0
  145.5860  131.8531  150.0276 O   0  0  0  0  0  0  0  0  0  0  0  0
  144.3849  132.4252  149.5248 C   0  0  0  0  0  0  0  0  0  0  0  0
  143.7287  133.3031  150.6052 C   0  0  0  0  0  0  0  0  0  0  0  0
  148.0712  139.6513  154.6023 C   0  0  1  0  0  0  0  0  0  0  0  0
  146.7198  140.3611  154.8183 C   0  0  0  0  0  0  0  0  0  0  0  0
  147.0338  141.8539  154.6399 C   0  0  0  0  0  0  0  0  0  0  0  0
  148.4632  141.9508  154.8714 N   0  0  0  0  0  0  0  0  0  0  0  0
  149.0764  140.7675  154.8855 C   0  0  0  0  0  0  0  0  0  0  0  0
  150.2764  140.5879  155.0823 O   0  0  0  0  0  0  0  0  0  0  0  0
  148.2528  138.0487  158.7887 H   0  0  0  0  0  0  0  0  0  0  0  0
  147.3006  137.1219  157.6328 H   0  0  0  0  0  0  0  0  0  0  0  0
  146.9838  138.8430  157.8717 H   0  0  0  0  0  0  0  0  0  0  0  0
  149.2095  139.4144  156.8987 H   0  0  0  0  0  0  0  0  0  0  0  0
  149.6219  137.7297  156.8032 H   0  0  0  0  0  0  0  0  0  0  0  0
  148.0096  134.0074  155.4132 H   0  0  0  0  0  0  0  0  0  0  0  0
  144.0654  137.9701  152.2212 H   0  0  0  0  0  0  0  0  0  0  0  0
  143.7615  134.4144  153.1058 H   0  0  0  0  0  0  0  0  0  0  0  0
  143.1244  135.6262  152.0274 H   0  0  0  0  0  0  0  0  0  0  0  0
  145.1813  134.8766  149.3260 H   0  0  0  0  0  0  0  0  0  0  0  0
  146.7918  134.4995  151.7166 H   0  0  0  0  0  0  0  0  0  0  0  0
  145.9298  133.1391  152.3919 H   0  0  0  0  0  0  0  0  0  0  0  0
  146.8255  133.4144  149.4754 H   0  0  0  0  0  0  0  0  0  0  0  0
  147.4725  132.3231  150.6812 H   0  0  0  0  0  0  0  0  0  0  0  0
  144.5918  133.0005  148.6210 H   0  0  0  0  0  0  0  0  0  0  0  0
  143.7078  131.6209  149.2375 H   0  0  0  0  0  0  0  0  0  0  0  0
  143.4219  132.6590  151.4306 H   0  0  0  0  0  0  0  0  0  0  0  0
  142.8153  133.7553  150.2161 H   0  0  0  0  0  0  0  0  0  0  0  0
  148.1707  139.4165  153.5414 H   0  0  0  0  0  0  0  0  0  0  0  0
  145.9575  140.0156  154.1194 H   0  0  0  0  0  0  0  0  0  0  0  0
  146.3289  140.2028  155.8238 H   0  0  0  0  0  0  0  0  0  0  0  0
  146.8132  142.1843  153.6242 H   0  0  0  0  0  0  0  0  0  0  0  0
  146.4737  142.4784  155.3362 H   0  0  0  0  0  0  0  0  0  0  0  0
  148.9300  142.8309  155.0354 H   0  0  0  0  0  0  0  0  0  0  0  0
  1  2  1  0  0  0  0
  1 27  1  0  0  0  0
  1 28  1  0  0  0  0
  1 29  1  0  0  0  0
  2  3  1  0  0  0  0
  2 30  1  0  0  0  0
  2 31  1  0  0  0  0
  3  4  1  0  0  0  0
  3 21  1  0  0  0  0
  4  9  1  0  0  0  0
  4  5  2  0  0  0  0
  5  6  1  0  0  0  0
  6  7  2  0  0  0  0
  6 32  1  0  0  0  0
  7  8  1  0  0  0  0
  8 12  1  0  0  0  0
  8  9  2  0  0  0  0
  9 10  1  0  0  0  0
 10 11  2  0  0  0  0
 11 12  1  0  0  0  0
 11 33  1  0  0  0  0
 12 13  1  0  0  0  0
 13 14  1  0  0  0  0
 13 34  1  0  0  0  0
 13 35  1  0  0  0  0
 14 20  1  0  0  0  0
 14 15  1  0  0  0  0
 14 16  1  0  0  0  0
 15 36  1  0  0  0  0
 16 17  1  0  0  0  0
 16 37  1  0  0  0  0
 16 38  1  0  0  0  0
 17 18  1  0  0  0  0
 17 39  1  0  0  0  0
 17 40  1  0  0  0  0
 18 19  1  0  0  0  0
 19 20  1  0  0  0  0
 19 41  1  0  0  0  0
 19 42  1  0  0  0  0
 20 43  1  0  0  0  0
 20 44  1  0  0  0  0
 21 25  1  0  0  0  0
 21 22  1  0  0  0  0
 21 45  1  0  0  0  0
 22 23  1  0  0  0  0
 22 46  1  0  0  0  0
 22 47  1  0  0  0  0
 23 24  1  0  0  0  0
 23 48  1  0  0  0  0
 23 49  1  0  0  0  0
 24 25  1  0  0  0  0
 24 50  1  0  0  0  0
 25 26  2  0  0  0  0
M  END
> <s_m_source_file>
AV-unprocessed.smi

> <i_m_source_file_index>
181

> <i_lp_mmshare_version>
43012

> <i_f3d_flags>
0

> <s_epik_input>
Tz1DMVtOSF1bQ0gyXVtDSDJdW0NASF0xTihbQ0gyXVtDSDNdKWMobltjSF1uMiljKGMyMyluW2NIXW4zW0NIMl1DNChbT0hdKVtDSDJdW0NIMl1PW0NIMl1bQ0gyXTQ=

> <s_epik_cmdline>
J2VwaWtfcHl0aG9uJywgJy1waCcsICc3LjAnLCAnLXRuJywgJzgnLCAnLW1hJywgJzIwMCcsICctbWV0YWxfYmluZGluZycsICctaW1hZScsICc8aW5maWxlLm1hZT4nLCAnLW9tYWUnLCAnPG91dGZpbGUubWFlPic=

> <r_lp_tautomer_probability>
1

> <r_epik_Ionization_Penalty>
0.000985257

> <r_epik_Ionization_Penalty_Charging>
0

> <r_epik_Ionization_Penalty_Neutral>
0.000985257

> <r_epik_State_Penalty>
0.000517047

> <r_epik_Charging_Adjusted_Penalty>
0.000517047

> <i_epik_Tot_Q>
0

> <i_epik_Tot_abs_Q>
0

> <r_epik_Metal_State_Penalty>
-0

> <b_epik_Metal_Only>
0

> <s_lp_Force_Field>
OPLS_2005

> <r_lp_Energy>
36.1044

> <b_lp_Chiralities_Consistent>
1

> <s_lp_Variant>
AV-unprocessed.smi:181-2

> <Gold.Version>
5.8.1

> <Gold.Id.Protein>
6NUR|6NUR_protein|mol2

> <Gold.PLP.Fitness>
42.9923

> <Gold.PLP.PLP>
-31.5139

> <Gold.PLP.part.hbond>
-3.0000

> <Gold.PLP.part.metal>
0.0000

> <Gold.PLP.part.buried>
-3.2428

> <Gold.PLP.part.nonpolar>
-25.3110

> <Gold.PLP.part.repulsive>
0.8723

> <Gold.PLP.ligand.clash>
0.0000

> <Gold.PLP.ligand.torsion>
1.1993

> <Gold.PLP.Chemscore.Hbond>
2.7520

> <Gold.PLP.Chemscore.CHOScore>
1.7817

> <Gold.PLP.Chemscore.Metal>
0.0000

> <Gold.Chemscore.Hbonds>
donor molecule, donor type, donor heavy atom, donor atom, acceptor molecule, acceptor atom, score
      L1  H    15    36       P1  7921  1.00
      L1  H    24    50       P1  8028  0.99
      P1  H  7989  7998       L1    26  0.77
      L1  C    11    33       P1 10171  1.00
      L1  C    11    33       P1 10175  0.81

> <Gold.PLP.Chemscore.Internal.Correction>
0.2757

> <Gold.Rescore>
     Score         DG    S(hbond)    S(metal)    S(lipo)     H(rot)  DE(clash)    DE(int)     intcor
     11.02     -15.06       2.71        0.00      58.86       2.49       0.56       3.48       ----

> <Gold.Chemscore.Fitness>
11.0180

> <Gold.Chemscore.DG>
-15.0573

> <Gold.Chemscore.ZeroCoef>
-5.4800

> <Gold.Chemscore.Hbond>
2.7139

> <Gold.Chemscore.Metal>
0.0000

> <Gold.Chemscore.Lipo>
58.8565

> <Gold.Chemscore.Internal_Hbond>
0.0000

> <Gold.Chemscore.DEClash>
0.5557

> <Gold.Chemscore.DEInternal>
3.4836

> <Gold.Chemscore.Rot>
2.4897

> <Gold.Chemscore.Internal.Correction>
   9.000000E+99

> <Gold.Chemscore.Hbonds>
donor molecule, donor type, donor heavy atom, donor atom, acceptor molecule, acceptor atom, score
      L1  H    15    36       P1  7921  0.95
      L1  H    24    50       P1  8028  0.92
      P1  H  7989  7998       L1    26  0.72

> <Gold.Chemscore.Hbond.Weighted>
-9.0646

> <Gold.Chemscore.Metal.Weighted>
-0.0000

> <Gold.Chemscore.Lipo.Weighted>
-6.8862

> <Gold.Chemscore.Internal_Hbond.Weighted>
0.0000

> <Gold.Chemscore.DEClash.Weighted>
0.5557

> <Gold.Chemscore.DEInternal.Weighted>
3.4836

> <Gold.Chemscore.Rot.Weighted>
6.3735

> <Gold.Chemscore.Internal.Correction.Weighted>
   9.000000E+99

> <Gold.Protein.RotatedTorsions>
[ 6907 6896 6895 6894 ] final   27.15 input  -60.11 | X-H torsion
[ 7974 7965 7964 7962 ] final    4.00 input  175.53 | X-H torsion
[ 8008 7997 7996 7995 ] final  -91.17 input   59.86 | X-H torsion
[ 10167 10162 10161 10158 ] final   -9.80 input  -65.29 | X-H torsion
[ 10718 10713 10712 10709 ] final   43.12 input   66.30 | X-H torsion
[ 10763 10752 10751 10750 ] final -155.18 input  -60.55 | X-H torsion
[ 11005 11000 10999 10996 ] final -166.98 input  -57.11 | X-H torsion

> <Gold.Protein.ActiveResidues>
 VAL166  LYS551  ARG553  GLY616  TRP617  ASP618  TYR619  PRO620  LYS621  CYS622 
 ASP623  PHE694  ASN695  SER759  ASP760  ASP761  ALA762  ILE779  LEU786  VAL792 
 PHE793  MET794  SER795  GLU796  ALA797  LYS798  CYS799  TRP800  GLU811  SER814 

> <Gold.Protein.RotatedAtoms>
  151.9980  134.9944  160.0563 H   0  0  0  0  0  0  0  0  0  0  0  0  # atno 6907 bound_to 6896
  152.1546  133.4538  159.4839 H   0  0  0  0  0  0  0  0  0  0  0  0  # atno 6908 bound_to 6896
  150.6880  134.2065  159.4385 H   0  0  0  0  0  0  0  0  0  0  0  0  # atno 6909 bound_to 6896
  146.2444  140.0601  142.8369 H   0  0  0  0  0  0  0  0  0  0  0  0  # atno 7974 bound_to 7965
  154.7074  140.0522  157.0517 H   0  0  0  0  0  0  0  0  0  0  0  0  # atno 8008 bound_to 7997
  155.0601  140.3188  155.4644 H   0  0  0  0  0  0  0  0  0  0  0  0  # atno 8009 bound_to 7997
  156.2779  140.2100  156.5727 H   0  0  0  0  0  0  0  0  0  0  0  0  # atno 8010 bound_to 7997
  140.7097  143.5818  150.8984 H   0  0  0  0  0  0  0  0  0  0  0  0  # atno 10167 bound_to 10162
  157.4124  130.7922  149.7442 H   0  0  0  0  0  0  0  0  0  0  0  0  # atno 10718 bound_to 10713
  154.7805  135.3173  154.7999 H   0  0  0  0  0  0  0  0  0  0  0  0  # atno 10763 bound_to 10752
  153.8712  135.6844  153.4778 H   0  0  0  0  0  0  0  0  0  0  0  0  # atno 10764 bound_to 10752
  153.1440  135.4727  154.9476 H   0  0  0  0  0  0  0  0  0  0  0  0  # atno 10765 bound_to 10752
  140.5584  134.5358  157.5138 H   0  0  0  0  0  0  0  0  0  0  0  0  # atno 11005 bound_to 11000
  145.0908  140.9283  143.4770 LP  0  0  0  0  0  0  0  0  0  0  0  0  # atno 17320 bound_to 7965
  145.0773  139.2986  143.5801 LP  0  0  0  0  0  0  0  0  0  0  0  0  # atno 17321 bound_to 7965
  139.9544  143.6235  152.3020 LP  0  0  0  0  0  0  0  0  0  0  0  0  # atno 17342 bound_to 10162
  139.6765  144.7658  151.1686 LP  0  0  0  0  0  0  0  0  0  0  0  0  # atno 17343 bound_to 10162
  155.9855  130.3983  150.3260 LP  0  0  0  0  0  0  0  0  0  0  0  0  # atno 17370 bound_to 10713
  157.1399  131.0294  151.2932 LP  0  0  0  0  0  0  0  0  0  0  0  0  # atno 17371 bound_to 10713
  139.9420  134.7770  156.0655 LP  0  0  0  0  0  0  0  0  0  0  0  0  # atno 17394 bound_to 11000
  141.1130  133.6637  156.3024 LP  0  0  0  0  0  0  0  0  0  0  0  0  # atno 17395 bound_to 11000

$$$$
