AV-unprocessed.smi:2925|AV-procd|sdf|11225|dock10
  -GOLD-   2272016113D 1   1.00000     0.00000
 Structure written by MMmdl.
 44 45  0  0  0  0  0  0  0  0  1 V2000
  149.2420  136.1180  157.7826 C   0  0  0  0  0  0  0  0  0  0  0  0
  148.5879  135.9816  156.3995 C   0  0  0  0  0  0  0  0  0  0  0  0
  149.5081  135.3464  155.3360 C   0  0  1  0  0  0  0  0  0  0  0  0
  148.7457  135.1163  154.1092 N   0  0  0  0  0  0  0  0  0  0  0  0
  147.8558  134.1325  153.9158 C   0  0  0  0  0  0  0  0  0  0  0  0
  147.5569  133.2969  154.7702 O   0  0  0  0  0  0  0  0  0  0  0  0
  147.3612  134.1606  152.6657 N   0  0  0  0  0  0  0  0  0  0  0  0
  146.4577  133.2381  152.1167 C   0  0  0  0  0  0  0  0  0  0  0  0
  145.4216  133.6967  151.3663 C   0  0  0  0  0  0  0  0  0  0  0  0
  145.2394  135.1776  151.0735 C   0  0  0  0  0  0  0  0  0  0  0  0
  144.4812  132.7464  150.8097 C   0  0  0  0  0  0  0  0  0  0  0  0
  144.6460  131.4386  151.0496 C   0  0  0  0  0  0  0  0  0  0  0  0
  145.7002  130.9620  151.8421 N   0  0  0  0  0  0  0  0  0  0  0  0
  145.7837  129.5153  152.0608 C   0  0  0  0  0  0  0  0  0  0  0  0
  146.6071  131.7960  152.4277 C   0  0  0  0  0  0  0  0  0  0  0  0
  147.4778  131.3539  153.1808 O   0  0  0  0  0  0  0  0  0  0  0  0
  150.7360  136.2278  155.0190 C   0  0  1  0  0  0  0  0  0  0  0  0
  150.4164  137.7041  154.7685 C   0  0  0  0  0  0  0  0  0  0  0  0
  151.7151  138.3755  155.1502 C   0  0  0  0  0  0  0  0  0  0  0  0
  152.1369  137.5512  156.3602 C   0  0  0  0  0  0  0  0  0  0  0  0
  151.6503  136.2353  156.1165 O   0  0  0  0  0  0  0  0  0  0  0  0
  148.5697  136.6185  158.4796 H   0  0  0  0  0  0  0  0  0  0  0  0
  150.1588  136.7052  157.7264 H   0  0  0  0  0  0  0  0  0  0  0  0
  149.4915  135.1460  158.2086 H   0  0  0  0  0  0  0  0  0  0  0  0
  147.6707  135.3985  156.4905 H   0  0  0  0  0  0  0  0  0  0  0  0
  148.2825  136.9756  156.0718 H   0  0  0  0  0  0  0  0  0  0  0  0
  149.8631  134.3931  155.7325 H   0  0  0  0  0  0  0  0  0  0  0  0
  148.9252  135.7477  153.3425 H   0  0  0  0  0  0  0  0  0  0  0  0
  147.7703  134.8177  152.0181 H   0  0  0  0  0  0  0  0  0  0  0  0
  144.3725  135.3505  150.4351 H   0  0  0  0  0  0  0  0  0  0  0  0
  146.1165  135.5769  150.5629 H   0  0  0  0  0  0  0  0  0  0  0  0
  145.0923  135.7356  151.9986 H   0  0  0  0  0  0  0  0  0  0  0  0
  143.6560  133.0821  150.1987 H   0  0  0  0  0  0  0  0  0  0  0  0
  143.9797  130.6833  150.6592 H   0  0  0  0  0  0  0  0  0  0  0  0
  146.7776  129.1421  151.8092 H   0  0  0  0  0  0  0  0  0  0  0  0
  145.0694  128.9565  151.4552 H   0  0  0  0  0  0  0  0  0  0  0  0
  145.5861  129.2772  153.1068 H   0  0  0  0  0  0  0  0  0  0  0  0
  151.2706  135.8300  154.1547 H   0  0  0  0  0  0  0  0  0  0  0  0
  150.1207  137.9067  153.7388 H   0  0  0  0  0  0  0  0  0  0  0  0
  149.6159  138.0433  155.4278 H   0  0  0  0  0  0  0  0  0  0  0  0
  152.4444  138.2673  154.3464 H   0  0  0  0  0  0  0  0  0  0  0  0
  151.6033  139.4366  155.3740 H   0  0  0  0  0  0  0  0  0  0  0  0
  153.2162  137.5559  156.5143 H   0  0  0  0  0  0  0  0  0  0  0  0
  151.6628  137.9329  157.2653 H   0  0  0  0  0  0  0  0  0  0  0  0
  1  2  1  0  0  0  0
  1 22  1  0  0  0  0
  1 23  1  0  0  0  0
  1 24  1  0  0  0  0
  2  3  1  0  0  0  0
  2 25  1  0  0  0  0
  2 26  1  0  0  0  0
  3  4  1  0  0  0  0
  3 17  1  0  0  0  0
  3 27  1  0  0  0  0
  4  5  1  0  0  0  0
  4 28  1  0  0  0  0
  5  6  2  0  0  0  0
  5  7  1  0  0  0  0
  7  8  1  0  0  0  0
  7 29  1  0  0  0  0
  8 15  1  0  0  0  0
  8  9  2  0  0  0  0
  9 10  1  0  0  0  0
  9 11  1  0  0  0  0
 10 30  1  0  0  0  0
 10 31  1  0  0  0  0
 10 32  1  0  0  0  0
 11 12  2  0  0  0  0
 11 33  1  0  0  0  0
 12 13  1  0  0  0  0
 12 34  1  0  0  0  0
 13 14  1  0  0  0  0
 13 15  1  0  0  0  0
 14 35  1  0  0  0  0
 14 36  1  0  0  0  0
 14 37  1  0  0  0  0
 15 16  2  0  0  0  0
 17 21  1  0  0  0  0
 17 18  1  0  0  0  0
 17 38  1  0  0  0  0
 18 19  1  0  0  0  0
 18 39  1  0  0  0  0
 18 40  1  0  0  0  0
 19 20  1  0  0  0  0
 19 41  1  0  0  0  0
 19 42  1  0  0  0  0
 20 21  1  0  0  0  0
 20 43  1  0  0  0  0
 20 44  1  0  0  0  0
M  END
> <s_m_source_file>
AV-unprocessed.smi

> <i_m_source_file_index>
2925

> <i_lp_mmshare_version>
43012

> <i_f3d_flags>
0

> <s_epik_input>
TzFbQ0gyXVtDSDJdW0NIMl1bQ0BIXTFbQ0BIXShbQ0gyXVtDSDNdKVtOSF1DKD1PKVtOSF1jMmMoW0NIM10pW2NIXVtjSF1uKFtDSDNdKWMyPU8=

> <s_epik_cmdline>
J2VwaWtfcHl0aG9uJywgJy1waCcsICc3LjAnLCAnLXRuJywgJzgnLCAnLW1hJywgJzIwMCcsICctbWV0YWxfYmluZGluZycsICctaW1hZScsICc8aW5maWxlLm1hZT4nLCAnLW9tYWUnLCAnPG91dGZpbGUubWFlPic=

> <r_lp_tautomer_probability>
1

> <r_epik_Ionization_Penalty>
2.58789e-05

> <r_epik_Ionization_Penalty_Charging>
6.72534e-06

> <r_epik_Ionization_Penalty_Neutral>
1.91535e-05

> <r_epik_State_Penalty>
-0

> <r_epik_Charging_Adjusted_Penalty>
6.72534e-06

> <i_epik_Tot_Q>
0

> <i_epik_Tot_abs_Q>
0

> <r_epik_Metal_State_Penalty>
-0

> <b_epik_Metal_Only>
0

> <s_lp_Force_Field>
OPLS_2005

> <r_lp_Energy>
35.3317

> <b_lp_Chiralities_Consistent>
1

> <s_lp_Variant>
AV-unprocessed.smi:2925-4

> <Gold.Version>
5.8.1

> <Gold.Id.Protein>
6NUR|6NUR_protein|mol2

> <Gold.PLP.Fitness>
41.2455

> <Gold.PLP.PLP>
-33.3673

> <Gold.PLP.part.hbond>
-2.8554

> <Gold.PLP.part.metal>
0.0000

> <Gold.PLP.part.buried>
-4.6450

> <Gold.PLP.part.nonpolar>
-26.2487

> <Gold.PLP.part.repulsive>
0.1529

> <Gold.PLP.ligand.clash>
0.0000

> <Gold.PLP.ligand.torsion>
0.7370

> <Gold.PLP.Chemscore.Hbond>
2.9120

> <Gold.PLP.Chemscore.CHOScore>
0.0000

> <Gold.PLP.Chemscore.Metal>
0.0000

> <Gold.Chemscore.Hbonds>
donor molecule, donor type, donor heavy atom, donor atom, acceptor molecule, acceptor atom, score
      L1  H     4    28       P1  7948  1.00
      L1  H     7    29       P1  7948  0.91
      P1  H 10752 10764       L1    21  0.94

> <Gold.PLP.Chemscore.Internal.Correction>
0.6162

> <Gold.Rescore>
     Score         DG    S(hbond)    S(metal)    S(lipo)     H(rot)  DE(clash)    DE(int)     intcor
     12.05     -18.05       2.33        0.00      70.63       1.36       0.01       5.99       ----

> <Gold.Chemscore.Fitness>
12.0493

> <Gold.Chemscore.DG>
-18.0508

> <Gold.Chemscore.ZeroCoef>
-5.4800

> <Gold.Chemscore.Hbond>
2.3303

> <Gold.Chemscore.Metal>
0.0000

> <Gold.Chemscore.Lipo>
70.6309

> <Gold.Chemscore.Internal_Hbond>
0.0000

> <Gold.Chemscore.DEClash>
0.0148

> <Gold.Chemscore.DEInternal>
5.9868

> <Gold.Chemscore.Rot>
1.3579

> <Gold.Chemscore.Internal.Correction>
   9.000000E+99

> <Gold.Chemscore.Hbonds>
donor molecule, donor type, donor heavy atom, donor atom, acceptor molecule, acceptor atom, score
      L1  H     4    28       P1  7948  0.83
      L1  H     7    29       P1  7948  0.53
      P1  H 10752 10764       L1    21  0.06

> <Gold.Chemscore.Hbond.Weighted>
-7.7833

> <Gold.Chemscore.Metal.Weighted>
-0.0000

> <Gold.Chemscore.Lipo.Weighted>
-8.2638

> <Gold.Chemscore.Internal_Hbond.Weighted>
0.0000

> <Gold.Chemscore.DEClash.Weighted>
0.0148

> <Gold.Chemscore.DEInternal.Weighted>
5.9868

> <Gold.Chemscore.Rot.Weighted>
3.4763

> <Gold.Chemscore.Internal.Correction.Weighted>
   9.000000E+99

> <Gold.Protein.RotatedTorsions>
[ 6907 6896 6895 6894 ] final   17.25 input  -60.11 | X-H torsion
[ 7974 7965 7964 7962 ] final  -89.02 input  175.53 | X-H torsion
[ 8008 7997 7996 7995 ] final   21.78 input   59.86 | X-H torsion
[ 10167 10162 10161 10158 ] final  132.06 input  -65.29 | X-H torsion
[ 10718 10713 10712 10709 ] final    2.86 input   66.30 | X-H torsion
[ 10763 10752 10751 10750 ] final  -15.42 input  -60.55 | X-H torsion
[ 11005 11000 10999 10996 ] final  139.55 input  -57.11 | X-H torsion

> <Gold.Protein.ActiveResidues>
 VAL166  LYS551  ARG553  GLY616  TRP617  ASP618  TYR619  PRO620  LYS621  CYS622 
 ASP623  PHE694  ASN695  SER759  ASP760  ASP761  ALA762  ILE779  LEU786  VAL792 
 PHE793  MET794  SER795  GLU796  ALA797  LYS798  CYS799  TRP800  GLU811  SER814 

> <Gold.Protein.RotatedAtoms>
  151.8467  135.0572  160.0454 H   0  0  0  0  0  0  0  0  0  0  0  0  # atno 6907 bound_to 6896
  152.2768  133.5428  159.5481 H   0  0  0  0  0  0  0  0  0  0  0  0  # atno 6908 bound_to 6896
  150.7173  134.0537  159.3849 H   0  0  0  0  0  0  0  0  0  0  0  0  # atno 6909 bound_to 6896
  145.4454  140.9560  143.2052 H   0  0  0  0  0  0  0  0  0  0  0  0  # atno 7974 bound_to 7965
  154.9557  140.3071  155.5054 H   0  0  0  0  0  0  0  0  0  0  0  0  # atno 8008 bound_to 7997
  156.2982  140.2310  156.4577 H   0  0  0  0  0  0  0  0  0  0  0  0  # atno 8009 bound_to 7997
  154.8012  140.0434  157.1263 H   0  0  0  0  0  0  0  0  0  0  0  0  # atno 8010 bound_to 7997
  139.5356  144.6679  151.4797 H   0  0  0  0  0  0  0  0  0  0  0  0  # atno 10167 bound_to 10162
  156.8693  130.5614  149.5658 H   0  0  0  0  0  0  0  0  0  0  0  0  # atno 10718 bound_to 10713
  153.5431  135.7013  153.5627 H   0  0  0  0  0  0  0  0  0  0  0  0  # atno 10763 bound_to 10752
  153.3584  135.3976  155.1700 H   0  0  0  0  0  0  0  0  0  0  0  0  # atno 10764 bound_to 10752
  154.8671  135.3782  154.4936 H   0  0  0  0  0  0  0  0  0  0  0  0  # atno 10765 bound_to 10752
  140.0263  134.9373  157.0575 H   0  0  0  0  0  0  0  0  0  0  0  0  # atno 11005 bound_to 11000
  144.8095  139.5989  143.7036 LP  0  0  0  0  0  0  0  0  0  0  0  0  # atno 17320 bound_to 7965
  146.2533  139.6248  142.9412 LP  0  0  0  0  0  0  0  0  0  0  0  0  # atno 17321 bound_to 7965
  140.6560  143.8597  150.6836 LP  0  0  0  0  0  0  0  0  0  0  0  0  # atno 17342 bound_to 10162
  140.1977  143.3984  152.1815 LP  0  0  0  0  0  0  0  0  0  0  0  0  # atno 17343 bound_to 10162
  156.0735  130.5762  150.9429 LP  0  0  0  0  0  0  0  0  0  0  0  0  # atno 17370 bound_to 10713
  157.6205  131.0930  150.8631 LP  0  0  0  0  0  0  0  0  0  0  0  0  # atno 17371 bound_to 10713
  140.4301  134.1790  155.7168 LP  0  0  0  0  0  0  0  0  0  0  0  0  # atno 17394 bound_to 11000
  141.1805  133.8425  157.1276 LP  0  0  0  0  0  0  0  0  0  0  0  0  # atno 17395 bound_to 11000

$$$$
