#       Name:                AV-unprocessed.smi:462
#       Creating user name   scv26
#       Creation time:       Thu Mar 26 23:03:59 2020


#       File generated by GOLD software.
#

@<TRIPOS>MOLECULE
AV-unprocessed.smi:462
    53    55     1
SMALL
NO_CHARGES


@<TRIPOS>ATOM
      1 ****        -2.1561   3.8964   0.9794 C.3            1 S1                 0.0000
      2 ****        -1.7506   2.5449   1.1341 O.3            1 S1                 0.0000
      3 ****        -2.7263   1.5746   1.2378 C.ar           1 S1                 0.0000
      4 ****        -4.1165   1.8528   1.2325 C.ar           1 S1                 0.0000
      5 ****        -5.0534   0.8088   1.3404 C.ar           1 S1                 0.0000
      6 ****        -4.6141  -0.5212   1.4557 C.ar           1 S1                 0.0000
      7 ****        -3.2372  -0.8087   1.4624 C.ar           1 S1                 0.0000
      8 ****        -2.2858   0.2362   1.3522 C.ar           1 S1                 0.0000
      9 ****        -0.9231   0.0326   1.3495 O.3            1 S1                 0.0000
     10 ****        -0.4252  -1.2973   1.3744 C.3            1 S1                 0.0000
     11 ****         1.1072  -1.2529   1.2601 C.3            1 S1                 0.0000
     12 ****         1.5517  -0.6287   0.0181 N.pl3          1 S1                 0.0000
     13 ****         1.8812  -1.1973  -1.1800 C.2            1 S1                 0.0000
     14 ****         1.9058  -2.6927  -1.4487 C.3            1 S1                 0.0000
     15 ****         1.6399  -3.0104  -2.9356 C.3            1 S1                 0.0000
     16 ****         3.2483  -3.2968  -1.0040 C.3            1 S1                 0.0000
     17 ****         0.8805  -3.4012  -0.7801 O.3            1 S1                 0.0000
     18 ****         2.3275  -0.3373  -2.1015 N.2            1 S1                 0.0000
     19 ****         2.2131   0.8880  -1.4818 C.ar           1 S1                 0.0000
     20 ****         2.4978   2.1877  -1.9584 C.ar           1 S1                 0.0000
     21 ****         2.3073   3.3104  -1.1268 C.ar           1 S1                 0.0000
     22 ****         1.8350   3.1481   0.1913 C.ar           1 S1                 0.0000
     23 ****         1.5515   1.8604   0.6850 C.ar           1 S1                 0.0000
     24 ****         1.7352   0.7425  -0.1523 C.ar           1 S1                 0.0000
     25 ****        -1.2715   4.5275   0.8936 H              1 S1                 0.0000
     26 ****        -2.7264   4.2431   1.8422 H              1 S1                 0.0000
     27 ****        -2.7481   4.0346   0.0737 H              1 S1                 0.0000
     28 ****        -4.4908   2.8614   1.1462 H              1 S1                 0.0000
     29 ****        -6.1106   1.0294   1.3347 H              1 S1                 0.0000
     30 ****        -5.3338  -1.3222   1.5393 H              1 S1                 0.0000
     31 ****        -2.9347  -1.8408   1.5540 H              1 S1                 0.0000
     32 ****        -0.7095  -1.7865   2.3069 H              1 S1                 0.0000
     33 ****        -0.8462  -1.8723   0.5490 H              1 S1                 0.0000
     34 ****         1.5159  -0.6819   2.0943 H              1 S1                 0.0000
     35 ****         1.5397  -2.2474   1.3542 H              1 S1                 0.0000
     36 ****         2.4097  -2.5877  -3.5822 H              1 S1                 0.0000
     37 ****         0.6790  -2.6100  -3.2620 H              1 S1                 0.0000
     38 ****         1.6273  -4.0854  -3.1202 H              1 S1                 0.0000
     39 ****         4.0811  -2.8339  -1.5346 H              1 S1                 0.0000
     40 ****         3.2899  -4.3690  -1.1992 H              1 S1                 0.0000
     41 ****         3.4180  -3.1494   0.0630 H              1 S1                 0.0000
     42 ****         0.9538  -4.3160  -1.0044 H              1 S1                 0.0000
     43 ****         2.8618   2.3205  -2.9664 H              1 S1                 0.0000
     44 ****         2.5252   4.2997  -1.5017 H              1 S1                 0.0000
     45 ****         1.6898   4.0119   0.8233 H              1 S1                 0.0000
     46 ****         1.1867   1.7356   1.6937 H              1 S1                 0.0000
     47 ****        -1.1956   2.4960   1.9645 LP             1 S1                 0.0000
     48 ****        -1.1862   2.3131   0.3418 LP             1 S1                 0.0000
     49 ****        -0.5557   0.4981   2.1547 LP             1 S1                 0.0000
     50 ****        -0.5640   0.4644   0.5221 LP             1 S1                 0.0000
     51 ****        -0.0122  -3.0538  -1.0671 LP             1 S1                 0.0000
     52 ****         0.9806  -3.2870   0.2083 LP             1 S1                 0.0000
     53 ****         2.6643  -0.5362  -3.0219 LP             1 S1                 0.0000
@<TRIPOS>BOND
    1    1    2 1     
    2    1   25 1     
    3    1   26 1     
    4    1   27 1     
    5    2    3 1     
    6    3    8 ar    
    7    3    4 ar    
    8    4    5 ar    
    9    4   28 1     
   10    5    6 ar    
   11    5   29 1     
   12    6    7 ar    
   13    6   30 1     
   14    7    8 ar    
   15    7   31 1     
   16    8    9 1     
   17    9   10 1     
   18   10   11 1     
   19   10   32 1     
   20   10   33 1     
   21   11   12 1     
   22   11   34 1     
   23   11   35 1     
   24   12   24 1     
   25   12   13 1     
   26   13   14 1     
   27   13   18 2     
   28   14   15 1     
   29   14   16 1     
   30   14   17 1     
   31   15   36 1     
   32   15   37 1     
   33   15   38 1     
   34   16   39 1     
   35   16   40 1     
   36   16   41 1     
   37   17   42 1     
   38   18   19 1     
   39   19   24 ar    
   40   19   20 ar    
   41   20   21 ar    
   42   20   43 1     
   43   21   22 ar    
   44   21   44 1     
   45   22   23 ar    
   46   22   45 1     
   47   23   24 ar    
   48   23   46 1     
   49    2   47 1     
   50    2   48 1     
   51    9   49 1     
   52    9   50 1     
   53   17   51 1     
   54   17   52 1     
   55   18   53 1     
@<TRIPOS>SUBSTRUCTURE
      1 S1             1
@<TRIPOS>SET
LONE_PAIRS      STATIC     ATOMS    <user>   **** ""
7 47 48 49 50 51 52 53
DONOR_HYDROGENS      STATIC     ATOMS    <user>   **** ""
1 42
ATOM$BLUE        STATIC     ATOMS    COLORGROUP SYSTEM
7 47 48 49 50 51 52 53
ATOM$RED        STATIC     ATOMS    COLORGROUP SYSTEM
1 42
