AV-unprocessed.smi:337|AV-procd|sdf|2372|dock3
  -GOLD-   2262022293D 1   1.00000     0.00000
 Structure written by MMmdl.
 43 44  0  0  0  0  0  0  0  0  1 V2000
  150.7028  133.3203  154.7422 C   0  0  0  0  0  0  0  0  0  0  0  0
  149.9786  134.6148  155.1485 C   0  0  2  0  0  0  0  0  0  0  0  0
  148.8724  134.8283  154.2165 N   0  0  0  0  0  0  0  0  0  0  0  0
  147.5720  134.7648  154.5380 C   0  0  0  0  0  0  0  0  0  0  0  0
  146.7789  135.0281  153.4992 N   0  0  0  0  0  0  0  0  0  0  0  0
  147.1430  134.4977  155.6589 O   0  0  0  0  0  0  0  0  0  0  0  0
  150.9892  135.7698  155.0661 C   0  0  0  0  0  0  0  0  0  0  0  0
  152.0022  135.7701  155.7677 O   0  0  0  0  0  0  0  0  0  0  0  0
  150.6843  136.7626  154.2167 N   0  0  0  0  0  0  0  0  0  0  0  0
  151.4943  137.9578  154.0053 C   0  0  0  0  0  0  0  0  0  0  0  0
  151.5641  138.8888  155.2077 C   0  0  0  0  0  0  0  0  0  0  0  0
  150.4050  139.3971  155.8308 C   0  0  0  0  0  0  0  0  0  0  0  0
  150.5444  140.2553  156.9379 C   0  0  0  0  0  0  0  0  0  0  0  0
  151.8417  140.5917  157.3931 C   0  0  0  0  0  0  0  0  0  0  0  0
  152.0058  141.4499  158.5023 N   0  0  0  0  0  0  0  0  0  0  0  0
  151.4594  142.7960  158.3496 C   0  0  0  0  0  0  0  0  0  0  0  0
  151.4218  143.5167  159.7084 C   0  0  0  0  0  0  0  0  0  0  0  0
  152.7186  143.5091  160.2956 O   0  0  0  0  0  0  0  0  0  0  0  0
  153.1814  142.1852  160.5388 C   0  0  0  0  0  0  0  0  0  0  0  0
  153.2853  141.4206  159.2086 C   0  0  0  0  0  0  0  0  0  0  0  0
  152.9529  140.1015  156.7896 N   0  0  0  0  0  0  0  0  0  0  0  0
  152.8137  139.2791  155.7288 C   0  0  0  0  0  0  0  0  0  0  0  0
  151.5403  133.1087  155.4085 H   0  0  0  0  0  0  0  0  0  0  0  0
  151.0933  133.3747  153.7248 H   0  0  0  0  0  0  0  0  0  0  0  0
  150.0276  132.4655  154.7902 H   0  0  0  0  0  0  0  0  0  0  0  0
  149.5957  134.5176  156.1666 H   0  0  0  0  0  0  0  0  0  0  0  0
  149.1187  135.0636  153.2665 H   0  0  0  0  0  0  0  0  0  0  0  0
  145.7755  135.0097  153.6069 H   0  0  0  0  0  0  0  0  0  0  0  0
  147.1899  135.2427  152.6022 H   0  0  0  0  0  0  0  0  0  0  0  0
  149.8336  136.6842  153.6786 H   0  0  0  0  0  0  0  0  0  0  0  0
  152.5019  137.6666  153.7030 H   0  0  0  0  0  0  0  0  0  0  0  0
  151.0699  138.5126  153.1685 H   0  0  0  0  0  0  0  0  0  0  0  0
  149.4197  139.1351  155.4744 H   0  0  0  0  0  0  0  0  0  0  0  0
  149.6598  140.6303  157.4300 H   0  0  0  0  0  0  0  0  0  0  0  0
  152.0852  143.3520  157.6503 H   0  0  0  0  0  0  0  0  0  0  0  0
  150.4542  142.7800  157.9311 H   0  0  0  0  0  0  0  0  0  0  0  0
  151.0995  144.5496  159.5755 H   0  0  0  0  0  0  0  0  0  0  0  0
  150.7038  143.0432  160.3799 H   0  0  0  0  0  0  0  0  0  0  0  0
  154.1575  142.2332  161.0210 H   0  0  0  0  0  0  0  0  0  0  0  0
  152.5096  141.6739  161.2303 H   0  0  0  0  0  0  0  0  0  0  0  0
  153.5848  140.3909  159.4074 H   0  0  0  0  0  0  0  0  0  0  0  0
  154.0552  141.8696  158.5795 H   0  0  0  0  0  0  0  0  0  0  0  0
  153.7308  138.9205  155.2849 H   0  0  0  0  0  0  0  0  0  0  0  0
  1  2  1  0  0  0  0
  1 23  1  0  0  0  0
  1 24  1  0  0  0  0
  1 25  1  0  0  0  0
  2  3  1  0  0  0  0
  2  7  1  0  0  0  0
  2 26  1  0  0  0  0
  3  4  1  0  0  0  0
  3 27  1  0  0  0  0
  4  5  1  0  0  0  0
  4  6  2  0  0  0  0
  5 28  1  0  0  0  0
  5 29  1  0  0  0  0
  7  8  2  0  0  0  0
  7  9  1  0  0  0  0
  9 10  1  0  0  0  0
  9 30  1  0  0  0  0
 10 11  1  0  0  0  0
 10 31  1  0  0  0  0
 10 32  1  0  0  0  0
 11 22  1  0  0  0  0
 11 12  2  0  0  0  0
 12 13  1  0  0  0  0
 12 33  1  0  0  0  0
 13 14  2  0  0  0  0
 13 34  1  0  0  0  0
 14 15  1  0  0  0  0
 14 21  1  0  0  0  0
 15 20  1  0  0  0  0
 15 16  1  0  0  0  0
 16 17  1  0  0  0  0
 16 35  1  0  0  0  0
 16 36  1  0  0  0  0
 17 18  1  0  0  0  0
 17 37  1  0  0  0  0
 17 38  1  0  0  0  0
 18 19  1  0  0  0  0
 19 20  1  0  0  0  0
 19 39  1  0  0  0  0
 19 40  1  0  0  0  0
 20 41  1  0  0  0  0
 20 42  1  0  0  0  0
 21 22  2  0  0  0  0
 22 43  1  0  0  0  0
M  END
> <s_m_source_file>
AV-unprocessed.smi

> <i_m_source_file_index>
337

> <i_lp_mmshare_version>
43012

> <i_f3d_flags>
0

> <s_epik_input>
W05IMl1DKD1PKVtOSF1bQ0BASF0oW0NIM10pQyg9TylbTkhdW0NIMl1jMVtjSF1bY0hdYyhuW2NIXTEpTjJbQ0gyXVtDSDJdT1tDSDJdW0NIMl0y

> <s_epik_cmdline>
J2VwaWtfcHl0aG9uJywgJy1waCcsICc3LjAnLCAnLXRuJywgJzgnLCAnLW1hJywgJzIwMCcsICctbWV0YWxfYmluZGluZycsICctaW1hZScsICc8aW5maWxlLm1hZT4nLCAnLW9tYWUnLCAnPG91dGZpbGUubWFlPic=

> <r_lp_tautomer_probability>
1

> <r_epik_Ionization_Penalty>
0.0048357

> <r_epik_Ionization_Penalty_Charging>
0

> <r_epik_Ionization_Penalty_Neutral>
0.0048357

> <r_epik_State_Penalty>
0.0034696

> <r_epik_Charging_Adjusted_Penalty>
0.0034696

> <i_epik_Tot_Q>
0

> <i_epik_Tot_abs_Q>
0

> <r_epik_Metal_State_Penalty>
-0

> <b_epik_Metal_Only>
0

> <s_lp_Force_Field>
OPLS_2005

> <r_lp_Energy>
8.56102

> <b_lp_Chiralities_Consistent>
1

> <s_lp_Variant>
AV-unprocessed.smi:337-1

> <Gold.Version>
5.8.1

> <Gold.Id.Protein>
6NUR|6NUR_protein|mol2

> <Gold.PLP.Fitness>
47.9086

> <Gold.PLP.PLP>
-34.8353

> <Gold.PLP.part.hbond>
-5.7627

> <Gold.PLP.part.metal>
0.0000

> <Gold.PLP.part.buried>
-0.4268

> <Gold.PLP.part.nonpolar>
-28.1121

> <Gold.PLP.part.repulsive>
0.1343

> <Gold.PLP.ligand.clash>
0.0000

> <Gold.PLP.ligand.torsion>
0.4020

> <Gold.PLP.Chemscore.Hbond>
4.5040

> <Gold.PLP.Chemscore.CHOScore>
0.0000

> <Gold.PLP.Chemscore.Metal>
0.0000

> <Gold.Chemscore.Hbonds>
donor molecule, donor type, donor heavy atom, donor atom, acceptor molecule, acceptor atom, score
      L1  H     3    27       P1  7948  0.84
      L1  H     5    29       P1  7948  0.57
      L1  H     9    30       P1  7948  0.90
      P1  H  7997  8008       L1    21  0.65
      P1  H 10752 10764       L1     8  0.59

> <Gold.PLP.Chemscore.Internal.Correction>
0.3653

> <Gold.Rescore>
     Score         DG    S(hbond)    S(metal)    S(lipo)     H(rot)  DE(clash)    DE(int)     intcor
     18.22     -18.79       3.07        0.00      84.40       2.66       0.17       0.40       ----

> <Gold.Chemscore.Fitness>
18.2186

> <Gold.Chemscore.DG>
-18.7926

> <Gold.Chemscore.ZeroCoef>
-5.4800

> <Gold.Chemscore.Hbond>
3.0659

> <Gold.Chemscore.Metal>
0.0000

> <Gold.Chemscore.Lipo>
84.4045

> <Gold.Chemscore.Internal_Hbond>
0.0000

> <Gold.Chemscore.DEClash>
0.1743

> <Gold.Chemscore.DEInternal>
0.3997

> <Gold.Chemscore.Rot>
2.6573

> <Gold.Chemscore.Internal.Correction>
   9.000000E+99

> <Gold.Chemscore.Hbonds>
donor molecule, donor type, donor heavy atom, donor atom, acceptor molecule, acceptor atom, score
      L1  H     3    27       P1  7948  0.14
      L1  H     5    29       P1  7948  0.57
      L1  H     9    30       P1  7948  0.37
      P1  H  7997  8008       L1    21  0.11
      P1  H 10752 10764       L1     8  0.35

> <Gold.Chemscore.Hbond.Weighted>
-10.2401

> <Gold.Chemscore.Metal.Weighted>
-0.0000

> <Gold.Chemscore.Lipo.Weighted>
-9.8753

> <Gold.Chemscore.Internal_Hbond.Weighted>
0.0000

> <Gold.Chemscore.DEClash.Weighted>
0.1743

> <Gold.Chemscore.DEInternal.Weighted>
0.3997

> <Gold.Chemscore.Rot.Weighted>
6.8027

> <Gold.Chemscore.Internal.Correction.Weighted>
   9.000000E+99

> <Gold.Protein.RotatedTorsions>
[ 6907 6896 6895 6894 ] final  156.29 input  -60.11 | X-H torsion
[ 7974 7965 7964 7962 ] final -110.96 input  175.53 | X-H torsion
[ 8008 7997 7996 7995 ] final  -75.19 input   59.86 | X-H torsion
[ 10167 10162 10161 10158 ] final -107.52 input  -65.29 | X-H torsion
[ 10718 10713 10712 10709 ] final -131.89 input   66.30 | X-H torsion
[ 10763 10752 10751 10750 ] final  -38.49 input  -60.55 | X-H torsion
[ 11005 11000 10999 10996 ] final -174.73 input  -57.11 | X-H torsion

> <Gold.Protein.ActiveResidues>
 VAL166  LYS551  ARG553  GLY616  TRP617  ASP618  TYR619  PRO620  LYS621  CYS622 
 ASP623  PHE694  ASN695  SER759  ASP760  ASP761  ALA762  ILE779  LEU786  VAL792 
 PHE793  MET794  SER795  GLU796  ALA797  LYS798  CYS799  TRP800  GLU811  SER814 

> <Gold.Protein.RotatedAtoms>
  152.0318  133.3940  159.4299 H   0  0  0  0  0  0  0  0  0  0  0  0  # atno 6907 bound_to 6896
  150.6882  134.3513  159.4919 H   0  0  0  0  0  0  0  0  0  0  0  0  # atno 6908 bound_to 6896
  152.1300  134.9142  160.0610 H   0  0  0  0  0  0  0  0  0  0  0  0  # atno 6909 bound_to 6896
  145.1619  140.8882  143.3586 H   0  0  0  0  0  0  0  0  0  0  0  0  # atno 7974 bound_to 7965
  154.5395  140.0748  156.8486 H   0  0  0  0  0  0  0  0  0  0  0  0  # atno 8008 bound_to 7997
  155.3209  140.3396  155.4223 H   0  0  0  0  0  0  0  0  0  0  0  0  # atno 8009 bound_to 7997
  156.1861  140.1669  156.8169 H   0  0  0  0  0  0  0  0  0  0  0  0  # atno 8010 bound_to 7997
  140.1761  143.4004  152.1317 H   0  0  0  0  0  0  0  0  0  0  0  0  # atno 10167 bound_to 10162
  156.2290  130.7026  151.0838 H   0  0  0  0  0  0  0  0  0  0  0  0  # atno 10718 bound_to 10713
  153.9137  135.6790  153.4750 H   0  0  0  0  0  0  0  0  0  0  0  0  # atno 10763 bound_to 10752
  153.1065  135.4803  154.8957 H   0  0  0  0  0  0  0  0  0  0  0  0  # atno 10764 bound_to 10752
  154.7514  135.3186  154.8506 H   0  0  0  0  0  0  0  0  0  0  0  0  # atno 10765 bound_to 10752
  140.4713  134.6163  157.4883 H   0  0  0  0  0  0  0  0  0  0  0  0  # atno 11005 bound_to 11000
  145.0322  139.3331  143.6019 LP  0  0  0  0  0  0  0  0  0  0  0  0  # atno 17320 bound_to 7965
  146.3481  139.9664  142.8711 LP  0  0  0  0  0  0  0  0  0  0  0  0  # atno 17321 bound_to 7965
  139.5316  144.7165  151.5035 LP  0  0  0  0  0  0  0  0  0  0  0  0  # atno 17342 bound_to 10162
  140.6550  143.8617  150.6826 LP  0  0  0  0  0  0  0  0  0  0  0  0  # atno 17343 bound_to 10162
  157.7124  131.0727  150.6452 LP  0  0  0  0  0  0  0  0  0  0  0  0  # atno 17370 bound_to 10713
  156.6518  130.4487  149.5717 LP  0  0  0  0  0  0  0  0  0  0  0  0  # atno 17371 bound_to 10713
  139.9883  134.7025  155.9734 LP  0  0  0  0  0  0  0  0  0  0  0  0  # atno 17394 bound_to 11000
  141.1576  133.6541  156.4211 LP  0  0  0  0  0  0  0  0  0  0  0  0  # atno 17395 bound_to 11000

$$$$
