AV-unprocessed.smi:1265|AV-procd|sdf|5320|dock5
  -GOLD-   22720 4443D 1   1.00000     0.00000
 Structure written by MMmdl.
 45 47  0  0  0  0  0  0  0  0  2 V2000
  144.6388  136.6129  152.4398 O   0  0  0  0  0  0  0  0  0  0  0  0
  145.8441  136.4624  152.2488 C   0  0  0  0  0  0  0  0  0  0  0  0
  146.7590  137.3885  152.5716 N   0  0  0  0  0  0  0  0  0  0  0  0
  146.4707  138.6997  153.1546 C   0  0  0  0  0  0  0  0  0  0  0  0
  147.7103  139.3732  153.8277 C   0  0  2  0  0  0  0  0  0  0  0  0
  148.7054  138.2981  154.1947 N   0  3  0  0  0  0  0  0  0  0  0  0
  150.0938  138.7952  154.4114 C   0  0  0  0  0  0  0  0  0  0  0  0
  151.0739  137.6270  154.5942 C   0  0  0  0  0  0  0  0  0  0  0  0
  150.6590  136.8391  155.6995 O   0  0  0  0  0  0  0  0  0  0  0  0
  149.3811  136.2628  155.4761 C   0  0  0  0  0  0  0  0  0  0  0  0
  148.3229  137.3654  155.2917 C   0  0  0  0  0  0  0  0  0  0  0  0
  147.2551  140.2341  155.0402 C   0  0  0  0  0  0  0  0  0  0  0  0
  146.5008  141.4586  154.5136 C   0  0  0  0  0  0  0  0  0  0  0  0
  147.2863  141.9289  152.9530 S   0  0  0  0  0  0  0  0  0  0  0  0
  148.3092  140.4325  152.8727 C   0  0  0  0  0  0  0  0  0  0  0  0
  146.4254  135.3774  151.7062 N   0  0  0  0  0  0  0  0  0  0  0  0
  145.8385  134.1685  151.2362 C   0  0  0  0  0  0  0  0  0  0  0  0
  144.4670  134.2036  150.9075 C   0  0  0  0  0  0  0  0  0  0  0  0
  143.8463  133.0281  150.4396 C   0  0  0  0  0  0  0  0  0  0  0  0
  144.4981  131.8570  150.2864 N   0  0  0  0  0  0  0  0  0  0  0  0
  145.8098  131.8223  150.6017 C   0  0  0  0  0  0  0  0  0  0  0  0
  146.5253  132.9395  151.0777 C   0  0  0  0  0  0  0  0  0  0  0  0
  147.7260  137.1865  152.3645 H   0  0  0  0  0  0  0  0  0  0  0  0
  146.0980  139.3238  152.3434 H   0  0  0  0  0  0  0  0  0  0  0  0
  145.6237  138.6293  153.8369 H   0  0  0  0  0  0  0  0  0  0  0  0
  150.4300  139.3998  153.5711 H   0  0  0  0  0  0  0  0  0  0  0  0
  150.1325  139.4307  155.2970 H   0  0  0  0  0  0  0  0  0  0  0  0
  151.1331  137.0180  153.6905 H   0  0  0  0  0  0  0  0  0  0  0  0
  152.0772  138.0058  154.7896 H   0  0  0  0  0  0  0  0  0  0  0  0
  149.4141  135.6078  154.6036 H   0  0  0  0  0  0  0  0  0  0  0  0
  149.1231  135.6368  156.3305 H   0  0  0  0  0  0  0  0  0  0  0  0
  148.1892  137.9179  156.2224 H   0  0  0  0  0  0  0  0  0  0  0  0
  147.3854  136.8595  155.0663 H   0  0  0  0  0  0  0  0  0  0  0  0
  146.6706  139.6748  155.7697 H   0  0  0  0  0  0  0  0  0  0  0  0
  148.1125  140.6424  155.5735 H   0  0  0  0  0  0  0  0  0  0  0  0
  145.4532  141.2222  154.3270 H   0  0  0  0  0  0  0  0  0  0  0  0
  146.5257  142.2864  155.2227 H   0  0  0  0  0  0  0  0  0  0  0  0
  149.3115  140.7158  153.1951 H   0  0  0  0  0  0  0  0  0  0  0  0
  148.3870  140.0828  151.8426 H   0  0  0  0  0  0  0  0  0  0  0  0
  147.4302  135.4183  151.6195 H   0  0  0  0  0  0  0  0  0  0  0  0
  143.8937  135.1134  151.0097 H   0  0  0  0  0  0  0  0  0  0  0  0
  142.7979  133.0303  150.1805 H   0  0  0  0  0  0  0  0  0  0  0  0
  146.3072  130.8728  150.4707 H   0  0  0  0  0  0  0  0  0  0  0  0
  147.5715  132.8191  151.3068 H   0  0  0  0  0  0  0  0  0  0  0  0
  148.7522  137.7110  153.3744 H   0  0  0  0  0  0  0  0  0  0  0  0
  1  2  2  0  0  0  0
  2  3  1  0  0  0  0
  2 16  1  0  0  0  0
  3  4  1  0  0  0  0
  3 23  1  0  0  0  0
  4  5  1  0  0  0  0
  4 24  1  0  0  0  0
  4 25  1  0  0  0  0
  5 15  1  0  0  0  0
  5  6  1  0  0  0  0
  5 12  1  0  0  0  0
  6 11  1  0  0  0  0
  6  7  1  0  0  0  0
  6 45  1  0  0  0  0
  7  8  1  0  0  0  0
  7 26  1  0  0  0  0
  7 27  1  0  0  0  0
  8  9  1  0  0  0  0
  8 28  1  0  0  0  0
  8 29  1  0  0  0  0
  9 10  1  0  0  0  0
 10 11  1  0  0  0  0
 10 30  1  0  0  0  0
 10 31  1  0  0  0  0
 11 32  1  0  0  0  0
 11 33  1  0  0  0  0
 12 13  1  0  0  0  0
 12 34  1  0  0  0  0
 12 35  1  0  0  0  0
 13 14  1  0  0  0  0
 13 36  1  0  0  0  0
 13 37  1  0  0  0  0
 14 15  1  0  0  0  0
 15 38  1  0  0  0  0
 15 39  1  0  0  0  0
 16 17  1  0  0  0  0
 16 40  1  0  0  0  0
 17 22  1  0  0  0  0
 17 18  2  0  0  0  0
 18 19  1  0  0  0  0
 18 41  1  0  0  0  0
 19 20  2  0  0  0  0
 19 42  1  0  0  0  0
 20 21  1  0  0  0  0
 21 22  2  0  0  0  0
 21 43  1  0  0  0  0
 22 44  1  0  0  0  0
M  CHG  1   6   1
M  END
> <s_m_source_file>
AV-unprocessed.smi

> <i_m_source_file_index>
1265

> <i_lp_mmshare_version>
43012

> <i_f3d_flags>
0

> <s_epik_input>
W2NIXTFbY0hdbltjSF1bY0hdYzFbTkhdQyg9TylbTkhdW0NIMl1bQ0BdMihbQ0gyXVtDSDJdU1tDSDJdMilOM1tDSDJdW0NIMl1PW0NIMl1bQ0gyXTM=

> <s_epik_cmdline>
J2VwaWtfcHl0aG9uJywgJy1waCcsICc3LjAnLCAnLXRuJywgJzgnLCAnLW1hJywgJzIwMCcsICctbWV0YWxfYmluZGluZycsICctaW1hZScsICc8aW5maWxlLm1hZT4nLCAnLW9tYWUnLCAnPG91dGZpbGUubWFlPic=

> <r_epik_Ionization_Penalty>
2.1318

> <r_epik_Ionization_Penalty_Charging>
2.03219

> <r_epik_Ionization_Penalty_Neutral>
0.0996087

> <r_epik_State_Penalty>
2.24194

> <r_epik_Charging_Adjusted_Penalty>
4.27413

> <i_epik_Tot_Q>
1

> <i_epik_Tot_abs_Q>
1

> <r_epik_Metal_State_Penalty>
2.2363

> <b_epik_Metal_Only>
0

> <s_lp_Force_Field>
OPLS_2005

> <r_lp_Energy>
49.924

> <b_lp_Chiralities_Consistent>
1

> <s_lp_Variant>
AV-unprocessed.smi:1265-6

> <Gold.Version>
5.8.1

> <Gold.Id.Protein>
6NUR|6NUR_protein|mol2

> <Gold.PLP.Fitness>
50.0477

> <Gold.PLP.PLP>
-32.7239

> <Gold.PLP.part.hbond>
-3.8559

> <Gold.PLP.part.metal>
0.0000

> <Gold.PLP.part.buried>
-0.4423

> <Gold.PLP.part.nonpolar>
-29.2469

> <Gold.PLP.part.repulsive>
0.5132

> <Gold.PLP.ligand.clash>
0.0000

> <Gold.PLP.ligand.torsion>
1.2957

> <Gold.PLP.Chemscore.Hbond>
4.8373

> <Gold.PLP.Chemscore.CHOScore>
1.7609

> <Gold.PLP.Chemscore.Metal>
0.0000

> <Gold.Chemscore.Hbonds>
donor molecule, donor type, donor heavy atom, donor atom, acceptor molecule, acceptor atom, score
      L1  H     3    23       P1  7948  1.00
      L1  H     6    45       P1  7948  1.59
      L1  H    16    40       P1  7948  1.00
      L1  C    19    42       P1 10186  1.00
      L1  C    21    43       P1 10747  0.51

> <Gold.PLP.Chemscore.Internal.Correction>
0.1209

> <Gold.Rescore>
     Score         DG    S(hbond)    S(metal)    S(lipo)     H(rot)  DE(clash)    DE(int)     intcor
     18.98     -23.26       3.33        0.00      89.54       1.49       1.68       2.61       ----

> <Gold.Chemscore.Fitness>
18.9754

> <Gold.Chemscore.DG>
-23.2636

> <Gold.Chemscore.ZeroCoef>
-5.4800

> <Gold.Chemscore.Hbond>
3.3269

> <Gold.Chemscore.Metal>
0.0000

> <Gold.Chemscore.Lipo>
89.5381

> <Gold.Chemscore.Internal_Hbond>
0.0000

> <Gold.Chemscore.DEClash>
1.6803

> <Gold.Chemscore.DEInternal>
2.6078

> <Gold.Chemscore.Rot>
1.4860

> <Gold.Chemscore.Internal.Correction>
   9.000000E+99

> <Gold.Chemscore.Hbonds>
donor molecule, donor type, donor heavy atom, donor atom, acceptor molecule, acceptor atom, score
      L1  H     3    23       P1  7948  0.97
      L1  H     6    45       P1  7948  0.79
      L1  H    16    40       P1  7948  0.93

> <Gold.Chemscore.Hbond.Weighted>
-11.1118

> <Gold.Chemscore.Metal.Weighted>
-0.0000

> <Gold.Chemscore.Lipo.Weighted>
-10.4760

> <Gold.Chemscore.Internal_Hbond.Weighted>
0.0000

> <Gold.Chemscore.DEClash.Weighted>
1.6803

> <Gold.Chemscore.DEInternal.Weighted>
2.6078

> <Gold.Chemscore.Rot.Weighted>
3.8042

> <Gold.Chemscore.Internal.Correction.Weighted>
   9.000000E+99

> <Gold.Protein.RotatedTorsions>
[ 6907 6896 6895 6894 ] final  130.54 input  -60.11 | X-H torsion
[ 7974 7965 7964 7962 ] final    1.67 input  175.53 | X-H torsion
[ 8008 7997 7996 7995 ] final  105.34 input   59.86 | X-H torsion
[ 10167 10162 10161 10158 ] final   49.99 input  -65.29 | X-H torsion
[ 10718 10713 10712 10709 ] final  -90.02 input   66.30 | X-H torsion
[ 10763 10752 10751 10750 ] final  -50.28 input  -60.55 | X-H torsion
[ 11005 11000 10999 10996 ] final  -97.59 input  -57.11 | X-H torsion

> <Gold.Protein.ActiveResidues>
 VAL166  LYS551  ARG553  GLY616  TRP617  ASP618  TYR619  PRO620  LYS621  CYS622 
 ASP623  PHE694  ASN695  SER759  ASP760  ASP761  ALA762  ILE779  LEU786  VAL792 
 PHE793  MET794  SER795  GLU796  ALA797  LYS798  CYS799  TRP800  GLU811  SER814 

> <Gold.Protein.RotatedAtoms>
  152.3516  133.6186  159.5948 H   0  0  0  0  0  0  0  0  0  0  0  0  # atno 6907 bound_to 6896
  150.7541  133.9566  159.3511 H   0  0  0  0  0  0  0  0  0  0  0  0  # atno 6908 bound_to 6896
  151.7417  135.0853  160.0368 H   0  0  0  0  0  0  0  0  0  0  0  0  # atno 6909 bound_to 6896
  146.2441  140.0952  142.8350 H   0  0  0  0  0  0  0  0  0  0  0  0  # atno 7974 bound_to 7965
  156.1651  140.3132  155.8874 H   0  0  0  0  0  0  0  0  0  0  0  0  # atno 8008 bound_to 7997
  155.3703  140.0481  157.3062 H   0  0  0  0  0  0  0  0  0  0  0  0  # atno 8009 bound_to 7997
  154.5184  140.2189  155.9032 H   0  0  0  0  0  0  0  0  0  0  0  0  # atno 8010 bound_to 7997
  140.2771  144.3199  150.6274 H   0  0  0  0  0  0  0  0  0  0  0  0  # atno 10167 bound_to 10162
  155.9986  130.4894  150.5260 H   0  0  0  0  0  0  0  0  0  0  0  0  # atno 10718 bound_to 10713
  154.1078  135.6553  153.4879 H   0  0  0  0  0  0  0  0  0  0  0  0  # atno 10763 bound_to 10752
  153.0266  135.5240  154.7222 H   0  0  0  0  0  0  0  0  0  0  0  0  # atno 10764 bound_to 10752
  154.6393  135.2986  155.0092 H   0  0  0  0  0  0  0  0  0  0  0  0  # atno 10765 bound_to 10752
  141.1374  133.8182  157.0726 H   0  0  0  0  0  0  0  0  0  0  0  0  # atno 11005 bound_to 11000
  145.0616  140.9091  143.4935 LP  0  0  0  0  0  0  0  0  0  0  0  0  # atno 17320 bound_to 7965
  145.1069  139.2784  143.5657 LP  0  0  0  0  0  0  0  0  0  0  0  0  # atno 17321 bound_to 7965
  140.5842  143.2171  151.7372 LP  0  0  0  0  0  0  0  0  0  0  0  0  # atno 17342 bound_to 10162
  139.4973  144.4035  152.0156 LP  0  0  0  0  0  0  0  0  0  0  0  0  # atno 17343 bound_to 10162
  157.3215  131.0683  151.1928 LP  0  0  0  0  0  0  0  0  0  0  0  0  # atno 17370 bound_to 10713
  157.2839  130.6763  149.6080 LP  0  0  0  0  0  0  0  0  0  0  0  0  # atno 17371 bound_to 10713
  140.0501  134.9810  157.1121 LP  0  0  0  0  0  0  0  0  0  0  0  0  # atno 17394 bound_to 11000
  140.4002  134.2090  155.7163 LP  0  0  0  0  0  0  0  0  0  0  0  0  # atno 17395 bound_to 11000

$$$$
