#       Name:                AV-unprocessed.smi:3161
#       Creating user name   scv26
#       Creation time:       Fri Mar 27 17:48:12 2020


#       File generated by GOLD software.
#

@<TRIPOS>MOLECULE
AV-unprocessed.smi:3161
    44    45     1
SMALL
NO_CHARGES


@<TRIPOS>ATOM
      1 ****        -3.5909   3.2270  -2.9380 C.3            1 S1                 0.0000
      2 ****        -3.2315   2.0252  -2.1127 C.2            1 S1                 0.0000
      3 ****        -3.1351   1.9380  -0.6948 C.2            1 S1                 0.0000
      4 ****        -2.7935   0.7301  -0.2764 N.2            1 S1                 0.0000
      5 ****        -2.6633   0.0050  -1.4080 N.pl3          1 S1                 0.0000
      6 ****        -2.2864  -1.3958  -1.3309 C.3            1 S1                 0.0000
      7 ****        -0.7580  -1.5936  -1.3136 C.3            1 S1                 0.0000
      8 ****        -0.4012  -3.0853  -1.4249 C.3            1 S1                 0.0000
      9 ****        -0.1796  -1.0030  -0.0849 N.4            1 S1                 1.0000
     10 ****         1.2694  -0.7189  -0.1389 C.3            1 S1                 0.0000
     11 ****         1.7377  -0.0200   1.1449 C.3            1 S1                 0.0000
     12 ****         3.2065   0.4365   1.0470 C.3            1 S1                 0.0000
     13 ****         3.6728   1.0446   2.3746 C.3            1 S1                 0.0000
     14 ****         3.3963   0.0629   3.5182 C.3            1 S1                 0.0000
     15 ****         1.9265  -0.3855   3.4930 C.3            1 S1                 0.0000
     16 ****         1.6119  -0.9468   2.2219 O.3            1 S1                 0.0000
     17 ****        -2.9205   0.7623  -2.5311 C.2            1 S1                 0.0000
     18 ****        -4.2746   3.8905  -2.4079 H              1 S1                 0.0000
     19 ****        -4.0783   2.9462  -3.8719 H              1 S1                 0.0000
     20 ****        -2.7097   3.8134  -3.1981 H              1 S1                 0.0000
     21 ****        -3.3013   2.7136   0.0383 H              1 S1                 0.0000
     22 ****        -2.7458  -1.8402  -0.4461 H              1 S1                 0.0000
     23 ****        -2.7198  -1.9046  -2.1931 H              1 S1                 0.0000
     24 ****        -0.3433  -1.0727  -2.1782 H              1 S1                 0.0000
     25 ****        -0.8413  -3.5257  -2.3199 H              1 S1                 0.0000
     26 ****        -0.7702  -3.6464  -0.5656 H              1 S1                 0.0000
     27 ****         0.6755  -3.2414  -1.4881 H              1 S1                 0.0000
     28 ****        -0.6526  -0.1246   0.0774 H              1 S1                 0.0000
     29 ****         1.8314  -1.6407  -0.2893 H              1 S1                 0.0000
     30 ****         1.4674  -0.0761  -0.9975 H              1 S1                 0.0000
     31 ****         1.1006   0.8466   1.3326 H              1 S1                 0.0000
     32 ****         3.8407  -0.4146   0.7945 H              1 S1                 0.0000
     33 ****         3.3254   1.1641   0.2435 H              1 S1                 0.0000
     34 ****         4.7346   1.2882   2.3304 H              1 S1                 0.0000
     35 ****         3.1427   1.9804   2.5568 H              1 S1                 0.0000
     36 ****         4.0449  -0.8085   3.4194 H              1 S1                 0.0000
     37 ****         3.6347   0.5236   4.4773 H              1 S1                 0.0000
     38 ****         1.7515  -1.1371   4.2629 H              1 S1                 0.0000
     39 ****         1.2603   0.4514   3.7082 H              1 S1                 0.0000
     40 ****        -2.8619   0.3448  -3.5258 H              1 S1                 0.0000
     41 ****        -0.3707  -1.6138   0.6968 H              1 S1                 0.0000
     42 ****        -2.6615   0.4232   0.6661 LP             1 S1                 0.0000
     43 ****         2.2300  -1.7145   2.0529 LP             1 S1                 0.0000
     44 ****         0.6685  -1.2776   2.2464 LP             1 S1                 0.0000
@<TRIPOS>BOND
    1    1    2 1     
    2    1   18 1     
    3    1   19 1     
    4    1   20 1     
    5    2   17 2     
    6    2    3 1     
    7    3    4 2     
    8    3   21 1     
    9    4    5 1     
   10    5    6 1     
   11    5   17 1     
   12    6    7 1     
   13    6   22 1     
   14    6   23 1     
   15    7    8 1     
   16    7    9 1     
   17    7   24 1     
   18    8   25 1     
   19    8   26 1     
   20    8   27 1     
   21    9   10 1     
   22    9   28 1     
   23    9   41 1     
   24   10   11 1     
   25   10   29 1     
   26   10   30 1     
   27   11   16 1     
   28   11   12 1     
   29   11   31 1     
   30   12   13 1     
   31   12   32 1     
   32   12   33 1     
   33   13   14 1     
   34   13   34 1     
   35   13   35 1     
   36   14   15 1     
   37   14   36 1     
   38   14   37 1     
   39   15   16 1     
   40   15   38 1     
   41   15   39 1     
   42   17   40 1     
   43    4   42 1     
   44   16   43 1     
   45   16   44 1     
@<TRIPOS>SUBSTRUCTURE
      1 S1             1
@<TRIPOS>SET
LONE_PAIRS      STATIC     ATOMS    <user>   **** ""
3 42 43 44
DONOR_HYDROGENS      STATIC     ATOMS    <user>   **** ""
2 28 41
ATOM$BLUE        STATIC     ATOMS    COLORGROUP SYSTEM
3 42 43 44
ATOM$RED        STATIC     ATOMS    COLORGROUP SYSTEM
2 28 41
