#       Name:                AV-unprocessed.smi:1382
#       Creating user name   scv26
#       Creation time:       Fri Mar 27 05:23:36 2020


#       File generated by GOLD software.
#

@<TRIPOS>MOLECULE
AV-unprocessed.smi:1382
    52    53     1
SMALL
NO_CHARGES


@<TRIPOS>ATOM
      1 ****        -3.0873   4.2989  -0.9494 C.3            1 S1                 0.0000
      2 ****        -2.5201   2.8986  -0.6940 C.3            1 S1                 0.0000
      3 ****        -2.9714   1.8786  -1.7518 C.3            1 S1                 0.0000
      4 ****        -2.4758   0.4407  -1.4932 C.3            1 S1                 0.0000
      5 ****        -1.0303   0.3020  -1.4874 N.am           1 S1                 0.0000
      6 ****        -0.2480   0.2666  -0.3277 C.2            1 S1                 0.0000
      7 ****        -0.8874   0.3783   0.8984 N.pl3          1 S1                 0.0000
      8 ****         1.1097   0.1161  -0.3823 C.2            1 S1                 0.0000
      9 ****         1.8987   0.1207   0.7824 N.am           1 S1                 0.0000
     10 ****         2.0586   1.4023   1.4752 C.3            1 S1                 0.0000
     11 ****         2.4540  -1.0045   1.3025 C.2            1 S1                 0.0000
     12 ****         3.1816  -0.9632   2.2965 O.2            1 S1                 0.0000
     13 ****         2.1451  -2.3796   0.6540 C.3            1 S1                 0.0000
     14 ****         2.6493  -3.5952   1.4421 C.3            1 S1                 0.0000
     15 ****         1.5667  -3.8377   2.4846 C.3            1 S1                 0.0000
     16 ****         0.3407  -3.1092   1.9252 C.3            1 S1                 0.0000
     17 ****         0.7411  -2.6217   0.6478 O.3            1 S1                 0.0000
     18 ****         1.8016   0.0360  -1.6757 C.2            1 S1                 0.0000
     19 ****         3.0177  -0.0640  -1.8348 O.2            1 S1                 0.0000
     20 ****         0.9688   0.0905  -2.7898 N.am           1 S1                 0.0000
     21 ****        -0.4150   0.2188  -2.7597 C.2            1 S1                 0.0000
     22 ****        -1.0397   0.2600  -3.8202 O.2            1 S1                 0.0000
     23 ****         1.4076   0.0377  -3.6975 H              1 S1                 0.0000
     24 ****        -2.7492   5.0000  -0.1862 H              1 S1                 0.0000
     25 ****        -4.1775   4.2909  -0.9345 H              1 S1                 0.0000
     26 ****        -2.7674   4.6824  -1.9186 H              1 S1                 0.0000
     27 ****        -1.4315   2.9570  -0.6741 H              1 S1                 0.0000
     28 ****        -2.8312   2.5614   0.2952 H              1 S1                 0.0000
     29 ****        -4.0612   1.8648  -1.7880 H              1 S1                 0.0000
     30 ****        -2.6454   2.2119  -2.7375 H              1 S1                 0.0000
     31 ****        -2.8487   0.0607  -0.5434 H              1 S1                 0.0000
     32 ****        -2.8631  -0.2550  -2.2402 H              1 S1                 0.0000
     33 ****        -1.8897   0.4829   0.9677 H              1 S1                 0.0000
     34 ****        -0.3821   0.3147   1.7704 H              1 S1                 0.0000
     35 ****         1.6155   1.3608   2.4713 H              1 S1                 0.0000
     36 ****         1.5775   2.2171   0.9319 H              1 S1                 0.0000
     37 ****         3.1142   1.6587   1.5775 H              1 S1                 0.0000
     38 ****         2.5420  -2.3982  -0.3607 H              1 S1                 0.0000
     39 ****         2.7088  -4.4547   0.7733 H              1 S1                 0.0000
     40 ****         3.6391  -3.4637   1.8811 H              1 S1                 0.0000
     41 ****         1.3830  -4.9031   2.6270 H              1 S1                 0.0000
     42 ****         1.8510  -3.4140   3.4486 H              1 S1                 0.0000
     43 ****        -0.5252  -3.7644   1.8302 H              1 S1                 0.0000
     44 ****         0.0623  -2.2717   2.5664 H              1 S1                 0.0000
     45 ****         3.3748  -0.0873   2.7387 LP             1 S1                 0.0000
     46 ****         3.5788  -1.8055   2.6607 LP             1 S1                 0.0000
     47 ****         0.5226  -3.3013  -0.0525 LP             1 S1                 0.0000
     48 ****         0.2563  -1.7700   0.4485 LP             1 S1                 0.0000
     49 ****         3.6248  -0.0970  -1.0409 LP             1 S1                 0.0000
     50 ****         3.3989  -0.1122  -2.7581 LP             1 S1                 0.0000
     51 ****        -2.0349   0.3569  -3.8108 LP             1 S1                 0.0000
     52 ****        -0.5517   0.1966  -4.6908 LP             1 S1                 0.0000
@<TRIPOS>BOND
    1    1    2 1     
    2    1   24 1     
    3    1   25 1     
    4    1   26 1     
    5    2    3 1     
    6    2   27 1     
    7    2   28 1     
    8    3    4 1     
    9    3   29 1     
   10    3   30 1     
   11    4    5 1     
   12    4   31 1     
   13    4   32 1     
   14    5   21 1     
   15    5    6 1     
   16    6    7 1     
   17    6    8 2     
   18    7   33 1     
   19    7   34 1     
   20    8    9 1     
   21    8   18 1     
   22    9   10 1     
   23    9   11 am    
   24   10   35 1     
   25   10   36 1     
   26   10   37 1     
   27   11   12 2     
   28   11   13 1     
   29   13   17 1     
   30   13   14 1     
   31   13   38 1     
   32   14   15 1     
   33   14   39 1     
   34   14   40 1     
   35   15   16 1     
   36   15   41 1     
   37   15   42 1     
   38   16   17 1     
   39   16   43 1     
   40   16   44 1     
   41   18   19 2     
   42   18   20 1     
   43   20   23 1     
   44   20   21 1     
   45   21   22 2     
   46   12   45 1     
   47   12   46 1     
   48   17   47 1     
   49   17   48 1     
   50   19   49 1     
   51   19   50 1     
   52   22   51 1     
   53   22   52 1     
@<TRIPOS>SUBSTRUCTURE
      1 S1             1
@<TRIPOS>SET
LONE_PAIRS      STATIC     ATOMS    <user>   **** ""
8 45 46 47 48 49 50 51 52
DONOR_HYDROGENS      STATIC     ATOMS    <user>   **** ""
3 33 34 23
ATOM$BLUE        STATIC     ATOMS    COLORGROUP SYSTEM
8 45 46 47 48 49 50 51 52
ATOM$RED        STATIC     ATOMS    COLORGROUP SYSTEM
3 33 34 23
