AV-unprocessed.smi:2930|AV-procd|sdf|11241|dock10
  -GOLD-   2272016133D 1   1.00000     0.00000
 Structure written by MMmdl.
 40 41  0  0  0  0  0  0  0  0  1 V2000
  144.2183  135.4065  152.9289 C   0  0  0  0  0  0  0  0  0  0  0  0
  145.0812  135.9735  151.7931 C   0  0  1  0  0  0  0  0  0  0  0  0
  146.3156  136.5176  152.3539 N   0  0  0  0  0  0  0  0  0  0  0  0
  146.3960  137.4765  153.2877 C   0  0  0  0  0  0  0  0  0  0  0  0
  145.4149  138.0193  153.7946 O   0  0  0  0  0  0  0  0  0  0  0  0
  147.6765  137.7709  153.5694 N   0  0  0  0  0  0  0  0  0  0  0  0
  148.1779  138.7161  154.5037 C   0  0  0  0  0  0  0  0  0  0  0  0
  147.5660  139.0487  155.7359 C   0  0  0  0  0  0  0  0  0  0  0  0
  148.1168  139.9468  156.5806 N   0  0  0  0  0  0  0  0  0  0  0  0
  149.2725  140.5185  156.2180 C   0  0  0  0  0  0  0  0  0  0  0  0
  149.8330  141.4508  157.0961 N   0  0  0  0  0  0  0  0  0  0  0  0
  151.0771  142.1427  156.7714 C   0  0  0  0  0  0  0  0  0  0  0  0
  149.1954  141.7665  158.3711 C   0  0  0  0  0  0  0  0  0  0  0  0
  149.9356  140.2651  155.0817 N   0  0  0  0  0  0  0  0  0  0  0  0
  149.3969  139.3674  154.2300 C   0  0  0  0  0  0  0  0  0  0  0  0
  145.4080  134.9161  150.7367 C   0  0  0  0  0  0  0  0  0  0  0  0
  144.3453  133.8894  150.3130 C   0  0  0  0  0  0  0  0  0  0  0  0
  145.4700  132.8650  150.1414 C   0  0  0  0  0  0  0  0  0  0  0  0
  146.3056  133.7218  151.0963 C   0  0  0  0  0  0  0  0  0  0  0  0
  143.2700  135.0254  152.5494 H   0  0  0  0  0  0  0  0  0  0  0  0
  143.9895  136.1740  153.6689 H   0  0  0  0  0  0  0  0  0  0  0  0
  144.7239  134.5877  153.4422 H   0  0  0  0  0  0  0  0  0  0  0  0
  144.5099  136.7795  151.3290 H   0  0  0  0  0  0  0  0  0  0  0  0
  147.1785  136.1374  151.9938 H   0  0  0  0  0  0  0  0  0  0  0  0
  148.3746  137.2956  153.0161 H   0  0  0  0  0  0  0  0  0  0  0  0
  146.6482  138.5946  156.0749 H   0  0  0  0  0  0  0  0  0  0  0  0
  150.9637  142.7163  155.8508 H   0  0  0  0  0  0  0  0  0  0  0  0
  151.8864  141.4253  156.6327 H   0  0  0  0  0  0  0  0  0  0  0  0
  151.3773  142.8339  157.5591 H   0  0  0  0  0  0  0  0  0  0  0  0
  149.1221  140.8721  158.9908 H   0  0  0  0  0  0  0  0  0  0  0  0
  148.1899  142.1555  158.2077 H   0  0  0  0  0  0  0  0  0  0  0  0
  149.7540  142.5153  158.9326 H   0  0  0  0  0  0  0  0  0  0  0  0
  149.9450  139.1717  153.3201 H   0  0  0  0  0  0  0  0  0  0  0  0
  145.8112  135.3854  149.8363 H   0  0  0  0  0  0  0  0  0  0  0  0
  143.6599  133.6291  151.1214 H   0  0  0  0  0  0  0  0  0  0  0  0
  143.8089  134.1409  149.3977 H   0  0  0  0  0  0  0  0  0  0  0  0
  145.2380  131.8647  150.5085 H   0  0  0  0  0  0  0  0  0  0  0  0
  145.8733  132.8435  149.1277 H   0  0  0  0  0  0  0  0  0  0  0  0
  147.3523  133.8355  150.8123 H   0  0  0  0  0  0  0  0  0  0  0  0
  146.2025  133.4121  152.1377 H   0  0  0  0  0  0  0  0  0  0  0  0
  1  2  1  0  0  0  0
  1 20  1  0  0  0  0
  1 21  1  0  0  0  0
  1 22  1  0  0  0  0
  2  3  1  0  0  0  0
  2 16  1  0  0  0  0
  2 23  1  0  0  0  0
  3  4  1  0  0  0  0
  3 24  1  0  0  0  0
  4  5  2  0  0  0  0
  4  6  1  0  0  0  0
  6  7  1  0  0  0  0
  6 25  1  0  0  0  0
  7 15  1  0  0  0  0
  7  8  2  0  0  0  0
  8  9  1  0  0  0  0
  8 26  1  0  0  0  0
  9 10  2  0  0  0  0
 10 11  1  0  0  0  0
 10 14  1  0  0  0  0
 11 12  1  0  0  0  0
 11 13  1  0  0  0  0
 12 27  1  0  0  0  0
 12 28  1  0  0  0  0
 12 29  1  0  0  0  0
 13 30  1  0  0  0  0
 13 31  1  0  0  0  0
 13 32  1  0  0  0  0
 14 15  2  0  0  0  0
 15 33  1  0  0  0  0
 16 19  1  0  0  0  0
 16 17  1  0  0  0  0
 16 34  1  0  0  0  0
 17 18  1  0  0  0  0
 17 35  1  0  0  0  0
 17 36  1  0  0  0  0
 18 19  1  0  0  0  0
 18 37  1  0  0  0  0
 18 38  1  0  0  0  0
 19 39  1  0  0  0  0
 19 40  1  0  0  0  0
M  END
> <s_m_source_file>
AV-unprocessed.smi

> <i_m_source_file_index>
2930

> <i_lp_mmshare_version>
43012

> <i_f3d_flags>
0

> <s_epik_input>
W0NIMl0xW0NIMl1bQ0gyXVtDSF0xW0NASF0oW0NIM10pW05IXUMoPU8pW05IXWMyW2NIXW5jKE4oW0NIM10pW0NIM10pbltjSF0y

> <s_epik_cmdline>
J2VwaWtfcHl0aG9uJywgJy1waCcsICc3LjAnLCAnLXRuJywgJzgnLCAnLW1hJywgJzIwMCcsICctbWV0YWxfYmluZGluZycsICctaW1hZScsICc8aW5maWxlLm1hZT4nLCAnLW9tYWUnLCAnPG91dGZpbGUubWFlPic=

> <r_lp_tautomer_probability>
1

> <r_epik_Ionization_Penalty>
0.000323856

> <r_epik_Ionization_Penalty_Charging>
0

> <r_epik_Ionization_Penalty_Neutral>
0.000323856

> <r_epik_State_Penalty>
-0

> <r_epik_Charging_Adjusted_Penalty>
0

> <i_epik_Tot_Q>
0

> <i_epik_Tot_abs_Q>
0

> <r_epik_Metal_State_Penalty>
-0

> <b_epik_Metal_Only>
0

> <s_lp_Force_Field>
OPLS_2005

> <r_lp_Energy>
8.86729

> <b_lp_Chiralities_Consistent>
1

> <s_lp_Variant>
AV-unprocessed.smi:2930-2

> <Gold.Version>
5.8.1

> <Gold.Id.Protein>
6NUR|6NUR_protein|mol2

> <Gold.PLP.Fitness>
34.9602

> <Gold.PLP.PLP>
-25.8467

> <Gold.PLP.part.hbond>
-2.6188

> <Gold.PLP.part.metal>
0.0000

> <Gold.PLP.part.buried>
-3.1971

> <Gold.PLP.part.nonpolar>
-20.1868

> <Gold.PLP.part.repulsive>
0.3282

> <Gold.PLP.ligand.clash>
0.0000

> <Gold.PLP.ligand.torsion>
0.4269

> <Gold.PLP.Chemscore.Hbond>
2.3007

> <Gold.PLP.Chemscore.CHOScore>
0.9819

> <Gold.PLP.Chemscore.Metal>
0.0000

> <Gold.Chemscore.Hbonds>
donor molecule, donor type, donor heavy atom, donor atom, acceptor molecule, acceptor atom, score
      L1  H     3    24       P1  7948  1.00
      L1  H     6    25       P1  7948  1.00
      P1  H  7989  7998       L1    14  0.06
      L1  C    15    33       P1  7957  1.00

> <Gold.PLP.Chemscore.Internal.Correction>
0.1195

> <Gold.Rescore>
     Score         DG    S(hbond)    S(metal)    S(lipo)     H(rot)  DE(clash)    DE(int)     intcor
     14.96     -16.22       1.98        0.00      61.47       1.19       0.21       1.04       ----

> <Gold.Chemscore.Fitness>
14.9628

> <Gold.Chemscore.DG>
-16.2157

> <Gold.Chemscore.ZeroCoef>
-5.4800

> <Gold.Chemscore.Hbond>
1.9767

> <Gold.Chemscore.Metal>
0.0000

> <Gold.Chemscore.Lipo>
61.4742

> <Gold.Chemscore.Internal_Hbond>
0.0000

> <Gold.Chemscore.DEClash>
0.2101

> <Gold.Chemscore.DEInternal>
1.0427

> <Gold.Chemscore.Rot>
1.1949

> <Gold.Chemscore.Internal.Correction>
   9.000000E+99

> <Gold.Chemscore.Hbonds>
donor molecule, donor type, donor heavy atom, donor atom, acceptor molecule, acceptor atom, score
      L1  H     3    24       P1  7948  0.94
      L1  H     6    25       P1  7948  0.99
      P1  H  7989  7998       L1    14  0.01

> <Gold.Chemscore.Hbond.Weighted>
-6.6021

> <Gold.Chemscore.Metal.Weighted>
-0.0000

> <Gold.Chemscore.Lipo.Weighted>
-7.1925

> <Gold.Chemscore.Internal_Hbond.Weighted>
0.0000

> <Gold.Chemscore.DEClash.Weighted>
0.2101

> <Gold.Chemscore.DEInternal.Weighted>
1.0427

> <Gold.Chemscore.Rot.Weighted>
3.0590

> <Gold.Chemscore.Internal.Correction.Weighted>
   9.000000E+99

> <Gold.Protein.RotatedTorsions>
[ 6907 6896 6895 6894 ] final  -30.65 input  -60.11 | X-H torsion
[ 7974 7965 7964 7962 ] final -142.07 input  175.53 | X-H torsion
[ 8008 7997 7996 7995 ] final   18.59 input   59.86 | X-H torsion
[ 10167 10162 10161 10158 ] final  -22.48 input  -65.29 | X-H torsion
[ 10718 10713 10712 10709 ] final   26.51 input   66.30 | X-H torsion
[ 10763 10752 10751 10750 ] final   20.74 input  -60.55 | X-H torsion
[ 11005 11000 10999 10996 ] final   -1.03 input  -57.11 | X-H torsion

> <Gold.Protein.ActiveResidues>
 VAL166  LYS551  ARG553  GLY616  TRP617  ASP618  TYR619  PRO620  LYS621  CYS622 
 ASP623  PHE694  ASN695  SER759  ASP760  ASP761  ALA762  ILE779  LEU786  VAL792 
 PHE793  MET794  SER795  GLU796  ALA797  LYS798  CYS799  TRP800  GLU811  SER814 

> <Gold.Protein.RotatedAtoms>
  151.1027  134.9982  159.8456 H   0  0  0  0  0  0  0  0  0  0  0  0  # atno 6907 bound_to 6896
  152.5438  134.1930  159.8691 H   0  0  0  0  0  0  0  0  0  0  0  0  # atno 6908 bound_to 6896
  151.1974  133.4586  159.2629 H   0  0  0  0  0  0  0  0  0  0  0  0  # atno 6909 bound_to 6896
  144.8471  140.6003  143.5414 H   0  0  0  0  0  0  0  0  0  0  0  0  # atno 7974 bound_to 7965
  154.9083  140.3010  155.5280 H   0  0  0  0  0  0  0  0  0  0  0  0  # atno 8008 bound_to 7997
  156.3016  140.2394  156.4054 H   0  0  0  0  0  0  0  0  0  0  0  0  # atno 8009 bound_to 7997
  154.8451  140.0412  157.1556 H   0  0  0  0  0  0  0  0  0  0  0  0  # atno 8010 bound_to 7997
  140.7286  143.4531  151.0487 H   0  0  0  0  0  0  0  0  0  0  0  0  # atno 10167 bound_to 10162
  157.2078  130.6920  149.6215 H   0  0  0  0  0  0  0  0  0  0  0  0  # atno 10718 bound_to 10713
  153.1052  135.6683  153.9599 H   0  0  0  0  0  0  0  0  0  0  0  0  # atno 10763 bound_to 10752
  153.9158  135.3020  155.3449 H   0  0  0  0  0  0  0  0  0  0  0  0  # atno 10764 bound_to 10752
  154.7473  135.5051  153.9303 H   0  0  0  0  0  0  0  0  0  0  0  0  # atno 10765 bound_to 10752
  140.6428  133.9474  155.8336 H   0  0  0  0  0  0  0  0  0  0  0  0  # atno 11005 bound_to 11000
  145.4574  139.1516  143.3885 LP  0  0  0  0  0  0  0  0  0  0  0  0  # atno 17320 bound_to 7965
  146.2753  140.4703  142.8798 LP  0  0  0  0  0  0  0  0  0  0  0  0  # atno 17321 bound_to 7965
  139.8209  143.7821  152.3177 LP  0  0  0  0  0  0  0  0  0  0  0  0  # atno 17342 bound_to 10162
  139.7903  144.7412  150.9964 LP  0  0  0  0  0  0  0  0  0  0  0  0  # atno 17343 bound_to 10162
  155.9693  130.4561  150.5913 LP  0  0  0  0  0  0  0  0  0  0  0  0  # atno 17370 bound_to 10713
  157.3702  131.0764  151.1564 LP  0  0  0  0  0  0  0  0  0  0  0  0  # atno 17371 bound_to 10713
  141.0594  134.0368  157.3679 LP  0  0  0  0  0  0  0  0  0  0  0  0  # atno 17394 bound_to 11000
  139.9074  135.0183  156.7545 LP  0  0  0  0  0  0  0  0  0  0  0  0  # atno 17395 bound_to 11000

$$$$
