AV-unprocessed.smi:2056|AV-procd|sdf|8339|dock6
  -GOLD-   2272011 03D 1   1.00000     0.00000
 Structure written by MMmdl.
 33 33  0  0  0  0  0  0  0  0  2 V2000
  147.3527  136.8687  162.8585 C   0  0  0  0  0  0  0  0  0  0  0  0
  146.7619  135.8675  161.8429 C   0  0  0  0  0  0  0  0  0  0  0  0
  146.1644  134.6807  162.6238 C   0  0  0  0  0  0  0  0  0  0  0  0
  145.6234  136.5541  161.0588 C   0  0  0  0  0  0  0  0  0  0  0  0
  147.8585  135.3121  160.8866 C   0  0  0  0  0  0  0  0  0  0  0  0
  148.3692  136.2882  159.8124 C   0  0  0  0  0  0  0  0  0  0  0  0
  147.8811  137.4175  159.7460 O   0  0  0  0  0  0  0  0  0  0  0  0
  149.3328  135.7348  159.0370 N   0  5  0  0  0  0  0  0  0  0  0  0
  149.3466  135.9837  157.7187 C   0  0  0  0  0  0  0  0  0  0  0  0
  150.3622  136.6009  157.1054 N   0  0  0  0  0  0  0  0  0  0  0  0
  150.1789  136.7485  155.7274 C   0  0  0  0  0  0  0  0  0  0  0  0
  151.2293  137.4274  154.8935 C   0  0  0  0  0  0  0  0  0  0  0  0
  150.6714  138.6605  154.1730 C   0  0  0  0  0  0  0  0  0  0  0  0
  149.7960  138.4605  153.1826 N   0  0  0  0  0  0  0  0  0  0  0  0
  151.0100  139.7888  154.5239 O   0  0  0  0  0  0  0  0  0  0  0  0
  148.9878  136.2306  155.2872 C   0  0  0  0  0  0  0  0  0  0  0  0
  148.0700  135.5289  156.5885 S   0  0  0  0  0  0  0  0  0  0  0  0
  146.6031  137.1867  163.5838 H   0  0  0  0  0  0  0  0  0  0  0  0
  147.7276  137.7690  162.3706 H   0  0  0  0  0  0  0  0  0  0  0  0
  148.1809  136.4269  163.4135 H   0  0  0  0  0  0  0  0  0  0  0  0
  146.9263  134.1684  163.2123 H   0  0  0  0  0  0  0  0  0  0  0  0
  145.7201  133.9460  161.9516 H   0  0  0  0  0  0  0  0  0  0  0  0
  145.3847  135.0074  163.3129 H   0  0  0  0  0  0  0  0  0  0  0  0
  144.8113  136.8535  161.7219 H   0  0  0  0  0  0  0  0  0  0  0  0
  145.2026  135.8872  160.3056 H   0  0  0  0  0  0  0  0  0  0  0  0
  145.9656  137.4547  160.5485 H   0  0  0  0  0  0  0  0  0  0  0  0
  148.7016  134.9415  161.4737 H   0  0  0  0  0  0  0  0  0  0  0  0
  147.4701  134.4356  160.3661 H   0  0  0  0  0  0  0  0  0  0  0  0
  152.0702  137.7391  155.5138 H   0  0  0  0  0  0  0  0  0  0  0  0
  151.6344  136.7328  154.1564 H   0  0  0  0  0  0  0  0  0  0  0  0
  149.3898  139.2512  152.7035 H   0  0  0  0  0  0  0  0  0  0  0  0
  149.5258  137.5201  152.9345 H   0  0  0  0  0  0  0  0  0  0  0  0
  148.5973  136.2153  154.2810 H   0  0  0  0  0  0  0  0  0  0  0  0
  1  2  1  0  0  0  0
  1 18  1  0  0  0  0
  1 19  1  0  0  0  0
  1 20  1  0  0  0  0
  2  3  1  0  0  0  0
  2  4  1  0  0  0  0
  2  5  1  0  0  0  0
  3 21  1  0  0  0  0
  3 22  1  0  0  0  0
  3 23  1  0  0  0  0
  4 24  1  0  0  0  0
  4 25  1  0  0  0  0
  4 26  1  0  0  0  0
  5  6  1  0  0  0  0
  5 27  1  0  0  0  0
  5 28  1  0  0  0  0
  6  7  2  0  0  0  0
  6  8  1  0  0  0  0
  8  9  1  0  0  0  0
  9 17  1  0  0  0  0
  9 10  2  0  0  0  0
 10 11  1  0  0  0  0
 11 12  1  0  0  0  0
 11 16  2  0  0  0  0
 12 13  1  0  0  0  0
 12 29  1  0  0  0  0
 12 30  1  0  0  0  0
 13 14  1  0  0  0  0
 13 15  2  0  0  0  0
 14 31  1  0  0  0  0
 14 32  1  0  0  0  0
 16 17  1  0  0  0  0
 16 33  1  0  0  0  0
M  CHG  1   8  -1
M  END
> <s_m_source_file>
AV-unprocessed.smi

> <i_m_source_file_index>
2056

> <i_lp_mmshare_version>
43012

> <i_f3d_flags>
0

> <s_epik_input>
W0NIM11DKFtDSDNdKShbQ0gzXSlbQ0gyXUMoPU8pW05IXWMxbmMoW2NIXXMxKVtDSDJdQyg9TylbTkgyXQ==

> <s_epik_cmdline>
J2VwaWtfcHl0aG9uJywgJy1waCcsICc3LjAnLCAnLXRuJywgJzgnLCAnLW1hJywgJzIwMCcsICctbWV0YWxfYmluZGluZycsICctaW1hZScsICc8aW5maWxlLm1hZT4nLCAnLW9tYWUnLCAnPG91dGZpbGUubWFlPic=

> <r_lp_tautomer_probability>
1

> <r_epik_Ionization_Penalty>
5.16109

> <r_epik_Ionization_Penalty_Charging>
4.76142

> <r_epik_Ionization_Penalty_Neutral>
0.39967

> <r_epik_State_Penalty>
4.76123

> <r_epik_Charging_Adjusted_Penalty>
9.52265

> <i_epik_Tot_Q>
-1

> <i_epik_Tot_abs_Q>
1

> <r_epik_Metal_State_Penalty>
0.964035

> <b_epik_Metal_Only>
1

> <s_lp_Force_Field>
OPLS_2005

> <r_lp_Energy>
1.47772

> <b_lp_Chiralities_Consistent>
1

> <s_lp_Variant>
AV-unprocessed.smi:2056-2

> <Gold.Version>
5.8.1

> <Gold.Id.Protein>
6NUR|6NUR_protein|mol2

> <Gold.PLP.Fitness>
47.0094

> <Gold.PLP.PLP>
-30.1469

> <Gold.PLP.part.hbond>
-5.9794

> <Gold.PLP.part.metal>
0.0000

> <Gold.PLP.part.buried>
-2.7906

> <Gold.PLP.part.nonpolar>
-20.8954

> <Gold.PLP.part.repulsive>
0.1882

> <Gold.PLP.ligand.clash>
0.0000

> <Gold.PLP.ligand.torsion>
1.1034

> <Gold.PLP.Chemscore.Hbond>
5.3324

> <Gold.PLP.Chemscore.CHOScore>
0.9872

> <Gold.PLP.Chemscore.Metal>
0.0000

> <Gold.Chemscore.Hbonds>
donor molecule, donor type, donor heavy atom, donor atom, acceptor molecule, acceptor atom, score
      L1  H    14    31       P1  7957  0.70
      L1  H    14    32       P1  7948  1.00
      P1  H  6896  6908       L1     8  2.00
      P1  H  6934  6947       L1     7  0.56
      P1  H  7989  7998       L1    15  1.00
      L1  C    16    33       P1  7948  1.00

> <Gold.PLP.Chemscore.Internal.Correction>
0.1104

> <Gold.Rescore>
     Score         DG    S(hbond)    S(metal)    S(lipo)     H(rot)  DE(clash)    DE(int)     intcor
     17.44     -19.94       4.09        0.00      54.01       2.16       0.07       2.43       ----

> <Gold.Chemscore.Fitness>
17.4403

> <Gold.Chemscore.DG>
-19.9377

> <Gold.Chemscore.ZeroCoef>
-5.4800

> <Gold.Chemscore.Hbond>
4.0917

> <Gold.Chemscore.Metal>
0.0000

> <Gold.Chemscore.Lipo>
54.0123

> <Gold.Chemscore.Internal_Hbond>
0.0000

> <Gold.Chemscore.DEClash>
0.0650

> <Gold.Chemscore.DEInternal>
2.4324

> <Gold.Chemscore.Rot>
2.1594

> <Gold.Chemscore.Internal.Correction>
   9.000000E+99

> <Gold.Chemscore.Hbonds>
donor molecule, donor type, donor heavy atom, donor atom, acceptor molecule, acceptor atom, score
      L1  H    14    31       P1  7957  0.70
      L1  H    14    32       P1  7948  0.77
      P1  H  6896  6908       L1     8  0.78
      P1  H  6934  6947       L1     7  0.56
      P1  H  7989  7998       L1    15  0.98

> <Gold.Chemscore.Hbond.Weighted>
-13.6664

> <Gold.Chemscore.Metal.Weighted>
-0.0000

> <Gold.Chemscore.Lipo.Weighted>
-6.3194

> <Gold.Chemscore.Internal_Hbond.Weighted>
0.0000

> <Gold.Chemscore.DEClash.Weighted>
0.0650

> <Gold.Chemscore.DEInternal.Weighted>
2.4324

> <Gold.Chemscore.Rot.Weighted>
5.5281

> <Gold.Chemscore.Internal.Correction.Weighted>
   9.000000E+99

> <Gold.Protein.RotatedTorsions>
[ 6907 6896 6895 6894 ] final  162.10 input  -60.11 | X-H torsion
[ 7974 7965 7964 7962 ] final   41.80 input  175.53 | X-H torsion
[ 8008 7997 7996 7995 ] final   26.62 input   59.86 | X-H torsion
[ 10167 10162 10161 10158 ] final  -17.23 input  -65.29 | X-H torsion
[ 10718 10713 10712 10709 ] final   42.93 input   66.30 | X-H torsion
[ 10763 10752 10751 10750 ] final  114.74 input  -60.55 | X-H torsion
[ 11005 11000 10999 10996 ] final  121.73 input  -57.11 | X-H torsion

> <Gold.Protein.ActiveResidues>
 VAL166  LYS551  ARG553  GLY616  TRP617  ASP618  TYR619  PRO620  LYS621  CYS622 
 ASP623  PHE694  ASN695  SER759  ASP760  ASP761  ALA762  ILE779  LEU786  VAL792 
 PHE793  MET794  SER795  GLU796  ALA797  LYS798  CYS799  TRP800  GLU811  SER814 

> <Gold.Protein.RotatedAtoms>
  151.9455  133.3650  159.3980 H   0  0  0  0  0  0  0  0  0  0  0  0  # atno 6907 bound_to 6896
  150.6990  134.4394  159.5294 H   0  0  0  0  0  0  0  0  0  0  0  0  # atno 6908 bound_to 6896
  152.2058  134.8546  160.0553 H   0  0  0  0  0  0  0  0  0  0  0  0  # atno 6909 bound_to 6896
  146.0793  139.5373  142.9547 H   0  0  0  0  0  0  0  0  0  0  0  0  # atno 7974 bound_to 7965
  155.0301  140.3157  155.4761 H   0  0  0  0  0  0  0  0  0  0  0  0  # atno 8008 bound_to 7997
  156.2875  140.2181  156.5365 H   0  0  0  0  0  0  0  0  0  0  0  0  # atno 8009 bound_to 7997
  154.7377  140.0476  157.0771 H   0  0  0  0  0  0  0  0  0  0  0  0  # atno 8010 bound_to 7997
  140.7244  143.5036  150.9838 H   0  0  0  0  0  0  0  0  0  0  0  0  # atno 10167 bound_to 10162
  157.4103  130.7910  149.7424 H   0  0  0  0  0  0  0  0  0  0  0  0  # atno 10718 bound_to 10713
  153.5118  135.3616  155.2590 H   0  0  0  0  0  0  0  0  0  0  0  0  # atno 10763 bound_to 10752
  154.8741  135.4024  154.3360 H   0  0  0  0  0  0  0  0  0  0  0  0  # atno 10764 bound_to 10752
  153.4015  135.7075  153.6490 H   0  0  0  0  0  0  0  0  0  0  0  0  # atno 10765 bound_to 10752
  139.9238  134.9639  156.8002 H   0  0  0  0  0  0  0  0  0  0  0  0  # atno 11005 bound_to 11000
  145.6247  141.0316  143.1895 LP  0  0  0  0  0  0  0  0  0  0  0  0  # atno 17320 bound_to 7965
  144.7282  139.7807  143.7357 LP  0  0  0  0  0  0  0  0  0  0  0  0  # atno 17321 bound_to 7965
  139.8747  143.7148  152.3163 LP  0  0  0  0  0  0  0  0  0  0  0  0  # atno 17342 bound_to 10162
  139.7409  144.7559  151.0654 LP  0  0  0  0  0  0  0  0  0  0  0  0  # atno 17343 bound_to 10162
  155.9848  130.3988  150.3291 LP  0  0  0  0  0  0  0  0  0  0  0  0  # atno 17370 bound_to 10713
  157.1428  131.0301  151.2920 LP  0  0  0  0  0  0  0  0  0  0  0  0  # atno 17371 bound_to 10713
  140.6396  133.9831  155.7701 LP  0  0  0  0  0  0  0  0  0  0  0  0  # atno 17394 bound_to 11000
  141.0780  134.0105  157.3429 LP  0  0  0  0  0  0  0  0  0  0  0  0  # atno 17395 bound_to 11000

$$$$
