AV-unprocessed.smi:3227|AV-procd|sdf|12317|dock1
  -GOLD-   2272018163D 1   1.00000     0.00000
 Structure written by MMmdl.
 37 38  0  0  0  0  0  0  0  0  1 V2000
  151.0028  138.9008  154.7233 C   0  0  0  0  0  0  0  0  0  0  0  0
  150.7445  140.2996  155.0350 N   0  0  0  0  0  0  0  0  0  0  0  0
  151.4479  140.8408  156.1913 C   0  0  0  0  0  0  0  0  0  0  0  0
  149.3849  140.6494  154.9102 C   0  0  0  0  0  0  0  0  0  0  0  0
  149.0622  141.5381  153.9383 N   0  0  0  0  0  0  0  0  0  0  0  0
  147.7747  141.9139  153.7993 C   0  0  0  0  0  0  0  0  0  0  0  0
  146.7387  141.4233  154.6127 C   0  0  0  0  0  0  0  0  0  0  0  0
  147.0628  140.4991  155.6219 C   0  0  0  0  0  0  0  0  0  0  0  0
  148.4124  140.1047  155.7923 C   0  0  0  0  0  0  0  0  0  0  0  0
  148.8071  139.1384  156.7615 N   0  0  0  0  0  0  0  0  0  0  0  0
  148.1878  138.8034  157.9078 C   0  0  0  0  0  0  0  0  0  0  0  0
  147.1495  139.3204  158.3194 O   0  0  0  0  0  0  0  0  0  0  0  0
  148.8695  137.7230  158.7447 C   0  0  0  0  0  0  0  0  0  0  0  0
  148.1484  137.5669  159.9554 O   0  0  0  0  0  0  0  0  0  0  0  0
  148.3374  136.2899  160.5394 C   0  0  0  0  0  0  0  0  0  0  0  0
  147.3039  136.0852  161.6263 C   0  0  0  0  0  0  0  0  0  0  0  0
  147.6334  136.3771  163.0728 C   0  0  0  0  0  0  0  0  0  0  0  0
  147.4548  134.9520  162.6161 C   0  0  0  0  0  0  0  0  0  0  0  0
  150.6671  138.6455  153.7183 H   0  0  0  0  0  0  0  0  0  0  0  0
  150.4875  138.2508  155.4315 H   0  0  0  0  0  0  0  0  0  0  0  0
  152.0705  138.6883  154.7821 H   0  0  0  0  0  0  0  0  0  0  0  0
  151.2005  141.8923  156.3418 H   0  0  0  0  0  0  0  0  0  0  0  0
  152.5256  140.7688  156.0436 H   0  0  0  0  0  0  0  0  0  0  0  0
  151.1907  140.2899  157.0966 H   0  0  0  0  0  0  0  0  0  0  0  0
  147.5637  142.6220  153.0116 H   0  0  0  0  0  0  0  0  0  0  0  0
  145.7181  141.7414  154.4606 H   0  0  0  0  0  0  0  0  0  0  0  0
  146.2701  140.0951  156.2326 H   0  0  0  0  0  0  0  0  0  0  0  0
  149.7081  138.7106  156.6029 H   0  0  0  0  0  0  0  0  0  0  0  0
  148.8758  136.7892  158.1803 H   0  0  0  0  0  0  0  0  0  0  0  0
  149.9065  137.9936  158.9525 H   0  0  0  0  0  0  0  0  0  0  0  0
  148.2181  135.5084  159.7875 H   0  0  0  0  0  0  0  0  0  0  0  0
  149.3406  136.2025  160.9597 H   0  0  0  0  0  0  0  0  0  0  0  0
  146.2849  136.3002  161.3100 H   0  0  0  0  0  0  0  0  0  0  0  0
  148.6438  136.7065  163.3069 H   0  0  0  0  0  0  0  0  0  0  0  0
  146.8477  136.8111  163.6878 H   0  0  0  0  0  0  0  0  0  0  0  0
  146.5500  134.4335  162.9273 H   0  0  0  0  0  0  0  0  0  0  0  0
  148.3470  134.3325  162.5477 H   0  0  0  0  0  0  0  0  0  0  0  0
  1  2  1  0  0  0  0
  1 19  1  0  0  0  0
  1 20  1  0  0  0  0
  1 21  1  0  0  0  0
  2  3  1  0  0  0  0
  2  4  1  0  0  0  0
  3 22  1  0  0  0  0
  3 23  1  0  0  0  0
  3 24  1  0  0  0  0
  4  9  1  0  0  0  0
  4  5  2  0  0  0  0
  5  6  1  0  0  0  0
  6  7  2  0  0  0  0
  6 25  1  0  0  0  0
  7  8  1  0  0  0  0
  7 26  1  0  0  0  0
  8  9  2  0  0  0  0
  8 27  1  0  0  0  0
  9 10  1  0  0  0  0
 10 11  1  0  0  0  0
 10 28  1  0  0  0  0
 11 12  2  0  0  0  0
 11 13  1  0  0  0  0
 13 14  1  0  0  0  0
 13 29  1  0  0  0  0
 13 30  1  0  0  0  0
 14 15  1  0  0  0  0
 15 16  1  0  0  0  0
 15 31  1  0  0  0  0
 15 32  1  0  0  0  0
 16 18  1  0  0  0  0
 16 17  1  0  0  0  0
 16 33  1  0  0  0  0
 17 18  1  0  0  0  0
 17 34  1  0  0  0  0
 17 35  1  0  0  0  0
 18 36  1  0  0  0  0
 18 37  1  0  0  0  0
M  END
> <s_m_source_file>
AV-unprocessed.smi

> <i_m_source_file_index>
3227

> <i_lp_mmshare_version>
43012

> <i_f3d_flags>
0

> <s_epik_input>
W0NIM11OKFtDSDNdKWMxbltjSF1bY0hdW2NIXWMxW05IXUMoPU8pW0NIMl1PW0NIMl1bQ0hdMltDSDJdW0NIMl0y

> <s_epik_cmdline>
J2VwaWtfcHl0aG9uJywgJy1waCcsICc3LjAnLCAnLXRuJywgJzgnLCAnLW1hJywgJzIwMCcsICctbWV0YWxfYmluZGluZycsICctaW1hZScsICc8aW5maWxlLm1hZT4nLCAnLW9tYWUnLCAnPG91dGZpbGUubWFlPic=

> <r_lp_tautomer_probability>
1

> <r_epik_Ionization_Penalty>
0.25353

> <r_epik_Ionization_Penalty_Charging>
0

> <r_epik_Ionization_Penalty_Neutral>
0.25353

> <r_epik_State_Penalty>
0.244789

> <r_epik_Charging_Adjusted_Penalty>
0.244789

> <i_epik_Tot_Q>
0

> <i_epik_Tot_abs_Q>
0

> <r_epik_Metal_State_Penalty>
0.170372

> <b_epik_Metal_Only>
0

> <s_lp_Force_Field>
OPLS_2005

> <r_lp_Energy>
22.5303

> <b_lp_Chiralities_Consistent>
1

> <s_lp_Variant>
AV-unprocessed.smi:3227-1

> <Gold.Version>
5.8.1

> <Gold.Id.Protein>
6NUR|6NUR_protein|mol2

> <Gold.PLP.Fitness>
42.4264

> <Gold.PLP.PLP>
-36.1994

> <Gold.PLP.part.hbond>
-5.5932

> <Gold.PLP.part.metal>
0.0000

> <Gold.PLP.part.buried>
-5.4766

> <Gold.PLP.part.nonpolar>
-26.1381

> <Gold.PLP.part.repulsive>
0.3843

> <Gold.PLP.ligand.clash>
0.0000

> <Gold.PLP.ligand.torsion>
0.7620

> <Gold.PLP.Chemscore.Hbond>
2.2641

> <Gold.PLP.Chemscore.CHOScore>
0.0000

> <Gold.PLP.Chemscore.Metal>
0.0000

> <Gold.Chemscore.Hbonds>
donor molecule, donor type, donor heavy atom, donor atom, acceptor molecule, acceptor atom, score
      P1  H  6931  6943       L1    14  0.03
      P1  H  6934  6947       L1    14  0.54
      P1  H  7989  7998       L1     2  0.60
      P1  H  8011  8017       L1     5  0.62

> <Gold.PLP.Chemscore.Internal.Correction>
0.9587

> <Gold.Rescore>
     Score         DG    S(hbond)    S(metal)    S(lipo)     H(rot)  DE(clash)    DE(int)     intcor
      9.20     -12.10       0.74        0.00      72.08       1.68       0.01       2.89       ----

> <Gold.Chemscore.Fitness>
9.1954

> <Gold.Chemscore.DG>
-12.1002

> <Gold.Chemscore.ZeroCoef>
-5.4800

> <Gold.Chemscore.Hbond>
0.7425

> <Gold.Chemscore.Metal>
0.0000

> <Gold.Chemscore.Lipo>
72.0839

> <Gold.Chemscore.Internal_Hbond>
0.0000

> <Gold.Chemscore.DEClash>
0.0102

> <Gold.Chemscore.DEInternal>
2.8946

> <Gold.Chemscore.Rot>
1.6771

> <Gold.Chemscore.Internal.Correction>
   9.000000E+99

> <Gold.Chemscore.Hbonds>
donor molecule, donor type, donor heavy atom, donor atom, acceptor molecule, acceptor atom, score
      P1  H  6934  6947       L1    14  0.52
      P1  H  7989  7998       L1     2  0.02
      P1  H  8011  8017       L1     5  0.12

> <Gold.Chemscore.Hbond.Weighted>
-2.4799

> <Gold.Chemscore.Metal.Weighted>
-0.0000

> <Gold.Chemscore.Lipo.Weighted>
-8.4338

> <Gold.Chemscore.Internal_Hbond.Weighted>
0.0000

> <Gold.Chemscore.DEClash.Weighted>
0.0102

> <Gold.Chemscore.DEInternal.Weighted>
2.8946

> <Gold.Chemscore.Rot.Weighted>
4.2935

> <Gold.Chemscore.Internal.Correction.Weighted>
   9.000000E+99

> <Gold.Protein.RotatedTorsions>
[ 6907 6896 6895 6894 ] final  -32.17 input  -60.11 | X-H torsion
[ 7974 7965 7964 7962 ] final   50.97 input  175.53 | X-H torsion
[ 8008 7997 7996 7995 ] final   22.61 input   59.86 | X-H torsion
[ 10167 10162 10161 10158 ] final   66.74 input  -65.29 | X-H torsion
[ 10718 10713 10712 10709 ] final   73.72 input   66.30 | X-H torsion
[ 10763 10752 10751 10750 ] final  -32.93 input  -60.55 | X-H torsion
[ 11005 11000 10999 10996 ] final   42.70 input  -57.11 | X-H torsion

> <Gold.Protein.ActiveResidues>
 VAL166  LYS551  ARG553  GLY616  TRP617  ASP618  TYR619  PRO620  LYS621  CYS622 
 ASP623  PHE694  ASN695  SER759  ASP760  ASP761  ALA762  ILE779  LEU786  VAL792 
 PHE793  MET794  SER795  GLU796  ALA797  LYS798  CYS799  TRP800  GLU811  SER814 

> <Gold.Protein.RotatedAtoms>
  151.0823  134.9866  159.8361 H   0  0  0  0  0  0  0  0  0  0  0  0  # atno 6907 bound_to 6896
  152.5421  134.2166  159.8781 H   0  0  0  0  0  0  0  0  0  0  0  0  # atno 6908 bound_to 6896
  151.2197  133.4465  159.2634 H   0  0  0  0  0  0  0  0  0  0  0  0  # atno 6909 bound_to 6896
  145.9960  139.4388  143.0044 H   0  0  0  0  0  0  0  0  0  0  0  0  # atno 7974 bound_to 7965
  154.9683  140.3087  155.4999 H   0  0  0  0  0  0  0  0  0  0  0  0  # atno 8008 bound_to 7997
  156.2969  140.2288  156.4713 H   0  0  0  0  0  0  0  0  0  0  0  0  # atno 8009 bound_to 7997
  154.7900  140.0440  157.1182 H   0  0  0  0  0  0  0  0  0  0  0  0  # atno 8010 bound_to 7997
  140.0971  144.4936  150.7061 H   0  0  0  0  0  0  0  0  0  0  0  0  # atno 10167 bound_to 10162
  157.6560  130.9642  150.1108 H   0  0  0  0  0  0  0  0  0  0  0  0  # atno 10718 bound_to 10713
  153.8219  135.6873  153.4826 H   0  0  0  0  0  0  0  0  0  0  0  0  # atno 10763 bound_to 10752
  153.1564  135.4597  154.9708 H   0  0  0  0  0  0  0  0  0  0  0  0  # atno 10764 bound_to 10752
  154.7924  135.3306  154.7690 H   0  0  0  0  0  0  0  0  0  0  0  0  # atno 10765 bound_to 10752
  140.1714  134.4217  155.8255 H   0  0  0  0  0  0  0  0  0  0  0  0  # atno 11005 bound_to 11000
  145.7559  140.9954  143.1225 LP  0  0  0  0  0  0  0  0  0  0  0  0  # atno 17320 bound_to 7965
  144.6904  139.9271  143.7470 LP  0  0  0  0  0  0  0  0  0  0  0  0  # atno 17321 bound_to 7965
  140.6997  143.2427  151.4898 LP  0  0  0  0  0  0  0  0  0  0  0  0  # atno 17342 bound_to 10162
  139.5692  144.1970  152.1810 LP  0  0  0  0  0  0  0  0  0  0  0  0  # atno 17343 bound_to 10162
  156.2005  130.3660  149.8794 LP  0  0  0  0  0  0  0  0  0  0  0  0  # atno 17370 bound_to 10713
  156.6698  130.8816  151.3560 LP  0  0  0  0  0  0  0  0  0  0  0  0  # atno 17371 bound_to 10713
  141.2217  133.6958  156.7771 LP  0  0  0  0  0  0  0  0  0  0  0  0  # atno 17394 bound_to 11000
  140.2372  134.8641  157.3537 LP  0  0  0  0  0  0  0  0  0  0  0  0  # atno 17395 bound_to 11000

$$$$
