AV-unprocessed.smi:1224|AV-procd|sdf|5133|dock3
  -GOLD-   22720 4193D 1   1.00000     0.00000
 Structure written by MMmdl.
 43 45  0  0  0  0  0  0  0  0  1 V2000
  152.8359  143.0394  161.1934 C   0  0  0  0  0  0  0  0  0  0  0  0
  152.2453  142.6012  159.8647 C   0  0  0  0  0  0  0  0  0  0  0  0
  152.7092  141.4081  159.2661 C   0  0  0  0  0  0  0  0  0  0  0  0
  152.1855  140.9660  158.0314 C   0  0  0  0  0  0  0  0  0  0  0  0
  152.4898  139.8471  157.2752 N   0  0  0  0  0  0  0  0  0  0  0  0
  151.6701  139.9935  156.2383 C   0  0  0  0  0  0  0  0  0  0  0  0
  150.8626  141.0718  156.2379 N   0  0  0  0  0  0  0  0  0  0  0  0
  149.8873  141.4374  155.2262 C   0  0  0  0  0  0  0  0  0  0  0  0
  148.8886  140.3021  154.9260 C   0  0  1  0  0  0  0  0  0  0  0  0
  148.2927  139.9293  156.1509 O   0  0  0  0  0  0  0  0  0  0  0  0
  147.7708  140.7065  153.9453 C   0  0  0  0  0  0  0  0  0  0  0  0
  147.0189  141.8526  154.4467 N   0  0  0  0  0  0  0  0  0  0  0  0
  146.5272  142.7230  153.3849 C   0  0  0  0  0  0  0  0  0  0  0  0
  145.4832  143.6685  153.8769 C   0  0  0  0  0  0  0  0  0  0  0  0
  144.8667  143.6758  155.1026 C   0  0  0  0  0  0  0  0  0  0  0  0
  143.9096  144.7234  155.2428 C   0  0  0  0  0  0  0  0  0  0  0  0
  143.8079  145.5026  154.1210 C   0  0  0  0  0  0  0  0  0  0  0  0
  144.8902  144.9628  152.8667 S   0  0  0  0  0  0  0  0  0  0  0  0
  151.1751  141.7551  157.4081 C   0  0  0  0  0  0  0  0  0  0  0  0
  150.7069  142.9450  157.9925 C   0  0  0  0  0  0  0  0  0  0  0  0
  151.2416  143.3728  159.2258 C   0  0  0  0  0  0  0  0  0  0  0  0
  150.7287  144.6590  159.8490 C   0  0  0  0  0  0  0  0  0  0  0  0
  153.5929  142.3372  161.5441 H   0  0  0  0  0  0  0  0  0  0  0  0
  152.0583  143.1001  161.9552 H   0  0  0  0  0  0  0  0  0  0  0  0
  153.3059  144.0185  161.0990 H   0  0  0  0  0  0  0  0  0  0  0  0
  153.4740  140.8202  159.7517 H   0  0  0  0  0  0  0  0  0  0  0  0
  151.6494  139.2706  155.4357 H   0  0  0  0  0  0  0  0  0  0  0  0
  149.3574  142.3249  155.5747 H   0  0  0  0  0  0  0  0  0  0  0  0
  150.4183  141.7268  154.3179 H   0  0  0  0  0  0  0  0  0  0  0  0
  149.4373  139.4445  154.5339 H   0  0  0  0  0  0  0  0  0  0  0  0
  147.3554  140.0152  156.0629 H   0  0  0  0  0  0  0  0  0  0  0  0
  148.1840  140.9134  152.9571 H   0  0  0  0  0  0  0  0  0  0  0  0
  147.0785  139.8746  153.8175 H   0  0  0  0  0  0  0  0  0  0  0  0
  146.2331  141.5191  154.9959 H   0  0  0  0  0  0  0  0  0  0  0  0
  147.3535  143.2941  152.9603 H   0  0  0  0  0  0  0  0  0  0  0  0
  146.1208  142.1212  152.5712 H   0  0  0  0  0  0  0  0  0  0  0  0
  145.0685  142.9709  155.8959 H   0  0  0  0  0  0  0  0  0  0  0  0
  143.3379  144.8662  156.1479 H   0  0  0  0  0  0  0  0  0  0  0  0
  143.1674  146.3564  153.9552 H   0  0  0  0  0  0  0  0  0  0  0  0
  149.9422  143.5231  157.4952 H   0  0  0  0  0  0  0  0  0  0  0  0
  149.9637  145.1247  159.2270 H   0  0  0  0  0  0  0  0  0  0  0  0
  151.5414  145.3753  159.9714 H   0  0  0  0  0  0  0  0  0  0  0  0
  150.2899  144.4615  160.8273 H   0  0  0  0  0  0  0  0  0  0  0  0
  1  2  1  0  0  0  0
  1 23  1  0  0  0  0
  1 24  1  0  0  0  0
  1 25  1  0  0  0  0
  2 21  1  0  0  0  0
  2  3  2  0  0  0  0
  3  4  1  0  0  0  0
  3 26  1  0  0  0  0
  4 19  2  0  0  0  0
  4  5  1  0  0  0  0
  5  6  2  0  0  0  0
  6  7  1  0  0  0  0
  6 27  1  0  0  0  0
  7  8  1  0  0  0  0
  7 19  1  0  0  0  0
  8  9  1  0  0  0  0
  8 28  1  0  0  0  0
  8 29  1  0  0  0  0
  9 10  1  0  0  0  0
  9 11  1  0  0  0  0
  9 30  1  0  0  0  0
 10 31  1  0  0  0  0
 11 12  1  0  0  0  0
 11 32  1  0  0  0  0
 11 33  1  0  0  0  0
 12 13  1  0  0  0  0
 12 34  1  0  0  0  0
 13 14  1  0  0  0  0
 13 35  1  0  0  0  0
 13 36  1  0  0  0  0
 14 18  1  0  0  0  0
 14 15  2  0  0  0  0
 15 16  1  0  0  0  0
 15 37  1  0  0  0  0
 16 17  2  0  0  0  0
 16 38  1  0  0  0  0
 17 18  1  0  0  0  0
 17 39  1  0  0  0  0
 19 20  1  0  0  0  0
 20 21  2  0  0  0  0
 20 40  1  0  0  0  0
 21 22  1  0  0  0  0
 22 41  1  0  0  0  0
 22 42  1  0  0  0  0
 22 43  1  0  0  0  0
M  END
> <s_m_source_file>
AV-unprocessed.smi

> <i_m_source_file_index>
1224

> <i_lp_mmshare_version>
43012

> <i_f3d_flags>
0

> <s_epik_input>
W0NIM11jKFtjSF0xKWMoW0NIM10pW2NIXWMoYzEyKW4oW2NIXW4yKVtDSDJdW0NASF0oW09IXSlbQ0gyXVtOSF1bQ0gyXWMzW2NIXVtjSF1bY0hdczM=

> <s_epik_cmdline>
J2VwaWtfcHl0aG9uJywgJy1waCcsICc3LjAnLCAnLXRuJywgJzgnLCAnLW1hJywgJzIwMCcsICctbWV0YWxfYmluZGluZycsICctaW1hZScsICc8aW5maWxlLm1hZT4nLCAnLW9tYWUnLCAnPG91dGZpbGUubWFlPic=

> <r_epik_Ionization_Penalty>
1.55566

> <r_epik_Ionization_Penalty_Charging>
0

> <r_epik_Ionization_Penalty_Neutral>
1.55566

> <r_epik_State_Penalty>
1.63945

> <r_epik_Charging_Adjusted_Penalty>
1.63945

> <i_epik_Tot_Q>
0

> <i_epik_Tot_abs_Q>
0

> <r_epik_Metal_State_Penalty>
1.52326

> <b_epik_Metal_Only>
0

> <s_lp_Force_Field>
OPLS_2005

> <r_lp_Energy>
15.3814

> <b_lp_Chiralities_Consistent>
1

> <s_lp_Variant>
AV-unprocessed.smi:1224-6

> <Gold.Version>
5.8.1

> <Gold.Id.Protein>
6NUR|6NUR_protein|mol2

> <Gold.PLP.Fitness>
52.4754

> <Gold.PLP.PLP>
-50.2029

> <Gold.PLP.part.hbond>
-1.0000

> <Gold.PLP.part.metal>
0.0000

> <Gold.PLP.part.buried>
-8.1056

> <Gold.PLP.part.nonpolar>
-41.7660

> <Gold.PLP.part.repulsive>
0.0000

> <Gold.PLP.ligand.clash>
0.0000

> <Gold.PLP.ligand.torsion>
0.3942

> <Gold.PLP.Chemscore.Hbond>
1.0000

> <Gold.PLP.Chemscore.CHOScore>
0.0000

> <Gold.PLP.Chemscore.Metal>
0.0000

> <Gold.Chemscore.Hbonds>
donor molecule, donor type, donor heavy atom, donor atom, acceptor molecule, acceptor atom, score
      P1  H  7997  8009       L1     5  1.00

> <Gold.PLP.Chemscore.Internal.Correction>
0.0610

> <Gold.Rescore>
     Score         DG    S(hbond)    S(metal)    S(lipo)     H(rot)  DE(clash)    DE(int)     intcor
     17.84     -18.30       0.84        0.00     136.36       2.32       0.18       0.29       ----

> <Gold.Chemscore.Fitness>
17.8356

> <Gold.Chemscore.DG>
-18.2991

> <Gold.Chemscore.ZeroCoef>
-5.4800

> <Gold.Chemscore.Hbond>
0.8375

> <Gold.Chemscore.Metal>
0.0000

> <Gold.Chemscore.Lipo>
136.3627

> <Gold.Chemscore.Internal_Hbond>
0.0000

> <Gold.Chemscore.DEClash>
0.1777

> <Gold.Chemscore.DEInternal>
0.2858

> <Gold.Chemscore.Rot>
2.3173

> <Gold.Chemscore.Internal.Correction>
   9.000000E+99

> <Gold.Chemscore.Hbonds>
donor molecule, donor type, donor heavy atom, donor atom, acceptor molecule, acceptor atom, score
      P1  H  7997  8009       L1     5  0.39

> <Gold.Chemscore.Hbond.Weighted>
-2.7971

> <Gold.Chemscore.Metal.Weighted>
-0.0000

> <Gold.Chemscore.Lipo.Weighted>
-15.9544

> <Gold.Chemscore.Internal_Hbond.Weighted>
0.0000

> <Gold.Chemscore.DEClash.Weighted>
0.1777

> <Gold.Chemscore.DEInternal.Weighted>
0.2858

> <Gold.Chemscore.Rot.Weighted>
5.9324

> <Gold.Chemscore.Internal.Correction.Weighted>
   9.000000E+99

> <Gold.Protein.RotatedTorsions>
[ 6907 6896 6895 6894 ] final   62.37 input  -60.11 | X-H torsion
[ 7974 7965 7964 7962 ] final  126.34 input  175.53 | X-H torsion
[ 8008 7997 7996 7995 ] final  173.21 input   59.86 | X-H torsion
[ 10167 10162 10161 10158 ] final    8.73 input  -65.29 | X-H torsion
[ 10718 10713 10712 10709 ] final   63.64 input   66.30 | X-H torsion
[ 10763 10752 10751 10750 ] final  -49.25 input  -60.55 | X-H torsion
[ 11005 11000 10999 10996 ] final  148.76 input  -57.11 | X-H torsion

> <Gold.Protein.ActiveResidues>
 VAL166  LYS551  ARG553  GLY616  TRP617  ASP618  TYR619  PRO620  LYS621  CYS622 
 ASP623  PHE694  ASN695  SER759  ASP760  ASP761  ALA762  ILE779  LEU786  VAL792 
 PHE793  MET794  SER795  GLU796  ALA797  LYS798  CYS799  TRP800  GLU811  SER814 

> <Gold.Protein.RotatedAtoms>
  152.4166  134.6029  160.0004 H   0  0  0  0  0  0  0  0  0  0  0  0  # atno 6907 bound_to 6896
  151.6191  133.3335  159.3092 H   0  0  0  0  0  0  0  0  0  0  0  0  # atno 6908 bound_to 6896
  150.8055  134.7216  159.6706 H   0  0  0  0  0  0  0  0  0  0  0  0  # atno 6909 bound_to 6896
  145.0628  139.3791  143.4997 H   0  0  0  0  0  0  0  0  0  0  0  0  # atno 7974 bound_to 7965
  156.1098  140.1466  156.9353 H   0  0  0  0  0  0  0  0  0  0  0  0  # atno 8008 bound_to 7997
  154.4759  140.0894  156.7304 H   0  0  0  0  0  0  0  0  0  0  0  0  # atno 8009 bound_to 7997
  155.4615  140.3438  155.4315 H   0  0  0  0  0  0  0  0  0  0  0  0  # atno 8010 bound_to 7997
  140.6297  143.8021  150.7279 H   0  0  0  0  0  0  0  0  0  0  0  0  # atno 10167 bound_to 10162
  157.5985  130.9116  149.9741 H   0  0  0  0  0  0  0  0  0  0  0  0  # atno 10718 bound_to 10713
  154.0910  135.6577  153.4852 H   0  0  0  0  0  0  0  0  0  0  0  0  # atno 10763 bound_to 10752
  153.0321  135.5202  154.7380 H   0  0  0  0  0  0  0  0  0  0  0  0  # atno 10764 bound_to 10752
  154.6504  135.3000  154.9963 H   0  0  0  0  0  0  0  0  0  0  0  0  # atno 10765 bound_to 10752
  140.0987  134.8996  157.1763 H   0  0  0  0  0  0  0  0  0  0  0  0  # atno 11005 bound_to 11000
  146.3525  140.0335  142.8648 LP  0  0  0  0  0  0  0  0  0  0  0  0  # atno 17320 bound_to 7965
  145.1387  140.9559  143.4501 LP  0  0  0  0  0  0  0  0  0  0  0  0  # atno 17321 bound_to 7965
  140.1630  143.4259  152.2054 LP  0  0  0  0  0  0  0  0  0  0  0  0  # atno 17342 bound_to 10162
  139.5513  144.7339  151.4428 LP  0  0  0  0  0  0  0  0  0  0  0  0  # atno 17343 bound_to 10162
  156.1052  130.3653  150.0146 LP  0  0  0  0  0  0  0  0  0  0  0  0  # atno 17370 bound_to 10713
  156.8254  130.9373  151.3639 LP  0  0  0  0  0  0  0  0  0  0  0  0  # atno 17371 bound_to 10713
  140.3250  134.2874  155.7239 LP  0  0  0  0  0  0  0  0  0  0  0  0  # atno 17394 bound_to 11000
  141.2099  133.7734  156.9964 LP  0  0  0  0  0  0  0  0  0  0  0  0  # atno 17395 bound_to 11000

$$$$
