AV-unprocessed.smi:1368|AV-procd|sdf|5576|dock7
  -GOLD-   22720 5173D 1   1.00000     0.00000
 Structure written by MMmdl.
 46 48  0  0  0  0  0  0  0  0  1 V2000
  143.7623  133.4807  150.7743 C   0  0  0  0  0  0  0  0  0  0  0  0
  144.5265  134.4405  151.6812 C   0  0  0  0  0  0  0  0  0  0  0  0
  144.7174  134.1326  152.8567 O   0  0  0  0  0  0  0  0  0  0  0  0
  144.9653  135.5710  151.0965 N   0  0  0  0  0  0  0  0  0  0  0  0
  145.6880  136.6537  151.6694 C   0  0  0  0  0  0  0  0  0  0  0  0
  146.4379  137.4626  150.7922 C   0  0  0  0  0  0  0  0  0  0  0  0
  147.1666  138.5636  151.2807 C   0  0  0  0  0  0  0  0  0  0  0  0
  147.1555  138.8859  152.6522 C   0  0  0  0  0  0  0  0  0  0  0  0
  147.8981  139.9789  153.0452 O   0  0  0  0  0  0  0  0  0  0  0  0
  147.7339  140.4608  154.3726 C   0  0  0  0  0  0  0  0  0  0  0  0
  149.0927  140.9461  154.9017 C   0  0  1  0  0  0  0  0  0  0  0  0
  149.4992  142.0607  154.1317 O   0  0  0  0  0  0  0  0  0  0  0  0
  149.0121  141.3569  156.3862 C   0  0  0  0  0  0  0  0  0  0  0  0
  150.2812  141.2120  157.0874 N   0  0  0  0  0  0  0  0  0  0  0  0
  151.1126  140.1412  157.0950 C   0  0  0  0  0  0  0  0  0  0  0  0
  150.8015  138.8938  156.3304 C   0  0  0  0  0  0  0  0  0  0  0  0
  152.2183  140.2679  157.8288 N   0  0  0  0  0  0  0  0  0  0  0  0
  152.0921  141.5416  158.3488 C   0  0  0  0  0  0  0  0  0  0  0  0
  152.9421  142.2697  159.2121 C   0  0  0  0  0  0  0  0  0  0  0  0
  152.5997  143.5771  159.6154 C   0  0  0  0  0  0  0  0  0  0  0  0
  151.4056  144.1743  159.1622 C   0  0  0  0  0  0  0  0  0  0  0  0
  150.5438  143.4659  158.3031 C   0  0  0  0  0  0  0  0  0  0  0  0
  150.8895  142.1609  157.9038 C   0  0  0  0  0  0  0  0  0  0  0  0
  146.3890  138.0826  153.5328 C   0  0  0  0  0  0  0  0  0  0  0  0
  145.6594  136.9806  153.0461 C   0  0  0  0  0  0  0  0  0  0  0  0
  143.2522  134.0160  149.9726 H   0  0  0  0  0  0  0  0  0  0  0  0
  143.0120  132.9321  151.3447 H   0  0  0  0  0  0  0  0  0  0  0  0
  144.4470  132.7598  150.3266 H   0  0  0  0  0  0  0  0  0  0  0  0
  144.8037  135.6403  150.1023 H   0  0  0  0  0  0  0  0  0  0  0  0
  146.4624  137.2391  149.7353 H   0  0  0  0  0  0  0  0  0  0  0  0
  147.7408  139.1683  150.5939 H   0  0  0  0  0  0  0  0  0  0  0  0
  146.9911  141.2592  154.4239 H   0  0  0  0  0  0  0  0  0  0  0  0
  147.3802  139.6359  154.9936 H   0  0  0  0  0  0  0  0  0  0  0  0
  149.8323  140.1530  154.7892 H   0  0  0  0  0  0  0  0  0  0  0  0
  149.5444  142.8154  154.6987 H   0  0  0  0  0  0  0  0  0  0  0  0
  148.6855  142.3941  156.4723 H   0  0  0  0  0  0  0  0  0  0  0  0
  148.2582  140.7623  156.9025 H   0  0  0  0  0  0  0  0  0  0  0  0
  151.6046  138.1651  156.4457 H   0  0  0  0  0  0  0  0  0  0  0  0
  150.6910  139.1153  155.2692 H   0  0  0  0  0  0  0  0  0  0  0  0
  149.8783  138.4459  156.6978 H   0  0  0  0  0  0  0  0  0  0  0  0
  153.8594  141.8214  159.5643 H   0  0  0  0  0  0  0  0  0  0  0  0
  153.2567  144.1245  160.2754 H   0  0  0  0  0  0  0  0  0  0  0  0
  151.1516  145.1769  159.4738 H   0  0  0  0  0  0  0  0  0  0  0  0
  149.6297  143.9208  157.9516 H   0  0  0  0  0  0  0  0  0  0  0  0
  146.3389  138.2925  154.5902 H   0  0  0  0  0  0  0  0  0  0  0  0
  145.0743  136.4103  153.7503 H   0  0  0  0  0  0  0  0  0  0  0  0
  1  2  1  0  0  0  0
  1 26  1  0  0  0  0
  1 27  1  0  0  0  0
  1 28  1  0  0  0  0
  2  3  2  0  0  0  0
  2  4  1  0  0  0  0
  4  5  1  0  0  0  0
  4 29  1  0  0  0  0
  5 25  1  0  0  0  0
  5  6  2  0  0  0  0
  6  7  1  0  0  0  0
  6 30  1  0  0  0  0
  7  8  2  0  0  0  0
  7 31  1  0  0  0  0
  8  9  1  0  0  0  0
  8 24  1  0  0  0  0
  9 10  1  0  0  0  0
 10 11  1  0  0  0  0
 10 32  1  0  0  0  0
 10 33  1  0  0  0  0
 11 12  1  0  0  0  0
 11 13  1  0  0  0  0
 11 34  1  0  0  0  0
 12 35  1  0  0  0  0
 13 14  1  0  0  0  0
 13 36  1  0  0  0  0
 13 37  1  0  0  0  0
 14 23  1  0  0  0  0
 14 15  1  0  0  0  0
 15 16  1  0  0  0  0
 15 17  2  0  0  0  0
 16 38  1  0  0  0  0
 16 39  1  0  0  0  0
 16 40  1  0  0  0  0
 17 18  1  0  0  0  0
 18 23  2  0  0  0  0
 18 19  1  0  0  0  0
 19 20  2  0  0  0  0
 19 41  1  0  0  0  0
 20 21  1  0  0  0  0
 20 42  1  0  0  0  0
 21 22  2  0  0  0  0
 21 43  1  0  0  0  0
 22 23  1  0  0  0  0
 22 44  1  0  0  0  0
 24 25  2  0  0  0  0
 24 45  1  0  0  0  0
 25 46  1  0  0  0  0
M  END
> <s_m_source_file>
AV-unprocessed.smi

> <i_m_source_file_index>
1368

> <i_lp_mmshare_version>
43012

> <i_f3d_flags>
0

> <s_epik_input>
W0NIM11DKD1PKVtOSF1jMVtjSF1bY0hdYyhbY0hdW2NIXTEpT1tDSDJdW0NASF0oW09IXSlbQ0gyXW4oYyhuMilbQ0gzXSljKGMyMylbY0hdW2NIXVtjSF1bY0hdMw==

> <s_epik_cmdline>
J2VwaWtfcHl0aG9uJywgJy1waCcsICc3LjAnLCAnLXRuJywgJzgnLCAnLW1hJywgJzIwMCcsICctbWV0YWxfYmluZGluZycsICctaW1hZScsICc8aW5maWxlLm1hZT4nLCAnLW9tYWUnLCAnPG91dGZpbGUubWFlPic=

> <r_lp_tautomer_probability>
1

> <r_epik_Ionization_Penalty>
0.119634

> <r_epik_Ionization_Penalty_Charging>
0

> <r_epik_Ionization_Penalty_Neutral>
0.119634

> <r_epik_State_Penalty>
0.10919

> <r_epik_Charging_Adjusted_Penalty>
0.10919

> <i_epik_Tot_Q>
0

> <i_epik_Tot_abs_Q>
0

> <r_epik_Metal_State_Penalty>
0.0906856

> <b_epik_Metal_Only>
0

> <s_lp_Force_Field>
OPLS_2005

> <r_lp_Energy>
21.7849

> <b_lp_Chiralities_Consistent>
1

> <s_lp_Variant>
AV-unprocessed.smi:1368-2

> <Gold.Version>
5.8.1

> <Gold.Id.Protein>
6NUR|6NUR_protein|mol2

> <Gold.PLP.Fitness>
45.0904

> <Gold.PLP.PLP>
-43.6911

> <Gold.PLP.part.hbond>
-2.1099

> <Gold.PLP.part.metal>
0.0000

> <Gold.PLP.part.buried>
0.8841

> <Gold.PLP.part.nonpolar>
-43.1258

> <Gold.PLP.part.repulsive>
1.2760

> <Gold.PLP.ligand.clash>
0.0000

> <Gold.PLP.ligand.torsion>
0.9203

> <Gold.PLP.Chemscore.Hbond>
1.0528

> <Gold.PLP.Chemscore.CHOScore>
0.0000

> <Gold.PLP.Chemscore.Metal>
0.0000

> <Gold.Chemscore.Hbonds>
donor molecule, donor type, donor heavy atom, donor atom, acceptor molecule, acceptor atom, score
      L1  H    12    35       P1  8028  0.54
      P1  H  8011  8017       L1    12  0.34

> <Gold.PLP.Chemscore.Internal.Correction>
0.0816

> <Gold.Rescore>
     Score         DG    S(hbond)    S(metal)    S(lipo)     H(rot)  DE(clash)    DE(int)     intcor
     14.48     -18.16       1.08        0.00     129.94       2.39       1.82       1.86       ----

> <Gold.Chemscore.Fitness>
14.4769

> <Gold.Chemscore.DG>
-18.1591

> <Gold.Chemscore.ZeroCoef>
-5.4800

> <Gold.Chemscore.Hbond>
1.0774

> <Gold.Chemscore.Metal>
0.0000

> <Gold.Chemscore.Lipo>
129.9365

> <Gold.Chemscore.Internal_Hbond>
0.0000

> <Gold.Chemscore.DEClash>
1.8223

> <Gold.Chemscore.DEInternal>
1.8599

> <Gold.Chemscore.Rot>
2.3914

> <Gold.Chemscore.Internal.Correction>
   9.000000E+99

> <Gold.Chemscore.Hbonds>
donor molecule, donor type, donor heavy atom, donor atom, acceptor molecule, acceptor atom, score
      L1  H    12    35       P1  8028  0.54
      P1  H  8011  8017       L1    12  0.30

> <Gold.Chemscore.Hbond.Weighted>
-3.5985

> <Gold.Chemscore.Metal.Weighted>
-0.0000

> <Gold.Chemscore.Lipo.Weighted>
-15.2026

> <Gold.Chemscore.Internal_Hbond.Weighted>
0.0000

> <Gold.Chemscore.DEClash.Weighted>
1.8223

> <Gold.Chemscore.DEInternal.Weighted>
1.8599

> <Gold.Chemscore.Rot.Weighted>
6.1220

> <Gold.Chemscore.Internal.Correction.Weighted>
   9.000000E+99

> <Gold.Protein.RotatedTorsions>
[ 6907 6896 6895 6894 ] final  106.60 input  -60.11 | X-H torsion
[ 7974 7965 7964 7962 ] final  146.07 input  175.53 | X-H torsion
[ 8008 7997 7996 7995 ] final -162.49 input   59.86 | X-H torsion
[ 10167 10162 10161 10158 ] final -156.75 input  -65.29 | X-H torsion
[ 10718 10713 10712 10709 ] final  157.75 input   66.30 | X-H torsion
[ 10763 10752 10751 10750 ] final -172.09 input  -60.55 | X-H torsion
[ 11005 11000 10999 10996 ] final   29.39 input  -57.11 | X-H torsion

> <Gold.Protein.ActiveResidues>
 VAL166  LYS551  ARG553  GLY616  TRP617  ASP618  TYR619  PRO620  LYS621  CYS622 
 ASP623  PHE694  ASN695  SER759  ASP760  ASP761  ALA762  ILE779  LEU786  VAL792 
 PHE793  MET794  SER795  GLU796  ALA797  LYS798  CYS799  TRP800  GLU811  SER814 

> <Gold.Protein.RotatedAtoms>
  152.5187  133.9357  159.7601 H   0  0  0  0  0  0  0  0  0  0  0  0  # atno 6907 bound_to 6896
  150.9698  133.6348  159.2747 H   0  0  0  0  0  0  0  0  0  0  0  0  # atno 6908 bound_to 6896
  151.3563  135.0900  159.9473 H   0  0  0  0  0  0  0  0  0  0  0  0  # atno 6909 bound_to 6896
  144.8701  139.5860  143.5891 H   0  0  0  0  0  0  0  0  0  0  0  0  # atno 7974 bound_to 7965
  155.8075  140.0901  157.1922 H   0  0  0  0  0  0  0  0  0  0  0  0  # atno 8008 bound_to 7997
  154.3980  140.1461  156.3407 H   0  0  0  0  0  0  0  0  0  0  0  0  # atno 8009 bound_to 7997
  155.8399  140.3439  155.5628 H   0  0  0  0  0  0  0  0  0  0  0  0  # atno 8010 bound_to 7997
  139.6825  143.9557  152.2344 H   0  0  0  0  0  0  0  0  0  0  0  0  # atno 10167 bound_to 10162
  157.1872  131.0646  151.2099 H   0  0  0  0  0  0  0  0  0  0  0  0  # atno 10718 bound_to 10713
  154.6232  135.2877  155.0302 H   0  0  0  0  0  0  0  0  0  0  0  0  # atno 10763 bound_to 10752
  154.1490  135.6506  153.4963 H   0  0  0  0  0  0  0  0  0  0  0  0  # atno 10764 bound_to 10752
  153.0245  135.5351  154.7029 H   0  0  0  0  0  0  0  0  0  0  0  0  # atno 10765 bound_to 10752
  140.3055  134.2708  155.7745 H   0  0  0  0  0  0  0  0  0  0  0  0  # atno 11005 bound_to 11000
  146.2924  139.7178  142.9151 LP  0  0  0  0  0  0  0  0  0  0  0  0  # atno 17320 bound_to 7965
  145.4147  141.0400  143.2997 LP  0  0  0  0  0  0  0  0  0  0  0  0  # atno 17321 bound_to 7965
  139.9351  144.6717  150.8323 LP  0  0  0  0  0  0  0  0  0  0  0  0  # atno 17342 bound_to 10162
  140.7657  143.3282  151.2468 LP  0  0  0  0  0  0  0  0  0  0  0  0  # atno 17343 bound_to 10162
  157.3895  130.7274  149.6687 LP  0  0  0  0  0  0  0  0  0  0  0  0  # atno 17370 bound_to 10713
  155.9716  130.4150  150.4161 LP  0  0  0  0  0  0  0  0  0  0  0  0  # atno 17371 bound_to 10713
  141.2119  133.7674  156.9830 LP  0  0  0  0  0  0  0  0  0  0  0  0  # atno 17394 bound_to 11000
  140.1071  134.9500  157.2010 LP  0  0  0  0  0  0  0  0  0  0  0  0  # atno 17395 bound_to 11000

$$$$
