AV-unprocessed.smi:317|AV-procd|sdf|2329|dock4
  -GOLD-   2262022233D 1   1.00000     0.00000
 Structure written by MMmdl.
 40 41  0  0  0  0  0  0  0  0  2 V2000
  148.0641  140.1832  155.1942 C   0  0  0  0  0  0  0  0  0  0  0  0
  149.3667  139.5325  155.6939 C   0  0  1  0  0  0  0  0  0  0  0  0
  150.4132  139.3231  154.5833 C   0  0  0  0  0  0  0  0  0  0  0  0
  149.8966  138.5483  153.5199 O   0  0  0  0  0  0  0  0  0  0  0  0
  149.9555  140.2905  156.7953 N   0  0  0  0  0  0  0  0  0  0  0  0
  151.0586  139.9488  157.4757 C   0  0  0  0  0  0  0  0  0  0  0  0
  151.7168  138.9349  157.2444 O   0  0  0  0  0  0  0  0  0  0  0  0
  151.3272  140.8430  158.4420 N   0  0  0  0  0  0  0  0  0  0  0  0
  152.3769  140.8164  159.4044 C   0  0  0  0  0  0  0  0  0  0  0  0
  153.1175  139.6336  159.6620 C   0  0  0  0  0  0  0  0  0  0  0  0
  154.1340  139.6382  160.6356 C   0  0  0  0  0  0  0  0  0  0  0  0
  154.3999  140.8271  161.3360 C   0  0  0  0  0  0  0  0  0  0  0  0
  153.6924  141.9405  161.0547 N   0  3  0  0  0  0  0  0  0  0  0  0
  152.7119  142.0033  160.1191 C   0  0  0  0  0  0  0  0  0  0  0  0
  152.0653  143.2447  159.9222 N   0  0  0  0  0  0  0  0  0  0  0  0
  152.2120  144.3162  160.9004 C   0  0  0  0  0  0  0  0  0  0  0  0
  151.6914  145.5661  160.1969 C   0  0  0  0  0  0  0  0  0  0  0  0
  152.1301  145.3362  158.7536 C   0  0  0  0  0  0  0  0  0  0  0  0
  152.0332  143.8163  158.5796 C   0  0  0  0  0  0  0  0  0  0  0  0
  147.6344  139.6127  154.3704 H   0  0  0  0  0  0  0  0  0  0  0  0
  148.2312  141.2017  154.8428 H   0  0  0  0  0  0  0  0  0  0  0  0
  147.3155  140.2269  155.9859 H   0  0  0  0  0  0  0  0  0  0  0  0
  149.1159  138.5397  156.0720 H   0  0  0  0  0  0  0  0  0  0  0  0
  150.7667  140.2795  154.1963 H   0  0  0  0  0  0  0  0  0  0  0  0
  151.2836  138.8048  154.9869 H   0  0  0  0  0  0  0  0  0  0  0  0
  149.9126  139.0706  152.7322 H   0  0  0  0  0  0  0  0  0  0  0  0
  149.4744  141.1377  157.0600 H   0  0  0  0  0  0  0  0  0  0  0  0
  150.6413  141.5726  158.5680 H   0  0  0  0  0  0  0  0  0  0  0  0
  152.9269  138.7186  159.1222 H   0  0  0  0  0  0  0  0  0  0  0  0
  154.6999  138.7414  160.8420 H   0  0  0  0  0  0  0  0  0  0  0  0
  155.1570  140.9243  162.1005 H   0  0  0  0  0  0  0  0  0  0  0  0
  151.6541  144.1030  161.8127 H   0  0  0  0  0  0  0  0  0  0  0  0
  153.2618  144.4544  161.1623 H   0  0  0  0  0  0  0  0  0  0  0  0
  150.6025  145.6019  160.2543 H   0  0  0  0  0  0  0  0  0  0  0  0
  152.0852  146.4895  160.6226 H   0  0  0  0  0  0  0  0  0  0  0  0
  151.5240  145.8846  158.0318 H   0  0  0  0  0  0  0  0  0  0  0  0
  153.1665  145.6549  158.6326 H   0  0  0  0  0  0  0  0  0  0  0  0
  152.8416  143.4374  157.9524 H   0  0  0  0  0  0  0  0  0  0  0  0
  151.0851  143.5563  158.1077 H   0  0  0  0  0  0  0  0  0  0  0  0
  153.9160  142.7904  161.5727 H   0  0  0  0  0  0  0  0  0  0  0  0
  1  2  1  0  0  0  0
  1 20  1  0  0  0  0
  1 21  1  0  0  0  0
  1 22  1  0  0  0  0
  2  3  1  0  0  0  0
  2  5  1  0  0  0  0
  2 23  1  0  0  0  0
  3  4  1  0  0  0  0
  3 24  1  0  0  0  0
  3 25  1  0  0  0  0
  4 26  1  0  0  0  0
  5  6  1  0  0  0  0
  5 27  1  0  0  0  0
  6  7  2  0  0  0  0
  6  8  1  0  0  0  0
  8  9  1  0  0  0  0
  8 28  1  0  0  0  0
  9 14  1  0  0  0  0
  9 10  2  0  0  0  0
 10 11  1  0  0  0  0
 10 29  1  0  0  0  0
 11 12  2  0  0  0  0
 11 30  1  0  0  0  0
 12 13  1  0  0  0  0
 12 31  1  0  0  0  0
 13 14  2  0  0  0  0
 13 40  1  0  0  0  0
 14 15  1  0  0  0  0
 15 19  1  0  0  0  0
 15 16  1  0  0  0  0
 16 17  1  0  0  0  0
 16 32  1  0  0  0  0
 16 33  1  0  0  0  0
 17 18  1  0  0  0  0
 17 34  1  0  0  0  0
 17 35  1  0  0  0  0
 18 19  1  0  0  0  0
 18 36  1  0  0  0  0
 18 37  1  0  0  0  0
 19 38  1  0  0  0  0
 19 39  1  0  0  0  0
M  CHG  1  13   1
M  END
> <s_m_source_file>
AV-unprocessed.smi

> <i_m_source_file_index>
317

> <i_lp_mmshare_version>
43012

> <i_f3d_flags>
0

> <s_epik_input>
W09IXVtDSDJdW0NAQEhdKFtDSDNdKVtOSF1DKD1PKVtOSF1jMVtjSF1bY0hdW2NIXW5jMU4yW0NIMl1bQ0gyXVtDSDJdW0NIMl0y

> <s_epik_cmdline>
J2VwaWtfcHl0aG9uJywgJy1waCcsICc3LjAnLCAnLXRuJywgJzgnLCAnLW1hJywgJzIwMCcsICctbWV0YWxfYmluZGluZycsICctaW1hZScsICc8aW5maWxlLm1hZT4nLCAnLW9tYWUnLCAnPG91dGZpbGUubWFlPic=

> <r_lp_tautomer_probability>
0.999994

> <r_epik_Ionization_Penalty>
1.11558

> <r_epik_Ionization_Penalty_Charging>
1.11556

> <r_epik_Ionization_Penalty_Neutral>
2.02999e-05

> <r_epik_State_Penalty>
1.17393

> <r_epik_Charging_Adjusted_Penalty>
2.28949

> <i_epik_Tot_Q>
1

> <i_epik_Tot_abs_Q>
1

> <r_epik_Metal_State_Penalty>
1.25924

> <b_epik_Metal_Only>
0

> <s_lp_Force_Field>
OPLS_2005

> <r_lp_Energy>
42.0309

> <b_lp_Chiralities_Consistent>
1

> <s_lp_Variant>
AV-unprocessed.smi:317-4

> <Gold.Version>
5.8.1

> <Gold.Id.Protein>
6NUR|6NUR_protein|mol2

> <Gold.PLP.Fitness>
42.2634

> <Gold.PLP.PLP>
-39.4319

> <Gold.PLP.part.hbond>
-2.0805

> <Gold.PLP.part.metal>
0.0000

> <Gold.PLP.part.buried>
-6.4479

> <Gold.PLP.part.nonpolar>
-30.6645

> <Gold.PLP.part.repulsive>
0.1669

> <Gold.PLP.ligand.clash>
0.0000

> <Gold.PLP.ligand.torsion>
0.2827

> <Gold.PLP.Chemscore.Hbond>
1.0000

> <Gold.PLP.Chemscore.CHOScore>
0.0000

> <Gold.PLP.Chemscore.Metal>
0.0000

> <Gold.Chemscore.Hbonds>
donor molecule, donor type, donor heavy atom, donor atom, acceptor molecule, acceptor atom, score
      L1  H     4    26       P1  7957  1.00

> <Gold.PLP.Chemscore.Internal.Correction>
0.3969

> <Gold.Rescore>
     Score         DG    S(hbond)    S(metal)    S(lipo)     H(rot)  DE(clash)    DE(int)     intcor
     12.93     -14.59       0.99        0.00      95.71       2.11       0.01       1.65       ----

> <Gold.Chemscore.Fitness>
12.9346

> <Gold.Chemscore.DG>
-14.5909

> <Gold.Chemscore.ZeroCoef>
-5.4800

> <Gold.Chemscore.Hbond>
0.9922

> <Gold.Chemscore.Metal>
0.0000

> <Gold.Chemscore.Lipo>
95.7119

> <Gold.Chemscore.Internal_Hbond>
0.0000

> <Gold.Chemscore.DEClash>
0.0111

> <Gold.Chemscore.DEInternal>
1.6452

> <Gold.Chemscore.Rot>
2.1099

> <Gold.Chemscore.Internal.Correction>
   9.000000E+99

> <Gold.Chemscore.Hbonds>
donor molecule, donor type, donor heavy atom, donor atom, acceptor molecule, acceptor atom, score
      L1  H     4    26       P1  7957  0.85

> <Gold.Chemscore.Hbond.Weighted>
-3.3141

> <Gold.Chemscore.Metal.Weighted>
-0.0000

> <Gold.Chemscore.Lipo.Weighted>
-11.1983

> <Gold.Chemscore.Internal_Hbond.Weighted>
0.0000

> <Gold.Chemscore.DEClash.Weighted>
0.0111

> <Gold.Chemscore.DEInternal.Weighted>
1.6452

> <Gold.Chemscore.Rot.Weighted>
5.4015

> <Gold.Chemscore.Internal.Correction.Weighted>
   9.000000E+99

> <Gold.Protein.RotatedTorsions>
[ 6907 6896 6895 6894 ] final  -96.11 input  -60.11 | X-H torsion
[ 7974 7965 7964 7962 ] final  -34.00 input  175.53 | X-H torsion
[ 8008 7997 7996 7995 ] final   21.93 input   59.86 | X-H torsion
[ 10167 10162 10161 10158 ] final  113.95 input  -65.29 | X-H torsion
[ 10718 10713 10712 10709 ] final  -28.64 input   66.30 | X-H torsion
[ 10763 10752 10751 10750 ] final   71.62 input  -60.55 | X-H torsion
[ 11005 11000 10999 10996 ] final   77.21 input  -57.11 | X-H torsion

> <Gold.Protein.ActiveResidues>
 VAL166  LYS551  ARG553  GLY616  TRP617  ASP618  TYR619  PRO620  LYS621  CYS622 
 ASP623  PHE694  ASN695  SER759  ASP760  ASP761  ALA762  ILE779  LEU786  VAL792 
 PHE793  MET794  SER795  GLU796  ALA797  LYS798  CYS799  TRP800  GLU811  SER814 

> <Gold.Protein.RotatedAtoms>
  150.6980  134.1553  159.4155 H   0  0  0  0  0  0  0  0  0  0  0  0  # atno 6907 bound_to 6896
  151.9535  135.0155  160.0552 H   0  0  0  0  0  0  0  0  0  0  0  0  # atno 6908 bound_to 6896
  152.1990  133.4792  159.5085 H   0  0  0  0  0  0  0  0  0  0  0  0  # atno 6909 bound_to 6896
  146.0865  140.5985  142.8884 H   0  0  0  0  0  0  0  0  0  0  0  0  # atno 7974 bound_to 7965
  154.9581  140.3074  155.5043 H   0  0  0  0  0  0  0  0  0  0  0  0  # atno 8008 bound_to 7997
  156.2980  140.2306  156.4602 H   0  0  0  0  0  0  0  0  0  0  0  0  # atno 8009 bound_to 7997
  154.7991  140.0435  157.1247 H   0  0  0  0  0  0  0  0  0  0  0  0  # atno 8010 bound_to 7997
  139.6424  144.7124  151.2211 H   0  0  0  0  0  0  0  0  0  0  0  0  # atno 10167 bound_to 10162
  156.4227  130.4429  149.7173 H   0  0  0  0  0  0  0  0  0  0  0  0  # atno 10718 bound_to 10713
  153.0410  135.5130  154.7621 H   0  0  0  0  0  0  0  0  0  0  0  0  # atno 10763 bound_to 10752
  154.6559  135.2931  154.9931 H   0  0  0  0  0  0  0  0  0  0  0  0  # atno 10764 bound_to 10752
  154.0799  135.6665  153.4889 H   0  0  0  0  0  0  0  0  0  0  0  0  # atno 10765 bound_to 10752
  139.9264  134.7664  156.1492 H   0  0  0  0  0  0  0  0  0  0  0  0  # atno 11005 bound_to 11000
  144.7329  140.4725  143.6924 LP  0  0  0  0  0  0  0  0  0  0  0  0  # atno 17320 bound_to 7965
  145.6120  139.1514  143.3070 LP  0  0  0  0  0  0  0  0  0  0  0  0  # atno 17321 bound_to 7965
  140.7497  143.6290  150.8441 LP  0  0  0  0  0  0  0  0  0  0  0  0  # atno 17342 bound_to 10162
  139.9928  143.5828  152.2904 LP  0  0  0  0  0  0  0  0  0  0  0  0  # atno 17343 bound_to 10162
  156.4107  130.7720  151.2733 LP  0  0  0  0  0  0  0  0  0  0  0  0  # atno 17370 bound_to 10713
  157.7508  131.0212  150.3741 LP  0  0  0  0  0  0  0  0  0  0  0  0  # atno 17371 bound_to 10713
  141.0825  133.6748  156.2366 LP  0  0  0  0  0  0  0  0  0  0  0  0  # atno 17394 bound_to 11000
  140.6323  134.5251  157.5561 LP  0  0  0  0  0  0  0  0  0  0  0  0  # atno 17395 bound_to 11000

$$$$
