AV-unprocessed.smi:2601|AV-procd|sdf|10183|dock5
  -GOLD-   2272014193D 1   1.00000     0.00000
 Structure written by MMmdl.
 47 48  0  0  0  0  0  0  0  0  1 V2000
  152.7427  142.2320  160.1922 C   0  0  0  0  0  0  0  0  0  0  0  0
  152.0415  143.3632  159.6151 N   0  0  0  0  0  0  0  0  0  0  0  0
  152.2476  144.5945  160.1299 N   0  0  0  0  0  0  0  0  0  0  0  0
  151.4868  145.3930  159.4023 C   0  0  0  0  0  0  0  0  0  0  0  0
  150.7661  144.6923  158.3969 C   0  0  0  0  0  0  0  0  0  0  0  0
  151.1440  143.3884  158.5609 C   0  0  0  0  0  0  0  0  0  0  0  0
  150.7312  142.1626  157.8001 C   0  0  0  0  0  0  0  0  0  0  0  0
  150.9535  142.2547  156.2776 C   0  0  0  0  0  0  0  0  0  0  0  0
  150.4980  141.0659  155.5628 N   0  0  0  0  0  0  0  0  0  0  0  0
  151.2533  139.9956  155.2653 C   0  0  0  0  0  0  0  0  0  0  0  0
  152.4433  139.9255  155.5746 O   0  0  0  0  0  0  0  0  0  0  0  0
  150.5925  138.9989  154.6265 N   0  0  0  0  0  0  0  0  0  0  0  0
  149.2538  139.0548  154.0294 C   0  0  0  0  0  0  0  0  0  0  0  0
  148.2954  138.1432  154.8293 C   0  0  0  0  0  0  0  0  0  0  0  0
  147.9056  138.7553  156.1897 C   0  0  0  0  0  0  0  0  0  0  0  0
  147.0104  137.9115  154.0176 C   0  0  0  0  0  0  0  0  0  0  0  0
  148.8622  136.8312  154.9914 O   0  0  0  0  0  0  0  0  0  0  0  0
  150.2538  136.6676  155.3176 C   0  0  0  0  0  0  0  0  0  0  0  0
  150.4919  136.8080  156.8354 C   0  0  0  0  0  0  0  0  0  0  0  0
  150.5782  135.2210  154.9104 C   0  0  0  0  0  0  0  0  0  0  0  0
  151.1242  137.6437  154.4927 C   0  0  0  0  0  0  0  0  0  0  0  0
  153.4065  141.7945  159.4463 H   0  0  0  0  0  0  0  0  0  0  0  0
  152.0248  141.4782  160.5156 H   0  0  0  0  0  0  0  0  0  0  0  0
  153.3353  142.5434  161.0537 H   0  0  0  0  0  0  0  0  0  0  0  0
  151.4778  146.4498  159.6244 H   0  0  0  0  0  0  0  0  0  0  0  0
  150.0753  145.0865  157.6665 H   0  0  0  0  0  0  0  0  0  0  0  0
  151.2817  141.3049  158.1867 H   0  0  0  0  0  0  0  0  0  0  0  0
  149.6819  141.9371  157.9876 H   0  0  0  0  0  0  0  0  0  0  0  0
  150.3944  143.1025  155.8812 H   0  0  0  0  0  0  0  0  0  0  0  0
  152.0041  142.4472  156.0561 H   0  0  0  0  0  0  0  0  0  0  0  0
  149.5274  141.0471  155.2853 H   0  0  0  0  0  0  0  0  0  0  0  0
  148.8433  140.0624  153.9591 H   0  0  0  0  0  0  0  0  0  0  0  0
  149.3237  138.7090  152.9967 H   0  0  0  0  0  0  0  0  0  0  0  0
  147.2845  139.6407  156.0528 H   0  0  0  0  0  0  0  0  0  0  0  0
  148.7641  139.0785  156.7703 H   0  0  0  0  0  0  0  0  0  0  0  0
  147.3391  138.0471  156.7948 H   0  0  0  0  0  0  0  0  0  0  0  0
  146.4966  138.8504  153.8086 H   0  0  0  0  0  0  0  0  0  0  0  0
  146.3153  137.2653  154.5548 H   0  0  0  0  0  0  0  0  0  0  0  0
  147.2271  137.4337  153.0615 H   0  0  0  0  0  0  0  0  0  0  0  0
  151.4944  136.4723  157.1024 H   0  0  0  0  0  0  0  0  0  0  0  0
  149.7821  136.2063  157.4034 H   0  0  0  0  0  0  0  0  0  0  0  0
  150.4154  137.8327  157.1855 H   0  0  0  0  0  0  0  0  0  0  0  0
  151.6249  134.9794  155.0988 H   0  0  0  0  0  0  0  0  0  0  0  0
  150.3867  135.0560  153.8496 H   0  0  0  0  0  0  0  0  0  0  0  0
  149.9688  134.5083  155.4669 H   0  0  0  0  0  0  0  0  0  0  0  0
  151.1126  137.3649  153.4377 H   0  0  0  0  0  0  0  0  0  0  0  0
  152.1685  137.5675  154.7997 H   0  0  0  0  0  0  0  0  0  0  0  0
  1  2  1  0  0  0  0
  1 22  1  0  0  0  0
  1 23  1  0  0  0  0
  1 24  1  0  0  0  0
  2  6  1  0  0  0  0
  2  3  1  0  0  0  0
  3  4  2  0  0  0  0
  4  5  1  0  0  0  0
  4 25  1  0  0  0  0
  5  6  2  0  0  0  0
  5 26  1  0  0  0  0
  6  7  1  0  0  0  0
  7  8  1  0  0  0  0
  7 27  1  0  0  0  0
  7 28  1  0  0  0  0
  8  9  1  0  0  0  0
  8 29  1  0  0  0  0
  8 30  1  0  0  0  0
  9 10  1  0  0  0  0
  9 31  1  0  0  0  0
 10 11  2  0  0  0  0
 10 12  1  0  0  0  0
 12 21  1  0  0  0  0
 12 13  1  0  0  0  0
 13 14  1  0  0  0  0
 13 32  1  0  0  0  0
 13 33  1  0  0  0  0
 14 15  1  0  0  0  0
 14 16  1  0  0  0  0
 14 17  1  0  0  0  0
 15 34  1  0  0  0  0
 15 35  1  0  0  0  0
 15 36  1  0  0  0  0
 16 37  1  0  0  0  0
 16 38  1  0  0  0  0
 16 39  1  0  0  0  0
 17 18  1  0  0  0  0
 18 19  1  0  0  0  0
 18 20  1  0  0  0  0
 18 21  1  0  0  0  0
 19 40  1  0  0  0  0
 19 41  1  0  0  0  0
 19 42  1  0  0  0  0
 20 43  1  0  0  0  0
 20 44  1  0  0  0  0
 20 45  1  0  0  0  0
 21 46  1  0  0  0  0
 21 47  1  0  0  0  0
M  END
> <s_m_source_file>
AV-unprocessed.smi

> <i_m_source_file_index>
2601

> <i_lp_mmshare_version>
43012

> <i_f3d_flags>
0

> <s_epik_input>
W0NIM11uMW5bY0hdW2NIXWMxW0NIMl1bQ0gyXVtOSF1DKD1PKU4oW0NIMl1DMihbQ0gzXSlbQ0gzXSlbQ0gyXUMoTzIpKFtDSDNdKVtDSDNd

> <s_epik_cmdline>
J2VwaWtfcHl0aG9uJywgJy1waCcsICc3LjAnLCAnLXRuJywgJzgnLCAnLW1hJywgJzIwMCcsICctbWV0YWxfYmluZGluZycsICctaW1hZScsICc8aW5maWxlLm1hZT4nLCAnLW9tYWUnLCAnPG91dGZpbGUubWFlPic=

> <r_lp_tautomer_probability>
1

> <r_epik_Ionization_Penalty>
0.00250606

> <r_epik_Ionization_Penalty_Charging>
0

> <r_epik_Ionization_Penalty_Neutral>
0.00250606

> <r_epik_State_Penalty>
0.0017149

> <r_epik_Charging_Adjusted_Penalty>
0.0017149

> <i_epik_Tot_Q>
0

> <i_epik_Tot_abs_Q>
0

> <r_epik_Metal_State_Penalty>
-0

> <b_epik_Metal_Only>
0

> <s_lp_Force_Field>
OPLS_2005

> <r_lp_Energy>
30.5553

> <b_lp_Chiralities_Consistent>
1

> <s_lp_Variant>
AV-unprocessed.smi:2601-1

> <Gold.Version>
5.8.1

> <Gold.Id.Protein>
6NUR|6NUR_protein|mol2

> <Gold.PLP.Fitness>
41.5748

> <Gold.PLP.PLP>
-39.1372

> <Gold.PLP.part.hbond>
-1.0000

> <Gold.PLP.part.metal>
0.0000

> <Gold.PLP.part.buried>
-4.9879

> <Gold.PLP.part.nonpolar>
-33.4924

> <Gold.PLP.part.repulsive>
0.3211

> <Gold.PLP.ligand.clash>
0.0000

> <Gold.PLP.ligand.torsion>
0.2837

> <Gold.PLP.Chemscore.Hbond>
1.0000

> <Gold.PLP.Chemscore.CHOScore>
0.0000

> <Gold.PLP.Chemscore.Metal>
0.0000

> <Gold.Chemscore.Hbonds>
donor molecule, donor type, donor heavy atom, donor atom, acceptor molecule, acceptor atom, score
      P1  H  7997  8008       L1    11  1.00

> <Gold.PLP.Chemscore.Internal.Correction>
0.0049

> <Gold.Rescore>
     Score         DG    S(hbond)    S(metal)    S(lipo)     H(rot)  DE(clash)    DE(int)     intcor
     15.69     -16.03       1.00        0.00      90.77       1.33       0.13       0.22       ----

> <Gold.Chemscore.Fitness>
15.6878

> <Gold.Chemscore.DG>
-16.0347

> <Gold.Chemscore.ZeroCoef>
-5.4800

> <Gold.Chemscore.Hbond>
0.9999

> <Gold.Chemscore.Metal>
0.0000

> <Gold.Chemscore.Lipo>
90.7733

> <Gold.Chemscore.Internal_Hbond>
0.0000

> <Gold.Chemscore.DEClash>
0.1296

> <Gold.Chemscore.DEInternal>
0.2173

> <Gold.Chemscore.Rot>
1.3303

> <Gold.Chemscore.Internal.Correction>
   9.000000E+99

> <Gold.Chemscore.Hbonds>
donor molecule, donor type, donor heavy atom, donor atom, acceptor molecule, acceptor atom, score
      P1  H  7997  8008       L1    11  0.94

> <Gold.Chemscore.Hbond.Weighted>
-3.3397

> <Gold.Chemscore.Metal.Weighted>
-0.0000

> <Gold.Chemscore.Lipo.Weighted>
-10.6205

> <Gold.Chemscore.Internal_Hbond.Weighted>
0.0000

> <Gold.Chemscore.DEClash.Weighted>
0.1296

> <Gold.Chemscore.DEInternal.Weighted>
0.2173

> <Gold.Chemscore.Rot.Weighted>
3.4055

> <Gold.Chemscore.Internal.Correction.Weighted>
   9.000000E+99

> <Gold.Protein.RotatedTorsions>
[ 6907 6896 6895 6894 ] final  128.49 input  -60.11 | X-H torsion
[ 7974 7965 7964 7962 ] final  120.53 input  175.53 | X-H torsion
[ 8008 7997 7996 7995 ] final  -36.07 input   59.86 | X-H torsion
[ 10167 10162 10161 10158 ] final  -97.14 input  -65.29 | X-H torsion
[ 10718 10713 10712 10709 ] final   74.45 input   66.30 | X-H torsion
[ 10763 10752 10751 10750 ] final   21.36 input  -60.55 | X-H torsion
[ 11005 11000 10999 10996 ] final  151.73 input  -57.11 | X-H torsion

> <Gold.Protein.ActiveResidues>
 VAL166  LYS551  ARG553  GLY616  TRP617  ASP618  TYR619  PRO620  LYS621  CYS622 
 ASP623  PHE694  ASN695  SER759  ASP760  ASP761  ALA762  ILE779  LEU786  VAL792 
 PHE793  MET794  SER795  GLU796  ALA797  LYS798  CYS799  TRP800  GLU811  SER814 

> <Gold.Protein.RotatedAtoms>
  152.3714  133.6424  159.6089 H   0  0  0  0  0  0  0  0  0  0  0  0  # atno 6907 bound_to 6896
  150.7671  133.9264  159.3422 H   0  0  0  0  0  0  0  0  0  0  0  0  # atno 6908 bound_to 6896
  151.7086  135.0918  160.0315 H   0  0  0  0  0  0  0  0  0  0  0  0  # atno 6909 bound_to 6896
  145.1300  139.3333  143.4670 H   0  0  0  0  0  0  0  0  0  0  0  0  # atno 7974 bound_to 7965
  154.4081  140.1640  156.2314 H   0  0  0  0  0  0  0  0  0  0  0  0  # atno 8008 bound_to 7997
  155.9279  140.3417  155.6202 H   0  0  0  0  0  0  0  0  0  0  0  0  # atno 8009 bound_to 7997
  155.7142  140.0760  157.2349 H   0  0  0  0  0  0  0  0  0  0  0  0  # atno 8010 bound_to 7997
  140.2865  143.3249  152.0389 H   0  0  0  0  0  0  0  0  0  0  0  0  # atno 10167 bound_to 10162
  157.6592  130.9678  150.1213 H   0  0  0  0  0  0  0  0  0  0  0  0  # atno 10718 bound_to 10713
  153.1001  135.6670  153.9688 H   0  0  0  0  0  0  0  0  0  0  0  0  # atno 10763 bound_to 10752
  153.9261  135.3009  155.3448 H   0  0  0  0  0  0  0  0  0  0  0  0  # atno 10764 bound_to 10752
  154.7422  135.5074  153.9217 H   0  0  0  0  0  0  0  0  0  0  0  0  # atno 10765 bound_to 10752
  140.1244  134.8842  157.2117 H   0  0  0  0  0  0  0  0  0  0  0  0  # atno 11005 bound_to 11000
  146.3514  140.1295  142.8597 LP  0  0  0  0  0  0  0  0  0  0  0  0  # atno 17320 bound_to 7965
  145.0646  140.9112  143.4918 LP  0  0  0  0  0  0  0  0  0  0  0  0  # atno 17321 bound_to 7965
  139.4949  144.6555  151.6581 LP  0  0  0  0  0  0  0  0  0  0  0  0  # atno 17342 bound_to 10162
  140.5768  144.0014  150.6246 LP  0  0  0  0  0  0  0  0  0  0  0  0  # atno 17343 bound_to 10162
  156.2083  130.3665  149.8701 LP  0  0  0  0  0  0  0  0  0  0  0  0  # atno 17370 bound_to 10713
  156.6587  130.8773  151.3543 LP  0  0  0  0  0  0  0  0  0  0  0  0  # atno 17371 bound_to 10713
  140.2923  134.3227  155.7312 LP  0  0  0  0  0  0  0  0  0  0  0  0  # atno 17394 bound_to 11000
  141.2158  133.7542  156.9520 LP  0  0  0  0  0  0  0  0  0  0  0  0  # atno 17395 bound_to 11000

$$$$
