AV-unprocessed.smi:393|AV-procd|sdf|2484|dock6
  -GOLD-   2262022423D 1   1.00000     0.00000
 Structure written by MMmdl.
 43 44  0  0  0  0  0  0  0  0  1 V2000
  151.6831  144.9834  159.4469 C   0  0  0  0  0  0  0  0  0  0  0  0
  152.7978  144.0644  158.9355 C   0  0  0  0  0  0  0  0  0  0  0  0
  153.1907  142.9895  159.9589 C   0  0  0  0  0  0  0  0  0  0  0  0
  152.2456  141.7758  159.9296 C   0  0  0  0  0  0  0  0  0  0  0  0
  152.4378  140.9267  158.6713 C   0  0  0  0  0  0  0  0  0  0  0  0
  153.3997  140.1641  158.5794 O   0  0  0  0  0  0  0  0  0  0  0  0
  151.5101  141.0608  157.7111 N   0  0  0  0  0  0  0  0  0  0  0  0
  151.4820  140.3009  156.4651 C   0  0  0  0  0  0  0  0  0  0  0  0
  150.1676  140.3820  155.6979 C   0  0  0  0  0  0  0  0  0  0  0  0
  150.0655  139.7802  154.4287 C   0  0  0  0  0  0  0  0  0  0  0  0
  148.8398  139.8618  153.7432 C   0  0  0  0  0  0  0  0  0  0  0  0
  147.7559  140.4947  154.2377 N   0  0  0  0  0  0  0  0  0  0  0  0
  147.8428  141.0920  155.4520 C   0  0  0  0  0  0  0  0  0  0  0  0
  146.7011  141.7520  155.9565 N   0  0  0  0  0  0  0  0  0  0  0  0
  146.7700  142.1667  157.3556 C   0  0  0  0  0  0  0  0  0  0  0  0
  145.3750  142.5704  157.8632 C   0  0  0  0  0  0  0  0  0  0  0  0
  144.8253  143.5742  157.0164 O   0  0  0  0  0  0  0  0  0  0  0  0
  144.6635  143.1083  155.6807 C   0  0  0  0  0  0  0  0  0  0  0  0
  146.0334  142.7264  155.0952 C   0  0  0  0  0  0  0  0  0  0  0  0
  149.0367  141.0564  156.2116 C   0  0  0  0  0  0  0  0  0  0  0  0
  151.4177  145.7283  158.6965 H   0  0  0  0  0  0  0  0  0  0  0  0
  151.9932  145.5140  160.3473 H   0  0  0  0  0  0  0  0  0  0  0  0
  150.7831  144.4158  159.6849 H   0  0  0  0  0  0  0  0  0  0  0  0
  152.4729  143.5874  158.0102 H   0  0  0  0  0  0  0  0  0  0  0  0
  153.6721  144.6652  158.6829 H   0  0  0  0  0  0  0  0  0  0  0  0
  154.2145  142.6661  159.7645 H   0  0  0  0  0  0  0  0  0  0  0  0
  153.1907  143.4275  160.9586 H   0  0  0  0  0  0  0  0  0  0  0  0
  152.4064  141.1616  160.8170 H   0  0  0  0  0  0  0  0  0  0  0  0
  151.2079  142.1091  159.9650 H   0  0  0  0  0  0  0  0  0  0  0  0
  150.7542  141.7116  157.8665 H   0  0  0  0  0  0  0  0  0  0  0  0
  152.2762  140.6783  155.8209 H   0  0  0  0  0  0  0  0  0  0  0  0
  151.7212  139.2559  156.6699 H   0  0  0  0  0  0  0  0  0  0  0  0
  150.9046  139.2597  153.9906 H   0  0  0  0  0  0  0  0  0  0  0  0
  148.7257  139.4054  152.7712 H   0  0  0  0  0  0  0  0  0  0  0  0
  147.1633  141.3774  157.9945 H   0  0  0  0  0  0  0  0  0  0  0  0
  147.4547  143.0116  157.4378 H   0  0  0  0  0  0  0  0  0  0  0  0
  144.7100  141.7062  157.9003 H   0  0  0  0  0  0  0  0  0  0  0  0
  145.4444  142.9615  158.8781 H   0  0  0  0  0  0  0  0  0  0  0  0
  143.9814  142.2566  155.6614 H   0  0  0  0  0  0  0  0  0  0  0  0
  144.2061  143.8960  155.0823 H   0  0  0  0  0  0  0  0  0  0  0  0
  146.6603  143.6143  155.0008 H   0  0  0  0  0  0  0  0  0  0  0  0
  145.8956  142.3148  154.0946 H   0  0  0  0  0  0  0  0  0  0  0  0
  149.0792  141.5219  157.1846 H   0  0  0  0  0  0  0  0  0  0  0  0
  1  2  1  0  0  0  0
  1 21  1  0  0  0  0
  1 22  1  0  0  0  0
  1 23  1  0  0  0  0
  2  3  1  0  0  0  0
  2 24  1  0  0  0  0
  2 25  1  0  0  0  0
  3  4  1  0  0  0  0
  3 26  1  0  0  0  0
  3 27  1  0  0  0  0
  4  5  1  0  0  0  0
  4 28  1  0  0  0  0
  4 29  1  0  0  0  0
  5  6  2  0  0  0  0
  5  7  1  0  0  0  0
  7  8  1  0  0  0  0
  7 30  1  0  0  0  0
  8  9  1  0  0  0  0
  8 31  1  0  0  0  0
  8 32  1  0  0  0  0
  9 20  1  0  0  0  0
  9 10  2  0  0  0  0
 10 11  1  0  0  0  0
 10 33  1  0  0  0  0
 11 12  2  0  0  0  0
 11 34  1  0  0  0  0
 12 13  1  0  0  0  0
 13 14  1  0  0  0  0
 13 20  2  0  0  0  0
 14 19  1  0  0  0  0
 14 15  1  0  0  0  0
 15 16  1  0  0  0  0
 15 35  1  0  0  0  0
 15 36  1  0  0  0  0
 16 17  1  0  0  0  0
 16 37  1  0  0  0  0
 16 38  1  0  0  0  0
 17 18  1  0  0  0  0
 18 19  1  0  0  0  0
 18 39  1  0  0  0  0
 18 40  1  0  0  0  0
 19 41  1  0  0  0  0
 19 42  1  0  0  0  0
 20 43  1  0  0  0  0
M  END
> <s_m_source_file>
AV-unprocessed.smi

> <i_m_source_file_index>
393

> <i_lp_mmshare_version>
43012

> <i_f3d_flags>
0

> <s_epik_input>
W0NIM11bQ0gyXVtDSDJdW0NIMl1DKD1PKVtOSF1bQ0gyXWMxW2NIXVtjSF1uYyhbY0hdMSlOMltDSDJdW0NIMl1PW0NIMl1bQ0gyXTI=

> <s_epik_cmdline>
J2VwaWtfcHl0aG9uJywgJy1waCcsICc3LjAnLCAnLXRuJywgJzgnLCAnLW1hJywgJzIwMCcsICctbWV0YWxfYmluZGluZycsICctaW1hZScsICc8aW5maWxlLm1hZT4nLCAnLW9tYWUnLCAnPG91dGZpbGUubWFlPic=

> <r_lp_tautomer_probability>
1

> <r_epik_Ionization_Penalty>
0.00585334

> <r_epik_Ionization_Penalty_Charging>
0

> <r_epik_Ionization_Penalty_Neutral>
0.00585334

> <r_epik_State_Penalty>
0.00430121

> <r_epik_Charging_Adjusted_Penalty>
0.00430121

> <i_epik_Tot_Q>
0

> <i_epik_Tot_abs_Q>
0

> <r_epik_Metal_State_Penalty>
-0

> <b_epik_Metal_Only>
0

> <s_lp_Force_Field>
OPLS_2005

> <r_lp_Energy>
14.3492

> <b_lp_Chiralities_Consistent>
1

> <s_lp_Variant>
AV-unprocessed.smi:393-1

> <Gold.Version>
5.8.1

> <Gold.Id.Protein>
6NUR|6NUR_protein|mol2

> <Gold.PLP.Fitness>
39.5888

> <Gold.PLP.PLP>
-35.2510

> <Gold.PLP.part.hbond>
-1.0000

> <Gold.PLP.part.metal>
0.0000

> <Gold.PLP.part.buried>
-1.1280

> <Gold.PLP.part.nonpolar>
-33.6233

> <Gold.PLP.part.repulsive>
0.4366

> <Gold.PLP.ligand.clash>
0.0000

> <Gold.PLP.ligand.torsion>
0.6581

> <Gold.PLP.Chemscore.Hbond>
0.9600

> <Gold.PLP.Chemscore.CHOScore>
0.7987

> <Gold.PLP.Chemscore.Metal>
0.0000

> <Gold.Chemscore.Hbonds>
donor molecule, donor type, donor heavy atom, donor atom, acceptor molecule, acceptor atom, score
      P1  H  7997  8010       L1     6  0.96
      L1  C    11    34       P1  7957  0.69

> <Gold.PLP.Chemscore.Internal.Correction>
0.3780

> <Gold.Rescore>
     Score         DG    S(hbond)    S(metal)    S(lipo)     H(rot)  DE(clash)    DE(int)     intcor
     14.11     -14.70       0.96        0.00      90.11       1.77       0.14       0.46       ----

> <Gold.Chemscore.Fitness>
14.1068

> <Gold.Chemscore.DG>
-14.7045

> <Gold.Chemscore.ZeroCoef>
-5.4800

> <Gold.Chemscore.Hbond>
0.9606

> <Gold.Chemscore.Metal>
0.0000

> <Gold.Chemscore.Lipo>
90.1135

> <Gold.Chemscore.Internal_Hbond>
0.0000

> <Gold.Chemscore.DEClash>
0.1373

> <Gold.Chemscore.DEInternal>
0.4605

> <Gold.Chemscore.Rot>
1.7684

> <Gold.Chemscore.Internal.Correction>
   9.000000E+99

> <Gold.Chemscore.Hbonds>
donor molecule, donor type, donor heavy atom, donor atom, acceptor molecule, acceptor atom, score
      P1  H  7997  8010       L1     6  0.91

> <Gold.Chemscore.Hbond.Weighted>
-3.2083

> <Gold.Chemscore.Metal.Weighted>
-0.0000

> <Gold.Chemscore.Lipo.Weighted>
-10.5433

> <Gold.Chemscore.Internal_Hbond.Weighted>
0.0000

> <Gold.Chemscore.DEClash.Weighted>
0.1373

> <Gold.Chemscore.DEInternal.Weighted>
0.4605

> <Gold.Chemscore.Rot.Weighted>
4.5271

> <Gold.Chemscore.Internal.Correction.Weighted>
   9.000000E+99

> <Gold.Protein.RotatedTorsions>
[ 6907 6896 6895 6894 ] final  133.71 input  -60.11 | X-H torsion
[ 7974 7965 7964 7962 ] final -103.28 input  175.53 | X-H torsion
[ 8008 7997 7996 7995 ] final   31.17 input   59.86 | X-H torsion
[ 10167 10162 10161 10158 ] final -152.50 input  -65.29 | X-H torsion
[ 10718 10713 10712 10709 ] final  103.30 input   66.30 | X-H torsion
[ 10763 10752 10751 10750 ] final -133.76 input  -60.55 | X-H torsion
[ 11005 11000 10999 10996 ] final -100.19 input  -57.11 | X-H torsion

> <Gold.Protein.ActiveResidues>
 VAL166  LYS551  ARG553  GLY616  TRP617  ASP618  TYR619  PRO620  LYS621  CYS622 
 ASP623  PHE694  ASN695  SER759  ASP760  ASP761  ALA762  ILE779  LEU786  VAL792 
 PHE793  MET794  SER795  GLU796  ALA797  LYS798  CYS799  TRP800  GLU811  SER814 

> <Gold.Protein.RotatedAtoms>
  152.3191  133.5834  159.5731 H   0  0  0  0  0  0  0  0  0  0  0  0  # atno 6907 bound_to 6896
  150.7362  134.0038  159.3656 H   0  0  0  0  0  0  0  0  0  0  0  0  # atno 6908 bound_to 6896
  151.7924  135.0732  160.0440 H   0  0  0  0  0  0  0  0  0  0  0  0  # atno 6909 bound_to 6896
  145.2579  140.9259  143.3058 H   0  0  0  0  0  0  0  0  0  0  0  0  # atno 7974 bound_to 7965
  155.1022  140.3230  155.4544 H   0  0  0  0  0  0  0  0  0  0  0  0  # atno 8008 bound_to 7997
  156.2714  140.2059  156.6095 H   0  0  0  0  0  0  0  0  0  0  0  0  # atno 8009 bound_to 7997
  154.6820  140.0525  157.0263 H   0  0  0  0  0  0  0  0  0  0  0  0  # atno 8010 bound_to 7997
  139.7176  143.9009  152.2491 H   0  0  0  0  0  0  0  0  0  0  0  0  # atno 10167 bound_to 10162
  157.6776  131.0775  150.5534 H   0  0  0  0  0  0  0  0  0  0  0  0  # atno 10718 bound_to 10713
  154.8728  135.3756  154.4626 H   0  0  0  0  0  0  0  0  0  0  0  0  # atno 10763 bound_to 10752
  153.5293  135.7028  153.5696 H   0  0  0  0  0  0  0  0  0  0  0  0  # atno 10764 bound_to 10752
  153.3908  135.3972  155.1887 H   0  0  0  0  0  0  0  0  0  0  0  0  # atno 10765 bound_to 10752
  141.1280  133.8380  157.1070 H   0  0  0  0  0  0  0  0  0  0  0  0  # atno 11005 bound_to 11000
  144.9445  139.4152  143.6433 LP  0  0  0  0  0  0  0  0  0  0  0  0  # atno 17320 bound_to 7965
  146.3284  139.8421  142.8888 LP  0  0  0  0  0  0  0  0  0  0  0  0  # atno 17321 bound_to 7965
  139.8895  144.6973  150.8786 LP  0  0  0  0  0  0  0  0  0  0  0  0  # atno 17342 bound_to 10162
  140.7747  143.3597  151.1852 LP  0  0  0  0  0  0  0  0  0  0  0  0  # atno 17343 bound_to 10162
  156.5839  130.4311  149.5965 LP  0  0  0  0  0  0  0  0  0  0  0  0  # atno 17370 bound_to 10713
  156.2639  130.6978  151.1755 LP  0  0  0  0  0  0  0  0  0  0  0  0  # atno 17371 bound_to 10713
  140.0298  134.9906  157.0758 LP  0  0  0  0  0  0  0  0  0  0  0  0  # atno 17394 bound_to 11000
  140.4303  134.1787  155.7168 LP  0  0  0  0  0  0  0  0  0  0  0  0  # atno 17395 bound_to 11000

$$$$
