AV-unprocessed.smi:1244|AV-procd|sdf|5237|dock6
  -GOLD-   22720 4343D 1   1.00000     0.00000
 Structure written by MMmdl.
 55 57  0  0  0  0  0  0  0  0  4 V2000
  153.1579  139.2952  154.8558 C   0  0  0  0  0  0  0  0  0  0  0  0
  151.6617  138.9954  154.9974 C   0  0  2  0  0  0  0  0  0  0  0  0
  151.2054  137.8624  154.0569 C   0  0  0  0  0  0  0  0  0  0  0  0
  149.7431  137.6363  154.1641 N   0  3  1  0  0  0  0  0  0  0  0  0
  149.3383  136.8801  155.3822 C   0  0  0  0  0  0  0  0  0  0  0  0
  150.4116  135.8591  155.8125 C   0  0  0  0  0  0  0  0  0  0  0  0
  149.9906  135.1610  157.0264 N   0  5  0  0  0  0  0  0  0  0  0  0
  148.8500  134.4304  157.1466 C   0  0  0  0  0  0  0  0  0  0  0  0
  148.0459  134.1297  156.2563 O   0  0  0  0  0  0  0  0  0  0  0  0
  148.6482  134.0139  158.4079 N   0  0  0  0  0  0  0  0  0  0  0  0
  147.6344  133.1420  158.8895 C   0  0  0  0  0  0  0  0  0  0  0  0
  147.0665  132.1585  158.0417 C   0  0  0  0  0  0  0  0  0  0  0  0
  146.0091  131.3553  158.5089 C   0  0  0  0  0  0  0  0  0  0  0  0
  145.5248  131.5611  159.8122 C   0  0  0  0  0  0  0  0  0  0  0  0
  146.0785  132.5147  160.5897 N   0  3  0  0  0  0  0  0  0  0  0  0
  147.1082  133.3094  160.2028 C   0  0  0  0  0  0  0  0  0  0  0  0
  147.5936  134.2594  161.1309 N   0  0  0  0  0  0  0  0  0  0  0  0
  147.6439  135.6746  160.7836 C   0  0  0  0  0  0  0  0  0  0  0  0
  147.8906  136.3972  162.1052 C   0  0  0  0  0  0  0  0  0  0  0  0
  147.1156  135.5381  163.0999 C   0  0  0  0  0  0  0  0  0  0  0  0
  147.2618  134.1172  162.5454 C   0  0  0  0  0  0  0  0  0  0  0  0
  149.0081  138.9114  153.9434 C   0  0  0  0  0  0  0  0  0  0  0  0
  149.5358  140.0389  154.8574 C   0  0  2  0  0  0  0  0  0  0  0  0
  148.8778  141.3868  154.5429 C   0  0  0  0  0  0  0  0  0  0  0  0
  150.9405  140.1787  154.6707 O   0  0  0  0  0  0  0  0  0  0  0  0
  153.7588  138.4198  155.1039 H   0  0  0  0  0  0  0  0  0  0  0  0
  153.4578  140.1033  155.5237 H   0  0  0  0  0  0  0  0  0  0  0  0
  153.4065  139.5952  153.8374 H   0  0  0  0  0  0  0  0  0  0  0  0
  151.4614  138.7242  156.0355 H   0  0  0  0  0  0  0  0  0  0  0  0
  151.4348  138.1303  153.0244 H   0  0  0  0  0  0  0  0  0  0  0  0
  151.7506  136.9396  154.2594 H   0  0  0  0  0  0  0  0  0  0  0  0
  149.1871  137.5743  156.2104 H   0  0  0  0  0  0  0  0  0  0  0  0
  148.3769  136.3906  155.2260 H   0  0  0  0  0  0  0  0  0  0  0  0
  150.6046  135.1690  154.9901 H   0  0  0  0  0  0  0  0  0  0  0  0
  151.3522  136.3868  155.9722 H   0  0  0  0  0  0  0  0  0  0  0  0
  149.3939  134.2214  159.0560 H   0  0  0  0  0  0  0  0  0  0  0  0
  147.4178  132.0265  157.0291 H   0  0  0  0  0  0  0  0  0  0  0  0
  145.5685  130.6025  157.8717 H   0  0  0  0  0  0  0  0  0  0  0  0
  144.7138  130.9996  160.2528 H   0  0  0  0  0  0  0  0  0  0  0  0
  148.4305  135.8799  160.0569 H   0  0  0  0  0  0  0  0  0  0  0  0
  146.6903  135.9957  160.3618 H   0  0  0  0  0  0  0  0  0  0  0  0
  148.9540  136.3790  162.3481 H   0  0  0  0  0  0  0  0  0  0  0  0
  147.5628  137.4370  162.0896 H   0  0  0  0  0  0  0  0  0  0  0  0
  147.4833  135.6328  164.1221 H   0  0  0  0  0  0  0  0  0  0  0  0
  146.0641  135.8280  163.0926 H   0  0  0  0  0  0  0  0  0  0  0  0
  146.3507  133.5371  162.6985 H   0  0  0  0  0  0  0  0  0  0  0  0
  148.0808  133.6027  163.0491 H   0  0  0  0  0  0  0  0  0  0  0  0
  149.1410  139.1987  152.8996 H   0  0  0  0  0  0  0  0  0  0  0  0
  147.9360  138.7710  154.0865 H   0  0  0  0  0  0  0  0  0  0  0  0
  149.3384  139.8025  155.9038 H   0  0  0  0  0  0  0  0  0  0  0  0
  147.7977  141.3380  154.6824 H   0  0  0  0  0  0  0  0  0  0  0  0
  149.0693  141.6904  153.5134 H   0  0  0  0  0  0  0  0  0  0  0  0
  149.2619  142.1696  155.1974 H   0  0  0  0  0  0  0  0  0  0  0  0
  149.5027  137.0256  153.3960 H   0  0  0  0  0  0  0  0  0  0  0  0
  145.7040  132.6406  161.5298 H   0  0  0  0  0  0  0  0  0  0  0  0
  1  2  1  0  0  0  0
  1 26  1  0  0  0  0
  1 27  1  0  0  0  0
  1 28  1  0  0  0  0
  2 25  1  0  0  0  0
  2  3  1  0  0  0  0
  2 29  1  0  0  0  0
  3  4  1  0  0  0  0
  3 30  1  0  0  0  0
  3 31  1  0  0  0  0
  4  5  1  0  0  0  0
  4 22  1  0  0  0  0
  4 54  1  0  0  0  0
  5  6  1  0  0  0  0
  5 32  1  0  0  0  0
  5 33  1  0  0  0  0
  6  7  1  0  0  0  0
  6 34  1  0  0  0  0
  6 35  1  0  0  0  0
  7  8  1  0  0  0  0
  8  9  2  0  0  0  0
  8 10  1  0  0  0  0
 10 11  1  0  0  0  0
 10 36  1  0  0  0  0
 11 16  1  0  0  0  0
 11 12  2  0  0  0  0
 12 13  1  0  0  0  0
 12 37  1  0  0  0  0
 13 14  2  0  0  0  0
 13 38  1  0  0  0  0
 14 15  1  0  0  0  0
 14 39  1  0  0  0  0
 15 16  2  0  0  0  0
 15 55  1  0  0  0  0
 16 17  1  0  0  0  0
 17 21  1  0  0  0  0
 17 18  1  0  0  0  0
 18 19  1  0  0  0  0
 18 40  1  0  0  0  0
 18 41  1  0  0  0  0
 19 20  1  0  0  0  0
 19 42  1  0  0  0  0
 19 43  1  0  0  0  0
 20 21  1  0  0  0  0
 20 44  1  0  0  0  0
 20 45  1  0  0  0  0
 21 46  1  0  0  0  0
 21 47  1  0  0  0  0
 22 23  1  0  0  0  0
 22 48  1  0  0  0  0
 22 49  1  0  0  0  0
 23 24  1  0  0  0  0
 23 25  1  0  0  0  0
 23 50  1  0  0  0  0
 24 51  1  0  0  0  0
 24 52  1  0  0  0  0
 24 53  1  0  0  0  0
M  CHG  1   4   1
M  CHG  1   7  -1
M  CHG  1  15   1
M  END
> <s_m_source_file>
AV-unprocessed.smi

> <i_m_source_file_index>
1244

> <i_lp_mmshare_version>
43012

> <i_f3d_flags>
0

> <s_epik_input>
W0NIM11bQ0BASF0xW0NIMl1OKFtDSDJdW0NASF0oTzEpW0NIM10pW0NIMl1bQ0gyXVtOSF1DKD1PKVtOSF1jMltjSF1bY0hdW2NIXW5jMk4zW0NIMl1bQ0gyXVtDSDJdW0NIMl0z

> <s_epik_cmdline>
J2VwaWtfcHl0aG9uJywgJy1waCcsICc3LjAnLCAnLXRuJywgJzgnLCAnLW1hJywgJzIwMCcsICctbWV0YWxfYmluZGluZycsICctaW1hZScsICc8aW5maWxlLm1hZT4nLCAnLW9tYWUnLCAnPG91dGZpbGUubWFlPic=

> <r_lp_tautomer_probability>
0.999994

> <r_epik_Ionization_Penalty>
8.60539

> <r_epik_Ionization_Penalty_Charging>
8.60539

> <r_epik_Ionization_Penalty_Neutral>
3.60441e-06

> <r_epik_State_Penalty>
8.59967

> <r_epik_Charging_Adjusted_Penalty>
17.2051

> <i_epik_Tot_Q>
1

> <i_epik_Tot_abs_Q>
3

> <r_epik_Metal_State_Penalty>
4.59489

> <b_epik_Metal_Only>
1

> <s_lp_Force_Field>
OPLS_2005

> <r_lp_Energy>
45.4407

> <b_lp_Chiralities_Consistent>
1

> <s_lp_Variant>
AV-unprocessed.smi:1244-17

> <Gold.Version>
5.8.1

> <Gold.Id.Protein>
6NUR|6NUR_protein|mol2

> <Gold.PLP.Fitness>
44.7713

> <Gold.PLP.PLP>
-36.4346

> <Gold.PLP.part.hbond>
-1.9826

> <Gold.PLP.part.metal>
0.0000

> <Gold.PLP.part.buried>
-0.7064

> <Gold.PLP.part.nonpolar>
-33.7010

> <Gold.PLP.part.repulsive>
0.1859

> <Gold.PLP.ligand.clash>
0.0000

> <Gold.PLP.ligand.torsion>
0.6967

> <Gold.PLP.Chemscore.Hbond>
3.0000

> <Gold.PLP.Chemscore.CHOScore>
0.0000

> <Gold.PLP.Chemscore.Metal>
0.0000

> <Gold.Chemscore.Hbonds>
donor molecule, donor type, donor heavy atom, donor atom, acceptor molecule, acceptor atom, score
      L1  H     4    54       P1  7948  2.00
      P1  H  7989  7998       L1    25  0.99

> <Gold.PLP.Chemscore.Internal.Correction>
0.7301

> <Gold.Rescore>
     Score         DG    S(hbond)    S(metal)    S(lipo)     H(rot)  DE(clash)    DE(int)     intcor
     16.63     -18.90       1.89        0.00      95.75       1.60       0.16       2.11       ----

> <Gold.Chemscore.Fitness>
16.6293

> <Gold.Chemscore.DG>
-18.9050

> <Gold.Chemscore.ZeroCoef>
-5.4800

> <Gold.Chemscore.Hbond>
1.8901

> <Gold.Chemscore.Metal>
0.0000

> <Gold.Chemscore.Lipo>
95.7490

> <Gold.Chemscore.Internal_Hbond>
0.0000

> <Gold.Chemscore.DEClash>
0.1633

> <Gold.Chemscore.DEInternal>
2.1124

> <Gold.Chemscore.Rot>
1.5978

> <Gold.Chemscore.Internal.Correction>
   9.000000E+99

> <Gold.Chemscore.Hbonds>
donor molecule, donor type, donor heavy atom, donor atom, acceptor molecule, acceptor atom, score
      L1  H     4    54       P1  7948  0.85
      P1  H  7989  7998       L1    25  0.65

> <Gold.Chemscore.Hbond.Weighted>
-6.3128

> <Gold.Chemscore.Metal.Weighted>
-0.0000

> <Gold.Chemscore.Lipo.Weighted>
-11.2026

> <Gold.Chemscore.Internal_Hbond.Weighted>
0.0000

> <Gold.Chemscore.DEClash.Weighted>
0.1633

> <Gold.Chemscore.DEInternal.Weighted>
2.1124

> <Gold.Chemscore.Rot.Weighted>
4.0905

> <Gold.Chemscore.Internal.Correction.Weighted>
   9.000000E+99

> <Gold.Protein.RotatedTorsions>
[ 6907 6896 6895 6894 ] final  153.13 input  -60.11 | X-H torsion
[ 7974 7965 7964 7962 ] final   17.08 input  175.53 | X-H torsion
[ 8008 7997 7996 7995 ] final   52.48 input   59.86 | X-H torsion
[ 10167 10162 10161 10158 ] final  -37.36 input  -65.29 | X-H torsion
[ 10718 10713 10712 10709 ] final  -99.23 input   66.30 | X-H torsion
[ 10763 10752 10751 10750 ] final   74.55 input  -60.55 | X-H torsion
[ 11005 11000 10999 10996 ] final    5.30 input  -57.11 | X-H torsion

> <Gold.Protein.ActiveResidues>
 VAL166  LYS551  ARG553  GLY616  TRP617  ASP618  TYR619  PRO620  LYS621  CYS622 
 ASP623  PHE694  ASN695  SER759  ASP760  ASP761  ALA762  ILE779  LEU786  VAL792 
 PHE793  MET794  SER795  GLU796  ALA797  LYS798  CYS799  TRP800  GLU811  SER814 

> <Gold.Protein.RotatedAtoms>
  152.0769  133.4134  159.4483 H   0  0  0  0  0  0  0  0  0  0  0  0  # atno 6907 bound_to 6896
  150.6862  134.3027  159.4722 H   0  0  0  0  0  0  0  0  0  0  0  0  # atno 6908 bound_to 6896
  152.0864  134.9436  160.0623 H   0  0  0  0  0  0  0  0  0  0  0  0  # atno 6909 bound_to 6896
  146.2229  139.8654  142.8597 H   0  0  0  0  0  0  0  0  0  0  0  0  # atno 7974 bound_to 7965
  155.4524  140.3458  155.4302 H   0  0  0  0  0  0  0  0  0  0  0  0  # atno 8008 bound_to 7997
  156.1212  140.1487  156.9232 H   0  0  0  0  0  0  0  0  0  0  0  0  # atno 8009 bound_to 7997
  154.4824  140.0865  156.7389 H   0  0  0  0  0  0  0  0  0  0  0  0  # atno 8010 bound_to 7997
  140.7120  143.3347  151.2490 H   0  0  0  0  0  0  0  0  0  0  0  0  # atno 10167 bound_to 10162
  156.0128  130.5273  150.6639 H   0  0  0  0  0  0  0  0  0  0  0  0  # atno 10718 bound_to 10713
  153.0594  135.5021  154.8059 H   0  0  0  0  0  0  0  0  0  0  0  0  # atno 10763 bound_to 10752
  154.6859  135.2976  154.9550 H   0  0  0  0  0  0  0  0  0  0  0  0  # atno 10764 bound_to 10752
  154.0321  135.6728  153.4834 H   0  0  0  0  0  0  0  0  0  0  0  0  # atno 10765 bound_to 10752
  140.5722  134.0091  155.8013 H   0  0  0  0  0  0  0  0  0  0  0  0  # atno 11005 bound_to 11000
  145.2662  141.0093  143.3798 LP  0  0  0  0  0  0  0  0  0  0  0  0  # atno 17320 bound_to 7965
  144.9259  139.4355  143.6518 LP  0  0  0  0  0  0  0  0  0  0  0  0  # atno 17321 bound_to 7965
  139.6839  143.9808  152.2823 LP  0  0  0  0  0  0  0  0  0  0  0  0  # atno 17342 bound_to 10162
  139.9446  144.6659  150.8232 LP  0  0  0  0  0  0  0  0  0  0  0  0  # atno 17343 bound_to 10162
  157.4376  131.0857  151.0976 LP  0  0  0  0  0  0  0  0  0  0  0  0  # atno 17370 bound_to 10713
  157.1530  130.6192  149.5588 LP  0  0  0  0  0  0  0  0  0  0  0  0  # atno 17371 bound_to 10713
  141.1049  133.9710  157.3015 LP  0  0  0  0  0  0  0  0  0  0  0  0  # atno 17394 bound_to 11000
  139.9356  135.0196  156.8545 LP  0  0  0  0  0  0  0  0  0  0  0  0  # atno 17395 bound_to 11000

$$$$
