#       Name:                AV-unprocessed.smi:1641
#       Creating user name   scv26
#       Creation time:       Fri Mar 27 07:24:17 2020


#       File generated by GOLD software.
#

@<TRIPOS>MOLECULE
AV-unprocessed.smi:1641
    48    49     1
SMALL
NO_CHARGES


@<TRIPOS>ATOM
      1 ****        -5.2954   4.2505   1.5917 C.3            1 S1                 0.0000
      2 ****        -4.4941   3.0879   1.1147 C.2            1 S1                 0.0000
      3 ****        -4.0020   2.1596   1.9440 N.2            1 S1                 0.0000
      4 ****        -3.2909   1.1765   1.2703 N.2            1 S1                 0.0000
      5 ****        -3.2680   1.3934  -0.0520 C.2            1 S1                 0.0000
      6 ****        -2.6102   0.5439  -0.9802 N.am           1 S1                 0.0000
      7 ****        -1.9403  -0.5957  -0.7353 C.2            1 S1                 0.0000
      8 ****        -1.8145  -1.1213   0.3709 O.2            1 S1                 0.0000
      9 ****        -1.4140  -1.1001  -1.8611 N.am           1 S1                 0.0000
     10 ****        -0.5788  -2.2951  -1.9409 C.3            1 S1                 0.0000
     11 ****         0.9183  -1.9338  -2.0000 C.3            1 S1                 0.0000
     12 ****         1.4462  -1.2429  -0.8236 N.3            1 S1                 0.0000
     13 ****         1.4848  -2.0959   0.3621 C.3            1 S1                 0.0000
     14 ****         2.0392  -1.3615   1.5989 C.3            1 S1                 0.0000
     15 ****         1.0533  -0.3392   2.1912 C.3            1 S1                 0.0000
     16 ****         3.3026  -0.7674   1.2946 O.3            1 S1                 0.0000
     17 ****         3.3189   0.0690   0.1390 C.3            1 S1                 0.0000
     18 ****         4.7562   0.5529  -0.0800 C.3            1 S1                 0.0000
     19 ****         2.7817  -0.7176  -1.0706 C.3            1 S1                 0.0000
     20 ****        -4.1162   2.8346  -0.5848 S.3            1 S1                 0.0000
     21 ****        -5.8397   3.9911   2.5001 H              1 S1                 0.0000
     22 ****        -6.0145   4.5501   0.8291 H              1 S1                 0.0000
     23 ****        -4.6376   5.0932   1.8044 H              1 S1                 0.0000
     24 ****        -2.6423   0.8468  -1.9423 H              1 S1                 0.0000
     25 ****        -1.5748  -0.6028  -2.7246 H              1 S1                 0.0000
     26 ****        -0.7939  -2.9904  -1.1287 H              1 S1                 0.0000
     27 ****        -0.8508  -2.8206  -2.8564 H              1 S1                 0.0000
     28 ****         1.4987  -2.8397  -2.1806 H              1 S1                 0.0000
     29 ****         1.0705  -1.3054  -2.8788 H              1 S1                 0.0000
     30 ****         0.4926  -2.4797   0.5947 H              1 S1                 0.0000
     31 ****         2.1092  -2.9674   0.1598 H              1 S1                 0.0000
     32 ****         2.2289  -2.1057   2.3727 H              1 S1                 0.0000
     33 ****         0.1409  -0.8322   2.5276 H              1 S1                 0.0000
     34 ****         0.7610   0.4191   1.4649 H              1 S1                 0.0000
     35 ****         1.4893   0.1700   3.0508 H              1 S1                 0.0000
     36 ****         2.6877   0.9404   0.3158 H              1 S1                 0.0000
     37 ****         4.8198   1.2157  -0.9435 H              1 S1                 0.0000
     38 ****         5.4334  -0.2847  -0.2494 H              1 S1                 0.0000
     39 ****         5.1177   1.1039   0.7884 H              1 S1                 0.0000
     40 ****         3.4625  -1.5368  -1.3083 H              1 S1                 0.0000
     41 ****         2.7650  -0.0632  -1.9431 H              1 S1                 0.0000
     42 ****        -4.1319   2.1729   2.9354 LP             1 S1                 0.0000
     43 ****        -2.8486   0.3994   1.7179 LP             1 S1                 0.0000
     44 ****        -2.2291  -0.6972   1.1760 LP             1 S1                 0.0000
     45 ****        -1.2977  -1.9723   0.4642 LP             1 S1                 0.0000
     46 ****         0.8140  -0.4884  -0.6475 LP             1 S1                 0.0000
     47 ****         3.9643  -1.5036   1.1528 LP             1 S1                 0.0000
     48 ****         3.5817  -0.2150   2.0800 LP             1 S1                 0.0000
@<TRIPOS>BOND
    1    1    2 1     
    2    1   21 1     
    3    1   22 1     
    4    1   23 1     
    5    2   20 1     
    6    2    3 2     
    7    3    4 1     
    8    4    5 2     
    9    5    6 1     
   10    5   20 1     
   11    6    7 am    
   12    6   24 1     
   13    7    8 2     
   14    7    9 am    
   15    9   10 1     
   16    9   25 1     
   17   10   11 1     
   18   10   26 1     
   19   10   27 1     
   20   11   12 1     
   21   11   28 1     
   22   11   29 1     
   23   12   19 1     
   24   12   13 1     
   25   13   14 1     
   26   13   30 1     
   27   13   31 1     
   28   14   15 1     
   29   14   16 1     
   30   14   32 1     
   31   15   33 1     
   32   15   34 1     
   33   15   35 1     
   34   16   17 1     
   35   17   18 1     
   36   17   19 1     
   37   17   36 1     
   38   18   37 1     
   39   18   38 1     
   40   18   39 1     
   41   19   40 1     
   42   19   41 1     
   43    3   42 1     
   44    4   43 1     
   45    8   44 1     
   46    8   45 1     
   47   12   46 1     
   48   16   47 1     
   49   16   48 1     
@<TRIPOS>SUBSTRUCTURE
      1 S1             1
@<TRIPOS>SET
LONE_PAIRS      STATIC     ATOMS    <user>   **** ""
7 42 43 44 45 46 47 48
DONOR_HYDROGENS      STATIC     ATOMS    <user>   **** ""
2 24 25
ATOM$BLUE        STATIC     ATOMS    COLORGROUP SYSTEM
7 42 43 44 45 46 47 48
ATOM$RED        STATIC     ATOMS    COLORGROUP SYSTEM
2 24 25
