AV-unprocessed.smi:1100|AV-procd|sdf|4764|dock3
  -GOLD-   22720 3303D 1   1.00000     0.00000
 Structure written by MMmdl.
 43 44  0  0  0  0  0  0  0  0  3 V2000
  148.5667  140.8947  154.1772 C   0  0  0  0  0  0  0  0  0  0  0  0
  149.0667  139.5801  153.5258 C   0  0  1  0  0  0  0  0  0  0  0  0
  150.1943  138.8647  154.3163 C   0  0  0  0  0  0  0  0  0  0  0  0
  151.3135  139.7758  154.5534 N   0  5  0  0  0  0  0  0  0  0  0  0
  151.7937  140.1072  155.7827 C   0  0  0  0  0  0  0  0  0  0  0  0
  152.6369  139.4934  156.4465 O   0  0  0  0  0  0  0  0  0  0  0  0
  151.2186  141.2298  156.2579 N   0  0  0  0  0  0  0  0  0  0  0  0
  151.4689  141.9439  157.4405 C   0  0  0  0  0  0  0  0  0  0  0  0
  151.8130  141.1842  158.6234 C   0  0  0  0  0  0  0  0  0  0  0  0
  152.0353  141.7922  159.8048 C   0  0  0  0  0  0  0  0  0  0  0  0
  151.9395  143.2469  159.9472 C   0  0  0  0  0  0  0  0  0  0  0  0
  152.1362  143.8163  161.0215 O   0  0  0  0  0  0  0  0  0  0  0  0
  151.6160  143.9299  158.8111 N   0  0  0  0  0  0  0  0  0  0  0  0
  151.4883  145.3891  158.8507 C   0  0  0  0  0  0  0  0  0  0  0  0
  151.3747  143.2846  157.5829 C   0  0  0  0  0  0  0  0  0  0  0  0
  147.9563  138.6255  153.2171 N   0  3  0  0  0  0  0  0  0  0  0  0
  147.3137  137.9492  154.3787 C   0  0  0  0  0  0  0  0  0  0  0  0
  146.3185  136.8875  153.8847 C   0  0  0  0  0  0  0  0  0  0  0  0
  145.3419  137.5047  153.0548 O   0  0  0  0  0  0  0  0  0  0  0  0
  145.9221  138.0983  151.8997 C   0  0  0  0  0  0  0  0  0  0  0  0
  146.9202  139.1915  152.3177 C   0  0  0  0  0  0  0  0  0  0  0  0
  149.3611  141.6396  154.2496 H   0  0  0  0  0  0  0  0  0  0  0  0
  148.1729  140.7440  155.1838 H   0  0  0  0  0  0  0  0  0  0  0  0
  147.7746  141.3468  153.5802 H   0  0  0  0  0  0  0  0  0  0  0  0
  149.5115  139.8562  152.5681 H   0  0  0  0  0  0  0  0  0  0  0  0
  149.7858  138.4714  155.2478 H   0  0  0  0  0  0  0  0  0  0  0  0
  150.5122  137.9916  153.7438 H   0  0  0  0  0  0  0  0  0  0  0  0
  150.4908  141.6197  155.6773 H   0  0  0  0  0  0  0  0  0  0  0  0
  151.8949  140.1088  158.5621 H   0  0  0  0  0  0  0  0  0  0  0  0
  152.2902  141.1950  160.6676 H   0  0  0  0  0  0  0  0  0  0  0  0
  151.3555  145.8274  157.8611 H   0  0  0  0  0  0  0  0  0  0  0  0
  152.3790  145.8461  159.2847 H   0  0  0  0  0  0  0  0  0  0  0  0
  150.6282  145.6772  159.4564 H   0  0  0  0  0  0  0  0  0  0  0  0
  151.0921  143.9592  156.7906 H   0  0  0  0  0  0  0  0  0  0  0  0
  148.0635  137.4762  155.0135 H   0  0  0  0  0  0  0  0  0  0  0  0
  146.7834  138.6768  154.9942 H   0  0  0  0  0  0  0  0  0  0  0  0
  146.8319  136.0935  153.3398 H   0  0  0  0  0  0  0  0  0  0  0  0
  145.8166  136.4200  154.7320 H   0  0  0  0  0  0  0  0  0  0  0  0
  146.4132  137.3351  151.2938 H   0  0  0  0  0  0  0  0  0  0  0  0
  145.1291  138.5283  151.2874 H   0  0  0  0  0  0  0  0  0  0  0  0
  146.3984  140.0053  152.8230 H   0  0  0  0  0  0  0  0  0  0  0  0
  147.3851  139.6118  151.4252 H   0  0  0  0  0  0  0  0  0  0  0  0
  148.3991  137.8936  152.6795 H   0  0  0  0  0  0  0  0  0  0  0  0
  1  2  1  0  0  0  0
  1 22  1  0  0  0  0
  1 23  1  0  0  0  0
  1 24  1  0  0  0  0
  2  3  1  0  0  0  0
  2 16  1  0  0  0  0
  2 25  1  0  0  0  0
  3  4  1  0  0  0  0
  3 26  1  0  0  0  0
  3 27  1  0  0  0  0
  4  5  1  0  0  0  0
  5  6  2  0  0  0  0
  5  7  1  0  0  0  0
  7  8  1  0  0  0  0
  7 28  1  0  0  0  0
  8 15  2  0  0  0  0
  8  9  1  0  0  0  0
  9 10  2  0  0  0  0
  9 29  1  0  0  0  0
 10 11  1  0  0  0  0
 10 30  1  0  0  0  0
 11 12  2  0  0  0  0
 11 13  1  0  0  0  0
 13 14  1  0  0  0  0
 13 15  1  0  0  0  0
 14 31  1  0  0  0  0
 14 32  1  0  0  0  0
 14 33  1  0  0  0  0
 15 34  1  0  0  0  0
 16 21  1  0  0  0  0
 16 17  1  0  0  0  0
 16 43  1  0  0  0  0
 17 18  1  0  0  0  0
 17 35  1  0  0  0  0
 17 36  1  0  0  0  0
 18 19  1  0  0  0  0
 18 37  1  0  0  0  0
 18 38  1  0  0  0  0
 19 20  1  0  0  0  0
 20 21  1  0  0  0  0
 20 39  1  0  0  0  0
 20 40  1  0  0  0  0
 21 41  1  0  0  0  0
 21 42  1  0  0  0  0
M  CHG  1   4  -1
M  CHG  1  16   1
M  END
> <s_m_source_file>
AV-unprocessed.smi

> <i_m_source_file_index>
1100

> <i_lp_mmshare_version>
43012

> <i_f3d_flags>
0

> <s_epik_input>
W0NIMl0xW0NIMl1PW0NIMl1bQ0gyXU4xW0NASF0oW0NIM10pW0NIMl1bTkhdQyg9TylbTkhdYzJbY0hdW2NIXWMoPU8pbihbQ0gzXSlbY0hdMg==

> <s_epik_cmdline>
J2VwaWtfcHl0aG9uJywgJy1waCcsICc3LjAnLCAnLXRuJywgJzgnLCAnLW1hJywgJzIwMCcsICctbWV0YWxfYmluZGluZycsICctaW1hZScsICc8aW5maWxlLm1hZT4nLCAnLW9tYWUnLCAnPG91dGZpbGUubWFlPic=

> <r_lp_tautomer_probability>
1

> <r_epik_Ionization_Penalty>
6.79272

> <r_epik_Ionization_Penalty_Charging>
6.79272

> <r_epik_Ionization_Penalty_Neutral>
3.37009e-06

> <r_epik_State_Penalty>
7.34577

> <r_epik_Charging_Adjusted_Penalty>
14.1385

> <i_epik_Tot_Q>
0

> <i_epik_Tot_abs_Q>
2

> <r_epik_Metal_State_Penalty>
3.26257

> <b_epik_Metal_Only>
1

> <s_lp_Force_Field>
OPLS_2005

> <r_lp_Energy>
32.2868

> <b_lp_Chiralities_Consistent>
1

> <s_lp_Variant>
AV-unprocessed.smi:1100-6

> <Gold.Version>
5.8.1

> <Gold.Id.Protein>
6NUR|6NUR_protein|mol2

> <Gold.PLP.Fitness>
52.6167

> <Gold.PLP.PLP>
-39.5350

> <Gold.PLP.part.hbond>
-3.2522

> <Gold.PLP.part.metal>
0.0000

> <Gold.PLP.part.buried>
-3.2244

> <Gold.PLP.part.nonpolar>
-34.8221

> <Gold.PLP.part.repulsive>
0.4938

> <Gold.PLP.ligand.clash>
0.0000

> <Gold.PLP.ligand.torsion>
1.0531

> <Gold.PLP.Chemscore.Hbond>
4.0000

> <Gold.PLP.Chemscore.CHOScore>
1.0000

> <Gold.PLP.Chemscore.Metal>
0.0000

> <Gold.Chemscore.Hbonds>
donor molecule, donor type, donor heavy atom, donor atom, acceptor molecule, acceptor atom, score
      L1  H    16    43       P1  7948  2.00
      P1  H  7989  7998       L1     4  1.00
      P1  H  7997  8009       L1     6  1.00
      L1  C    15    34       P1  8028  0.90

> <Gold.PLP.Chemscore.Internal.Correction>
0.1879

> <Gold.Rescore>
     Score         DG    S(hbond)    S(metal)    S(lipo)     H(rot)  DE(clash)    DE(int)     intcor
     17.84     -21.58       2.86        0.00      89.16       1.51       1.41       2.34       ----

> <Gold.Chemscore.Fitness>
17.8361

> <Gold.Chemscore.DG>
-21.5810

> <Gold.Chemscore.ZeroCoef>
-5.4800

> <Gold.Chemscore.Hbond>
2.8569

> <Gold.Chemscore.Metal>
0.0000

> <Gold.Chemscore.Lipo>
89.1582

> <Gold.Chemscore.Internal_Hbond>
0.0000

> <Gold.Chemscore.DEClash>
1.4089

> <Gold.Chemscore.DEInternal>
2.3360

> <Gold.Chemscore.Rot>
1.5128

> <Gold.Chemscore.Internal.Correction>
   9.000000E+99

> <Gold.Chemscore.Hbonds>
donor molecule, donor type, donor heavy atom, donor atom, acceptor molecule, acceptor atom, score
      L1  H    16    43       P1  7948  1.00
      P1  H  7989  7998       L1     4  0.76
      P1  H  7997  8009       L1     6  0.93

> <Gold.Chemscore.Hbond.Weighted>
-9.5421

> <Gold.Chemscore.Metal.Weighted>
-0.0000

> <Gold.Chemscore.Lipo.Weighted>
-10.4315

> <Gold.Chemscore.Internal_Hbond.Weighted>
0.0000

> <Gold.Chemscore.DEClash.Weighted>
1.4089

> <Gold.Chemscore.DEInternal.Weighted>
2.3360

> <Gold.Chemscore.Rot.Weighted>
3.8726

> <Gold.Chemscore.Internal.Correction.Weighted>
   9.000000E+99

> <Gold.Protein.RotatedTorsions>
[ 6907 6896 6895 6894 ] final  -38.50 input  -60.11 | X-H torsion
[ 7974 7965 7964 7962 ] final  -78.66 input  175.53 | X-H torsion
[ 8008 7997 7996 7995 ] final -162.30 input   59.86 | X-H torsion
[ 10167 10162 10161 10158 ] final   22.06 input  -65.29 | X-H torsion
[ 10718 10713 10712 10709 ] final  142.45 input   66.30 | X-H torsion
[ 10763 10752 10751 10750 ] final  100.16 input  -60.55 | X-H torsion
[ 11005 11000 10999 10996 ] final  -10.27 input  -57.11 | X-H torsion

> <Gold.Protein.ActiveResidues>
 VAL166  LYS551  ARG553  GLY616  TRP617  ASP618  TYR619  PRO620  LYS621  CYS622 
 ASP623  PHE694  ASN695  SER759  ASP760  ASP761  ALA762  ILE779  LEU786  VAL792 
 PHE793  MET794  SER795  GLU796  ALA797  LYS798  CYS799  TRP800  GLU811  SER814 

> <Gold.Protein.RotatedAtoms>
  151.0017  134.9327  159.7957 H   0  0  0  0  0  0  0  0  0  0  0  0  # atno 6907 bound_to 6896
  152.5279  134.3145  159.9136 H   0  0  0  0  0  0  0  0  0  0  0  0  # atno 6908 bound_to 6896
  151.3151  133.4022  159.2684 H   0  0  0  0  0  0  0  0  0  0  0  0  # atno 6909 bound_to 6896
  145.5835  140.9444  143.1331 H   0  0  0  0  0  0  0  0  0  0  0  0  # atno 7974 bound_to 7965
  155.8048  140.0897  157.1937 H   0  0  0  0  0  0  0  0  0  0  0  0  # atno 8008 bound_to 7997
  154.3981  140.1465  156.3376 H   0  0  0  0  0  0  0  0  0  0  0  0  # atno 8009 bound_to 7997
  155.8425  140.3438  155.5644 H   0  0  0  0  0  0  0  0  0  0  0  0  # atno 8010 bound_to 7997
  140.5378  143.9729  150.6502 H   0  0  0  0  0  0  0  0  0  0  0  0  # atno 10167 bound_to 10162
  157.3804  131.0991  151.0744 H   0  0  0  0  0  0  0  0  0  0  0  0  # atno 10718 bound_to 10713
  153.3105  135.4088  155.1331 H   0  0  0  0  0  0  0  0  0  0  0  0  # atno 10763 bound_to 10752
  154.8574  135.3563  154.5730 H   0  0  0  0  0  0  0  0  0  0  0  0  # atno 10764 bound_to 10752
  153.6159  135.7066  153.5387 H   0  0  0  0  0  0  0  0  0  0  0  0  # atno 10765 bound_to 10752
  140.7430  133.8655  155.8983 H   0  0  0  0  0  0  0  0  0  0  0  0  # atno 11005 bound_to 11000
  144.7383  139.7522  143.7321 LP  0  0  0  0  0  0  0  0  0  0  0  0  # atno 17320 bound_to 7965
  146.1699  139.4845  142.9934 LP  0  0  0  0  0  0  0  0  0  0  0  0  # atno 17321 bound_to 7965
  140.3122  143.3191  152.0868 LP  0  0  0  0  0  0  0  0  0  0  0  0  # atno 17342 bound_to 10162
  139.4977  144.6629  151.6424 LP  0  0  0  0  0  0  0  0  0  0  0  0  # atno 17343 bound_to 10162
  157.1815  130.6311  149.5673 LP  0  0  0  0  0  0  0  0  0  0  0  0  # atno 17370 bound_to 10713
  155.9774  130.4752  150.6594 LP  0  0  0  0  0  0  0  0  0  0  0  0  # atno 17371 bound_to 10713
  140.9820  134.1393  157.4486 LP  0  0  0  0  0  0  0  0  0  0  0  0  # atno 17394 bound_to 11000
  139.8802  135.0013  156.6061 LP  0  0  0  0  0  0  0  0  0  0  0  0  # atno 17395 bound_to 11000

$$$$
