#       Name:                AV-unprocessed.smi:2895
#       Creating user name   scv26
#       Creation time:       Fri Mar 27 16:00:57 2020


#       File generated by GOLD software.
#

@<TRIPOS>MOLECULE
AV-unprocessed.smi:2895
    56    59     1
SMALL
NO_CHARGES


@<TRIPOS>ATOM
      1 ****         1.8447   1.4591  -1.3643 O.2            1 S1                 0.0000
      2 ****         1.5849   0.7276  -0.4081 C.2            1 S1                 0.0000
      3 ****         2.4468  -0.2071   0.0279 N.am           1 S1                 0.0000
      4 ****         3.7542  -0.4823  -0.5575 C.3            1 S1                 0.0000
      5 ****         3.6397  -1.3403  -1.8284 C.3            1 S1                 0.0000
      6 ****         4.9950  -1.6332  -2.4429 C.ar           1 S1                 0.0000
      7 ****         5.5774  -0.7238  -3.3533 C.ar           1 S1                 0.0000
      8 ****         6.8403  -1.0178  -3.9070 C.ar           1 S1                 0.0000
      9 ****         7.4763  -2.1594  -3.5632 N.pl3          1 S1                 1.0000
     10 ****         6.9547  -3.0552  -2.6963 C.ar           1 S1                 0.0000
     11 ****         5.6950  -2.8140  -2.1102 C.ar           1 S1                 0.0000
     12 ****         0.4476   0.8382   0.3239 N.am           1 S1                 0.0000
     13 ****        -0.0920  -0.1790   1.2399 C.3            1 S1                 0.0000
     14 ****        -1.3718  -0.7921   0.6308 C.3            1 S1                 0.0000
     15 ****        -2.3947   0.2437   0.2940 N.4            1 S1                 1.0000
     16 ****        -3.1576   0.7337   1.4872 C.3            1 S1                 0.0000
     17 ****        -3.9356  -0.4053   2.2020 C.3            1 S1                 0.0000
     18 ****        -5.3730   0.1303   2.2912 C.3            1 S1                 0.0000
     19 ****        -5.4279   1.3104   3.2758 C.3            1 S1                 0.0000
     20 ****        -4.7210   2.4303   2.4926 C.3            1 S1                 0.0000
     21 ****        -4.3134   1.7307   1.1807 C.3            1 S1                 0.0000
     22 ****        -5.5134   0.8211   0.9428 C.3            1 S1                 0.0000
     23 ****        -1.7907   1.3105  -0.5571 C.3            1 S1                 0.0000
     24 ****        -0.5248   1.9100   0.0845 C.3            1 S1                 0.0000
     25 ****         2.1846  -0.7541   0.8352 H              1 S1                 0.0000
     26 ****         4.2694   0.4556  -0.7727 H              1 S1                 0.0000
     27 ****         4.3562  -1.0019   0.1886 H              1 S1                 0.0000
     28 ****         3.1382  -2.2819  -1.6004 H              1 S1                 0.0000
     29 ****         3.0216  -0.8367  -2.5728 H              1 S1                 0.0000
     30 ****         5.0648   0.1886  -3.6227 H              1 S1                 0.0000
     31 ****         7.3571  -0.3788  -4.6082 H              1 S1                 0.0000
     32 ****         7.5566  -3.9303  -2.4988 H              1 S1                 0.0000
     33 ****         5.2748  -3.5259  -1.4145 H              1 S1                 0.0000
     34 ****         0.6082  -0.9821   1.4686 H              1 S1                 0.0000
     35 ****        -0.3114   0.2901   2.1994 H              1 S1                 0.0000
     36 ****        -1.1089  -1.3133  -0.2908 H              1 S1                 0.0000
     37 ****        -1.7662  -1.5593   1.2949 H              1 S1                 0.0000
     38 ****        -2.4547   1.1968   2.1800 H              1 S1                 0.0000
     39 ****        -3.9477  -1.3243   1.6147 H              1 S1                 0.0000
     40 ****        -3.5177  -0.6434   3.1809 H              1 S1                 0.0000
     41 ****        -6.1155  -0.6426   2.4921 H              1 S1                 0.0000
     42 ****        -6.4593   1.5882   3.4964 H              1 S1                 0.0000
     43 ****        -4.9313   1.0834   4.2200 H              1 S1                 0.0000
     44 ****        -5.4132   3.2496   2.2939 H              1 S1                 0.0000
     45 ****        -3.8673   2.8433   3.0314 H              1 S1                 0.0000
     46 ****        -4.1378   2.4552   0.3899 H              1 S1                 0.0000
     47 ****        -5.3854   0.1484   0.0930 H              1 S1                 0.0000
     48 ****        -6.4538   1.3642   0.8315 H              1 S1                 0.0000
     49 ****        -1.5159   0.8547  -1.5095 H              1 S1                 0.0000
     50 ****        -2.4945   2.0944  -0.8213 H              1 S1                 0.0000
     51 ****        -0.7666   2.3963   1.0302 H              1 S1                 0.0000
     52 ****        -0.1293   2.7009  -0.5542 H              1 S1                 0.0000
     53 ****        -3.0840  -0.2160  -0.2839 H              1 S1                 0.0000
     54 ****         8.3894  -2.3529  -3.9755 H              1 S1                 0.0000
     55 ****         2.7189   1.3672  -1.8411 LP             1 S1                 0.0000
     56 ****         1.1814   2.1449  -1.6639 LP             1 S1                 0.0000
@<TRIPOS>BOND
    1    1    2 2     
    2    2    3 am    
    3    2   12 am    
    4    3    4 1     
    5    3   25 1     
    6    4    5 1     
    7    4   26 1     
    8    4   27 1     
    9    5    6 1     
   10    5   28 1     
   11    5   29 1     
   12    6   11 ar    
   13    6    7 ar    
   14    7    8 ar    
   15    7   30 1     
   16    8    9 ar    
   17    8   31 1     
   18    9   10 ar    
   19    9   54 1     
   20   10   11 ar    
   21   10   32 1     
   22   11   33 1     
   23   12   24 1     
   24   12   13 1     
   25   13   14 1     
   26   13   34 1     
   27   13   35 1     
   28   14   15 1     
   29   14   36 1     
   30   14   37 1     
   31   15   16 1     
   32   15   23 1     
   33   15   53 1     
   34   16   21 1     
   35   16   17 1     
   36   16   38 1     
   37   17   18 1     
   38   17   39 1     
   39   17   40 1     
   40   18   22 1     
   41   18   19 1     
   42   18   41 1     
   43   19   20 1     
   44   19   42 1     
   45   19   43 1     
   46   20   21 1     
   47   20   44 1     
   48   20   45 1     
   49   21   22 1     
   50   21   46 1     
   51   22   47 1     
   52   22   48 1     
   53   23   24 1     
   54   23   49 1     
   55   23   50 1     
   56   24   51 1     
   57   24   52 1     
   58    1   55 1     
   59    1   56 1     
@<TRIPOS>SUBSTRUCTURE
      1 S1             1
@<TRIPOS>SET
LONE_PAIRS      STATIC     ATOMS    <user>   **** ""
2 55 56
DONOR_HYDROGENS      STATIC     ATOMS    <user>   **** ""
3 25 54 53
ATOM$BLUE        STATIC     ATOMS    COLORGROUP SYSTEM
2 55 56
ATOM$RED        STATIC     ATOMS    COLORGROUP SYSTEM
3 25 54 53
