#       Name:                AV-unprocessed.smi:2524
#       Creating user name   scv26
#       Creation time:       Fri Mar 27 13:56:34 2020


#       File generated by GOLD software.
#

@<TRIPOS>MOLECULE
AV-unprocessed.smi:2524
    37    38     1
SMALL
NO_CHARGES


@<TRIPOS>ATOM
      1 ****        -4.4914   3.8028   0.2407 C.2            1 S1                 0.0000
      2 ****        -3.6697   3.4301  -0.7519 C.2            1 S1                 0.0000
      3 ****        -3.5913   2.0283  -1.3192 C.3            1 S1                 0.0000
      4 ****        -2.1875   1.4295  -1.1701 C.3            1 S1                 0.0000
      5 ****        -2.1204  -0.2848  -1.8599 S.o2           1 S1                 0.0000
      6 ****        -2.9931  -1.1082  -1.0057 O.2            1 S1                 0.0000
      7 ****        -2.5211  -0.1481  -3.2684 O.2            1 S1                 0.0000
      8 ****        -0.5404  -0.6455  -1.7316 N.pl3          1 S1                -1.0000
      9 ****         0.0409  -1.0514  -0.4575 C.3            1 S1                 0.0000
     10 ****         1.5781  -0.9198  -0.4347 C.3            1 S1                 0.0000
     11 ****         2.1304  -1.3755   0.8966 C.ar           1 S1                 0.0000
     12 ****         2.2842  -0.4669   1.9727 C.ar           1 S1                 0.0000
     13 ****         2.8136  -0.9164   3.1992 C.ar           1 S1                 0.0000
     14 ****         3.1783  -2.2086   3.3404 N.pl3          1 S1                 1.0000
     15 ****         3.0604  -3.1124   2.3446 C.ar           1 S1                 0.0000
     16 ****         2.5363  -2.7178   1.0971 C.ar           1 S1                 0.0000
     17 ****         2.4247  -1.1713  -1.6745 C.3            1 S1                 0.0000
     18 ****         2.2904   0.2309  -1.1305 C.3            1 S1                 0.0000
     19 ****        -5.1647   3.0979   0.7060 H              1 S1                 0.0000
     20 ****        -4.5001   4.8207   0.6013 H              1 S1                 0.0000
     21 ****        -3.0099   4.1623  -1.1940 H              1 S1                 0.0000
     22 ****        -4.3223   1.3892  -0.8224 H              1 S1                 0.0000
     23 ****        -3.8719   2.0684  -2.3720 H              1 S1                 0.0000
     24 ****        -1.4514   2.0352  -1.6990 H              1 S1                 0.0000
     25 ****        -1.9007   1.3946  -0.1195 H              1 S1                 0.0000
     26 ****        -0.3499  -0.4546   0.3676 H              1 S1                 0.0000
     27 ****        -0.2138  -2.0853  -0.2221 H              1 S1                 0.0000
     28 ****         1.9923   0.5671   1.8576 H              1 S1                 0.0000
     29 ****         2.9554  -0.2854   4.0644 H              1 S1                 0.0000
     30 ****         3.3868  -4.1164   2.5731 H              1 S1                 0.0000
     31 ****         2.4416  -3.4397   0.2988 H              1 S1                 0.0000
     32 ****         3.3873  -1.6611  -1.5428 H              1 S1                 0.0000
     33 ****         1.9468  -1.3613  -2.6347 H              1 S1                 0.0000
     34 ****         1.7244   0.9330  -1.7413 H              1 S1                 0.0000
     35 ****         3.1664   0.6560  -0.6444 H              1 S1                 0.0000
     36 ****         3.5597  -2.5143   4.2361 H              1 S1                 0.0000
     37 ****         0.0436  -0.5880  -2.5414 LP             1 S1                 0.0000
@<TRIPOS>BOND
    1    1    2 2     
    2    1   19 1     
    3    1   20 1     
    4    2    3 1     
    5    2   21 1     
    6    3    4 1     
    7    3   22 1     
    8    3   23 1     
    9    4    5 1     
   10    4   24 1     
   11    4   25 1     
   12    5    6 2     
   13    5    7 2     
   14    5    8 1     
   15    8    9 1     
   16    9   10 1     
   17    9   26 1     
   18    9   27 1     
   19   10   18 1     
   20   10   11 1     
   21   10   17 1     
   22   11   16 ar    
   23   11   12 ar    
   24   12   13 ar    
   25   12   28 1     
   26   13   14 ar    
   27   13   29 1     
   28   14   15 ar    
   29   14   36 1     
   30   15   16 ar    
   31   15   30 1     
   32   16   31 1     
   33   17   18 1     
   34   17   32 1     
   35   17   33 1     
   36   18   34 1     
   37   18   35 1     
   38    8   37 1     
@<TRIPOS>SUBSTRUCTURE
      1 S1             1
@<TRIPOS>SET
LONE_PAIRS      STATIC     ATOMS    <user>   **** ""
3 6 7 37
DONOR_HYDROGENS      STATIC     ATOMS    <user>   **** ""
1 36
ATOM$BLUE        STATIC     ATOMS    COLORGROUP SYSTEM
3 6 7 37
ATOM$RED        STATIC     ATOMS    COLORGROUP SYSTEM
1 36
