AV-unprocessed.smi:1019|AV-procd|sdf|4447|dock3
  -GOLD-   22720 2413D 1   1.00000     0.00000
 Structure written by MMmdl.
 45 47  0  0  0  0  0  0  0  0  3 V2000
  148.5944  141.3125  157.4101 C   0  0  0  0  0  0  0  0  0  0  0  0
  149.4423  142.1886  156.5699 N   0  3  1  0  0  0  0  0  0  0  0  0
  150.8807  141.8382  156.6637 C   0  0  0  0  0  0  0  0  0  0  0  0
  151.4765  142.2962  157.9841 C   0  0  0  0  0  0  0  0  0  0  0  0
  151.5440  143.6735  158.2847 C   0  0  0  0  0  0  0  0  0  0  0  0
  152.1118  144.1067  159.4985 C   0  0  0  0  0  0  0  0  0  0  0  0
  152.6103  143.1647  160.4186 C   0  0  0  0  0  0  0  0  0  0  0  0
  152.5395  141.7891  160.1255 C   0  0  0  0  0  0  0  0  0  0  0  0
  151.9728  141.3551  158.9113 C   0  0  0  0  0  0  0  0  0  0  0  0
  148.9437  142.2967  155.1738 C   0  0  0  0  0  0  0  0  0  0  0  0
  148.7232  140.9106  154.5416 C   0  0  2  0  0  0  0  0  0  0  0  0
  149.6350  140.7670  153.4716 O   0  0  0  0  0  0  0  0  0  0  0  0
  147.2841  140.7267  154.0138 C   0  0  0  0  0  0  0  0  0  0  0  0
  146.9746  139.3356  153.6596 N   0  0  0  0  0  0  0  0  0  0  0  0
  147.5987  138.4942  152.7901 C   0  0  0  0  0  0  0  0  0  0  0  0
  146.9276  137.3091  152.8124 N   0  3  0  0  0  0  0  0  0  0  0  0
  145.8564  137.3957  153.7044 C   0  0  0  0  0  0  0  0  0  0  0  0
  144.8924  136.4595  154.0663 C   0  0  0  0  0  0  0  0  0  0  0  0
  143.9306  136.8744  155.0109 C   0  0  0  0  0  0  0  0  0  0  0  0
  143.9500  138.1743  155.5572 C   0  0  0  0  0  0  0  0  0  0  0  0
  144.9323  139.1156  155.1836 C   0  0  0  0  0  0  0  0  0  0  0  0
  145.8796  138.6967  154.2503 C   0  0  0  0  0  0  0  0  0  0  0  0
  148.6530  140.2753  157.0768 H   0  0  0  0  0  0  0  0  0  0  0  0
  147.5507  141.6254  157.3713 H   0  0  0  0  0  0  0  0  0  0  0  0
  148.9112  141.3542  158.4526 H   0  0  0  0  0  0  0  0  0  0  0  0
  151.0047  140.7557  156.6057 H   0  0  0  0  0  0  0  0  0  0  0  0
  151.4286  142.2606  155.8197 H   0  0  0  0  0  0  0  0  0  0  0  0
  151.1650  144.4022  157.5829 H   0  0  0  0  0  0  0  0  0  0  0  0
  152.1647  145.1615  159.7245 H   0  0  0  0  0  0  0  0  0  0  0  0
  153.0445  143.4972  161.3500 H   0  0  0  0  0  0  0  0  0  0  0  0
  152.9199  141.0669  160.8327 H   0  0  0  0  0  0  0  0  0  0  0  0
  151.9248  140.2980  158.6937 H   0  0  0  0  0  0  0  0  0  0  0  0
  148.0040  142.8475  155.1347 H   0  0  0  0  0  0  0  0  0  0  0  0
  149.6498  142.8831  154.5832 H   0  0  0  0  0  0  0  0  0  0  0  0
  148.9556  140.1319  155.2682 H   0  0  0  0  0  0  0  0  0  0  0  0
  149.2411  140.2170  152.8113 H   0  0  0  0  0  0  0  0  0  0  0  0
  146.5481  141.0638  154.7447 H   0  0  0  0  0  0  0  0  0  0  0  0
  147.1280  141.3325  153.1197 H   0  0  0  0  0  0  0  0  0  0  0  0
  148.4693  138.7238  152.1922 H   0  0  0  0  0  0  0  0  0  0  0  0
  144.8741  135.4632  153.6492 H   0  0  0  0  0  0  0  0  0  0  0  0
  143.1621  136.1814  155.3224 H   0  0  0  0  0  0  0  0  0  0  0  0
  143.1953  138.4547  156.2778 H   0  0  0  0  0  0  0  0  0  0  0  0
  144.9382  140.1084  155.6079 H   0  0  0  0  0  0  0  0  0  0  0  0
  149.3712  143.1144  156.9666 H   0  0  0  0  0  0  0  0  0  0  0  0
  147.1827  136.5027  152.2563 H   0  0  0  0  0  0  0  0  0  0  0  0
  1  2  1  0  0  0  0
  1 23  1  0  0  0  0
  1 24  1  0  0  0  0
  1 25  1  0  0  0  0
  2  3  1  0  0  0  0
  2 10  1  0  0  0  0
  2 44  1  0  0  0  0
  3  4  1  0  0  0  0
  3 26  1  0  0  0  0
  3 27  1  0  0  0  0
  4  9  1  0  0  0  0
  4  5  2  0  0  0  0
  5  6  1  0  0  0  0
  5 28  1  0  0  0  0
  6  7  2  0  0  0  0
  6 29  1  0  0  0  0
  7  8  1  0  0  0  0
  7 30  1  0  0  0  0
  8  9  2  0  0  0  0
  8 31  1  0  0  0  0
  9 32  1  0  0  0  0
 10 11  1  0  0  0  0
 10 33  1  0  0  0  0
 10 34  1  0  0  0  0
 11 12  1  0  0  0  0
 11 13  1  0  0  0  0
 11 35  1  0  0  0  0
 12 36  1  0  0  0  0
 13 14  1  0  0  0  0
 13 37  1  0  0  0  0
 13 38  1  0  0  0  0
 14 22  1  0  0  0  0
 14 15  1  0  0  0  0
 15 16  2  0  0  0  0
 15 39  1  0  0  0  0
 16 17  1  0  0  0  0
 16 45  1  0  0  0  0
 17 22  2  0  0  0  0
 17 18  1  0  0  0  0
 18 19  2  0  0  0  0
 18 40  1  0  0  0  0
 19 20  1  0  0  0  0
 19 41  1  0  0  0  0
 20 21  2  0  0  0  0
 20 42  1  0  0  0  0
 21 22  1  0  0  0  0
 21 43  1  0  0  0  0
M  CHG  1   2   1
M  CHG  1  16   1
M  END
> <s_m_source_file>
AV-unprocessed.smi

> <i_m_source_file_index>
1019

> <i_lp_mmshare_version>
43012

> <i_f3d_flags>
0

> <s_epik_input>
W2NIXTFbY0hdW2NIXVtjSF1bY0hdYzFbQ0gyXU4oW0NIM10pW0NIMl1bQ0BIXShbT0hdKVtDSDJdbihbY0hdbjIpYyhjMjMpW2NIXVtjSF1bY0hdW2NIXTM=

> <s_epik_cmdline>
J2VwaWtfcHl0aG9uJywgJy1waCcsICc3LjAnLCAnLXRuJywgJzgnLCAnLW1hJywgJzIwMCcsICctbWV0YWxfYmluZGluZycsICctaW1hZScsICc8aW5maWxlLm1hZT4nLCAnLW9tYWUnLCAnPG91dGZpbGUubWFlPic=

> <r_epik_Ionization_Penalty>
1.5198

> <r_epik_Ionization_Penalty_Charging>
1.5198

> <r_epik_Ionization_Penalty_Neutral>
3.13312e-06

> <r_epik_State_Penalty>
1.624

> <r_epik_Charging_Adjusted_Penalty>
3.1438

> <i_epik_Tot_Q>
2

> <i_epik_Tot_abs_Q>
2

> <r_epik_Metal_State_Penalty>
5.67392

> <b_epik_Metal_Only>
0

> <s_lp_Force_Field>
OPLS_2005

> <r_lp_Energy>
24.5939

> <b_lp_Chiralities_Consistent>
1

> <s_lp_Variant>
AV-unprocessed.smi:1019-5

> <Gold.Version>
5.8.1

> <Gold.Id.Protein>
6NUR|6NUR_protein|mol2

> <Gold.PLP.Fitness>
48.3866

> <Gold.PLP.PLP>
-35.3635

> <Gold.PLP.part.hbond>
-4.4508

> <Gold.PLP.part.metal>
0.0000

> <Gold.PLP.part.buried>
3.1914

> <Gold.PLP.part.nonpolar>
-33.9366

> <Gold.PLP.part.repulsive>
0.0913

> <Gold.PLP.ligand.clash>
0.0000

> <Gold.PLP.ligand.torsion>
1.0995

> <Gold.PLP.Chemscore.Hbond>
3.5440

> <Gold.PLP.Chemscore.CHOScore>
1.3782

> <Gold.PLP.Chemscore.Metal>
0.0000

> <Gold.Chemscore.Hbonds>
donor molecule, donor type, donor heavy atom, donor atom, acceptor molecule, acceptor atom, score
      L1  H     2    44       P1  8028  0.57
      L1  H    12    36       P1  7957  0.61
      L1  H    16    45       P1  7948  0.77
      P1  H  7989  7998       L1    12  0.35
      P1  H  8011  8017       L1    12  0.80
      L1  C    15    39       P1  7948  0.25
      L1  C    15    39       P1  7957  0.92

> <Gold.PLP.Chemscore.Internal.Correction>
0.4556

> <Gold.Rescore>
     Score         DG    S(hbond)    S(metal)    S(lipo)     H(rot)  DE(clash)    DE(int)     intcor
     14.29     -18.50       1.97        0.00     108.70       2.46       3.17       1.04       ----

> <Gold.Chemscore.Fitness>
14.2888

> <Gold.Chemscore.DG>
-18.4954

> <Gold.Chemscore.ZeroCoef>
-5.4800

> <Gold.Chemscore.Hbond>
1.9709

> <Gold.Chemscore.Metal>
0.0000

> <Gold.Chemscore.Lipo>
108.7003

> <Gold.Chemscore.Internal_Hbond>
0.0000

> <Gold.Chemscore.DEClash>
3.1670

> <Gold.Chemscore.DEInternal>
1.0396

> <Gold.Chemscore.Rot>
2.4552

> <Gold.Chemscore.Internal.Correction>
   9.000000E+99

> <Gold.Chemscore.Hbonds>
donor molecule, donor type, donor heavy atom, donor atom, acceptor molecule, acceptor atom, score
      L1  H     2    44       P1  8028  0.28
      L1  H    12    36       P1  7957  0.60
      L1  H    16    45       P1  7948  0.40
      P1  H  7989  7998       L1    12  0.32
      P1  H  8011  8017       L1    12  0.10

> <Gold.Chemscore.Hbond.Weighted>
-6.5829

> <Gold.Chemscore.Metal.Weighted>
-0.0000

> <Gold.Chemscore.Lipo.Weighted>
-12.7179

> <Gold.Chemscore.Internal_Hbond.Weighted>
0.0000

> <Gold.Chemscore.DEClash.Weighted>
3.1670

> <Gold.Chemscore.DEInternal.Weighted>
1.0396

> <Gold.Chemscore.Rot.Weighted>
6.2854

> <Gold.Chemscore.Internal.Correction.Weighted>
   9.000000E+99

> <Gold.Protein.RotatedTorsions>
[ 6907 6896 6895 6894 ] final  -50.48 input  -60.11 | X-H torsion
[ 7974 7965 7964 7962 ] final  -63.26 input  175.53 | X-H torsion
[ 8008 7997 7996 7995 ] final   50.50 input   59.86 | X-H torsion
[ 10167 10162 10161 10158 ] final -112.12 input  -65.29 | X-H torsion
[ 10718 10713 10712 10709 ] final  168.72 input   66.30 | X-H torsion
[ 10763 10752 10751 10750 ] final -130.41 input  -60.55 | X-H torsion
[ 11005 11000 10999 10996 ] final -138.50 input  -57.11 | X-H torsion

> <Gold.Protein.ActiveResidues>
 VAL166  LYS551  ARG553  GLY616  TRP617  ASP618  TYR619  PRO620  LYS621  CYS622 
 ASP623  PHE694  ASN695  SER759  ASP760  ASP761  ALA762  ILE779  LEU786  VAL792 
 PHE793  MET794  SER795  GLU796  ALA797  LYS798  CYS799  TRP800  GLU811  SER814 

> <Gold.Protein.RotatedAtoms>
  150.8703  134.8075  159.7149 H   0  0  0  0  0  0  0  0  0  0  0  0  # atno 6907 bound_to 6896
  152.4710  134.4958  159.9719 H   0  0  0  0  0  0  0  0  0  0  0  0  # atno 6908 bound_to 6896
  151.5047  133.3458  159.2910 H   0  0  0  0  0  0  0  0  0  0  0  0  # atno 6909 bound_to 6896
  145.7813  140.8760  143.0329 H   0  0  0  0  0  0  0  0  0  0  0  0  # atno 7974 bound_to 7965
  155.4198  140.3446  155.4270 H   0  0  0  0  0  0  0  0  0  0  0  0  # atno 8008 bound_to 7997
  156.1400  140.1539  156.8967 H   0  0  0  0  0  0  0  0  0  0  0  0  # atno 8009 bound_to 7997
  154.4963  140.0827  156.7683 H   0  0  0  0  0  0  0  0  0  0  0  0  # atno 8010 bound_to 7997
  140.1262  143.4400  152.1658 H   0  0  0  0  0  0  0  0  0  0  0  0  # atno 10167 bound_to 10162
  157.0330  131.0265  151.2738 H   0  0  0  0  0  0  0  0  0  0  0  0  # atno 10718 bound_to 10713
  154.8755  135.3863  154.4079 H   0  0  0  0  0  0  0  0  0  0  0  0  # atno 10763 bound_to 10752
  153.4796  135.7030  153.5951 H   0  0  0  0  0  0  0  0  0  0  0  0  # atno 10764 bound_to 10752
  153.4372  135.3864  155.2174 H   0  0  0  0  0  0  0  0  0  0  0  0  # atno 10765 bound_to 10752
  140.8610  134.2168  157.4707 H   0  0  0  0  0  0  0  0  0  0  0  0  # atno 11005 bound_to 11000
  144.6796  139.9993  143.7484 LP  0  0  0  0  0  0  0  0  0  0  0  0  # atno 17320 bound_to 7965
  146.0071  139.3139  143.0892 LP  0  0  0  0  0  0  0  0  0  0  0  0  # atno 17321 bound_to 7965
  139.5543  144.7361  151.4341 LP  0  0  0  0  0  0  0  0  0  0  0  0  # atno 17342 bound_to 10162
  140.6843  143.8009  150.7165 LP  0  0  0  0  0  0  0  0  0  0  0  0  # atno 17343 bound_to 10162
  157.5163  130.7970  149.7760 LP  0  0  0  0  0  0  0  0  0  0  0  0  # atno 17370 bound_to 10713
  156.0063  130.3854  150.2419 LP  0  0  0  0  0  0  0  0  0  0  0  0  # atno 17371 bound_to 10713
  139.8707  134.9729  156.4791 LP  0  0  0  0  0  0  0  0  0  0  0  0  # atno 17394 bound_to 11000
  140.8682  133.8008  155.9337 LP  0  0  0  0  0  0  0  0  0  0  0  0  # atno 17395 bound_to 11000

$$$$
