AV-unprocessed.smi:3181|AV-procd|sdf|12141|dock6
  -GOLD-   2272017583D 1   1.00000     0.00000
 Structure written by MMmdl.
 42 43  0  0  0  0  0  0  0  0  2 V2000
  148.4511  141.6946  154.1251 C   0  0  0  0  0  0  0  0  0  0  0  0
  149.5614  141.2143  155.0749 C   0  0  2  0  0  0  0  0  0  0  0  0
  149.4587  139.7078  155.4092 C   0  0  0  0  0  0  0  0  0  0  0  0
  150.6565  138.9665  155.0594 N   0  0  0  0  0  0  0  0  0  0  0  0
  150.8279  137.6688  154.8022 C   0  0  0  0  0  0  0  0  0  0  0  0
  152.0798  137.3412  154.5158 N   0  0  0  0  0  0  0  0  0  0  0  0
  152.6671  138.5708  154.6169 C   0  0  0  0  0  0  0  0  0  0  0  0
  151.8571  139.5798  154.9387 N   0  0  0  0  0  0  0  0  0  0  0  0
  149.5414  142.0440  156.3022 N   0  3  0  0  0  0  0  0  0  0  0  0
  150.8122  142.1256  157.0577 C   0  0  1  0  0  0  0  0  0  0  0  0
  150.7482  143.2788  158.0698 C   0  0  0  0  0  0  0  0  0  0  0  0
  152.0499  143.3725  158.8777 C   0  0  0  0  0  0  0  0  0  0  0  0
  152.3752  142.0537  159.6087 C   0  0  2  0  0  0  0  0  0  0  0  0
  153.6869  142.2060  160.3994 C   0  0  0  0  0  0  0  0  0  0  0  0
  152.4043  140.8643  158.6117 C   0  0  1  0  0  0  0  0  0  0  0  0
  152.6509  139.5111  159.3022 C   0  0  0  0  0  0  0  0  0  0  0  0
  151.0964  140.8040  157.7952 C   0  0  0  0  0  0  0  0  0  0  0  0
  148.5037  141.1947  153.1576 H   0  0  0  0  0  0  0  0  0  0  0  0
  148.5342  142.7653  153.9355 H   0  0  0  0  0  0  0  0  0  0  0  0
  147.4622  141.5070  154.5443 H   0  0  0  0  0  0  0  0  0  0  0  0
  150.5118  141.3951  154.5703 H   0  0  0  0  0  0  0  0  0  0  0  0
  149.2874  139.5620  156.4758 H   0  0  0  0  0  0  0  0  0  0  0  0
  148.6071  139.2614  154.8925 H   0  0  0  0  0  0  0  0  0  0  0  0
  150.0223  136.9496  154.8273 H   0  0  0  0  0  0  0  0  0  0  0  0
  153.7228  138.7266  154.4492 H   0  0  0  0  0  0  0  0  0  0  0  0
  149.3139  142.9845  156.0128 H   0  0  0  0  0  0  0  0  0  0  0  0
  151.6323  142.3314  156.3674 H   0  0  0  0  0  0  0  0  0  0  0  0
  150.5716  144.2226  157.5518 H   0  0  0  0  0  0  0  0  0  0  0  0
  149.9067  143.1359  158.7496 H   0  0  0  0  0  0  0  0  0  0  0  0
  152.8718  143.6365  158.2106 H   0  0  0  0  0  0  0  0  0  0  0  0
  151.9680  144.1869  159.5986 H   0  0  0  0  0  0  0  0  0  0  0  0
  151.5771  141.8712  160.3302 H   0  0  0  0  0  0  0  0  0  0  0  0
  154.5421  142.3201  159.7325 H   0  0  0  0  0  0  0  0  0  0  0  0
  153.8747  141.3473  161.0432 H   0  0  0  0  0  0  0  0  0  0  0  0
  153.6535  143.0830  161.0463 H   0  0  0  0  0  0  0  0  0  0  0  0
  153.2242  141.0283  157.9106 H   0  0  0  0  0  0  0  0  0  0  0  0
  151.9030  139.3160  160.0716 H   0  0  0  0  0  0  0  0  0  0  0  0
  153.6338  139.4680  159.7706 H   0  0  0  0  0  0  0  0  0  0  0  0
  152.6085  138.6911  158.5847 H   0  0  0  0  0  0  0  0  0  0  0  0
  150.2632  140.5700  158.4601 H   0  0  0  0  0  0  0  0  0  0  0  0
  151.1524  139.9825  157.0811 H   0  0  0  0  0  0  0  0  0  0  0  0
  148.8086  141.7196  156.9174 H   0  0  0  0  0  0  0  0  0  0  0  0
  1  2  1  0  0  0  0
  1 18  1  0  0  0  0
  1 19  1  0  0  0  0
  1 20  1  0  0  0  0
  2  3  1  0  0  0  0
  2  9  1  0  0  0  0
  2 21  1  0  0  0  0
  3  4  1  0  0  0  0
  3 22  1  0  0  0  0
  3 23  1  0  0  0  0
  4  8  1  0  0  0  0
  4  5  1  0  0  0  0
  5  6  2  0  0  0  0
  5 24  1  0  0  0  0
  6  7  1  0  0  0  0
  7  8  2  0  0  0  0
  7 25  1  0  0  0  0
  9 10  1  0  0  0  0
  9 26  1  0  0  0  0
  9 42  1  0  0  0  0
 10 17  1  0  0  0  0
 10 11  1  0  0  0  0
 10 27  1  0  0  0  0
 11 12  1  0  0  0  0
 11 28  1  0  0  0  0
 11 29  1  0  0  0  0
 12 13  1  0  0  0  0
 12 30  1  0  0  0  0
 12 31  1  0  0  0  0
 13 14  1  0  0  0  0
 13 15  1  0  0  0  0
 13 32  1  0  0  0  0
 14 33  1  0  0  0  0
 14 34  1  0  0  0  0
 14 35  1  0  0  0  0
 15 16  1  0  0  0  0
 15 17  1  0  0  0  0
 15 36  1  0  0  0  0
 16 37  1  0  0  0  0
 16 38  1  0  0  0  0
 16 39  1  0  0  0  0
 17 40  1  0  0  0  0
 17 41  1  0  0  0  0
M  CHG  1   9   1
M  END
> <s_m_source_file>
AV-unprocessed.smi

> <i_m_source_file_index>
3181

> <i_lp_mmshare_version>
43012

> <i_f3d_flags>
0

> <s_epik_input>
bjFbY0hdbltjSF1uMVtDSDJdW0NAQEhdKFtDSDNdKVtOSF1bQ0BASF0yW0NIMl1bQ0gyXVtDQEBIXShbQ0gzXSlbQ0BASF0oW0NIM10pW0NIMl0y

> <s_epik_cmdline>
J2VwaWtfcHl0aG9uJywgJy1waCcsICc3LjAnLCAnLXRuJywgJzgnLCAnLW1hJywgJzIwMCcsICctbWV0YWxfYmluZGluZycsICctaW1hZScsICc8aW5maWxlLm1hZT4nLCAnLW9tYWUnLCAnPG91dGZpbGUubWFlPic=

> <r_lp_tautomer_probability>
1

> <r_epik_Ionization_Penalty>
0.000617007

> <r_epik_Ionization_Penalty_Charging>
0.000616215

> <r_epik_Ionization_Penalty_Neutral>
7.92544e-07

> <r_epik_State_Penalty>
0.000388807

> <r_epik_Charging_Adjusted_Penalty>
0.00100502

> <i_epik_Tot_Q>
1

> <i_epik_Tot_abs_Q>
1

> <r_epik_Metal_State_Penalty>
-0

> <b_epik_Metal_Only>
0

> <s_lp_Force_Field>
OPLS_2005

> <r_lp_Energy>
19.8131

> <b_lp_Chiralities_Consistent>
1

> <s_lp_Variant>
AV-unprocessed.smi:3181-7

> <Gold.Version>
5.8.1

> <Gold.Id.Protein>
6NUR|6NUR_protein|mol2

> <Gold.PLP.Fitness>
48.7070

> <Gold.PLP.PLP>
-40.0198

> <Gold.PLP.part.hbond>
-3.0000

> <Gold.PLP.part.metal>
0.0000

> <Gold.PLP.part.buried>
-5.4720

> <Gold.PLP.part.nonpolar>
-32.8805

> <Gold.PLP.part.repulsive>
0.2271

> <Gold.PLP.ligand.clash>
0.0000

> <Gold.PLP.ligand.torsion>
1.3793

> <Gold.PLP.Chemscore.Hbond>
3.8080

> <Gold.PLP.Chemscore.CHOScore>
0.0000

> <Gold.PLP.Chemscore.Metal>
0.0000

> <Gold.Chemscore.Hbonds>
donor molecule, donor type, donor heavy atom, donor atom, acceptor molecule, acceptor atom, score
      L1  H     9    26       P1  8028  2.00
      P1  H  7989  7998       L1     8  1.00
      P1  H 10752 10765       L1     6  0.88

> <Gold.PLP.Chemscore.Internal.Correction>
0.0217

> <Gold.Rescore>
     Score         DG    S(hbond)    S(metal)    S(lipo)     H(rot)  DE(clash)    DE(int)     intcor
     18.92     -20.10       2.88        0.00      88.94       2.11       0.07       1.10       ----

> <Gold.Chemscore.Fitness>
18.9235

> <Gold.Chemscore.DG>
-20.0951

> <Gold.Chemscore.ZeroCoef>
-5.4800

> <Gold.Chemscore.Hbond>
2.8771

> <Gold.Chemscore.Metal>
0.0000

> <Gold.Chemscore.Lipo>
88.9390

> <Gold.Chemscore.Internal_Hbond>
0.0000

> <Gold.Chemscore.DEClash>
0.0730

> <Gold.Chemscore.DEInternal>
1.0986

> <Gold.Chemscore.Rot>
2.1095

> <Gold.Chemscore.Internal.Correction>
   9.000000E+99

> <Gold.Chemscore.Hbonds>
donor molecule, donor type, donor heavy atom, donor atom, acceptor molecule, acceptor atom, score
      L1  H     9    26       P1  8028  1.00
      P1  H  7989  7998       L1     8  0.43
      P1  H 10752 10765       L1     6  0.86

> <Gold.Chemscore.Hbond.Weighted>
-9.6096

> <Gold.Chemscore.Metal.Weighted>
-0.0000

> <Gold.Chemscore.Lipo.Weighted>
-10.4059

> <Gold.Chemscore.Internal_Hbond.Weighted>
0.0000

> <Gold.Chemscore.DEClash.Weighted>
0.0730

> <Gold.Chemscore.DEInternal.Weighted>
1.0986

> <Gold.Chemscore.Rot.Weighted>
5.4003

> <Gold.Chemscore.Internal.Correction.Weighted>
   9.000000E+99

> <Gold.Protein.RotatedTorsions>
[ 6907 6896 6895 6894 ] final  165.73 input  -60.11 | X-H torsion
[ 7974 7965 7964 7962 ] final   86.54 input  175.53 | X-H torsion
[ 8008 7997 7996 7995 ] final -111.19 input   59.86 | X-H torsion
[ 10167 10162 10161 10158 ] final   88.40 input  -65.29 | X-H torsion
[ 10718 10713 10712 10709 ] final -113.34 input   66.30 | X-H torsion
[ 10763 10752 10751 10750 ] final  164.48 input  -60.55 | X-H torsion
[ 11005 11000 10999 10996 ] final -167.65 input  -57.11 | X-H torsion

> <Gold.Protein.ActiveResidues>
 VAL166  LYS551  ARG553  GLY616  TRP617  ASP618  TYR619  PRO620  LYS621  CYS622 
 ASP623  PHE694  ASN695  SER759  ASP760  ASP761  ALA762  ILE779  LEU786  VAL792 
 PHE793  MET794  SER795  GLU796  ALA797  LYS798  CYS799  TRP800  GLU811  SER814 

> <Gold.Protein.RotatedAtoms>
  151.8899  133.3514  159.3794 H   0  0  0  0  0  0  0  0  0  0  0  0  # atno 6907 bound_to 6896
  150.7106  134.4934  159.5536 H   0  0  0  0  0  0  0  0  0  0  0  0  # atno 6908 bound_to 6896
  152.2502  134.8140  160.0498 H   0  0  0  0  0  0  0  0  0  0  0  0  # atno 6909 bound_to 6896
  145.5710  139.2314  143.2406 H   0  0  0  0  0  0  0  0  0  0  0  0  # atno 7974 bound_to 7965
  154.9860  140.0395  157.2299 H   0  0  0  0  0  0  0  0  0  0  0  0  # atno 8008 bound_to 7997
  154.7671  140.2795  155.6145 H   0  0  0  0  0  0  0  0  0  0  0  0  # atno 8009 bound_to 7997
  156.2914  140.2617  156.2464 H   0  0  0  0  0  0  0  0  0  0  0  0  # atno 8010 bound_to 7997
  139.8677  144.6510  150.8985 H   0  0  0  0  0  0  0  0  0  0  0  0  # atno 10167 bound_to 10162
  156.0760  130.5968  150.8629 H   0  0  0  0  0  0  0  0  0  0  0  0  # atno 10718 bound_to 10713
  154.3095  135.2757  155.2573 H   0  0  0  0  0  0  0  0  0  0  0  0  # atno 10763 bound_to 10752
  154.4974  135.5817  153.6508 H   0  0  0  0  0  0  0  0  0  0  0  0  # atno 10764 bound_to 10752
  152.9890  135.6149  154.3271 H   0  0  0  0  0  0  0  0  0  0  0  0  # atno 10765 bound_to 10752
  140.5508  134.5430  157.5122 H   0  0  0  0  0  0  0  0  0  0  0  0  # atno 11005 bound_to 11000
  146.1784  140.6536  142.9200 LP  0  0  0  0  0  0  0  0  0  0  0  0  # atno 17320 bound_to 7965
  144.7438  140.5013  143.6850 LP  0  0  0  0  0  0  0  0  0  0  0  0  # atno 17321 bound_to 7965
  140.7765  143.3690  151.1684 LP  0  0  0  0  0  0  0  0  0  0  0  0  # atno 17342 bound_to 10162
  139.7314  143.9067  152.3020 LP  0  0  0  0  0  0  0  0  0  0  0  0  # atno 17343 bound_to 10162
  157.5856  131.0945  150.9202 LP  0  0  0  0  0  0  0  0  0  0  0  0  # atno 17370 bound_to 10713
  156.9388  130.5377  149.5280 LP  0  0  0  0  0  0  0  0  0  0  0  0  # atno 17371 bound_to 10713
  139.9456  134.7708  156.0570 LP  0  0  0  0  0  0  0  0  0  0  0  0  # atno 17394 bound_to 11000
  141.1173  133.6624  156.3125 LP  0  0  0  0  0  0  0  0  0  0  0  0  # atno 17395 bound_to 11000

$$$$
