#       Name:                AV-unprocessed.smi:554
#       Creating user name   scv26
#       Creation time:       Thu Mar 26 23:39:57 2020


#       File generated by GOLD software.
#

@<TRIPOS>MOLECULE
AV-unprocessed.smi:554
    30    31     1
SMALL
NO_CHARGES


@<TRIPOS>ATOM
      1 ****        -3.0673  -2.1092  -2.6634 C.3            1 S1                 0.0000
      2 ****        -1.8915  -2.5003  -1.7947 C.3            1 S1                 0.0000
      3 ****        -2.0209  -2.5213  -0.2889 C.3            1 S1                 0.0000
      4 ****        -1.1699  -1.4674  -0.9584 C.3            1 S1                 0.0000
      5 ****         0.3419  -1.4969  -0.8419 C.3            1 S1                 0.0000
      6 ****         0.8873  -0.7381   0.2762 N.am           1 S1                 0.0000
      7 ****         1.0427   0.5932   0.2985 C.2            1 S1                 0.0000
      8 ****         0.7287   1.3292  -0.6375 O.2            1 S1                 0.0000
      9 ****         1.5769   1.0006   1.4631 N.am           1 S1                 0.0000
     10 ****         1.9358   2.3178   1.8516 C.2            1 S1                 0.0000
     11 ****         1.7905   3.3998   1.0777 N.2            1 S1                 0.0000
     12 ****         2.2357   4.5621   1.7127 C.2            1 S1                 0.0000
     13 ****         2.7207   4.3448   2.9784 C.2            1 S1                 0.0000
     14 ****         2.6341   2.6623   3.4272 S.3            1 S1                 0.0000
     15 ****        -3.6650  -1.3344  -2.1820 H              1 S1                 0.0000
     16 ****        -3.7028  -2.9759  -2.8452 H              1 S1                 0.0000
     17 ****        -2.7130  -1.7295  -3.6217 H              1 S1                 0.0000
     18 ****        -1.2721  -3.2829  -2.2290 H              1 S1                 0.0000
     19 ****        -2.9652  -2.1993   0.1456 H              1 S1                 0.0000
     20 ****        -1.5124  -3.3211   0.2459 H              1 S1                 0.0000
     21 ****        -1.5873  -0.4623  -0.9910 H              1 S1                 0.0000
     22 ****         0.6733  -2.5308  -0.7407 H              1 S1                 0.0000
     23 ****         0.7705  -1.1310  -1.7763 H              1 S1                 0.0000
     24 ****         1.1708  -1.2656   1.0887 H              1 S1                 0.0000
     25 ****         1.7660   0.2814   2.1456 H              1 S1                 0.0000
     26 ****         2.1719   5.5042   1.1884 H              1 S1                 0.0000
     27 ****         3.1213   5.0701   3.6709 H              1 S1                 0.0000
     28 ****         0.3349   0.9392  -1.4699 LP             1 S1                 0.0000
     29 ****         0.8675   2.3169  -0.5652 LP             1 S1                 0.0000
     30 ****         1.4083   3.3790   0.1538 LP             1 S1                 0.0000
@<TRIPOS>BOND
    1    1    2 1     
    2    1   15 1     
    3    1   16 1     
    4    1   17 1     
    5    2    4 1     
    6    2    3 1     
    7    2   18 1     
    8    3    4 1     
    9    3   19 1     
   10    3   20 1     
   11    4    5 1     
   12    4   21 1     
   13    5    6 1     
   14    5   22 1     
   15    5   23 1     
   16    6    7 am    
   17    6   24 1     
   18    7    8 2     
   19    7    9 am    
   20    9   10 1     
   21    9   25 1     
   22   10   14 1     
   23   10   11 2     
   24   11   12 1     
   25   12   13 2     
   26   12   26 1     
   27   13   14 1     
   28   13   27 1     
   29    8   28 1     
   30    8   29 1     
   31   11   30 1     
@<TRIPOS>SUBSTRUCTURE
      1 S1             1
@<TRIPOS>SET
LONE_PAIRS      STATIC     ATOMS    <user>   **** ""
3 28 29 30
DONOR_HYDROGENS      STATIC     ATOMS    <user>   **** ""
2 24 25
ATOM$BLUE        STATIC     ATOMS    COLORGROUP SYSTEM
3 28 29 30
ATOM$RED        STATIC     ATOMS    COLORGROUP SYSTEM
2 24 25
