AV-unprocessed.smi:243|AV-procd|sdf|1853|dock9
  -GOLD-   2262020483D 1   1.00000     0.00000
 Structure written by MMmdl.
 58 61  0  0  0  0  0  0  0  0  2 V2000
  147.8562  127.3872  150.6910 C   0  0  0  0  0  0  0  0  0  0  0  0
  146.9299  128.1467  151.6517 C   0  0  0  0  0  0  0  0  0  0  0  0
  147.5103  129.4373  152.1027 N   0  3  1  0  0  0  0  0  0  0  0  0
  146.5009  130.3625  152.6801 C   0  0  0  0  0  0  0  0  0  0  0  0
  147.1148  131.7313  153.0353 C   0  0  0  0  0  0  0  0  0  0  0  0
  148.4120  131.6561  153.8688 C   0  0  1  0  0  0  0  0  0  0  0  0
  148.1800  131.5842  155.3236 N   0  0  0  0  0  0  0  0  0  0  0  0
  147.6101  130.4263  156.0065 C   0  0  0  0  0  0  0  0  0  0  0  0
  148.7531  132.5370  156.1031 C   0  0  0  0  0  0  0  0  0  0  0  0
  148.6484  132.4137  157.4521 N   0  0  0  0  0  0  0  0  0  0  0  0
  149.1994  133.3252  158.2585 C   0  0  0  0  0  0  0  0  0  0  0  0
  149.8854  134.4215  157.9319 N   0  0  0  0  0  0  0  0  0  0  0  0
  149.9902  134.5561  156.5788 C   0  0  0  0  0  0  0  0  0  0  0  0
  149.4637  133.6656  155.5998 C   0  0  0  0  0  0  0  0  0  0  0  0
  149.7670  134.1355  154.3268 N   0  0  0  0  0  0  0  0  0  0  0  0
  150.4394  135.2328  154.5413 C   0  0  0  0  0  0  0  0  0  0  0  0
  150.6098  135.5676  155.8655 N   0  0  0  0  0  0  0  0  0  0  0  0
  151.3079  136.7335  156.3863 C   0  0  0  0  0  0  0  0  0  0  0  0
  150.4983  138.0462  156.2623 C   0  0  2  0  0  0  0  0  0  0  0  0
  149.7009  138.2072  157.4232 O   0  0  0  0  0  0  0  0  0  0  0  0
  149.5798  138.0634  155.0466 C   0  0  0  0  0  0  0  0  0  0  0  0
  149.4926  139.5462  154.7115 C   0  0  0  0  0  0  0  0  0  0  0  0
  150.8164  139.9989  154.9382 O   0  0  0  0  0  0  0  0  0  0  0  0
  151.3485  139.3204  156.0725 C   0  0  0  0  0  0  0  0  0  0  0  0
  149.3738  130.5802  153.3058 C   0  0  1  0  0  0  0  0  0  0  0  0
  150.6549  130.4005  154.1385 C   0  0  0  0  0  0  0  0  0  0  0  0
  148.6628  129.2435  153.0189 C   0  0  0  0  0  0  0  0  0  0  0  0
  147.4412  126.4072  150.4547 H   0  0  0  0  0  0  0  0  0  0  0  0
  148.8399  127.2292  151.1341 H   0  0  0  0  0  0  0  0  0  0  0  0
  147.9915  127.9145  149.7473 H   0  0  0  0  0  0  0  0  0  0  0  0
  145.9534  128.3136  151.1946 H   0  0  0  0  0  0  0  0  0  0  0  0
  146.7585  127.5064  152.5179 H   0  0  0  0  0  0  0  0  0  0  0  0
  145.6974  130.5284  151.9634 H   0  0  0  0  0  0  0  0  0  0  0  0
  146.0327  129.8985  153.5454 H   0  0  0  0  0  0  0  0  0  0  0  0
  147.3495  132.2387  152.0988 H   0  0  0  0  0  0  0  0  0  0  0  0
  146.3776  132.3625  153.5334 H   0  0  0  0  0  0  0  0  0  0  0  0
  148.9222  132.6011  153.6797 H   0  0  0  0  0  0  0  0  0  0  0  0
  147.3232  130.6776  157.0285 H   0  0  0  0  0  0  0  0  0  0  0  0
  148.3281  129.6084  156.0539 H   0  0  0  0  0  0  0  0  0  0  0  0
  146.7096  130.0714  155.5148 H   0  0  0  0  0  0  0  0  0  0  0  0
  149.0713  133.1521  159.3170 H   0  0  0  0  0  0  0  0  0  0  0  0
  150.8255  135.8374  153.7333 H   0  0  0  0  0  0  0  0  0  0  0  0
  151.5563  136.5442  157.4313 H   0  0  0  0  0  0  0  0  0  0  0  0
  152.2591  136.8251  155.8599 H   0  0  0  0  0  0  0  0  0  0  0  0
  149.3483  139.0840  157.4245 H   0  0  0  0  0  0  0  0  0  0  0  0
  150.0468  137.5390  154.2117 H   0  0  0  0  0  0  0  0  0  0  0  0
  148.6063  137.6043  155.2235 H   0  0  0  0  0  0  0  0  0  0  0  0
  149.1739  139.7306  153.6854 H   0  0  0  0  0  0  0  0  0  0  0  0
  148.8070  140.0620  155.3855 H   0  0  0  0  0  0  0  0  0  0  0  0
  151.3189  139.9715  156.9477 H   0  0  0  0  0  0  0  0  0  0  0  0
  152.3952  139.0966  155.8696 H   0  0  0  0  0  0  0  0  0  0  0  0
  149.7034  130.9545  152.3350 H   0  0  0  0  0  0  0  0  0  0  0  0
  150.4473  129.9510  155.1092 H   0  0  0  0  0  0  0  0  0  0  0  0
  151.1476  131.3576  154.3128 H   0  0  0  0  0  0  0  0  0  0  0  0
  151.3669  129.7531  153.6255 H   0  0  0  0  0  0  0  0  0  0  0  0
  148.3283  128.7621  153.9373 H   0  0  0  0  0  0  0  0  0  0  0  0
  149.3769  128.5614  152.5554 H   0  0  0  0  0  0  0  0  0  0  0  0
  147.8831  129.8853  151.2777 H   0  0  0  0  0  0  0  0  0  0  0  0
  1  2  1  0  0  0  0
  1 28  1  0  0  0  0
  1 29  1  0  0  0  0
  1 30  1  0  0  0  0
  2  3  1  0  0  0  0
  2 31  1  0  0  0  0
  2 32  1  0  0  0  0
  3 27  1  0  0  0  0
  3  4  1  0  0  0  0
  3 58  1  0  0  0  0
  4  5  1  0  0  0  0
  4 33  1  0  0  0  0
  4 34  1  0  0  0  0
  5  6  1  0  0  0  0
  5 35  1  0  0  0  0
  5 36  1  0  0  0  0
  6  7  1  0  0  0  0
  6 25  1  0  0  0  0
  6 37  1  0  0  0  0
  7  8  1  0  0  0  0
  7  9  1  0  0  0  0
  8 38  1  0  0  0  0
  8 39  1  0  0  0  0
  8 40  1  0  0  0  0
  9 14  1  0  0  0  0
  9 10  2  0  0  0  0
 10 11  1  0  0  0  0
 11 12  2  0  0  0  0
 11 41  1  0  0  0  0
 12 13  1  0  0  0  0
 13 17  1  0  0  0  0
 13 14  2  0  0  0  0
 14 15  1  0  0  0  0
 15 16  2  0  0  0  0
 16 17  1  0  0  0  0
 16 42  1  0  0  0  0
 17 18  1  0  0  0  0
 18 19  1  0  0  0  0
 18 43  1  0  0  0  0
 18 44  1  0  0  0  0
 19 24  1  0  0  0  0
 19 20  1  0  0  0  0
 19 21  1  0  0  0  0
 20 45  1  0  0  0  0
 21 22  1  0  0  0  0
 21 46  1  0  0  0  0
 21 47  1  0  0  0  0
 22 23  1  0  0  0  0
 22 48  1  0  0  0  0
 22 49  1  0  0  0  0
 23 24  1  0  0  0  0
 24 50  1  0  0  0  0
 24 51  1  0  0  0  0
 25 26  1  0  0  0  0
 25 27  1  0  0  0  0
 25 52  1  0  0  0  0
 26 53  1  0  0  0  0
 26 54  1  0  0  0  0
 26 55  1  0  0  0  0
 27 56  1  0  0  0  0
 27 57  1  0  0  0  0
M  CHG  1   3   1
M  END
> <s_m_source_file>
AV-unprocessed.smi

> <i_m_source_file_index>
243

> <i_lp_mmshare_version>
43012

> <i_f3d_flags>
0

> <s_epik_input>
W0NIM11bQ0gyXU4xW0NIMl1bQ0gyXVtDQEhdKFtDQEBIXShbQ0gzXSlbQ0gyXTEpTihbQ0gzXSljKG5bY0hdbjIpYyhjMjMpbltjSF1uM1tDSDJdW0NAQF00KFtPSF0pW0NIMl1bQ0gyXU9bQ0gyXTQ=

> <s_epik_cmdline>
J2VwaWtfcHl0aG9uJywgJy1waCcsICc3LjAnLCAnLXRuJywgJzgnLCAnLW1hJywgJzIwMCcsICctbWV0YWxfYmluZGluZycsICctaW1hZScsICc8aW5maWxlLm1hZT4nLCAnLW9tYWUnLCAnPG91dGZpbGUubWFlPic=

> <r_lp_tautomer_probability>
1

> <r_epik_Ionization_Penalty>
0.00253099

> <r_epik_Ionization_Penalty_Charging>
0.00137877

> <r_epik_Ionization_Penalty_Neutral>
0.00115221

> <r_epik_State_Penalty>
-0

> <r_epik_Charging_Adjusted_Penalty>
0.00137877

> <i_epik_Tot_Q>
1

> <i_epik_Tot_abs_Q>
1

> <r_epik_Metal_State_Penalty>
-0

> <b_epik_Metal_Only>
0

> <s_lp_Force_Field>
OPLS_2005

> <r_lp_Energy>
51.4738

> <b_lp_Chiralities_Consistent>
1

> <s_lp_Variant>
AV-unprocessed.smi:243-6

> <Gold.Version>
5.8.1

> <Gold.Id.Protein>
6NUR|6NUR_protein|mol2

> <Gold.PLP.Fitness>
47.1932

> <Gold.PLP.PLP>
-36.9154

> <Gold.PLP.part.hbond>
-3.0000

> <Gold.PLP.part.metal>
0.0000

> <Gold.PLP.part.buried>
-6.2217

> <Gold.PLP.part.nonpolar>
-28.7898

> <Gold.PLP.part.repulsive>
0.2414

> <Gold.PLP.ligand.clash>
0.0000

> <Gold.PLP.ligand.torsion>
0.9853

> <Gold.PLP.Chemscore.Hbond>
3.0000

> <Gold.PLP.Chemscore.CHOScore>
0.9757

> <Gold.PLP.Chemscore.Metal>
0.0000

> <Gold.Chemscore.Hbonds>
donor molecule, donor type, donor heavy atom, donor atom, acceptor molecule, acceptor atom, score
      L1  H     3    58       P1 10747  1.00
      P1  H  6896  6909       L1    12  0.45
      P1  H  7989  7998       L1    23  1.00
      L1  C    16    42       P1  7949  0.68

> <Gold.PLP.Chemscore.Internal.Correction>
0.3212

> <Gold.Rescore>
     Score         DG    S(hbond)    S(metal)    S(lipo)     H(rot)  DE(clash)    DE(int)     intcor
     14.64     -17.33       2.40        0.00      81.70       2.24       0.02       2.67       ----

> <Gold.Chemscore.Fitness>
14.6381

> <Gold.Chemscore.DG>
-17.3290

> <Gold.Chemscore.ZeroCoef>
-5.4800

> <Gold.Chemscore.Hbond>
2.4010

> <Gold.Chemscore.Metal>
0.0000

> <Gold.Chemscore.Lipo>
81.6994

> <Gold.Chemscore.Internal_Hbond>
0.0000

> <Gold.Chemscore.DEClash>
0.0241

> <Gold.Chemscore.DEInternal>
2.6668

> <Gold.Chemscore.Rot>
2.2379

> <Gold.Chemscore.Internal.Correction>
   9.000000E+99

> <Gold.Chemscore.Hbonds>
donor molecule, donor type, donor heavy atom, donor atom, acceptor molecule, acceptor atom, score
      L1  H     3    58       P1 10747  0.97
      P1  H  6896  6909       L1    12  0.03
      P1  H  7989  7998       L1    23  0.93

> <Gold.Chemscore.Hbond.Weighted>
-8.0193

> <Gold.Chemscore.Metal.Weighted>
-0.0000

> <Gold.Chemscore.Lipo.Weighted>
-9.5588

> <Gold.Chemscore.Internal_Hbond.Weighted>
0.0000

> <Gold.Chemscore.DEClash.Weighted>
0.0241

> <Gold.Chemscore.DEInternal.Weighted>
2.6668

> <Gold.Chemscore.Rot.Weighted>
5.7291

> <Gold.Chemscore.Internal.Correction.Weighted>
   9.000000E+99

> <Gold.Protein.RotatedTorsions>
[ 6907 6896 6895 6894 ] final   44.06 input  -60.11 | X-H torsion
[ 7974 7965 7964 7962 ] final  -87.82 input  175.53 | X-H torsion
[ 8008 7997 7996 7995 ] final  175.40 input   59.86 | X-H torsion
[ 10167 10162 10161 10158 ] final  104.19 input  -65.29 | X-H torsion
[ 10718 10713 10712 10709 ] final   23.50 input   66.30 | X-H torsion
[ 10763 10752 10751 10750 ] final   93.09 input  -60.55 | X-H torsion
[ 11005 11000 10999 10996 ] final  -79.51 input  -57.11 | X-H torsion

> <Gold.Protein.ActiveResidues>
 VAL166  LYS551  ARG553  GLY616  TRP617  ASP618  TYR619  PRO620  LYS621  CYS622 
 ASP623  PHE694  ASN695  SER759  ASP760  ASP761  ALA762  ILE779  LEU786  VAL792 
 PHE793  MET794  SER795  GLU796  ALA797  LYS798  CYS799  TRP800  GLU811  SER814 

> <Gold.Protein.RotatedAtoms>
  152.2279  134.8350  160.0477 H   0  0  0  0  0  0  0  0  0  0  0  0  # atno 6907 bound_to 6896
  151.9110  133.3556  159.3871 H   0  0  0  0  0  0  0  0  0  0  0  0  # atno 6908 bound_to 6896
  150.7017  134.4658  159.5446 H   0  0  0  0  0  0  0  0  0  0  0  0  # atno 6909 bound_to 6896
  145.4615  140.9561  143.1967 H   0  0  0  0  0  0  0  0  0  0  0  0  # atno 7974 bound_to 7965
  156.0874  140.1410  156.9636 H   0  0  0  0  0  0  0  0  0  0  0  0  # atno 8008 bound_to 7997
  154.4621  140.0939  156.6969 H   0  0  0  0  0  0  0  0  0  0  0  0  # atno 8009 bound_to 7997
  155.4976  140.3450  155.4368 H   0  0  0  0  0  0  0  0  0  0  0  0  # atno 8010 bound_to 7997
  139.7198  144.7060  151.0891 H   0  0  0  0  0  0  0  0  0  0  0  0  # atno 10167 bound_to 10162
  157.1670  130.6742  149.6064 H   0  0  0  0  0  0  0  0  0  0  0  0  # atno 10718 bound_to 10713
  153.2264  135.4338  155.0546 H   0  0  0  0  0  0  0  0  0  0  0  0  # atno 10763 bound_to 10752
  154.8275  135.3368  154.6852 H   0  0  0  0  0  0  0  0  0  0  0  0  # atno 10764 bound_to 10752
  153.7281  135.7012  153.5052 H   0  0  0  0  0  0  0  0  0  0  0  0  # atno 10765 bound_to 10752
  141.1667  133.7109  156.8134 H   0  0  0  0  0  0  0  0  0  0  0  0  # atno 11005 bound_to 11000
  144.8000  139.6159  143.7076 LP  0  0  0  0  0  0  0  0  0  0  0  0  # atno 17320 bound_to 7965
  146.2448  139.6076  142.9467 LP  0  0  0  0  0  0  0  0  0  0  0  0  # atno 17321 bound_to 7965
  140.7751  143.5181  150.9570 LP  0  0  0  0  0  0  0  0  0  0  0  0  # atno 17342 bound_to 10162
  139.8868  143.7003  152.3150 LP  0  0  0  0  0  0  0  0  0  0  0  0  # atno 17343 bound_to 10162
  155.9744  130.4692  150.6386 LP  0  0  0  0  0  0  0  0  0  0  0  0  # atno 17370 bound_to 10713
  157.4079  131.0819  151.1248 LP  0  0  0  0  0  0  0  0  0  0  0  0  # atno 17371 bound_to 10713
  140.2171  134.8784  157.3337 LP  0  0  0  0  0  0  0  0  0  0  0  0  # atno 17394 bound_to 11000
  140.2026  134.4236  155.7654 LP  0  0  0  0  0  0  0  0  0  0  0  0  # atno 17395 bound_to 11000

$$$$
