AV-unprocessed.smi:2124|AV-procd|sdf|8663|dock3
  -GOLD-   2272011413D 1   1.00000     0.00000
 Structure written by MMmdl.
 47 49  0  0  0  0  0  0  0  0  1 V2000
  146.8830  135.4218  154.6020 C   0  0  0  0  0  0  0  0  0  0  0  0
  148.0087  135.8746  155.5062 C   0  0  0  0  0  0  0  0  0  0  0  0
  149.0614  136.4677  154.8289 N   0  0  0  0  0  0  0  0  0  0  0  0
  150.1386  136.9165  155.5722 C   0  0  0  0  0  0  0  0  0  0  0  0
  151.2497  137.5508  154.7537 C   0  0  0  0  0  0  0  0  0  0  0  0
  150.1665  136.7790  156.9223 C   0  0  0  0  0  0  0  0  0  0  0  0
  151.3402  137.2526  157.7790 C   0  0  0  0  0  0  0  0  0  0  0  0
  151.8673  138.6601  157.4864 C   0  0  0  0  0  0  0  0  0  0  0  0
  153.0055  138.8262  157.0465 O   0  0  0  0  0  0  0  0  0  0  0  0
  151.0187  139.6686  157.7368 N   0  0  0  0  0  0  0  0  0  0  0  0
  151.3080  141.0881  157.5446 C   0  0  1  0  0  0  0  0  0  0  0  0
  150.2520  141.6939  156.6020 C   0  0  0  0  0  0  0  0  0  0  0  0
  151.3523  141.8082  158.9145 C   0  0  2  0  0  0  0  0  0  0  0  0
  150.9532  143.3026  158.8415 C   0  0  0  0  0  0  0  0  0  0  0  0
  152.1445  144.0224  159.4988 C   0  0  1  0  0  0  0  0  0  0  0  0
  152.1616  143.7193  161.0078 C   0  0  0  0  0  0  0  0  0  0  0  0
  152.6089  142.2463  161.0503 C   0  0  0  0  0  0  0  0  0  0  0  0
  152.7613  141.8935  159.5578 C   0  0  2  0  0  0  0  0  0  0  0  0
  153.3193  143.1961  158.9937 C   0  0  0  0  0  0  0  0  0  0  0  0
  149.0129  136.1314  157.5901 C   0  0  0  0  0  0  0  0  0  0  0  0
  148.9839  135.9670  158.8090 O   0  0  0  0  0  0  0  0  0  0  0  0
  147.9422  135.6990  156.7910 N   0  0  0  0  0  0  0  0  0  0  0  0
  149.0831  136.5865  153.8264 H   0  0  0  0  0  0  0  0  0  0  0  0
  146.1046  134.9136  155.1724 H   0  0  0  0  0  0  0  0  0  0  0  0
  147.2567  134.7300  153.8464 H   0  0  0  0  0  0  0  0  0  0  0  0
  146.4335  136.2778  154.0980 H   0  0  0  0  0  0  0  0  0  0  0  0
  152.1926  137.0297  154.9213 H   0  0  0  0  0  0  0  0  0  0  0  0
  151.3787  138.5966  155.0333 H   0  0  0  0  0  0  0  0  0  0  0  0
  151.0326  137.5144  153.6852 H   0  0  0  0  0  0  0  0  0  0  0  0
  152.1718  136.5503  157.7087 H   0  0  0  0  0  0  0  0  0  0  0  0
  151.0381  137.2202  158.8261 H   0  0  0  0  0  0  0  0  0  0  0  0
  150.1044  139.4373  158.0976 H   0  0  0  0  0  0  0  0  0  0  0  0
  152.2873  141.1869  157.0732 H   0  0  0  0  0  0  0  0  0  0  0  0
  150.4509  142.7454  156.3966 H   0  0  0  0  0  0  0  0  0  0  0  0
  149.2517  141.6237  157.0305 H   0  0  0  0  0  0  0  0  0  0  0  0
  150.2376  141.1764  155.6423 H   0  0  0  0  0  0  0  0  0  0  0  0
  150.6791  141.2806  159.5924 H   0  0  0  0  0  0  0  0  0  0  0  0
  150.8455  143.6398  157.8098 H   0  0  0  0  0  0  0  0  0  0  0  0
  150.0119  143.5055  159.3536 H   0  0  0  0  0  0  0  0  0  0  0  0
  152.1948  145.0863  159.2652 H   0  0  0  0  0  0  0  0  0  0  0  0
  152.8828  144.3539  161.5243 H   0  0  0  0  0  0  0  0  0  0  0  0
  151.1865  143.8731  161.4713 H   0  0  0  0  0  0  0  0  0  0  0  0
  153.5636  142.1515  161.5694 H   0  0  0  0  0  0  0  0  0  0  0  0
  151.8887  141.6060  161.5608 H   0  0  0  0  0  0  0  0  0  0  0  0
  153.3928  141.0203  159.3943 H   0  0  0  0  0  0  0  0  0  0  0  0
  153.4156  143.1967  157.9068 H   0  0  0  0  0  0  0  0  0  0  0  0
  154.2741  143.4858  159.4366 H   0  0  0  0  0  0  0  0  0  0  0  0
  1 24  1  0  0  0  0
  1 25  1  0  0  0  0
  1 26  1  0  0  0  0
  1  2  1  0  0  0  0
  2  3  1  0  0  0  0
  2 22  2  0  0  0  0
  3  4  1  0  0  0  0
  3 23  1  0  0  0  0
  4  6  2  0  0  0  0
  4  5  1  0  0  0  0
  5 27  1  0  0  0  0
  5 28  1  0  0  0  0
  5 29  1  0  0  0  0
  6 20  1  0  0  0  0
  6  7  1  0  0  0  0
  7  8  1  0  0  0  0
  7 30  1  0  0  0  0
  7 31  1  0  0  0  0
  8  9  2  0  0  0  0
  8 10  1  0  0  0  0
 10 11  1  0  0  0  0
 10 32  1  0  0  0  0
 11 12  1  0  0  0  0
 11 13  1  0  0  0  0
 11 33  1  0  0  0  0
 12 34  1  0  0  0  0
 12 35  1  0  0  0  0
 12 36  1  0  0  0  0
 13 18  1  0  0  0  0
 13 14  1  0  0  0  0
 13 37  1  0  0  0  0
 14 15  1  0  0  0  0
 14 38  1  0  0  0  0
 14 39  1  0  0  0  0
 15 19  1  0  0  0  0
 15 16  1  0  0  0  0
 15 40  1  0  0  0  0
 16 17  1  0  0  0  0
 16 41  1  0  0  0  0
 16 42  1  0  0  0  0
 17 18  1  0  0  0  0
 17 43  1  0  0  0  0
 17 44  1  0  0  0  0
 18 19  1  0  0  0  0
 18 45  1  0  0  0  0
 19 46  1  0  0  0  0
 19 47  1  0  0  0  0
 20 21  2  0  0  0  0
 20 22  1  0  0  0  0
M  END
> <s_m_source_file>
AV-unprocessed.smi

> <i_m_source_file_index>
2124

> <i_lp_mmshare_version>
43012

> <i_f3d_flags>
0

> <s_epik_input>
W0NIM11jMW5jKFtDSDNdKWMoYyg9TylbbkhdMSlbQ0gyXUMoPU8pW05IXVtDQEhdKFtDSDNdKVtDQEhdKFtDSDJdW0NASF0yMylbQ0BIXShbQ0gyXTMpW0NIMl1bQ0gyXTI=

> <s_epik_cmdline>
J2VwaWtfcHl0aG9uJywgJy1waCcsICc3LjAnLCAnLXRuJywgJzgnLCAnLW1hJywgJzIwMCcsICctbWV0YWxfYmluZGluZycsICctaW1hZScsICc8aW5maWxlLm1hZT4nLCAnLW9tYWUnLCAnPG91dGZpbGUubWFlPic=

> <r_lp_tautomer_probability>
0.156392

> <r_epik_Ionization_Penalty>
0.0139374

> <r_epik_Ionization_Penalty_Charging>
0.0138122

> <r_epik_Ionization_Penalty_Neutral>
0.000125146

> <r_epik_State_Penalty>
1.15342

> <r_epik_Charging_Adjusted_Penalty>
1.16723

> <i_epik_Tot_Q>
0

> <i_epik_Tot_abs_Q>
0

> <r_epik_Metal_State_Penalty>
1.3173

> <b_epik_Metal_Only>
0

> <s_lp_Force_Field>
OPLS_2005

> <r_lp_Energy>
55.952

> <b_lp_Chiralities_Consistent>
1

> <s_lp_Variant>
AV-unprocessed.smi:2124-14

> <Gold.Version>
5.8.1

> <Gold.Id.Protein>
6NUR|6NUR_protein|mol2

> <Gold.PLP.Fitness>
44.9527

> <Gold.PLP.PLP>
-38.0722

> <Gold.PLP.part.hbond>
-2.6899

> <Gold.PLP.part.metal>
0.0000

> <Gold.PLP.part.buried>
-5.6981

> <Gold.PLP.part.nonpolar>
-30.5218

> <Gold.PLP.part.repulsive>
0.0720

> <Gold.PLP.ligand.clash>
0.0000

> <Gold.PLP.ligand.torsion>
1.0105

> <Gold.PLP.Chemscore.Hbond>
2.9588

> <Gold.PLP.Chemscore.CHOScore>
0.0000

> <Gold.PLP.Chemscore.Metal>
0.0000

> <Gold.Chemscore.Hbonds>
donor molecule, donor type, donor heavy atom, donor atom, acceptor molecule, acceptor atom, score
      L1  H     3    23       P1  7948  1.00
      P1  H  6896  6909       L1    21  0.34
      P1  H  7997  8010       L1     9  1.00

> <Gold.PLP.Chemscore.Internal.Correction>
0.0252

> <Gold.Rescore>
     Score         DG    S(hbond)    S(metal)    S(lipo)     H(rot)  DE(clash)    DE(int)     intcor
     22.83     -23.64       2.94        0.00     107.53       1.65       0.05       0.76       ----

> <Gold.Chemscore.Fitness>
22.8258

> <Gold.Chemscore.DG>
-23.6353

> <Gold.Chemscore.ZeroCoef>
-5.4800

> <Gold.Chemscore.Hbond>
2.9361

> <Gold.Chemscore.Metal>
0.0000

> <Gold.Chemscore.Lipo>
107.5335

> <Gold.Chemscore.Internal_Hbond>
0.0000

> <Gold.Chemscore.DEClash>
0.0509

> <Gold.Chemscore.DEInternal>
0.7586

> <Gold.Chemscore.Rot>
1.6534

> <Gold.Chemscore.Internal.Correction>
   9.000000E+99

> <Gold.Chemscore.Hbonds>
donor molecule, donor type, donor heavy atom, donor atom, acceptor molecule, acceptor atom, score
      L1  H     3    23       P1  7948  0.96
      P1  H  6896  6909       L1    21  0.28
      P1  H  7997  8010       L1     9  0.99

> <Gold.Chemscore.Hbond.Weighted>
-9.8065

> <Gold.Chemscore.Metal.Weighted>
-0.0000

> <Gold.Chemscore.Lipo.Weighted>
-12.5814

> <Gold.Chemscore.Internal_Hbond.Weighted>
0.0000

> <Gold.Chemscore.DEClash.Weighted>
0.0509

> <Gold.Chemscore.DEInternal.Weighted>
0.7586

> <Gold.Chemscore.Rot.Weighted>
4.2326

> <Gold.Chemscore.Internal.Correction.Weighted>
   9.000000E+99

> <Gold.Protein.RotatedTorsions>
[ 6907 6896 6895 6894 ] final   53.50 input  -60.11 | X-H torsion
[ 7974 7965 7964 7962 ] final -134.15 input  175.53 | X-H torsion
[ 8008 7997 7996 7995 ] final   45.67 input   59.86 | X-H torsion
[ 10167 10162 10161 10158 ] final -131.26 input  -65.29 | X-H torsion
[ 10718 10713 10712 10709 ] final  -97.49 input   66.30 | X-H torsion
[ 10763 10752 10751 10750 ] final  -26.37 input  -60.55 | X-H torsion
[ 11005 11000 10999 10996 ] final  -20.70 input  -57.11 | X-H torsion

> <Gold.Protein.ActiveResidues>
 VAL166  LYS551  ARG553  GLY616  TRP617  ASP618  TYR619  PRO620  LYS621  CYS622 
 ASP623  PHE694  ASN695  SER759  ASP760  ASP761  ALA762  ILE779  LEU786  VAL792 
 PHE793  MET794  SER795  GLU796  ALA797  LYS798  CYS799  TRP800  GLU811  SER814 

> <Gold.Protein.RotatedAtoms>
  152.3343  134.7218  160.0280 H   0  0  0  0  0  0  0  0  0  0  0  0  # atno 6907 bound_to 6896
  151.7625  133.3329  159.3430 H   0  0  0  0  0  0  0  0  0  0  0  0  # atno 6908 bound_to 6896
  150.7441  134.6025  159.6088 H   0  0  0  0  0  0  0  0  0  0  0  0  # atno 6909 bound_to 6896
  144.9129  140.6918  143.5014 H   0  0  0  0  0  0  0  0  0  0  0  0  # atno 7974 bound_to 7965
  155.3397  140.3407  155.4239 H   0  0  0  0  0  0  0  0  0  0  0  0  # atno 8008 bound_to 7997
  156.1819  140.1667  156.8293 H   0  0  0  0  0  0  0  0  0  0  0  0  # atno 8009 bound_to 7997
  154.5344  140.0738  156.8384 H   0  0  0  0  0  0  0  0  0  0  0  0  # atno 8010 bound_to 7997
  139.9207  143.6385  152.2554 H   0  0  0  0  0  0  0  0  0  0  0  0  # atno 10167 bound_to 10162
  156.0085  130.5196  150.6382 H   0  0  0  0  0  0  0  0  0  0  0  0  # atno 10718 bound_to 10713
  153.7148  135.6948  153.5028 H   0  0  0  0  0  0  0  0  0  0  0  0  # atno 10763 bound_to 10752
  153.2246  135.4358  155.0527 H   0  0  0  0  0  0  0  0  0  0  0  0  # atno 10764 bound_to 10752
  154.8303  135.3469  154.6684 H   0  0  0  0  0  0  0  0  0  0  0  0  # atno 10765 bound_to 10752
  140.8490  133.7871  155.9944 H   0  0  0  0  0  0  0  0  0  0  0  0  # atno 11005 bound_to 11000
  145.3424  139.1728  143.4478 LP  0  0  0  0  0  0  0  0  0  0  0  0  # atno 17320 bound_to 7965
  146.3167  140.3467  142.8652 LP  0  0  0  0  0  0  0  0  0  0  0  0  # atno 17321 bound_to 7965
  139.6864  144.7651  151.1517 LP  0  0  0  0  0  0  0  0  0  0  0  0  # atno 17342 bound_to 10162
  140.7663  143.5651  150.9056 LP  0  0  0  0  0  0  0  0  0  0  0  0  # atno 17343 bound_to 10162
  157.4167  131.0831  151.1170 LP  0  0  0  0  0  0  0  0  0  0  0  0  # atno 17370 bound_to 10713
  157.1785  130.6299  149.5664 LP  0  0  0  0  0  0  0  0  0  0  0  0  # atno 17371 bound_to 10713
  140.8811  134.2610  157.5143 LP  0  0  0  0  0  0  0  0  0  0  0  0  # atno 17394 bound_to 11000
  139.8704  134.9615  156.4400 LP  0  0  0  0  0  0  0  0  0  0  0  0  # atno 17395 bound_to 11000

$$$$
