AV-unprocessed.smi:72|AV-procd|sdf|712|dock6
  -GOLD-   2262017 33D 1   1.00000     0.00000
 Structure written by MMmdl.
 28 29  0  0  0  0  0  0  0  0  2 V2000
  151.4145  134.4666  156.8794 N   0  0  0  0  0  0  0  0  0  0  0  0
  151.3362  135.6742  156.5269 C   0  0  0  0  0  0  0  0  0  0  0  0
  150.0511  136.2550  156.2044 N   0  0  0  0  0  0  0  0  0  0  0  0
  150.0241  137.4999  155.8395 C   0  0  0  0  0  0  0  0  0  0  0  0
  151.2386  138.3004  155.7474 N   0  0  0  0  0  0  0  0  0  0  0  0
  151.2134  139.7590  155.3240 C   0  0  1  0  0  0  0  0  0  0  0  0
  150.2061  139.9616  154.3711 O   0  0  0  0  0  0  0  0  0  0  0  0
  149.1877  140.7899  154.9189 C   0  0  2  0  0  0  0  0  0  0  0  0
  148.3774  141.4745  153.8033 C   0  0  0  0  0  0  0  0  0  0  0  0
  147.7367  140.5414  152.9574 O   0  0  0  0  0  0  0  0  0  0  0  0
  149.9371  141.6960  155.8958 C   0  0  1  0  0  0  0  0  0  0  0  0
  149.0870  142.3039  156.8508 O   0  0  0  0  0  0  0  0  0  0  0  0
  150.9512  140.7309  156.5034 C   0  0  1  0  0  0  0  0  0  0  0  0
  150.4490  140.0897  157.6670 O   0  0  0  0  0  0  0  0  0  0  0  0
  152.4841  137.7072  156.0839 C   0  0  0  0  0  0  0  0  0  0  0  0
  153.4944  138.4086  156.0251 O   0  0  0  0  0  0  0  0  0  0  0  0
  152.5055  136.3996  156.4656 N   0  5  0  0  0  0  0  0  0  0  0  0
  152.1663  139.9384  154.8234 H   0  0  0  0  0  0  0  0  0  0  0  0
  148.5175  140.1376  155.4816 H   0  0  0  0  0  0  0  0  0  0  0  0
  150.4794  142.4735  155.3571 H   0  0  0  0  0  0  0  0  0  0  0  0
  151.8791  141.2386  156.7683 H   0  0  0  0  0  0  0  0  0  0  0  0
  152.3639  134.1853  157.0767 H   0  0  0  0  0  0  0  0  0  0  0  0
  149.0987  138.0161  155.5854 H   0  0  0  0  0  0  0  0  0  0  0  0
  147.6365  142.1515  154.2292 H   0  0  0  0  0  0  0  0  0  0  0  0
  149.0433  142.0786  153.1867 H   0  0  0  0  0  0  0  0  0  0  0  0
  148.2420  140.4605  152.1630 H   0  0  0  0  0  0  0  0  0  0  0  0
  148.7793  143.1237  156.4960 H   0  0  0  0  0  0  0  0  0  0  0  0
  149.6040  139.7188  157.4608 H   0  0  0  0  0  0  0  0  0  0  0  0
  1  2  2  0  0  0  0
  1 22  1  0  0  0  0
  2 17  1  0  0  0  0
  2  3  1  0  0  0  0
  3  4  2  0  0  0  0
  4  5  1  0  0  0  0
  4 23  1  0  0  0  0
  5  6  1  0  0  0  0
  5 15  1  0  0  0  0
  6 18  1  0  0  0  0
  6 13  1  0  0  0  0
  6  7  1  0  0  0  0
  7  8  1  0  0  0  0
  8 19  1  0  0  0  0
  8  9  1  0  0  0  0
  8 11  1  0  0  0  0
  9 10  1  0  0  0  0
  9 24  1  0  0  0  0
  9 25  1  0  0  0  0
 10 26  1  0  0  0  0
 11 20  1  0  0  0  0
 11 12  1  0  0  0  0
 11 13  1  0  0  0  0
 12 27  1  0  0  0  0
 13 21  1  0  0  0  0
 13 14  1  0  0  0  0
 14 28  1  0  0  0  0
 15 16  2  0  0  0  0
 15 17  1  0  0  0  0
M  CHG  1  17  -1
M  END
> <s_m_source_file>
AV-unprocessed.smi

> <i_m_source_file_index>
72

> <i_lp_mmshare_version>
43012

> <i_f3d_flags>
0

> <s_epik_input>
W05IMl1jMW5bY0hdbihjKD1PKW4xKVtDQEBIXTJPW0NASF0oW0NIMl1bT0hdKVtDQEBIXShbT0hdKVtDQEhdMltPSF0=

> <s_epik_cmdline>
J2VwaWtfcHl0aG9uJywgJy1waCcsICc3LjAnLCAnLXRuJywgJzgnLCAnLW1hJywgJzIwMCcsICctbWV0YWxfYmluZGluZycsICctaW1hZScsICc8aW5maWxlLm1hZT4nLCAnLW9tYWUnLCAnPG91dGZpbGUubWFlPic=

> <r_lp_tautomer_probability>
7.17554e-07

> <r_epik_Ionization_Penalty>
12.8705

> <r_epik_Ionization_Penalty_Charging>
5.64144

> <r_epik_Ionization_Penalty_Neutral>
7.22905

> <r_epik_State_Penalty>
3.30104

> <r_epik_Charging_Adjusted_Penalty>
8.94249

> <i_epik_Tot_Q>
-1

> <i_epik_Tot_abs_Q>
1

> <r_epik_Metal_State_Penalty>
0.529074

> <b_epik_Metal_Only>
1

> <s_epik_Chemistry_Notes>
This compound contains an acetal/aminal-like group ( X-CH(R)-Y where X, Y are N, S, or O) that may be acid/base labile, releasing an aldehyde.

> <s_lp_Force_Field>
OPLS_2005

> <r_lp_Energy>
42.9938

> <b_lp_Chiralities_Consistent>
1

> <s_lp_Variant>
AV-unprocessed.smi:72-50

> <Gold.Version>
5.8.1

> <Gold.Id.Protein>
6NUR|6NUR_protein|mol2

> <Gold.PLP.Fitness>
37.1654

> <Gold.PLP.PLP>
-23.8735

> <Gold.PLP.part.hbond>
-5.8563

> <Gold.PLP.part.metal>
0.0000

> <Gold.PLP.part.buried>
-1.5648

> <Gold.PLP.part.nonpolar>
-16.1079

> <Gold.PLP.part.repulsive>
0.1480

> <Gold.PLP.ligand.clash>
0.0000

> <Gold.PLP.ligand.torsion>
0.7225

> <Gold.PLP.Chemscore.Hbond>
4.9000

> <Gold.PLP.Chemscore.CHOScore>
0.0000

> <Gold.PLP.Chemscore.Metal>
0.0000

> <Gold.Chemscore.Hbonds>
donor molecule, donor type, donor heavy atom, donor atom, acceptor molecule, acceptor atom, score
      L1  H    10    26       P1  7957  1.00
      L1  H    12    27       P1  8028  1.00
      P1  H  7989  7998       L1     7  0.10
      P1  H  7997  8008       L1    16  0.80
      P1  H 10752 10765       L1    17  2.00

> <Gold.PLP.Chemscore.Internal.Correction>
0.0369

> <Gold.Rescore>
     Score         DG    S(hbond)    S(metal)    S(lipo)     H(rot)  DE(clash)    DE(int)     intcor
      8.29      -8.99       3.17        0.00      27.88       4.04       0.03       0.67       ----

> <Gold.Chemscore.Fitness>
8.2896

> <Gold.Chemscore.DG>
-8.9861

> <Gold.Chemscore.ZeroCoef>
-5.4800

> <Gold.Chemscore.Hbond>
3.1698

> <Gold.Chemscore.Metal>
0.0000

> <Gold.Chemscore.Lipo>
27.8805

> <Gold.Chemscore.Internal_Hbond>
0.0000

> <Gold.Chemscore.DEClash>
0.0291

> <Gold.Chemscore.DEInternal>
0.6675

> <Gold.Chemscore.Rot>
4.0403

> <Gold.Chemscore.Internal.Correction>
   9.000000E+99

> <Gold.Chemscore.Hbonds>
donor molecule, donor type, donor heavy atom, donor atom, acceptor molecule, acceptor atom, score
      L1  H    10    26       P1  7957  0.99
      L1  H    12    27       P1  8028  0.94
      P1  H  7997  8008       L1    16  0.79
      P1  H 10752 10765       L1    17  0.26

> <Gold.Chemscore.Hbond.Weighted>
-10.5872

> <Gold.Chemscore.Metal.Weighted>
-0.0000

> <Gold.Chemscore.Lipo.Weighted>
-3.2620

> <Gold.Chemscore.Internal_Hbond.Weighted>
0.0000

> <Gold.Chemscore.DEClash.Weighted>
0.0291

> <Gold.Chemscore.DEInternal.Weighted>
0.6675

> <Gold.Chemscore.Rot.Weighted>
10.3431

> <Gold.Chemscore.Internal.Correction.Weighted>
   9.000000E+99

> <Gold.Protein.RotatedTorsions>
[ 6907 6896 6895 6894 ] final  167.22 input  -60.11 | X-H torsion
[ 7974 7965 7964 7962 ] final   80.90 input  175.53 | X-H torsion
[ 8008 7997 7996 7995 ] final  -42.26 input   59.86 | X-H torsion
[ 10167 10162 10161 10158 ] final   21.05 input  -65.29 | X-H torsion
[ 10718 10713 10712 10709 ] final   24.98 input   66.30 | X-H torsion
[ 10763 10752 10751 10750 ] final -123.32 input  -60.55 | X-H torsion
[ 11005 11000 10999 10996 ] final  111.80 input  -57.11 | X-H torsion

> <Gold.Protein.ActiveResidues>
 VAL166  LYS551  ARG553  GLY616  TRP617  ASP618  TYR619  PRO620  LYS621  CYS622 
 ASP623  PHE694  ASN695  SER759  ASP760  ASP761  ALA762  ILE779  LEU786  VAL792 
 PHE793  MET794  SER795  GLU796  ALA797  LYS798  CYS799  TRP800  GLU811  SER814 

> <Gold.Protein.RotatedAtoms>
  151.8667  133.3467  159.3721 H   0  0  0  0  0  0  0  0  0  0  0  0  # atno 6907 bound_to 6896
  150.7164  134.5153  159.5636 H   0  0  0  0  0  0  0  0  0  0  0  0  # atno 6908 bound_to 6896
  152.2677  134.7967  160.0470 H   0  0  0  0  0  0  0  0  0  0  0  0  # atno 6909 bound_to 6896
  145.6451  139.2434  143.2008 H   0  0  0  0  0  0  0  0  0  0  0  0  # atno 7974 bound_to 7965
  154.4000  140.1478  156.3326 H   0  0  0  0  0  0  0  0  0  0  0  0  # atno 8008 bound_to 7997
  155.8429  140.3461  155.5622 H   0  0  0  0  0  0  0  0  0  0  0  0  # atno 8009 bound_to 7997
  155.8067  140.0878  157.1917 H   0  0  0  0  0  0  0  0  0  0  0  0  # atno 8010 bound_to 7997
  140.5456  143.9600  150.6546 H   0  0  0  0  0  0  0  0  0  0  0  0  # atno 10167 bound_to 10162
  157.1871  130.6829  149.6135 H   0  0  0  0  0  0  0  0  0  0  0  0  # atno 10718 bound_to 10713
  154.8705  135.4102  154.2924 H   0  0  0  0  0  0  0  0  0  0  0  0  # atno 10763 bound_to 10752
  153.3798  135.7011  153.6580 H   0  0  0  0  0  0  0  0  0  0  0  0  # atno 10764 bound_to 10752
  153.5407  135.3648  155.2688 H   0  0  0  0  0  0  0  0  0  0  0  0  # atno 10765 bound_to 10752
  139.8912  134.9516  156.6488 H   0  0  0  0  0  0  0  0  0  0  0  0  # atno 11005 bound_to 11000
  146.1249  140.7261  142.9440 LP  0  0  0  0  0  0  0  0  0  0  0  0  # atno 17320 bound_to 7965
  144.7143  140.4152  143.7056 LP  0  0  0  0  0  0  0  0  0  0  0  0  # atno 17321 bound_to 7965
  140.3012  143.3259  152.0970 LP  0  0  0  0  0  0  0  0  0  0  0  0  # atno 17342 bound_to 10162
  139.5006  144.6695  151.6276 LP  0  0  0  0  0  0  0  0  0  0  0  0  # atno 17343 bound_to 10162
  155.9716  130.4627  150.6155 LP  0  0  0  0  0  0  0  0  0  0  0  0  # atno 17370 bound_to 10713
  157.3896  131.0793  151.1405 LP  0  0  0  0  0  0  0  0  0  0  0  0  # atno 17371 bound_to 10713
  140.7536  133.8876  155.8365 LP  0  0  0  0  0  0  0  0  0  0  0  0  # atno 17394 bound_to 11000
  140.9980  134.1189  157.4345 LP  0  0  0  0  0  0  0  0  0  0  0  0  # atno 17395 bound_to 11000

$$$$
