#       Name:                AV-unprocessed.smi:3024
#       Creating user name   scv26
#       Creation time:       Fri Mar 27 16:44:05 2020


#       File generated by GOLD software.
#

@<TRIPOS>MOLECULE
AV-unprocessed.smi:3024
    36    37     1
SMALL
NO_CHARGES


@<TRIPOS>ATOM
      1 ****         0.1700   1.6112   0.1374 O.2            1 S1                 0.0000
      2 ****        -0.3375   0.6817   0.7643 C.2            1 S1                 0.0000
      3 ****         0.3630  -0.3594   1.2346 N.am           1 S1                 0.0000
      4 ****         1.7997  -0.5477   1.0684 C.3            1 S1                 0.0000
      5 ****         2.1447  -1.0705  -0.3361 C.3            1 S1                 0.0000
      6 ****         3.6405  -1.2835  -0.5687 C.3            1 S1                 0.0000
      7 ****         3.6937  -2.3970  -1.6057 C.3            1 S1                 0.0000
      8 ****         2.2515  -2.9031  -1.6892 C.3            1 S1                 0.0000
      9 ****         1.6157  -2.3718  -0.5367 O.3            1 S1                 0.0000
     10 ****        -1.6438   0.5556   1.0548 N.am           1 S1                 0.0000
     11 ****        -2.7194   1.4285   0.7350 C.ar           1 S1                 0.0000
     12 ****        -2.5684   2.7819   0.3450 C.ar           1 S1                 0.0000
     13 ****        -3.7212   3.5420   0.0682 C.ar           1 S1                 0.0000
     14 ****        -4.9810   2.9262   0.1978 C.ar           1 S1                 0.0000
     15 ****        -5.1407   1.6419   0.5799 N.ar           1 S1                 0.0000
     16 ****        -4.0311   0.9193   0.8431 C.ar           1 S1                 0.0000
     17 ****        -0.1344  -1.0837   1.7315 H              1 S1                 0.0000
     18 ****         2.3194   0.3926   1.2599 H              1 S1                 0.0000
     19 ****         2.1433  -1.2521   1.8265 H              1 S1                 0.0000
     20 ****         1.7486  -0.4042  -1.1049 H              1 S1                 0.0000
     21 ****         4.1426  -0.3732  -0.8978 H              1 S1                 0.0000
     22 ****         4.1251  -1.6192   0.3494 H              1 S1                 0.0000
     23 ****         4.0374  -2.0358  -2.5755 H              1 S1                 0.0000
     24 ****         4.3720  -3.1871  -1.2820 H              1 S1                 0.0000
     25 ****         1.7586  -2.5130  -2.5810 H              1 S1                 0.0000
     26 ****         2.1873  -3.9911  -1.7132 H              1 S1                 0.0000
     27 ****        -1.9095  -0.2993   1.5212 H              1 S1                 0.0000
     28 ****        -1.6034   3.2564   0.2644 H              1 S1                 0.0000
     29 ****        -3.6411   4.5762  -0.2325 H              1 S1                 0.0000
     30 ****        -5.8846   3.4815  -0.0053 H              1 S1                 0.0000
     31 ****        -4.1980  -0.1037   1.1478 H              1 S1                 0.0000
     32 ****         1.1535   1.6140  -0.0439 LP             1 S1                 0.0000
     33 ****        -0.4010   2.3637  -0.1907 LP             1 S1                 0.0000
     34 ****         0.6275  -2.3226  -0.6812 LP             1 S1                 0.0000
     35 ****         1.8081  -2.9473   0.2581 LP             1 S1                 0.0000
     36 ****        -6.0516   1.2384   0.6653 LP             1 S1                 0.0000
@<TRIPOS>BOND
    1    1    2 2     
    2    2    3 am    
    3    2   10 am    
    4    3    4 1     
    5    3   17 1     
    6    4    5 1     
    7    4   18 1     
    8    4   19 1     
    9    5    9 1     
   10    5    6 1     
   11    5   20 1     
   12    6    7 1     
   13    6   21 1     
   14    6   22 1     
   15    7    8 1     
   16    7   23 1     
   17    7   24 1     
   18    8    9 1     
   19    8   25 1     
   20    8   26 1     
   21   10   11 1     
   22   10   27 1     
   23   11   16 ar    
   24   11   12 ar    
   25   12   13 ar    
   26   12   28 1     
   27   13   14 ar    
   28   13   29 1     
   29   14   15 ar    
   30   14   30 1     
   31   15   16 ar    
   32   16   31 1     
   33    1   32 1     
   34    1   33 1     
   35    9   34 1     
   36    9   35 1     
   37   15   36 1     
@<TRIPOS>SUBSTRUCTURE
      1 S1             1
@<TRIPOS>SET
LONE_PAIRS      STATIC     ATOMS    <user>   **** ""
5 32 33 34 35 36
DONOR_HYDROGENS      STATIC     ATOMS    <user>   **** ""
2 17 27
ATOM$BLUE        STATIC     ATOMS    COLORGROUP SYSTEM
5 32 33 34 35 36
ATOM$RED        STATIC     ATOMS    COLORGROUP SYSTEM
2 17 27
