AV-unprocessed.smi:2976|AV-procd|sdf|11364|dock10
  -GOLD-   2272016283D 1   1.00000     0.00000
 Structure written by MMmdl.
 40 41  0  0  0  0  0  0  0  0  1 V2000
  151.9570  144.7123  160.7109 C   0  0  0  0  0  0  0  0  0  0  0  0
  152.5431  143.4826  159.9920 C   0  0  1  0  0  0  0  0  0  0  0  0
  152.7937  142.3592  161.0180 C   0  0  0  0  0  0  0  0  0  0  0  0
  153.4047  141.1139  160.3663 C   0  0  0  0  0  0  0  0  0  0  0  0
  152.5064  140.6008  159.2371 C   0  0  0  0  0  0  0  0  0  0  0  0
  152.2517  141.6928  158.1829 C   0  0  1  0  0  0  0  0  0  0  0  0
  151.3540  141.1504  157.1628 N   0  0  0  0  0  0  0  0  0  0  0  0
  151.6469  140.1714  156.2922 C   0  0  0  0  0  0  0  0  0  0  0  0
  152.7401  139.6049  156.2520 O   0  0  0  0  0  0  0  0  0  0  0  0
  150.5222  139.7956  155.3154 C   0  0  0  0  0  0  0  0  0  0  0  0
  149.2515  140.4878  155.5790 N   0  0  0  0  0  0  0  0  0  0  0  0
  148.7593  140.2909  156.8575 N   0  0  0  0  0  0  0  0  0  0  0  0
  147.6604  140.8641  157.2096 C   0  0  0  0  0  0  0  0  0  0  0  0
  146.9110  141.7123  156.3095 C   0  0  0  0  0  0  0  0  0  0  0  0
  145.4432  142.4556  156.8393 Cl  0  0  0  0  0  0  0  0  0  0  0  0
  147.3985  141.8935  155.0562 C   0  0  0  0  0  0  0  0  0  0  0  0
  146.5562  142.8924  153.9216 Cl  0  0  0  0  0  0  0  0  0  0  0  0
  148.6483  141.2556  154.6195 C   0  0  0  0  0  0  0  0  0  0  0  0
  149.1232  141.3947  153.4916 O   0  0  0  0  0  0  0  0  0  0  0  0
  151.6581  142.9823  158.8144 C   0  0  2  0  0  0  0  0  0  0  0  0
  151.4470  144.0777  157.7457 C   0  0  0  0  0  0  0  0  0  0  0  0
  150.9432  144.5194  161.0632 H   0  0  0  0  0  0  0  0  0  0  0  0
  151.9285  145.5884  160.0639 H   0  0  0  0  0  0  0  0  0  0  0  0
  152.5614  144.9835  161.5770 H   0  0  0  0  0  0  0  0  0  0  0  0
  153.5119  143.7751  159.5839 H   0  0  0  0  0  0  0  0  0  0  0  0
  153.4607  142.7150  161.8043 H   0  0  0  0  0  0  0  0  0  0  0  0
  151.8566  142.0907  161.5079 H   0  0  0  0  0  0  0  0  0  0  0  0
  154.3945  141.3497  159.9733 H   0  0  0  0  0  0  0  0  0  0  0  0
  153.5446  140.3331  161.1144 H   0  0  0  0  0  0  0  0  0  0  0  0
  152.9688  139.7302  158.7699 H   0  0  0  0  0  0  0  0  0  0  0  0
  151.5581  140.2599  159.6555 H   0  0  0  0  0  0  0  0  0  0  0  0
  153.2138  141.9521  157.7369 H   0  0  0  0  0  0  0  0  0  0  0  0
  150.4313  141.5576  157.1152 H   0  0  0  0  0  0  0  0  0  0  0  0
  150.8573  139.9946  154.2958 H   0  0  0  0  0  0  0  0  0  0  0  0
  150.3742  138.7152  155.3663 H   0  0  0  0  0  0  0  0  0  0  0  0
  147.2365  140.7397  158.2062 H   0  0  0  0  0  0  0  0  0  0  0  0
  150.6773  142.7303  159.2217 H   0  0  0  0  0  0  0  0  0  0  0  0
  152.3977  144.4071  157.3256 H   0  0  0  0  0  0  0  0  0  0  0  0
  150.9399  144.9510  158.1534 H   0  0  0  0  0  0  0  0  0  0  0  0
  150.8271  143.7271  156.9208 H   0  0  0  0  0  0  0  0  0  0  0  0
  1  2  1  0  0  0  0
  1 22  1  0  0  0  0
  1 23  1  0  0  0  0
  1 24  1  0  0  0  0
  2 20  1  0  0  0  0
  2  3  1  0  0  0  0
  2 25  1  0  0  0  0
  3  4  1  0  0  0  0
  3 26  1  0  0  0  0
  3 27  1  0  0  0  0
  4  5  1  0  0  0  0
  4 28  1  0  0  0  0
  4 29  1  0  0  0  0
  5  6  1  0  0  0  0
  5 30  1  0  0  0  0
  5 31  1  0  0  0  0
  6  7  1  0  0  0  0
  6 20  1  0  0  0  0
  6 32  1  0  0  0  0
  7  8  1  0  0  0  0
  7 33  1  0  0  0  0
  8  9  2  0  0  0  0
  8 10  1  0  0  0  0
 10 11  1  0  0  0  0
 10 34  1  0  0  0  0
 10 35  1  0  0  0  0
 11 18  1  0  0  0  0
 11 12  1  0  0  0  0
 12 13  2  0  0  0  0
 13 14  1  0  0  0  0
 13 36  1  0  0  0  0
 14 15  1  0  0  0  0
 14 16  2  0  0  0  0
 16 17  1  0  0  0  0
 16 18  1  0  0  0  0
 18 19  2  0  0  0  0
 20 21  1  0  0  0  0
 20 37  1  0  0  0  0
 21 38  1  0  0  0  0
 21 39  1  0  0  0  0
 21 40  1  0  0  0  0
M  END
> <s_m_source_file>
AV-unprocessed.smi

> <i_m_source_file_index>
2976

> <i_lp_mmshare_version>
43012

> <i_f3d_flags>
0

> <s_epik_input>
W0NIM11bQ0BASF0xW0NIMl1bQ0gyXVtDSDJdW0NASF0oW0NASF0xW0NIM10pW05IXUMoPU8pW0NIMl1uMm5bY0hdYyhDbCljKENsKWMyPU8=

> <s_epik_cmdline>
J2VwaWtfcHl0aG9uJywgJy1waCcsICc3LjAnLCAnLXRuJywgJzgnLCAnLW1hJywgJzIwMCcsICctbWV0YWxfYmluZGluZycsICctaW1hZScsICc8aW5maWxlLm1hZT4nLCAnLW9tYWUnLCAnPG91dGZpbGUubWFlPic=

> <r_lp_tautomer_probability>
1

> <r_epik_Ionization_Penalty>
1.90777e-08

> <r_epik_Ionization_Penalty_Charging>
3.07942e-11

> <r_epik_Ionization_Penalty_Neutral>
1.90469e-08

> <r_epik_State_Penalty>
-0

> <r_epik_Charging_Adjusted_Penalty>
3.07942e-11

> <i_epik_Tot_Q>
0

> <i_epik_Tot_abs_Q>
0

> <r_epik_Metal_State_Penalty>
-0

> <b_epik_Metal_Only>
0

> <s_lp_Force_Field>
OPLS_2005

> <r_lp_Energy>
26.9637

> <b_lp_Chiralities_Consistent>
1

> <s_lp_Variant>
AV-unprocessed.smi:2976-6

> <Gold.Version>
5.8.1

> <Gold.Id.Protein>
6NUR|6NUR_protein|mol2

> <Gold.PLP.Fitness>
48.6294

> <Gold.PLP.PLP>
-43.1163

> <Gold.PLP.part.hbond>
-3.0000

> <Gold.PLP.part.metal>
0.0000

> <Gold.PLP.part.buried>
-6.8712

> <Gold.PLP.part.nonpolar>
-36.8382

> <Gold.PLP.part.repulsive>
2.7784

> <Gold.PLP.ligand.clash>
0.0000

> <Gold.PLP.ligand.torsion>
0.1150

> <Gold.PLP.Chemscore.Hbond>
1.9120

> <Gold.PLP.Chemscore.CHOScore>
0.0000

> <Gold.PLP.Chemscore.Metal>
0.0000

> <Gold.Chemscore.Hbonds>
donor molecule, donor type, donor heavy atom, donor atom, acceptor molecule, acceptor atom, score
      P1  H  7997  8010       L1     9  1.00
      P1  H  8011  8017       L1    19  0.91

> <Gold.PLP.Chemscore.Internal.Correction>
0.0070

> <Gold.Rescore>
     Score         DG    S(hbond)    S(metal)    S(lipo)     H(rot)  DE(clash)    DE(int)     intcor
     18.35     -21.60       2.15        0.00     108.85       1.49       1.68       1.56       ----

> <Gold.Chemscore.Fitness>
18.3523

> <Gold.Chemscore.DG>
-21.5960

> <Gold.Chemscore.ZeroCoef>
-5.4800

> <Gold.Chemscore.Hbond>
2.1514

> <Gold.Chemscore.Metal>
0.0000

> <Gold.Chemscore.Lipo>
108.8535

> <Gold.Chemscore.Internal_Hbond>
0.0000

> <Gold.Chemscore.DEClash>
1.6830

> <Gold.Chemscore.DEInternal>
1.5606

> <Gold.Chemscore.Rot>
1.4866

> <Gold.Chemscore.Internal.Correction>
   9.000000E+99

> <Gold.Chemscore.Hbonds>
donor molecule, donor type, donor heavy atom, donor atom, acceptor molecule, acceptor atom, score
      P1  H  7997  8010       L1     9  0.99
      P1  H  8011  8017       L1    19  0.88

> <Gold.Chemscore.Hbond.Weighted>
-7.1858

> <Gold.Chemscore.Metal.Weighted>
-0.0000

> <Gold.Chemscore.Lipo.Weighted>
-12.7359

> <Gold.Chemscore.Internal_Hbond.Weighted>
0.0000

> <Gold.Chemscore.DEClash.Weighted>
1.6830

> <Gold.Chemscore.DEInternal.Weighted>
1.5606

> <Gold.Chemscore.Rot.Weighted>
3.8057

> <Gold.Chemscore.Internal.Correction.Weighted>
   9.000000E+99

> <Gold.Protein.RotatedTorsions>
[ 6907 6896 6895 6894 ] final  -18.96 input  -60.11 | X-H torsion
[ 7974 7965 7964 7962 ] final   -7.31 input  175.53 | X-H torsion
[ 8008 7997 7996 7995 ] final   62.09 input   59.86 | X-H torsion
[ 10167 10162 10161 10158 ] final   42.52 input  -65.29 | X-H torsion
[ 10718 10713 10712 10709 ] final   42.88 input   66.30 | X-H torsion
[ 10763 10752 10751 10750 ] final  -49.29 input  -60.55 | X-H torsion
[ 11005 11000 10999 10996 ] final   -6.52 input  -57.11 | X-H torsion

> <Gold.Protein.ActiveResidues>
 VAL166  LYS551  ARG553  GLY616  TRP617  ASP618  TYR619  PRO620  LYS621  CYS622 
 ASP623  PHE694  ASN695  SER759  ASP760  ASP761  ALA762  ILE779  LEU786  VAL792 
 PHE793  MET794  SER795  GLU796  ALA797  LYS798  CYS799  TRP800  GLU811  SER814 

> <Gold.Protein.RotatedAtoms>
  151.2704  135.0682  159.9131 H   0  0  0  0  0  0  0  0  0  0  0  0  # atno 6907 bound_to 6896
  152.5351  134.0137  159.7960 H   0  0  0  0  0  0  0  0  0  0  0  0  # atno 6908 bound_to 6896
  151.0374  133.5686  159.2685 H   0  0  0  0  0  0  0  0  0  0  0  0  # atno 6909 bound_to 6896
  146.2310  140.2301  142.8340 H   0  0  0  0  0  0  0  0  0  0  0  0  # atno 7974 bound_to 7965
  155.6088  140.3494  155.4616 H   0  0  0  0  0  0  0  0  0  0  0  0  # atno 8008 bound_to 7997
  156.0171  140.1245  157.0420 H   0  0  0  0  0  0  0  0  0  0  0  0  # atno 8009 bound_to 7997
  154.4301  140.1070  156.5897 H   0  0  0  0  0  0  0  0  0  0  0  0  # atno 8010 bound_to 7997
  140.3535  144.2320  150.6143 H   0  0  0  0  0  0  0  0  0  0  0  0  # atno 10167 bound_to 10162
  157.4098  130.7907  149.7420 H   0  0  0  0  0  0  0  0  0  0  0  0  # atno 10718 bound_to 10713
  154.0917  135.6576  153.4853 H   0  0  0  0  0  0  0  0  0  0  0  0  # atno 10763 bound_to 10752
  153.0319  135.5204  154.7373 H   0  0  0  0  0  0  0  0  0  0  0  0  # atno 10764 bound_to 10752
  154.6499  135.3000  154.9968 H   0  0  0  0  0  0  0  0  0  0  0  0  # atno 10765 bound_to 10752
  140.7029  133.8974  155.8696 H   0  0  0  0  0  0  0  0  0  0  0  0  # atno 11005 bound_to 11000
  144.9565  140.8231  143.5540 LP  0  0  0  0  0  0  0  0  0  0  0  0  # atno 17320 bound_to 7965
  145.2267  139.2134  143.5064 LP  0  0  0  0  0  0  0  0  0  0  0  0  # atno 17321 bound_to 7965
  140.5196  143.2269  151.8410 LP  0  0  0  0  0  0  0  0  0  0  0  0  # atno 17342 bound_to 10162
  139.4823  144.4853  151.9255 LP  0  0  0  0  0  0  0  0  0  0  0  0  # atno 17343 bound_to 10162
  155.9847  130.3989  150.3298 LP  0  0  0  0  0  0  0  0  0  0  0  0  # atno 17370 bound_to 10713
  157.1435  131.0302  151.2917 LP  0  0  0  0  0  0  0  0  0  0  0  0  # atno 17371 bound_to 10713
  141.0149  134.0970  157.4183 LP  0  0  0  0  0  0  0  0  0  0  0  0  # atno 17394 bound_to 11000
  139.8892  135.0103  156.6664 LP  0  0  0  0  0  0  0  0  0  0  0  0  # atno 17395 bound_to 11000

$$$$
