#       Name:                AV-unprocessed.smi:3068
#       Creating user name   scv26
#       Creation time:       Fri Mar 27 17:10:40 2020


#       File generated by GOLD software.
#

@<TRIPOS>MOLECULE
AV-unprocessed.smi:3068
    45    47     1
SMALL
NO_CHARGES


@<TRIPOS>ATOM
      1 ****        -1.7023  -5.3342   2.3657 N.1            1 S1                 0.0000
      2 ****        -2.1735  -4.2793   2.3015 C.1            1 S1                 0.0000
      3 ****        -2.7656  -2.9500   2.2202 C.ar           1 S1                 0.0000
      4 ****        -4.1110  -2.8916   2.0883 N.ar           1 S1                 0.0000
      5 ****        -4.6726  -1.6666   2.0091 C.ar           1 S1                 0.0000
      6 ****        -3.8941  -0.4942   2.0604 C.ar           1 S1                 0.0000
      7 ****        -2.5513  -0.5428   2.1906 N.ar           1 S1                 0.0000
      8 ****        -1.9737  -1.7679   2.2713 C.ar           1 S1                 0.0000
      9 ****        -0.5744  -1.8351   2.4076 N.pl3          1 S1                 0.0000
     10 ****         0.2674  -0.6465   2.3347 C.3            1 S1                 0.0000
     11 ****         0.4822  -0.1651   0.8897 C.3            1 S1                 0.0000
     12 ****         1.1999   1.2021   0.8528 C.3            1 S1                 0.0000
     13 ****         1.5204   1.6128  -0.5357 N.4            1 S1                 1.0000
     14 ****         0.3461   2.1390  -1.2838 C.3            1 S1                 0.0000
     15 ****         0.7462   2.6140  -2.6881 C.3            1 S1                 0.0000
     16 ****         1.4156   1.4798  -3.4718 C.3            1 S1                 0.0000
     17 ****         2.6248   0.9494  -2.6898 C.3            1 S1                 0.0000
     18 ****         2.2624   0.5354  -1.2476 C.3            1 S1                 0.0000
     19 ****         1.5027  -0.8045  -1.1530 C.3            1 S1                 0.0000
     20 ****         1.2912  -1.1260   0.2169 O.3            1 S1                 0.0000
     21 ****        -5.7466  -1.6222   1.9043 H              1 S1                 0.0000
     22 ****        -4.3484   0.4834   1.9969 H              1 S1                 0.0000
     23 ****        -0.1245  -2.7387   2.4554 H              1 S1                 0.0000
     24 ****        -0.1745   0.1475   2.9377 H              1 S1                 0.0000
     25 ****         1.2285  -0.8752   2.7958 H              1 S1                 0.0000
     26 ****        -0.4832  -0.0878   0.3885 H              1 S1                 0.0000
     27 ****         0.5981   1.9693   1.3416 H              1 S1                 0.0000
     28 ****         2.1336   1.1391   1.4136 H              1 S1                 0.0000
     29 ****        -0.4309   1.3788  -1.3651 H              1 S1                 0.0000
     30 ****        -0.0889   2.9721  -0.7304 H              1 S1                 0.0000
     31 ****        -0.1329   2.9707  -3.2257 H              1 S1                 0.0000
     32 ****         1.4276   3.4622  -2.6107 H              1 S1                 0.0000
     33 ****         0.7000   0.6764  -3.6501 H              1 S1                 0.0000
     34 ****         1.7318   1.8374  -4.4523 H              1 S1                 0.0000
     35 ****         3.0785   0.1121  -3.2213 H              1 S1                 0.0000
     36 ****         3.3862   1.7298  -2.6526 H              1 S1                 0.0000
     37 ****         3.2047   0.3991  -0.7143 H              1 S1                 0.0000
     38 ****         0.5505  -0.7743  -1.6839 H              1 S1                 0.0000
     39 ****         2.0906  -1.6023  -1.6073 H              1 S1                 0.0000
     40 ****         2.1581   2.3925  -0.4609 H              1 S1                 0.0000
     41 ****        -1.2951  -6.2458   2.4212 LP             1 S1                 0.0000
     42 ****        -4.6667  -3.7221   2.0511 LP             1 S1                 0.0000
     43 ****        -2.0029   0.2927   2.2263 LP             1 S1                 0.0000
     44 ****         0.8405  -2.0170   0.2704 LP             1 S1                 0.0000
     45 ****         2.1789  -1.1735   0.6750 LP             1 S1                 0.0000
@<TRIPOS>BOND
    1    1    2 3     
    2    2    3 1     
    3    3    8 ar    
    4    3    4 ar    
    5    4    5 ar    
    6    5    6 ar    
    7    5   21 1     
    8    6    7 ar    
    9    6   22 1     
   10    7    8 ar    
   11    8    9 1     
   12    9   10 1     
   13    9   23 1     
   14   10   11 1     
   15   10   24 1     
   16   10   25 1     
   17   11   20 1     
   18   11   12 1     
   19   11   26 1     
   20   12   13 1     
   21   12   27 1     
   22   12   28 1     
   23   13   18 1     
   24   13   14 1     
   25   13   40 1     
   26   14   15 1     
   27   14   29 1     
   28   14   30 1     
   29   15   16 1     
   30   15   31 1     
   31   15   32 1     
   32   16   17 1     
   33   16   33 1     
   34   16   34 1     
   35   17   18 1     
   36   17   35 1     
   37   17   36 1     
   38   18   19 1     
   39   18   37 1     
   40   19   20 1     
   41   19   38 1     
   42   19   39 1     
   43    1   41 1     
   44    4   42 1     
   45    7   43 1     
   46   20   44 1     
   47   20   45 1     
@<TRIPOS>SUBSTRUCTURE
      1 S1             1
@<TRIPOS>SET
LONE_PAIRS      STATIC     ATOMS    <user>   **** ""
5 41 42 43 44 45
DONOR_HYDROGENS      STATIC     ATOMS    <user>   **** ""
2 23 40
ATOM$BLUE        STATIC     ATOMS    COLORGROUP SYSTEM
5 41 42 43 44 45
ATOM$RED        STATIC     ATOMS    COLORGROUP SYSTEM
2 23 40
