AV-unprocessed.smi:1762|AV-procd|sdf|7124|dock2
  -GOLD-   22720 8363D 1   1.00000     0.00000
 Structure written by MMmdl.
 52 53  0  0  0  0  0  0  0  0  3 V2000
  149.9142  134.4586  153.9276 C   0  0  0  0  0  0  0  0  0  0  0  0
  149.9562  135.3174  155.2043 C   0  0  1  0  0  0  0  0  0  0  0  0
  150.1393  136.8219  154.9226 C   0  0  0  0  0  0  0  0  0  0  0  0
  148.8953  137.4328  154.3771 N   0  3  2  0  0  0  0  0  0  0  0  0
  149.0058  138.8849  154.0105 C   0  0  2  0  0  0  0  0  0  0  0  0
  149.8683  139.6476  155.0463 C   0  0  0  0  0  0  0  0  0  0  0  0
  151.0330  139.9348  154.7496 O   0  0  0  0  0  0  0  0  0  0  0  0
  149.1548  139.9242  156.1711 N   0  5  0  0  0  0  0  0  0  0  0  0
  149.6924  140.6225  157.3371 C   0  0  0  0  0  0  0  0  0  0  0  0
  150.6328  141.7662  156.8911 C   0  0  0  0  0  0  0  0  0  0  0  0
  151.5053  142.3641  157.9933 C   0  0  0  0  0  0  0  0  0  0  0  0
  151.5127  143.7586  158.2268 C   0  0  0  0  0  0  0  0  0  0  0  0
  152.3418  144.2693  159.2434 C   0  0  0  0  0  0  0  0  0  0  0  0
  153.1371  143.3741  159.9836 C   0  0  0  0  0  0  0  0  0  0  0  0
  153.0678  142.0019  159.6716 C   0  0  0  0  0  0  0  0  0  0  0  0
  152.2773  141.5009  158.6984 N   0  0  0  0  0  0  0  0  0  0  0  0
  147.6355  139.6077  153.7762 C   0  0  0  0  0  0  0  0  0  0  0  0
  146.8458  139.0245  152.5877 C   0  0  0  0  0  0  0  0  0  0  0  0
  147.7331  141.1426  153.6461 C   0  0  0  0  0  0  0  0  0  0  0  0
  147.7724  137.1494  155.3156 C   0  0  0  0  0  0  0  0  0  0  0  0
  147.6060  135.6374  155.5367 C   0  0  2  0  0  0  0  0  0  0  0  0
  146.4966  135.3258  156.5474 C   0  0  0  0  0  0  0  0  0  0  0  0
  148.8227  135.0992  156.0411 O   0  0  0  0  0  0  0  0  0  0  0  0
  150.8544  134.5344  153.3809 H   0  0  0  0  0  0  0  0  0  0  0  0
  149.1208  134.7663  153.2467 H   0  0  0  0  0  0  0  0  0  0  0  0
  149.7592  133.4072  154.1703 H   0  0  0  0  0  0  0  0  0  0  0  0
  150.8201  134.9816  155.7788 H   0  0  0  0  0  0  0  0  0  0  0  0
  150.4144  137.3404  155.8424 H   0  0  0  0  0  0  0  0  0  0  0  0
  150.9788  136.9262  154.2385 H   0  0  0  0  0  0  0  0  0  0  0  0
  149.5161  138.8960  153.0438 H   0  0  0  0  0  0  0  0  0  0  0  0
  148.8976  141.0290  157.9628 H   0  0  0  0  0  0  0  0  0  0  0  0
  150.2613  139.9528  157.9839 H   0  0  0  0  0  0  0  0  0  0  0  0
  151.2898  141.3948  156.1036 H   0  0  0  0  0  0  0  0  0  0  0  0
  150.0482  142.5640  156.4306 H   0  0  0  0  0  0  0  0  0  0  0  0
  150.8880  144.4199  157.6443 H   0  0  0  0  0  0  0  0  0  0  0  0
  152.3672  145.3289  159.4510 H   0  0  0  0  0  0  0  0  0  0  0  0
  153.7843  143.7306  160.7710 H   0  0  0  0  0  0  0  0  0  0  0  0
  153.6658  141.2874  160.2176 H   0  0  0  0  0  0  0  0  0  0  0  0
  147.0035  139.3980  154.6381 H   0  0  0  0  0  0  0  0  0  0  0  0
  147.3211  139.2470  151.6316 H   0  0  0  0  0  0  0  0  0  0  0  0
  145.8365  139.4353  152.5505 H   0  0  0  0  0  0  0  0  0  0  0  0
  146.7558  137.9409  152.6694 H   0  0  0  0  0  0  0  0  0  0  0  0
  148.2259  141.4400  152.7206 H   0  0  0  0  0  0  0  0  0  0  0  0
  148.2837  141.5914  154.4721 H   0  0  0  0  0  0  0  0  0  0  0  0
  146.7398  141.5919  153.6376 H   0  0  0  0  0  0  0  0  0  0  0  0
  147.9593  137.6532  156.2656 H   0  0  0  0  0  0  0  0  0  0  0  0
  146.8271  137.5377  154.9380 H   0  0  0  0  0  0  0  0  0  0  0  0
  147.3476  135.1552  154.5936 H   0  0  0  0  0  0  0  0  0  0  0  0
  145.5351  135.7102  156.2055 H   0  0  0  0  0  0  0  0  0  0  0  0
  146.7094  135.7739  157.5186 H   0  0  0  0  0  0  0  0  0  0  0  0
  146.3911  134.2505  156.6920 H   0  0  0  0  0  0  0  0  0  0  0  0
  148.6858  136.9478  153.5163 H   0  0  0  0  0  0  0  0  0  0  0  0
  1  2  1  0  0  0  0
  1 24  1  0  0  0  0
  1 25  1  0  0  0  0
  1 26  1  0  0  0  0
  2 23  1  0  0  0  0
  2  3  1  0  0  0  0
  2 27  1  0  0  0  0
  3  4  1  0  0  0  0
  3 28  1  0  0  0  0
  3 29  1  0  0  0  0
  4  5  1  0  0  0  0
  4 20  1  0  0  0  0
  4 52  1  0  0  0  0
  5  6  1  0  0  0  0
  5 17  1  0  0  0  0
  5 30  1  0  0  0  0
  6  7  2  0  0  0  0
  6  8  1  0  0  0  0
  8  9  1  0  0  0  0
  9 10  1  0  0  0  0
  9 31  1  0  0  0  0
  9 32  1  0  0  0  0
 10 11  1  0  0  0  0
 10 33  1  0  0  0  0
 10 34  1  0  0  0  0
 11 16  1  0  0  0  0
 11 12  2  0  0  0  0
 12 13  1  0  0  0  0
 12 35  1  0  0  0  0
 13 14  2  0  0  0  0
 13 36  1  0  0  0  0
 14 15  1  0  0  0  0
 14 37  1  0  0  0  0
 15 16  2  0  0  0  0
 15 38  1  0  0  0  0
 17 18  1  0  0  0  0
 17 19  1  0  0  0  0
 17 39  1  0  0  0  0
 18 40  1  0  0  0  0
 18 41  1  0  0  0  0
 18 42  1  0  0  0  0
 19 43  1  0  0  0  0
 19 44  1  0  0  0  0
 19 45  1  0  0  0  0
 20 21  1  0  0  0  0
 20 46  1  0  0  0  0
 20 47  1  0  0  0  0
 21 22  1  0  0  0  0
 21 23  1  0  0  0  0
 21 48  1  0  0  0  0
 22 49  1  0  0  0  0
 22 50  1  0  0  0  0
 22 51  1  0  0  0  0
M  CHG  1   4   1
M  CHG  1   8  -1
M  END
> <s_m_source_file>
AV-unprocessed.smi

> <i_m_source_file_index>
1762

> <i_lp_mmshare_version>
43012

> <i_f3d_flags>
0

> <s_epik_input>
W0NIM11bQ0BASF0xW0NIMl1OKFtDSDJdW0NASF0oTzEpW0NIM10pW0NAQEhdKFtDSF0oW0NIM10pW0NIM10pQyg9TylbTkhdW0NIMl1bQ0gyXWMyW2NIXVtjSF1bY0hdW2NIXW4y

> <s_epik_cmdline>
J2VwaWtfcHl0aG9uJywgJy1waCcsICc3LjAnLCAnLXRuJywgJzgnLCAnLW1hJywgJzIwMCcsICctbWV0YWxfYmluZGluZycsICctaW1hZScsICc8aW5maWxlLm1hZT4nLCAnLW9tYWUnLCAnPG91dGZpbGUubWFlPic=

> <r_epik_Ionization_Penalty>
7.82966

> <r_epik_Ionization_Penalty_Charging>
7.7461

> <r_epik_Ionization_Penalty_Neutral>
0.0835571

> <r_epik_State_Penalty>
8.52273

> <r_epik_Charging_Adjusted_Penalty>
16.2688

> <i_epik_Tot_Q>
0

> <i_epik_Tot_abs_Q>
2

> <r_epik_Metal_State_Penalty>
4.47451

> <b_epik_Metal_Only>
1

> <s_lp_Force_Field>
OPLS_2005

> <r_lp_Energy>
24.9826

> <b_lp_Chiralities_Consistent>
1

> <s_lp_Variant>
AV-unprocessed.smi:1762-26

> <Gold.Version>
5.8.1

> <Gold.Id.Protein>
6NUR|6NUR_protein|mol2

> <Gold.PLP.Fitness>
47.6243

> <Gold.PLP.PLP>
-40.4449

> <Gold.PLP.part.hbond>
-2.0000

> <Gold.PLP.part.metal>
0.0000

> <Gold.PLP.part.buried>
-4.2460

> <Gold.PLP.part.nonpolar>
-34.6371

> <Gold.PLP.part.repulsive>
0.0972

> <Gold.PLP.ligand.clash>
0.0000

> <Gold.PLP.ligand.torsion>
1.0864

> <Gold.PLP.Chemscore.Hbond>
3.0000

> <Gold.PLP.Chemscore.CHOScore>
0.0000

> <Gold.PLP.Chemscore.Metal>
0.0000

> <Gold.Chemscore.Hbonds>
donor molecule, donor type, donor heavy atom, donor atom, acceptor molecule, acceptor atom, score
      L1  H     4    52       P1  7948  2.00
      P1  H  7989  7998       L1     7  1.00

> <Gold.PLP.Chemscore.Internal.Correction>
0.3521

> <Gold.Rescore>
     Score         DG    S(hbond)    S(metal)    S(lipo)     H(rot)  DE(clash)    DE(int)     intcor
     18.81     -21.19       1.95        0.00     113.72       1.60       0.33       2.06       ----

> <Gold.Chemscore.Fitness>
18.8056

> <Gold.Chemscore.DG>
-21.1937

> <Gold.Chemscore.ZeroCoef>
-5.4800

> <Gold.Chemscore.Hbond>
1.9483

> <Gold.Chemscore.Metal>
0.0000

> <Gold.Chemscore.Lipo>
113.7201

> <Gold.Chemscore.Internal_Hbond>
0.0000

> <Gold.Chemscore.DEClash>
0.3312

> <Gold.Chemscore.DEInternal>
2.0569

> <Gold.Chemscore.Rot>
1.6012

> <Gold.Chemscore.Internal.Correction>
   9.000000E+99

> <Gold.Chemscore.Hbonds>
donor molecule, donor type, donor heavy atom, donor atom, acceptor molecule, acceptor atom, score
      L1  H     4    52       P1  7948  0.99
      P1  H  7989  7998       L1     7  1.00

> <Gold.Chemscore.Hbond.Weighted>
-6.5074

> <Gold.Chemscore.Metal.Weighted>
-0.0000

> <Gold.Chemscore.Lipo.Weighted>
-13.3053

> <Gold.Chemscore.Internal_Hbond.Weighted>
0.0000

> <Gold.Chemscore.DEClash.Weighted>
0.3312

> <Gold.Chemscore.DEInternal.Weighted>
2.0569

> <Gold.Chemscore.Rot.Weighted>
4.0990

> <Gold.Chemscore.Internal.Correction.Weighted>
   9.000000E+99

> <Gold.Protein.RotatedTorsions>
[ 6907 6896 6895 6894 ] final   33.19 input  -60.11 | X-H torsion
[ 7974 7965 7964 7962 ] final -109.39 input  175.53 | X-H torsion
[ 8008 7997 7996 7995 ] final  173.04 input   59.86 | X-H torsion
[ 10167 10162 10161 10158 ] final  137.39 input  -65.29 | X-H torsion
[ 10718 10713 10712 10709 ] final   79.95 input   66.30 | X-H torsion
[ 10763 10752 10751 10750 ] final   -1.48 input  -60.55 | X-H torsion
[ 11005 11000 10999 10996 ] final    2.69 input  -57.11 | X-H torsion

> <Gold.Protein.ActiveResidues>
 VAL166  LYS551  ARG553  GLY616  TRP617  ASP618  TYR619  PRO620  LYS621  CYS622 
 ASP623  PHE694  ASN695  SER759  ASP760  ASP761  ALA762  ILE779  LEU786  VAL792 
 PHE793  MET794  SER795  GLU796  ALA797  LYS798  CYS799  TRP800  GLU811  SER814 

> <Gold.Protein.RotatedAtoms>
  152.0851  134.9445  160.0572 H   0  0  0  0  0  0  0  0  0  0  0  0  # atno 6907 bound_to 6896
  152.0718  133.4106  159.4471 H   0  0  0  0  0  0  0  0  0  0  0  0  # atno 6908 bound_to 6896
  150.6836  134.3002  159.4747 H   0  0  0  0  0  0  0  0  0  0  0  0  # atno 6909 bound_to 6896
  145.1811  140.8971  143.3479 H   0  0  0  0  0  0  0  0  0  0  0  0  # atno 7974 bound_to 7965
  156.1114  140.1470  156.9332 H   0  0  0  0  0  0  0  0  0  0  0  0  # atno 8008 bound_to 7997
  154.4770  140.0891  156.7329 H   0  0  0  0  0  0  0  0  0  0  0  0  # atno 8009 bound_to 7997
  155.4589  140.3437  155.4312 H   0  0  0  0  0  0  0  0  0  0  0  0  # atno 8010 bound_to 7997
  139.5146  144.6412  151.5563 H   0  0  0  0  0  0  0  0  0  0  0  0  # atno 10167 bound_to 10162
  157.6792  130.9937  150.2008 H   0  0  0  0  0  0  0  0  0  0  0  0  # atno 10718 bound_to 10713
  153.3454  135.6983  153.6832 H   0  0  0  0  0  0  0  0  0  0  0  0  # atno 10763 bound_to 10752
  153.5581  135.3540  155.2788 H   0  0  0  0  0  0  0  0  0  0  0  0  # atno 10764 bound_to 10752
  154.8644  135.4242  154.2676 H   0  0  0  0  0  0  0  0  0  0  0  0  # atno 10765 bound_to 10752
  140.6015  133.9832  155.8134 H   0  0  0  0  0  0  0  0  0  0  0  0  # atno 11005 bound_to 11000
  145.0136  139.3488  143.6108 LP  0  0  0  0  0  0  0  0  0  0  0  0  # atno 17320 bound_to 7965
  146.3453  139.9408  142.8741 LP  0  0  0  0  0  0  0  0  0  0  0  0  # atno 17321 bound_to 7965
  140.6180  143.9312  150.6503 LP  0  0  0  0  0  0  0  0  0  0  0  0  # atno 17342 bound_to 10162
  140.2576  143.3547  152.1351 LP  0  0  0  0  0  0  0  0  0  0  0  0  # atno 17343 bound_to 10162
  156.2699  130.3720  149.8042 LP  0  0  0  0  0  0  0  0  0  0  0  0  # atno 17370 bound_to 10713
  156.5762  130.8446  151.3370 LP  0  0  0  0  0  0  0  0  0  0  0  0  # atno 17371 bound_to 10713
  141.0869  133.9977  157.3299 LP  0  0  0  0  0  0  0  0  0  0  0  0  # atno 17394 bound_to 11000
  139.9230  135.0201  156.8135 LP  0  0  0  0  0  0  0  0  0  0  0  0  # atno 17395 bound_to 11000

$$$$
