AV-unprocessed.smi:1610|AV-procd|sdf|6473|dock6
  -GOLD-   22720 7133D 1   1.00000     0.00000
 Structure written by MMmdl.
 44 45  0  0  0  0  0  0  0  0  3 V2000
  147.7667  135.2055  160.8076 C   0  0  0  0  0  0  0  0  0  0  0  0
  147.8690  136.6737  159.7098 S   0  0  0  0  0  0  0  0  0  0  0  0
  146.6450  137.4498  159.9665 O   0  0  0  0  0  0  0  0  0  0  0  0
  149.1557  137.3170  160.0195 O   0  0  0  0  0  0  0  0  0  0  0  0
  147.8469  135.9568  158.2543 N   0  5  0  0  0  0  0  0  0  0  0  0
  149.0794  135.7021  157.5131 C   0  0  0  0  0  0  0  0  0  0  0  0
  148.9629  136.1385  156.0199 C   0  0  0  0  0  0  0  0  0  0  0  0
  150.0742  135.5630  155.1002 C   0  0  0  0  0  0  0  0  0  0  0  0
  150.0942  134.0909  155.2012 N   0  0  0  0  0  0  0  0  0  0  0  0
  149.4621  133.2189  154.3769 C   0  0  0  0  0  0  0  0  0  0  0  0
  149.5055  131.9974  154.5313 O   0  0  0  0  0  0  0  0  0  0  0  0
  148.7268  133.7963  153.4100 N   0  0  0  0  0  0  0  0  0  0  0  0
  147.7603  133.1109  152.5535 C   0  0  0  0  0  0  0  0  0  0  0  0
  146.4095  133.8558  152.4982 C   0  0  0  0  0  0  0  0  0  0  0  0
  145.4595  133.3471  151.4237 C   0  0  0  0  0  0  0  0  0  0  0  0
  145.8738  132.3626  150.4989 C   0  0  0  0  0  0  0  0  0  0  0  0
  144.9528  131.8719  149.5499 C   0  0  0  0  0  0  0  0  0  0  0  0
  143.6380  132.3804  149.5420 C   0  0  0  0  0  0  0  0  0  0  0  0
  143.2827  133.3339  150.4295 N   0  3  0  0  0  0  0  0  0  0  0  0
  144.1351  133.8317  151.3511 C   0  0  0  0  0  0  0  0  0  0  0  0
  150.4922  133.7174  156.5681 C   0  0  0  0  0  0  0  0  0  0  0  0
  149.3983  134.1791  157.5727 C   0  0  0  0  0  0  0  0  0  0  0  0
  147.7550  135.5327  161.8468 H   0  0  0  0  0  0  0  0  0  0  0  0
  148.6327  134.5657  160.6397 H   0  0  0  0  0  0  0  0  0  0  0  0
  146.8550  134.6499  160.5915 H   0  0  0  0  0  0  0  0  0  0  0  0
  149.9236  136.2365  157.9497 H   0  0  0  0  0  0  0  0  0  0  0  0
  148.0027  135.8213  155.6201 H   0  0  0  0  0  0  0  0  0  0  0  0
  148.9730  137.2268  155.9510 H   0  0  0  0  0  0  0  0  0  0  0  0
  149.9296  135.9131  154.0780 H   0  0  0  0  0  0  0  0  0  0  0  0
  151.0510  135.9580  155.3877 H   0  0  0  0  0  0  0  0  0  0  0  0
  148.7570  134.8033  153.3415 H   0  0  0  0  0  0  0  0  0  0  0  0
  148.1784  133.0298  151.5499 H   0  0  0  0  0  0  0  0  0  0  0  0
  147.6000  132.0868  152.8939 H   0  0  0  0  0  0  0  0  0  0  0  0
  145.9175  133.7720  153.4682 H   0  0  0  0  0  0  0  0  0  0  0  0
  146.5820  134.9206  152.3386 H   0  0  0  0  0  0  0  0  0  0  0  0
  146.8799  131.9705  150.5303 H   0  0  0  0  0  0  0  0  0  0  0  0
  145.2478  131.1078  148.8459 H   0  0  0  0  0  0  0  0  0  0  0  0
  142.8637  132.0533  148.8636 H   0  0  0  0  0  0  0  0  0  0  0  0
  143.7206  134.5745  152.0170 H   0  0  0  0  0  0  0  0  0  0  0  0
  150.6507  132.6425  156.6656 H   0  0  0  0  0  0  0  0  0  0  0  0
  151.4575  134.1683  156.8083 H   0  0  0  0  0  0  0  0  0  0  0  0
  149.6962  133.9073  158.5858 H   0  0  0  0  0  0  0  0  0  0  0  0
  148.4906  133.6096  157.3647 H   0  0  0  0  0  0  0  0  0  0  0  0
  142.3222  133.6806  150.4178 H   0  0  0  0  0  0  0  0  0  0  0  0
  1  2  1  0  0  0  0
  1 23  1  0  0  0  0
  1 24  1  0  0  0  0
  1 25  1  0  0  0  0
  2  3  2  0  0  0  0
  2  4  2  0  0  0  0
  2  5  1  0  0  0  0
  5  6  1  0  0  0  0
  6 22  1  0  0  0  0
  6  7  1  0  0  0  0
  6 26  1  0  0  0  0
  7  8  1  0  0  0  0
  7 27  1  0  0  0  0
  7 28  1  0  0  0  0
  8  9  1  0  0  0  0
  8 29  1  0  0  0  0
  8 30  1  0  0  0  0
  9 10  1  0  0  0  0
  9 21  1  0  0  0  0
 10 11  2  0  0  0  0
 10 12  1  0  0  0  0
 12 13  1  0  0  0  0
 12 31  1  0  0  0  0
 13 14  1  0  0  0  0
 13 32  1  0  0  0  0
 13 33  1  0  0  0  0
 14 15  1  0  0  0  0
 14 34  1  0  0  0  0
 14 35  1  0  0  0  0
 15 20  1  0  0  0  0
 15 16  2  0  0  0  0
 16 17  1  0  0  0  0
 16 36  1  0  0  0  0
 17 18  2  0  0  0  0
 17 37  1  0  0  0  0
 18 19  1  0  0  0  0
 18 38  1  0  0  0  0
 19 20  2  0  0  0  0
 19 44  1  0  0  0  0
 20 39  1  0  0  0  0
 21 22  1  0  0  0  0
 21 40  1  0  0  0  0
 21 41  1  0  0  0  0
 22 42  1  0  0  0  0
 22 43  1  0  0  0  0
M  CHG  1   5  -1
M  CHG  1  19   1
M  END
> <s_m_source_file>
AV-unprocessed.smi

> <i_m_source_file_index>
1610

> <i_lp_mmshare_version>
43012

> <i_f3d_flags>
0

> <s_epik_input>
W0NIM11TKD1PKSg9TylbTkhdW0NIXTFbQ0gyXVtDSDJdTihbQ0gyXVtDSDJdMSlDKD1PKVtOSF1bQ0gyXVtDSDJdYzJbY0hdW2NIXVtjSF1uW2NIXTI=

> <s_epik_cmdline>
J2VwaWtfcHl0aG9uJywgJy1waCcsICc3LjAnLCAnLXRuJywgJzgnLCAnLW1hJywgJzIwMCcsICctbWV0YWxfYmluZGluZycsICctaW1hZScsICc8aW5maWxlLm1hZT4nLCAnLW9tYWUnLCAnPG91dGZpbGUubWFlPic=

> <r_epik_Ionization_Penalty>
8.91489

> <r_epik_Ionization_Penalty_Charging>
8.91482

> <r_epik_Ionization_Penalty_Neutral>
6.17235e-05

> <r_epik_State_Penalty>
9.05939

> <r_epik_Charging_Adjusted_Penalty>
17.9742

> <i_epik_Tot_Q>
0

> <i_epik_Tot_abs_Q>
2

> <r_epik_Metal_State_Penalty>
4.99481

> <b_epik_Metal_Only>
1

> <s_lp_Force_Field>
OPLS_2005

> <r_lp_Energy>
23.4301

> <b_lp_Chiralities_Consistent>
1

> <s_lp_Variant>
AV-unprocessed.smi:1610-4

> <Gold.Version>
5.8.1

> <Gold.Id.Protein>
6NUR|6NUR_protein|mol2

> <Gold.PLP.Fitness>
48.3389

> <Gold.PLP.PLP>
-36.6396

> <Gold.PLP.part.hbond>
-4.1102

> <Gold.PLP.part.metal>
0.0000

> <Gold.PLP.part.buried>
-5.6532

> <Gold.PLP.part.nonpolar>
-28.2732

> <Gold.PLP.part.repulsive>
0.0691

> <Gold.PLP.ligand.clash>
0.0000

> <Gold.PLP.ligand.torsion>
0.8802

> <Gold.PLP.Chemscore.Hbond>
4.1079

> <Gold.PLP.Chemscore.CHOScore>
0.0000

> <Gold.PLP.Chemscore.Metal>
0.0000

> <Gold.Chemscore.Hbonds>
donor molecule, donor type, donor heavy atom, donor atom, acceptor molecule, acceptor atom, score
      L1  H    12    31       P1  7948  0.74
      L1  H    19    44       P1 10186  2.00
      P1  H  6931  6943       L1     4  0.34
      P1  H  6934  6947       L1     3  1.00

> <Gold.PLP.Chemscore.Internal.Correction>
1.1362

> <Gold.Rescore>
     Score         DG    S(hbond)    S(metal)    S(lipo)     H(rot)  DE(clash)    DE(int)     intcor
     17.19     -18.34       2.44        0.00      78.79       1.77       0.09       1.06       ----

> <Gold.Chemscore.Fitness>
17.1877

> <Gold.Chemscore.DG>
-18.3395

> <Gold.Chemscore.ZeroCoef>
-5.4800

> <Gold.Chemscore.Hbond>
2.4437

> <Gold.Chemscore.Metal>
0.0000

> <Gold.Chemscore.Lipo>
78.7920

> <Gold.Chemscore.Internal_Hbond>
0.0000

> <Gold.Chemscore.DEClash>
0.0873

> <Gold.Chemscore.DEInternal>
1.0645

> <Gold.Chemscore.Rot>
1.7661

> <Gold.Chemscore.Internal.Correction>
   9.000000E+99

> <Gold.Chemscore.Hbonds>
donor molecule, donor type, donor heavy atom, donor atom, acceptor molecule, acceptor atom, score
      L1  H    12    31       P1  7948  0.27
      L1  H    19    44       P1 10186  0.92
      P1  H  6931  6943       L1     4  0.26
      P1  H  6934  6947       L1     3  0.60

> <Gold.Chemscore.Hbond.Weighted>
-8.1619

> <Gold.Chemscore.Metal.Weighted>
-0.0000

> <Gold.Chemscore.Lipo.Weighted>
-9.2187

> <Gold.Chemscore.Internal_Hbond.Weighted>
0.0000

> <Gold.Chemscore.DEClash.Weighted>
0.0873

> <Gold.Chemscore.DEInternal.Weighted>
1.0645

> <Gold.Chemscore.Rot.Weighted>
4.5211

> <Gold.Chemscore.Internal.Correction.Weighted>
   9.000000E+99

> <Gold.Protein.RotatedTorsions>
[ 6907 6896 6895 6894 ] final -179.99 input  -60.11 | X-H torsion
[ 7974 7965 7964 7962 ] final  135.56 input  175.53 | X-H torsion
[ 8008 7997 7996 7995 ] final  167.50 input   59.86 | X-H torsion
[ 10167 10162 10161 10158 ] final -152.83 input  -65.29 | X-H torsion
[ 10718 10713 10712 10709 ] final   32.47 input   66.30 | X-H torsion
[ 10763 10752 10751 10750 ] final  -84.71 input  -60.55 | X-H torsion
[ 11005 11000 10999 10996 ] final   41.39 input  -57.11 | X-H torsion

> <Gold.Protein.ActiveResidues>
 VAL166  LYS551  ARG553  GLY616  TRP617  ASP618  TYR619  PRO620  LYS621  CYS622 
 ASP623  PHE694  ASN695  SER759  ASP760  ASP761  ALA762  ILE779  LEU786  VAL792 
 PHE793  MET794  SER795  GLU796  ALA797  LYS798  CYS799  TRP800  GLU811  SER814 

> <Gold.Protein.RotatedAtoms>
  151.6624  133.3316  159.3176 H   0  0  0  0  0  0  0  0  0  0  0  0  # atno 6907 bound_to 6896
  150.7907  134.6932  159.6518 H   0  0  0  0  0  0  0  0  0  0  0  0  # atno 6908 bound_to 6896
  152.3986  134.6328  160.0131 H   0  0  0  0  0  0  0  0  0  0  0  0  # atno 6909 bound_to 6896
  144.9651  139.4667  143.5460 H   0  0  0  0  0  0  0  0  0  0  0  0  # atno 7974 bound_to 7965
  156.1628  140.1615  156.8582 H   0  0  0  0  0  0  0  0  0  0  0  0  # atno 8008 bound_to 7997
  154.5178  140.0785  156.8149 H   0  0  0  0  0  0  0  0  0  0  0  0  # atno 8009 bound_to 7997
  155.3672  140.3398  155.4244 H   0  0  0  0  0  0  0  0  0  0  0  0  # atno 8010 bound_to 7997
  139.7148  143.9050  152.2482 H   0  0  0  0  0  0  0  0  0  0  0  0  # atno 10167 bound_to 10162
  157.2856  130.7277  149.6581 H   0  0  0  0  0  0  0  0  0  0  0  0  # atno 10718 bound_to 10713
  154.6026  135.5511  153.7390 H   0  0  0  0  0  0  0  0  0  0  0  0  # atno 10763 bound_to 10752
  153.0161  135.6370  154.1692 H   0  0  0  0  0  0  0  0  0  0  0  0  # atno 10764 bound_to 10752
  154.1632  135.2896  155.3082 H   0  0  0  0  0  0  0  0  0  0  0  0  # atno 10765 bound_to 10752
  140.1839  134.4070  155.8184 H   0  0  0  0  0  0  0  0  0  0  0  0  # atno 11005 bound_to 11000
  146.3365  139.8827  142.8821 LP  0  0  0  0  0  0  0  0  0  0  0  0  # atno 17320 bound_to 7965
  145.2641  141.0087  143.3809 LP  0  0  0  0  0  0  0  0  0  0  0  0  # atno 17321 bound_to 7965
  139.8929  144.6955  150.8750 LP  0  0  0  0  0  0  0  0  0  0  0  0  # atno 17342 bound_to 10162
  140.7741  143.3572  151.1898 LP  0  0  0  0  0  0  0  0  0  0  0  0  # atno 17343 bound_to 10162
  155.9665  130.4324  150.4964 LP  0  0  0  0  0  0  0  0  0  0  0  0  # atno 17370 bound_to 10713
  157.2917  131.0627  151.2129 LP  0  0  0  0  0  0  0  0  0  0  0  0  # atno 17371 bound_to 10713
  141.2224  133.7013  156.7978 LP  0  0  0  0  0  0  0  0  0  0  0  0  # atno 17394 bound_to 11000
  140.2236  134.8738  157.3403 LP  0  0  0  0  0  0  0  0  0  0  0  0  # atno 17395 bound_to 11000

$$$$
