#       Name:                AV-unprocessed.smi:388
#       Creating user name   scv26
#       Creation time:       Thu Mar 26 22:41:29 2020


#       File generated by GOLD software.
#

@<TRIPOS>MOLECULE
AV-unprocessed.smi:388
    43    44     1
SMALL
NO_CHARGES


@<TRIPOS>ATOM
      1 ****        -3.4098   2.5021  -3.7608 C.3            1 S1                 0.0000
      2 ****        -2.9415   1.4385  -2.8857 N.am           1 S1                 0.0000
      3 ****        -2.9415   1.5087  -1.5476 C.2            1 S1                 0.0000
      4 ****        -3.3456   2.4915  -0.9224 O.2            1 S1                 0.0000
      5 ****        -2.4457   0.3807  -1.0053 N.am           1 S1                 0.0000
      6 ****        -2.2852   0.0968   0.3034 C.2            1 S1                 0.0000
      7 ****        -2.5932   0.8414   1.2358 O.2            1 S1                 0.0000
      8 ****        -1.6634  -1.2707   0.6114 C.3            1 S1                 0.0000
      9 ****        -0.2108  -1.2714   0.5060 N.am           1 S1                 0.0000
     10 ****         0.3673  -1.6243  -0.7411 C.2            1 S1                 0.0000
     11 ****        -0.3221  -1.9136  -1.7212 O.2            1 S1                 0.0000
     12 ****         1.8284  -1.6068  -0.7579 C.2            1 S1                 0.0000
     13 ****         2.4685  -1.9997  -1.9694 C.1            1 S1                 0.0000
     14 ****         3.0084  -2.3147  -2.9434 N.1            1 S1                 0.0000
     15 ****         2.5347  -1.2360   0.3317 C.2            1 S1                 0.0000
     16 ****         1.9375  -0.8393   1.5104 N.am           1 S1                 0.0000
     17 ****         2.7121  -0.5799   2.6913 C.3            1 S1                 0.0000
     18 ****         2.5650   0.7359   3.4312 C.3            1 S1                 0.0000
     19 ****         3.8142   0.4555   2.6325 C.3            1 S1                 0.0000
     20 ****         0.5332  -0.8904   1.6499 C.2            1 S1                 0.0000
     21 ****        -0.0139  -0.6154   2.7210 O.2            1 S1                 0.0000
     22 ****        -3.3217   2.1924  -4.8022 H              1 S1                 0.0000
     23 ****        -2.8166   3.4069  -3.6226 H              1 S1                 0.0000
     24 ****        -4.4563   2.7374  -3.5624 H              1 S1                 0.0000
     25 ****        -2.5934   0.5992  -3.3262 H              1 S1                 0.0000
     26 ****        -2.1494  -0.3346  -1.6533 H              1 S1                 0.0000
     27 ****        -1.9281  -1.6050   1.6160 H              1 S1                 0.0000
     28 ****        -2.0576  -2.0431  -0.0507 H              1 S1                 0.0000
     29 ****         3.6140  -1.2403   0.2784 H              1 S1                 0.0000
     30 ****         2.9153  -1.4508   3.3120 H              1 S1                 0.0000
     31 ****         1.8776   1.4793   3.0317 H              1 S1                 0.0000
     32 ****         2.6445   0.7115   4.5159 H              1 S1                 0.0000
     33 ****         4.7278   0.2475   3.1855 H              1 S1                 0.0000
     34 ****         3.9472   1.0120   1.7065 H              1 S1                 0.0000
     35 ****        -3.6955   3.2882  -1.4150 LP             1 S1                 0.0000
     36 ****        -3.3234   2.4918   0.0774 LP             1 S1                 0.0000
     37 ****        -2.9974   1.7366   1.0483 LP             1 S1                 0.0000
     38 ****        -2.4390   0.5503   2.1800 LP             1 S1                 0.0000
     39 ****        -1.3196  -1.9039  -1.6512 LP             1 S1                 0.0000
     40 ****         0.1162  -2.1580  -2.5861 LP             1 S1                 0.0000
     41 ****         3.4749  -2.5869  -3.7850 LP             1 S1                 0.0000
     42 ****        -1.0099  -0.6582   2.7992 LP             1 S1                 0.0000
     43 ****         0.5387  -0.3498   3.5110 LP             1 S1                 0.0000
@<TRIPOS>BOND
    1    1    2 1     
    2    1   22 1     
    3    1   23 1     
    4    1   24 1     
    5    2    3 1     
    6    2   25 1     
    7    3    4 2     
    8    3    5 1     
    9    5    6 1     
   10    5   26 1     
   11    6    7 2     
   12    6    8 1     
   13    8    9 1     
   14    8   27 1     
   15    8   28 1     
   16    9   20 am    
   17    9   10 am    
   18   10   11 2     
   19   10   12 1     
   20   12   13 1     
   21   12   15 2     
   22   13   14 3     
   23   15   16 1     
   24   15   29 1     
   25   16   17 1     
   26   16   20 am    
   27   17   19 1     
   28   17   18 1     
   29   17   30 1     
   30   18   19 1     
   31   18   31 1     
   32   18   32 1     
   33   19   33 1     
   34   19   34 1     
   35   20   21 2     
   36    4   35 1     
   37    4   36 1     
   38    7   37 1     
   39    7   38 1     
   40   11   39 1     
   41   11   40 1     
   42   14   41 1     
   43   21   42 1     
   44   21   43 1     
@<TRIPOS>SUBSTRUCTURE
      1 S1             1
@<TRIPOS>SET
LONE_PAIRS      STATIC     ATOMS    <user>   **** ""
9 35 36 37 38 39 40 41 42 43
DONOR_HYDROGENS      STATIC     ATOMS    <user>   **** ""
2 25 26
ATOM$BLUE        STATIC     ATOMS    COLORGROUP SYSTEM
9 35 36 37 38 39 40 41 42 43
ATOM$RED        STATIC     ATOMS    COLORGROUP SYSTEM
2 25 26
