AV-unprocessed.smi:797|AV-procd|sdf|3768|dock5
  -GOLD-   22720 1203D 1   1.00000     0.00000
 Structure written by MMmdl.
 34 35  0  0  0  0  0  0  0  0  2 V2000
  154.2357  137.1048  162.4071 C   0  0  0  0  0  0  0  0  0  0  0  0
  153.2794  137.2492  161.2605 C   0  0  0  0  0  0  0  0  0  0  0  0
  152.6320  138.4251  160.7931 C   0  0  0  0  0  0  0  0  0  0  0  0
  151.8787  137.9835  159.7423 C   0  0  0  0  0  0  0  0  0  0  0  0
  150.9476  138.6701  158.7980 C   0  0  0  0  0  0  0  0  0  0  0  0
  151.7913  140.0987  157.9902 S   0  0  0  0  0  0  0  0  0  0  0  0
  152.9807  139.5386  157.3284 O   0  0  0  0  0  0  0  0  0  0  0  0
  150.7856  140.7440  157.1299 O   0  0  0  0  0  0  0  0  0  0  0  0
  152.1802  140.9927  159.2881 N   0  5  0  0  0  0  0  0  0  0  0  0
  151.5552  142.2913  159.4889 C   0  0  0  0  0  0  0  0  0  0  0  0
  151.9427  143.2455  158.3325 C   0  0  0  0  0  0  0  0  0  0  0  0
  151.4290  144.6939  158.5348 C   0  0  0  0  0  0  0  0  0  0  0  0
  151.8933  145.3069  159.8728 C   0  0  0  0  0  0  0  0  0  0  0  0
  151.5055  144.3677  161.0340 C   0  0  0  0  0  0  0  0  0  0  0  0
  152.0176  142.9196  160.8284 C   0  0  0  0  0  0  0  0  0  0  0  0
  152.0553  136.6480  159.5696 O   0  0  0  0  0  0  0  0  0  0  0  0
  152.9512  136.1889  160.5414 N   0  0  0  0  0  0  0  0  0  0  0  0
  154.1295  137.9295  163.1122 H   0  0  0  0  0  0  0  0  0  0  0  0
  155.2676  137.0982  162.0561 H   0  0  0  0  0  0  0  0  0  0  0  0
  154.0628  136.1780  162.9549 H   0  0  0  0  0  0  0  0  0  0  0  0
  152.6986  139.4336  161.1728 H   0  0  0  0  0  0  0  0  0  0  0  0
  150.5832  137.9904  158.0283 H   0  0  0  0  0  0  0  0  0  0  0  0
  150.0837  139.0561  159.3384 H   0  0  0  0  0  0  0  0  0  0  0  0
  150.4673  142.2134  159.5029 H   0  0  0  0  0  0  0  0  0  0  0  0
  153.0288  143.2732  158.2305 H   0  0  0  0  0  0  0  0  0  0  0  0
  151.5595  142.8554  157.3889 H   0  0  0  0  0  0  0  0  0  0  0  0
  151.7755  145.3193  157.7116 H   0  0  0  0  0  0  0  0  0  0  0  0
  150.3383  144.7158  158.4848 H   0  0  0  0  0  0  0  0  0  0  0  0
  152.9750  145.4450  159.8577 H   0  0  0  0  0  0  0  0  0  0  0  0
  151.4509  146.2931  160.0157 H   0  0  0  0  0  0  0  0  0  0  0  0
  151.9057  144.7632  161.9680 H   0  0  0  0  0  0  0  0  0  0  0  0
  150.4201  144.3672  161.1536 H   0  0  0  0  0  0  0  0  0  0  0  0
  151.6857  142.3045  161.6649 H   0  0  0  0  0  0  0  0  0  0  0  0
  153.1079  142.9246  160.8710 H   0  0  0  0  0  0  0  0  0  0  0  0
  1  2  1  0  0  0  0
  1 18  1  0  0  0  0
  1 19  1  0  0  0  0
  1 20  1  0  0  0  0
  2 17  2  0  0  0  0
  2  3  1  0  0  0  0
  3  4  2  0  0  0  0
  3 21  1  0  0  0  0
  4  5  1  0  0  0  0
  4 16  1  0  0  0  0
  5  6  1  0  0  0  0
  5 22  1  0  0  0  0
  5 23  1  0  0  0  0
  6  7  2  0  0  0  0
  6  8  2  0  0  0  0
  6  9  1  0  0  0  0
  9 10  1  0  0  0  0
 10 15  1  0  0  0  0
 10 11  1  0  0  0  0
 10 24  1  0  0  0  0
 11 12  1  0  0  0  0
 11 25  1  0  0  0  0
 11 26  1  0  0  0  0
 12 13  1  0  0  0  0
 12 27  1  0  0  0  0
 12 28  1  0  0  0  0
 13 14  1  0  0  0  0
 13 29  1  0  0  0  0
 13 30  1  0  0  0  0
 14 15  1  0  0  0  0
 14 31  1  0  0  0  0
 14 32  1  0  0  0  0
 15 33  1  0  0  0  0
 15 34  1  0  0  0  0
 16 17  1  0  0  0  0
M  CHG  1   9  -1
M  END
> <s_m_source_file>
AV-unprocessed.smi

> <i_m_source_file_index>
797

> <i_lp_mmshare_version>
43012

> <i_f3d_flags>
0

> <s_epik_input>
W0NIM11jMVtjSF1jKG9uMSlbQ0gyXVMoPU8pKD1PKVtOSF1bQ0hdMltDSDJdW0NIMl1bQ0gyXVtDSDJdW0NIMl0y

> <s_epik_cmdline>
J2VwaWtfcHl0aG9uJywgJy1waCcsICc3LjAnLCAnLXRuJywgJzgnLCAnLW1hJywgJzIwMCcsICctbWV0YWxfYmluZGluZycsICctaW1hZScsICc8aW5maWxlLm1hZT4nLCAnLW9tYWUnLCAnPG91dGZpbGUubWFlPic=

> <r_lp_tautomer_probability>
1

> <r_epik_Ionization_Penalty>
5.48284

> <r_epik_Ionization_Penalty_Charging>
5.48284

> <r_epik_Ionization_Penalty_Neutral>
9.17401e-10

> <r_epik_State_Penalty>
5.48278

> <r_epik_Charging_Adjusted_Penalty>
10.9656

> <i_epik_Tot_Q>
-1

> <i_epik_Tot_abs_Q>
1

> <r_epik_Metal_State_Penalty>
1.49378

> <b_epik_Metal_Only>
1

> <s_lp_Force_Field>
OPLS_2005

> <r_lp_Energy>
6.0802

> <b_lp_Chiralities_Consistent>
1

> <s_lp_Variant>
AV-unprocessed.smi:797-2

> <Gold.Version>
5.8.1

> <Gold.Id.Protein>
6NUR|6NUR_protein|mol2

> <Gold.PLP.Fitness>
39.3415

> <Gold.PLP.PLP>
-33.4673

> <Gold.PLP.part.hbond>
-2.2550

> <Gold.PLP.part.metal>
0.0000

> <Gold.PLP.part.buried>
-5.2550

> <Gold.PLP.part.nonpolar>
-25.6384

> <Gold.PLP.part.repulsive>
0.0000

> <Gold.PLP.ligand.clash>
0.0000

> <Gold.PLP.ligand.torsion>
0.5590

> <Gold.PLP.Chemscore.Hbond>
2.0000

> <Gold.PLP.Chemscore.CHOScore>
0.0000

> <Gold.PLP.Chemscore.Metal>
0.0000

> <Gold.Chemscore.Hbonds>
donor molecule, donor type, donor heavy atom, donor atom, acceptor molecule, acceptor atom, score
      P1  H  7997  8010       L1     7  1.00

> <Gold.PLP.Chemscore.Internal.Correction>
0.9922

> <Gold.Rescore>
     Score         DG    S(hbond)    S(metal)    S(lipo)     H(rot)  DE(clash)    DE(int)     intcor
     18.53     -19.16       1.90        0.00      92.47       1.35       0.00       0.63       ----

> <Gold.Chemscore.Fitness>
18.5313

> <Gold.Chemscore.DG>
-19.1637

> <Gold.Chemscore.ZeroCoef>
-5.4800

> <Gold.Chemscore.Hbond>
1.8960

> <Gold.Chemscore.Metal>
0.0000

> <Gold.Chemscore.Lipo>
92.4691

> <Gold.Chemscore.Internal_Hbond>
0.0000

> <Gold.Chemscore.DEClash>
0.0029

> <Gold.Chemscore.DEInternal>
0.6295

> <Gold.Chemscore.Rot>
1.3546

> <Gold.Chemscore.Internal.Correction>
   9.000000E+99

> <Gold.Chemscore.Hbonds>
donor molecule, donor type, donor heavy atom, donor atom, acceptor molecule, acceptor atom, score
      P1  H  7997  8010       L1     7  1.00

> <Gold.Chemscore.Hbond.Weighted>
-6.3328

> <Gold.Chemscore.Metal.Weighted>
-0.0000

> <Gold.Chemscore.Lipo.Weighted>
-10.8189

> <Gold.Chemscore.Internal_Hbond.Weighted>
0.0000

> <Gold.Chemscore.DEClash.Weighted>
0.0029

> <Gold.Chemscore.DEInternal.Weighted>
0.6295

> <Gold.Chemscore.Rot.Weighted>
3.4679

> <Gold.Chemscore.Internal.Correction.Weighted>
   9.000000E+99

> <Gold.Protein.RotatedTorsions>
[ 6907 6896 6895 6894 ] final   13.14 input  -60.11 | X-H torsion
[ 7974 7965 7964 7962 ] final   34.53 input  175.53 | X-H torsion
[ 8008 7997 7996 7995 ] final   64.51 input   59.86 | X-H torsion
[ 10167 10162 10161 10158 ] final  -75.94 input  -65.29 | X-H torsion
[ 10718 10713 10712 10709 ] final -151.82 input   66.30 | X-H torsion
[ 10763 10752 10751 10750 ] final  -19.77 input  -60.55 | X-H torsion
[ 11005 11000 10999 10996 ] final   68.15 input  -57.11 | X-H torsion

> <Gold.Protein.ActiveResidues>
 VAL166  LYS551  ARG553  GLY616  TRP617  ASP618  TYR619  PRO620  LYS621  CYS622 
 ASP623  PHE694  ASN695  SER759  ASP760  ASP761  ALA762  ILE779  LEU786  VAL792 
 PHE793  MET794  SER795  GLU796  ALA797  LYS798  CYS799  TRP800  GLU811  SER814 

> <Gold.Protein.RotatedAtoms>
  151.7816  135.0760  160.0374 H   0  0  0  0  0  0  0  0  0  0  0  0  # atno 6907 bound_to 6896
  152.3219  133.5858  159.5758 H   0  0  0  0  0  0  0  0  0  0  0  0  # atno 6908 bound_to 6896
  150.7374  133.9915  159.3650 H   0  0  0  0  0  0  0  0  0  0  0  0  # atno 6909 bound_to 6896
  146.1346  139.6257  142.9204 H   0  0  0  0  0  0  0  0  0  0  0  0  # atno 7974 bound_to 7965
  155.6472  140.3497  155.4735 H   0  0  0  0  0  0  0  0  0  0  0  0  # atno 8008 bound_to 7997
  155.9878  140.1187  157.0690 H   0  0  0  0  0  0  0  0  0  0  0  0  # atno 8009 bound_to 7997
  154.4210  140.1125  156.5509 H   0  0  0  0  0  0  0  0  0  0  0  0  # atno 8010 bound_to 7997
  140.4900  143.2382  151.7923 H   0  0  0  0  0  0  0  0  0  0  0  0  # atno 10167 bound_to 10162
  156.4643  130.8228  151.2459 H   0  0  0  0  0  0  0  0  0  0  0  0  # atno 10718 bound_to 10713
  153.6100  135.6996  153.5350 H   0  0  0  0  0  0  0  0  0  0  0  0  # atno 10763 bound_to 10752
  153.3024  135.4125  155.1264 H   0  0  0  0  0  0  0  0  0  0  0  0  # atno 10764 bound_to 10752
  154.8565  135.3652  154.5638 H   0  0  0  0  0  0  0  0  0  0  0  0  # atno 10765 bound_to 10752
  139.9728  134.6871  156.0412 H   0  0  0  0  0  0  0  0  0  0  0  0  # atno 11005 bound_to 11000
  145.5184  141.0433  143.2449 LP  0  0  0  0  0  0  0  0  0  0  0  0  # atno 17320 bound_to 7965
  144.7726  139.6700  143.7188 LP  0  0  0  0  0  0  0  0  0  0  0  0  # atno 17321 bound_to 7965
  139.4849  144.4662  151.9481 LP  0  0  0  0  0  0  0  0  0  0  0  0  # atno 17342 bound_to 10162
  140.3749  144.2810  150.5915 LP  0  0  0  0  0  0  0  0  0  0  0  0  # atno 17343 bound_to 10162
  157.7496  131.0097  150.3277 LP  0  0  0  0  0  0  0  0  0  0  0  0  # atno 17370 bound_to 10713
  156.3684  130.3859  149.7195 LP  0  0  0  0  0  0  0  0  0  0  0  0  # atno 17371 bound_to 10713
  141.1407  133.6565  156.3722 LP  0  0  0  0  0  0  0  0  0  0  0  0  # atno 17394 bound_to 11000
  140.5256  134.6262  157.5333 LP  0  0  0  0  0  0  0  0  0  0  0  0  # atno 17395 bound_to 11000

$$$$
