AV-unprocessed.smi:108|AV-procd|sdf|1030|dock10
  -GOLD-   2262018 33D 1   1.00000     0.00000
 Structure written by MMmdl.
 59 62  0  0  0  0  0  0  0  0  1 V2000
  151.7700  133.5107  156.4897 O   0  0  0  0  0  0  0  0  0  0  0  0
  150.8229  133.7313  155.7316 C   0  0  0  0  0  0  0  0  0  0  0  0
  150.5793  135.1716  155.2309 C   0  0  0  0  0  0  0  0  0  0  0  0
  150.3967  136.1529  156.3230 N   0  0  0  0  0  0  0  0  0  0  0  0
  149.4639  135.8592  157.3474 C   0  0  0  0  0  0  0  0  0  0  0  0
  148.8038  134.8189  157.3332 O   0  0  0  0  0  0  0  0  0  0  0  0
  149.3510  136.8623  158.3986 C   0  0  0  0  0  0  0  0  0  0  0  0
  148.5337  136.6428  159.4425 F   0  0  0  0  0  0  0  0  0  0  0  0
  150.0682  138.0035  158.3507 C   0  0  0  0  0  0  0  0  0  0  0  0
  150.9308  138.3100  157.3107 N   0  0  0  0  0  0  0  0  0  0  0  0
  151.7840  139.5702  157.2949 C   0  0  1  0  0  0  0  0  0  0  0  0
  151.5529  140.4746  156.0768 C   0  0  0  0  0  0  0  0  0  0  0  0
  150.5676  141.5183  156.5960 C   0  0  0  0  0  0  0  0  0  0  0  0
  150.3305  141.1382  158.0615 C   0  0  0  0  0  0  0  0  0  0  0  0
  151.4545  140.3401  158.4067 O   0  0  0  0  0  0  0  0  0  0  0  0
  151.1414  137.3564  156.2889 C   0  0  0  0  0  0  0  0  0  0  0  0
  151.9490  137.5723  155.3822 O   0  0  0  0  0  0  0  0  0  0  0  0
  149.9799  132.7464  155.3327 N   0  0  0  0  0  0  0  0  0  0  0  0
  148.8785  133.0271  154.3960 C   0  0  0  0  0  0  0  0  0  0  0  0
  148.8750  132.0855  153.1723 C   0  0  0  0  0  0  0  0  0  0  0  0
  147.6584  132.2565  152.2781 C   0  0  0  0  0  0  0  0  0  0  0  0
  147.3966  133.5005  151.6647 C   0  0  0  0  0  0  0  0  0  0  0  0
  146.2796  133.6520  150.8208 C   0  0  0  0  0  0  0  0  0  0  0  0
  145.4192  132.5614  150.5888 C   0  0  0  0  0  0  0  0  0  0  0  0
  145.6765  131.3193  151.2007 C   0  0  0  0  0  0  0  0  0  0  0  0
  146.7941  131.1668  152.0443 C   0  0  0  0  0  0  0  0  0  0  0  0
  150.0828  131.3492  155.7890 C   0  0  0  0  0  0  0  0  0  0  0  0
  151.2754  130.5763  155.2353 C   0  0  0  0  0  0  0  0  0  0  0  0
  151.1206  129.3146  154.6157 C   0  0  0  0  0  0  0  0  0  0  0  0
  152.2427  128.6258  154.1162 C   0  0  0  0  0  0  0  0  0  0  0  0
  153.5261  129.1936  154.2263 C   0  0  0  0  0  0  0  0  0  0  0  0
  153.6863  130.4532  154.8342 C   0  0  0  0  0  0  0  0  0  0  0  0
  152.5644  131.1418  155.3351 C   0  0  0  0  0  0  0  0  0  0  0  0
  151.4035  135.4745  154.5849 H   0  0  0  0  0  0  0  0  0  0  0  0
  149.7086  135.1731  154.5740 H   0  0  0  0  0  0  0  0  0  0  0  0
  149.9539  138.6866  159.1774 H   0  0  0  0  0  0  0  0  0  0  0  0
  152.8172  139.2220  157.3392 H   0  0  0  0  0  0  0  0  0  0  0  0
  152.4988  140.9571  155.8272 H   0  0  0  0  0  0  0  0  0  0  0  0
  151.2242  139.9230  155.1962 H   0  0  0  0  0  0  0  0  0  0  0  0
  151.0075  142.5135  156.5250 H   0  0  0  0  0  0  0  0  0  0  0  0
  149.6360  141.5259  156.0297 H   0  0  0  0  0  0  0  0  0  0  0  0
  150.2481  142.0098  158.7112 H   0  0  0  0  0  0  0  0  0  0  0  0
  149.4170  140.5523  158.1698 H   0  0  0  0  0  0  0  0  0  0  0  0
  147.9205  132.9450  154.9108 H   0  0  0  0  0  0  0  0  0  0  0  0
  148.9269  134.0653  154.0630 H   0  0  0  0  0  0  0  0  0  0  0  0
  149.7755  132.2529  152.5802 H   0  0  0  0  0  0  0  0  0  0  0  0
  148.9266  131.0471  153.5016 H   0  0  0  0  0  0  0  0  0  0  0  0
  148.0569  134.3392  151.8326 H   0  0  0  0  0  0  0  0  0  0  0  0
  146.0838  134.6041  150.3502 H   0  0  0  0  0  0  0  0  0  0  0  0
  144.5627  132.6778  149.9411 H   0  0  0  0  0  0  0  0  0  0  0  0
  145.0174  130.4826  151.0219 H   0  0  0  0  0  0  0  0  0  0  0  0
  146.9898  130.2104  152.5068 H   0  0  0  0  0  0  0  0  0  0  0  0
  150.1453  131.3080  156.8768 H   0  0  0  0  0  0  0  0  0  0  0  0
  149.1618  130.8137  155.5567 H   0  0  0  0  0  0  0  0  0  0  0  0
  150.1447  128.8627  154.5178 H   0  0  0  0  0  0  0  0  0  0  0  0
  152.1178  127.6606  153.6478 H   0  0  0  0  0  0  0  0  0  0  0  0
  154.3862  128.6649  153.8427 H   0  0  0  0  0  0  0  0  0  0  0  0
  154.6701  130.8916  154.9166 H   0  0  0  0  0  0  0  0  0  0  0  0
  152.6979  132.1073  155.8006 H   0  0  0  0  0  0  0  0  0  0  0  0
  1  2  2  0  0  0  0
  2  3  1  0  0  0  0
  2 18  1  0  0  0  0
  3  4  1  0  0  0  0
  3 34  1  0  0  0  0
  3 35  1  0  0  0  0
  4 16  1  0  0  0  0
  4  5  1  0  0  0  0
  5  6  2  0  0  0  0
  5  7  1  0  0  0  0
  7  8  1  0  0  0  0
  7  9  2  0  0  0  0
  9 10  1  0  0  0  0
  9 36  1  0  0  0  0
 10 11  1  0  0  0  0
 10 16  1  0  0  0  0
 11 15  1  0  0  0  0
 11 12  1  0  0  0  0
 11 37  1  0  0  0  0
 12 13  1  0  0  0  0
 12 38  1  0  0  0  0
 12 39  1  0  0  0  0
 13 14  1  0  0  0  0
 13 40  1  0  0  0  0
 13 41  1  0  0  0  0
 14 15  1  0  0  0  0
 14 42  1  0  0  0  0
 14 43  1  0  0  0  0
 16 17  2  0  0  0  0
 18 19  1  0  0  0  0
 18 27  1  0  0  0  0
 19 20  1  0  0  0  0
 19 44  1  0  0  0  0
 19 45  1  0  0  0  0
 20 21  1  0  0  0  0
 20 46  1  0  0  0  0
 20 47  1  0  0  0  0
 21 26  1  0  0  0  0
 21 22  2  0  0  0  0
 22 23  1  0  0  0  0
 22 48  1  0  0  0  0
 23 24  2  0  0  0  0
 23 49  1  0  0  0  0
 24 25  1  0  0  0  0
 24 50  1  0  0  0  0
 25 26  2  0  0  0  0
 25 51  1  0  0  0  0
 26 52  1  0  0  0  0
 27 28  1  0  0  0  0
 27 53  1  0  0  0  0
 27 54  1  0  0  0  0
 28 33  1  0  0  0  0
 28 29  2  0  0  0  0
 29 30  1  0  0  0  0
 29 55  1  0  0  0  0
 30 31  2  0  0  0  0
 30 56  1  0  0  0  0
 31 32  1  0  0  0  0
 31 57  1  0  0  0  0
 32 33  2  0  0  0  0
 32 58  1  0  0  0  0
 33 59  1  0  0  0  0
M  END
> <s_m_source_file>
AV-unprocessed.smi

> <i_m_source_file_index>
108

> <i_lp_mmshare_version>
43012

> <i_f3d_flags>
0

> <s_epik_input>
W2NIXTFbY0hdW2NIXVtjSF1bY0hdYzFbQ0gyXVtDSDJdTihbQ0gyXWMyW2NIXVtjSF1bY0hdW2NIXVtjSF0yKUMoPU8pW0NIMl1uM2MoPU8pYyhGKVtjSF1uKGMzPU8pW0NAQEhdNFtDSDJdW0NIMl1bQ0gyXU80

> <s_epik_cmdline>
J2VwaWtfcHl0aG9uJywgJy1waCcsICc3LjAnLCAnLXRuJywgJzgnLCAnLW1hJywgJzIwMCcsICctbWV0YWxfYmluZGluZycsICctaW1hZScsICc8aW5maWxlLm1hZT4nLCAnLW9tYWUnLCAnPG91dGZpbGUubWFlPic=

> <r_lp_tautomer_probability>
1

> <r_epik_Ionization_Penalty>
5.46209e-09

> <r_epik_Ionization_Penalty_Charging>
4.22697e-09

> <r_epik_Ionization_Penalty_Neutral>
1.23512e-09

> <r_epik_State_Penalty>
-0

> <r_epik_Charging_Adjusted_Penalty>
4.22697e-09

> <i_epik_Tot_Q>
0

> <i_epik_Tot_abs_Q>
0

> <r_epik_Metal_State_Penalty>
-0

> <b_epik_Metal_Only>
0

> <s_epik_Chemistry_Notes>
This compound contains an acetal/aminal-like group ( X-CH(R)-Y where X, Y are N, S, or O) that may be acid/base labile, releasing an aldehyde.

> <s_lp_Force_Field>
OPLS_2005

> <r_lp_Energy>
38.0932

> <b_lp_Chiralities_Consistent>
1

> <s_lp_Variant>
AV-unprocessed.smi:108-2

> <Gold.Version>
5.8.1

> <Gold.Id.Protein>
6NUR|6NUR_protein|mol2

> <Gold.PLP.Fitness>
53.7503

> <Gold.PLP.PLP>
-51.6719

> <Gold.PLP.part.hbond>
-1.3342

> <Gold.PLP.part.metal>
0.0000

> <Gold.PLP.part.buried>
-4.5553

> <Gold.PLP.part.nonpolar>
-46.1696

> <Gold.PLP.part.repulsive>
0.0491

> <Gold.PLP.ligand.clash>
0.0000

> <Gold.PLP.ligand.torsion>
0.3783

> <Gold.PLP.Chemscore.Hbond>
0.8640

> <Gold.PLP.Chemscore.CHOScore>
0.0000

> <Gold.PLP.Chemscore.Metal>
0.0000

> <Gold.Chemscore.Hbonds>
donor molecule, donor type, donor heavy atom, donor atom, acceptor molecule, acceptor atom, score
      P1  H 10752 10765       L1    17  0.19

> <Gold.PLP.Chemscore.Internal.Correction>
0.2430

> <Gold.Rescore>
     Score         DG    S(hbond)    S(metal)    S(lipo)     H(rot)  DE(clash)    DE(int)     intcor
     13.71     -16.98       1.57        0.00     103.12       2.28       0.00       3.26       ----

> <Gold.Chemscore.Fitness>
13.7140

> <Gold.Chemscore.DG>
-16.9774

> <Gold.Chemscore.ZeroCoef>
-5.4800

> <Gold.Chemscore.Hbond>
1.5743

> <Gold.Chemscore.Metal>
0.0000

> <Gold.Chemscore.Lipo>
103.1177

> <Gold.Chemscore.Internal_Hbond>
0.0000

> <Gold.Chemscore.DEClash>
0.0000

> <Gold.Chemscore.DEInternal>
3.2634

> <Gold.Chemscore.Rot>
2.2756

> <Gold.Chemscore.Internal.Correction>
   9.000000E+99

> <Gold.Chemscore.Hbonds>
donor molecule, donor type, donor heavy atom, donor atom, acceptor molecule, acceptor atom, score
      P1  H 10752 10765       L1    17  0.14

> <Gold.Chemscore.Hbond.Weighted>
-5.2581

> <Gold.Chemscore.Metal.Weighted>
-0.0000

> <Gold.Chemscore.Lipo.Weighted>
-12.0648

> <Gold.Chemscore.Internal_Hbond.Weighted>
0.0000

> <Gold.Chemscore.DEClash.Weighted>
0.0000

> <Gold.Chemscore.DEInternal.Weighted>
3.2634

> <Gold.Chemscore.Rot.Weighted>
5.8255

> <Gold.Chemscore.Internal.Correction.Weighted>
   9.000000E+99

> <Gold.Protein.RotatedTorsions>
[ 6907 6896 6895 6894 ] final  -51.91 input  -60.11 | X-H torsion
[ 7974 7965 7964 7962 ] final -100.27 input  175.53 | X-H torsion
[ 8008 7997 7996 7995 ] final  -54.81 input   59.86 | X-H torsion
[ 10167 10162 10161 10158 ] final   94.28 input  -65.29 | X-H torsion
[ 10718 10713 10712 10709 ] final -152.19 input   66.30 | X-H torsion
[ 10763 10752 10751 10750 ] final -168.39 input  -60.55 | X-H torsion
[ 11005 11000 10999 10996 ] final -165.33 input  -57.11 | X-H torsion

> <Gold.Protein.ActiveResidues>
 VAL166  LYS551  ARG553  GLY616  TRP617  ASP618  TYR619  PRO620  LYS621  CYS622 
 ASP623  PHE694  ASN695  SER759  ASP760  ASP761  ALA762  ILE779  LEU786  VAL792 
 PHE793  MET794  SER795  GLU796  ALA797  LYS798  CYS799  TRP800  GLU811  SER814 

> <Gold.Protein.RotatedAtoms>
  150.8567  134.7907  159.7050 H   0  0  0  0  0  0  0  0  0  0  0  0  # atno 6907 bound_to 6896
  152.4616  134.5167  159.9780 H   0  0  0  0  0  0  0  0  0  0  0  0  # atno 6908 bound_to 6896
  151.5278  133.3416  159.2948 H   0  0  0  0  0  0  0  0  0  0  0  0  # atno 6909 bound_to 6896
  145.2967  140.9367  143.2847 H   0  0  0  0  0  0  0  0  0  0  0  0  # atno 7974 bound_to 7965
  154.4174  140.1167  156.5375 H   0  0  0  0  0  0  0  0  0  0  0  0  # atno 8008 bound_to 7997
  155.6542  140.3496  155.4740 H   0  0  0  0  0  0  0  0  0  0  0  0  # atno 8009 bound_to 7997
  155.9767  140.1152  157.0753 H   0  0  0  0  0  0  0  0  0  0  0  0  # atno 8010 bound_to 7997
  139.8099  144.6778  150.9654 H   0  0  0  0  0  0  0  0  0  0  0  0  # atno 10167 bound_to 10162
  156.4692  130.8250  151.2480 H   0  0  0  0  0  0  0  0  0  0  0  0  # atno 10718 bound_to 10713
  154.6634  135.2928  154.9837 H   0  0  0  0  0  0  0  0  0  0  0  0  # atno 10763 bound_to 10752
  154.0889  135.6593  153.4853 H   0  0  0  0  0  0  0  0  0  0  0  0  # atno 10764 bound_to 10752
  153.0443  135.5215  154.7595 H   0  0  0  0  0  0  0  0  0  0  0  0  # atno 10765 bound_to 10752
  140.5769  134.5181  157.5172 H   0  0  0  0  0  0  0  0  0  0  0  0  # atno 11005 bound_to 11000
  144.9127  139.4508  143.6579 LP  0  0  0  0  0  0  0  0  0  0  0  0  # atno 17320 bound_to 7965
  146.3166  139.7944  142.8978 LP  0  0  0  0  0  0  0  0  0  0  0  0  # atno 17321 bound_to 7965
  140.7818  143.4195  151.0863 LP  0  0  0  0  0  0  0  0  0  0  0  0  # atno 17342 bound_to 10162
  139.7863  143.8283  152.3145 LP  0  0  0  0  0  0  0  0  0  0  0  0  # atno 17343 bound_to 10162
  157.7492  131.0082  150.3218 LP  0  0  0  0  0  0  0  0  0  0  0  0  # atno 17370 bound_to 10713
  156.3636  130.3851  149.7231 LP  0  0  0  0  0  0  0  0  0  0  0  0  # atno 17371 bound_to 10713
  139.9335  134.7918  156.0865 LP  0  0  0  0  0  0  0  0  0  0  0  0  # atno 17394 bound_to 11000
  141.1021  133.6673  156.2778 LP  0  0  0  0  0  0  0  0  0  0  0  0  # atno 17395 bound_to 11000

$$$$
