AV-unprocessed.smi:1813|AV-procd|sdf|7342|dock3
  -GOLD-   22720 9 03D 1   1.00000     0.00000
 Structure written by MMmdl.
 40 41  0  0  0  0  0  0  0  0  2 V2000
  148.4752  132.8646  153.3625 C   0  0  0  0  0  0  0  0  0  0  0  0
  148.1129  134.2319  153.7039 N   0  0  0  0  0  0  0  0  0  0  0  0
  147.7730  134.6363  154.9358 C   0  0  0  0  0  0  0  0  0  0  0  0
  147.7288  133.8798  155.9067 O   0  0  0  0  0  0  0  0  0  0  0  0
  147.4115  136.1174  155.0879 C   0  0  0  0  0  0  0  0  0  0  0  0
  148.4549  137.0279  154.5499 N   0  3  2  0  0  0  0  0  0  0  0  0
  149.7239  136.9534  155.3177 C   0  0  0  0  0  0  0  0  0  0  0  0
  150.8304  137.7903  154.6495 C   0  0  0  0  0  0  0  0  0  0  0  0
  150.4036  139.2536  154.4378 C   0  0  2  0  0  0  0  0  0  0  0  0
  150.3601  139.9658  155.7149 N   0  0  0  0  0  0  0  0  0  0  0  0
  151.4239  140.2355  156.4862 C   0  0  0  0  0  0  0  0  0  0  0  0
  152.5746  139.9155  156.1876 O   0  0  0  0  0  0  0  0  0  0  0  0
  151.0636  140.8916  157.6032 N   0  0  0  0  0  0  0  0  0  0  0  0
  151.8983  141.3625  158.6508 C   0  0  0  0  0  0  0  0  0  0  0  0
  151.7583  142.5504  159.2508 N   0  0  0  0  0  0  0  0  0  0  0  0
  152.7157  142.7499  160.2486 C   0  0  0  0  0  0  0  0  0  0  0  0
  153.5824  141.6957  160.3962 C   0  0  0  0  0  0  0  0  0  0  0  0
  153.2300  140.4035  159.2802 S   0  0  0  0  0  0  0  0  0  0  0  0
  149.0470  139.2989  153.7057 C   0  0  0  0  0  0  0  0  0  0  0  0
  147.9860  138.4318  154.4047 C   0  0  0  0  0  0  0  0  0  0  0  0
  148.7980  132.8139  152.3229 H   0  0  0  0  0  0  0  0  0  0  0  0
  147.6225  132.1962  153.4878 H   0  0  0  0  0  0  0  0  0  0  0  0
  149.2930  132.5072  153.9897 H   0  0  0  0  0  0  0  0  0  0  0  0
  148.1178  134.9100  152.9552 H   0  0  0  0  0  0  0  0  0  0  0  0
  146.4501  136.3293  154.6170 H   0  0  0  0  0  0  0  0  0  0  0  0
  147.2833  136.2965  156.1562 H   0  0  0  0  0  0  0  0  0  0  0  0
  149.5525  137.2935  156.3400 H   0  0  0  0  0  0  0  0  0  0  0  0
  150.0547  135.9161  155.3814 H   0  0  0  0  0  0  0  0  0  0  0  0
  151.7456  137.7439  155.2412 H   0  0  0  0  0  0  0  0  0  0  0  0
  151.0737  137.3474  153.6827 H   0  0  0  0  0  0  0  0  0  0  0  0
  151.1570  139.7370  153.8128 H   0  0  0  0  0  0  0  0  0  0  0  0
  149.4520  140.2597  156.0435 H   0  0  0  0  0  0  0  0  0  0  0  0
  150.0792  141.0821  157.7169 H   0  0  0  0  0  0  0  0  0  0  0  0
  152.7065  143.6741  160.8071 H   0  0  0  0  0  0  0  0  0  0  0  0
  154.4037  141.6021  161.0912 H   0  0  0  0  0  0  0  0  0  0  0  0
  148.6905  140.3254  153.6149 H   0  0  0  0  0  0  0  0  0  0  0  0
  149.1808  138.9384  152.6850 H   0  0  0  0  0  0  0  0  0  0  0  0
  147.0647  138.4620  153.8226 H   0  0  0  0  0  0  0  0  0  0  0  0
  147.7483  138.8429  155.3871 H   0  0  0  0  0  0  0  0  0  0  0  0
  148.6659  136.6914  153.6207 H   0  0  0  0  0  0  0  0  0  0  0  0
  1  2  1  0  0  0  0
  1 21  1  0  0  0  0
  1 22  1  0  0  0  0
  1 23  1  0  0  0  0
  2  3  1  0  0  0  0
  2 24  1  0  0  0  0
  3  4  2  0  0  0  0
  3  5  1  0  0  0  0
  5  6  1  0  0  0  0
  5 25  1  0  0  0  0
  5 26  1  0  0  0  0
  6 20  1  0  0  0  0
  6  7  1  0  0  0  0
  6 40  1  0  0  0  0
  7  8  1  0  0  0  0
  7 27  1  0  0  0  0
  7 28  1  0  0  0  0
  8  9  1  0  0  0  0
  8 29  1  0  0  0  0
  8 30  1  0  0  0  0
  9 10  1  0  0  0  0
  9 19  1  0  0  0  0
  9 31  1  0  0  0  0
 10 11  1  0  0  0  0
 10 32  1  0  0  0  0
 11 12  2  0  0  0  0
 11 13  1  0  0  0  0
 13 14  1  0  0  0  0
 13 33  1  0  0  0  0
 14 18  1  0  0  0  0
 14 15  2  0  0  0  0
 15 16  1  0  0  0  0
 16 17  2  0  0  0  0
 16 34  1  0  0  0  0
 17 18  1  0  0  0  0
 17 35  1  0  0  0  0
 19 20  1  0  0  0  0
 19 36  1  0  0  0  0
 19 37  1  0  0  0  0
 20 38  1  0  0  0  0
 20 39  1  0  0  0  0
M  CHG  1   6   1
M  END
> <s_m_source_file>
AV-unprocessed.smi

> <i_m_source_file_index>
1813

> <i_lp_mmshare_version>
43012

> <i_f3d_flags>
0

> <s_epik_input>
W0NIM11bTkhdQyg9TylbQ0gyXU4xW0NIMl1bQ0gyXVtDSF0oW0NIMl1bQ0gyXTEpW05IXUMoPU8pW05IXWMybltjSF1bY0hdczI=

> <s_epik_cmdline>
J2VwaWtfcHl0aG9uJywgJy1waCcsICc3LjAnLCAnLXRuJywgJzgnLCAnLW1hJywgJzIwMCcsICctbWV0YWxfYmluZGluZycsICctaW1hZScsICc8aW5maWxlLm1hZT4nLCAnLW9tYWUnLCAnPG91dGZpbGUubWFlPic=

> <r_lp_tautomer_probability>
0.999

> <r_epik_Ionization_Penalty>
0.862509

> <r_epik_Ionization_Penalty_Charging>
0.862349

> <r_epik_Ionization_Penalty_Neutral>
0.000159522

> <r_epik_State_Penalty>
0.898939

> <r_epik_Charging_Adjusted_Penalty>
1.76129

> <i_epik_Tot_Q>
1

> <i_epik_Tot_abs_Q>
1

> <r_epik_Metal_State_Penalty>
0.936827

> <b_epik_Metal_Only>
0

> <s_lp_Force_Field>
OPLS_2005

> <r_lp_Energy>
11.766

> <b_lp_Chiralities_Consistent>
1

> <s_lp_Variant>
AV-unprocessed.smi:1813-3

> <Gold.Version>
5.8.1

> <Gold.Id.Protein>
6NUR|6NUR_protein|mol2

> <Gold.PLP.Fitness>
41.7039

> <Gold.PLP.PLP>
-30.6625

> <Gold.PLP.part.hbond>
-3.0000

> <Gold.PLP.part.metal>
0.0000

> <Gold.PLP.part.buried>
-2.7155

> <Gold.PLP.part.nonpolar>
-25.2510

> <Gold.PLP.part.repulsive>
0.1367

> <Gold.PLP.ligand.clash>
0.0000

> <Gold.PLP.ligand.torsion>
0.4968

> <Gold.PLP.Chemscore.Hbond>
4.0000

> <Gold.PLP.Chemscore.CHOScore>
0.0000

> <Gold.PLP.Chemscore.Metal>
0.0000

> <Gold.Chemscore.Hbonds>
donor molecule, donor type, donor heavy atom, donor atom, acceptor molecule, acceptor atom, score
      L1  H     2    24       P1  7948  1.00
      L1  H     6    40       P1  7948  2.00
      P1  H  7997  8010       L1    12  1.00

> <Gold.PLP.Chemscore.Internal.Correction>
0.0351

> <Gold.Rescore>
     Score         DG    S(hbond)    S(metal)    S(lipo)     H(rot)  DE(clash)    DE(int)     intcor
     17.06     -17.98       2.89        0.00      63.24       1.79       0.16       0.75       ----

> <Gold.Chemscore.Fitness>
17.0639

> <Gold.Chemscore.DG>
-17.9753

> <Gold.Chemscore.ZeroCoef>
-5.4800

> <Gold.Chemscore.Hbond>
2.8948

> <Gold.Chemscore.Metal>
0.0000

> <Gold.Chemscore.Lipo>
63.2417

> <Gold.Chemscore.Internal_Hbond>
0.0000

> <Gold.Chemscore.DEClash>
0.1635

> <Gold.Chemscore.DEInternal>
0.7478

> <Gold.Chemscore.Rot>
1.7862

> <Gold.Chemscore.Internal.Correction>
   9.000000E+99

> <Gold.Chemscore.Hbonds>
donor molecule, donor type, donor heavy atom, donor atom, acceptor molecule, acceptor atom, score
      L1  H     2    24       P1  7948  0.85
      L1  H     6    40       P1  7948  1.00
      P1  H  7997  8010       L1    12  0.99

> <Gold.Chemscore.Hbond.Weighted>
-9.6686

> <Gold.Chemscore.Metal.Weighted>
-0.0000

> <Gold.Chemscore.Lipo.Weighted>
-7.3993

> <Gold.Chemscore.Internal_Hbond.Weighted>
0.0000

> <Gold.Chemscore.DEClash.Weighted>
0.1635

> <Gold.Chemscore.DEInternal.Weighted>
0.7478

> <Gold.Chemscore.Rot.Weighted>
4.5726

> <Gold.Chemscore.Internal.Correction.Weighted>
   9.000000E+99

> <Gold.Protein.RotatedTorsions>
[ 6907 6896 6895 6894 ] final  125.58 input  -60.11 | X-H torsion
[ 7974 7965 7964 7962 ] final  -33.98 input  175.53 | X-H torsion
[ 8008 7997 7996 7995 ] final   92.12 input   59.86 | X-H torsion
[ 10167 10162 10161 10158 ] final -120.02 input  -65.29 | X-H torsion
[ 10718 10713 10712 10709 ] final   50.88 input   66.30 | X-H torsion
[ 10763 10752 10751 10750 ] final  156.60 input  -60.55 | X-H torsion
[ 11005 11000 10999 10996 ] final  167.59 input  -57.11 | X-H torsion

> <Gold.Protein.ActiveResidues>
 VAL166  LYS551  ARG553  GLY616  TRP617  ASP618  TYR619  PRO620  LYS621  CYS622 
 ASP623  PHE694  ASN695  SER759  ASP760  ASP761  ALA762  ILE779  LEU786  VAL792 
 PHE793  MET794  SER795  GLU796  ALA797  LYS798  CYS799  TRP800  GLU811  SER814 

> <Gold.Protein.RotatedAtoms>
  152.3979  133.6774  159.6291 H   0  0  0  0  0  0  0  0  0  0  0  0  # atno 6907 bound_to 6896
  150.7875  133.8842  159.3303 H   0  0  0  0  0  0  0  0  0  0  0  0  # atno 6908 bound_to 6896
  151.6614  135.0990  160.0231 H   0  0  0  0  0  0  0  0  0  0  0  0  # atno 6909 bound_to 6896
  146.0867  140.5983  142.8883 H   0  0  0  0  0  0  0  0  0  0  0  0  # atno 7974 bound_to 7965
  156.0316  140.3329  155.7146 H   0  0  0  0  0  0  0  0  0  0  0  0  # atno 8008 bound_to 7997
  155.5876  140.0643  157.2785 H   0  0  0  0  0  0  0  0  0  0  0  0  # atno 8009 bound_to 7997
  154.4356  140.1833  156.1029 H   0  0  0  0  0  0  0  0  0  0  0  0  # atno 8010 bound_to 7997
  140.0404  143.5159  152.2133 H   0  0  0  0  0  0  0  0  0  0  0  0  # atno 10167 bound_to 10162
  157.4928  130.8387  149.8222 H   0  0  0  0  0  0  0  0  0  0  0  0  # atno 10718 bound_to 10713
  154.1868  135.2797  155.3034 H   0  0  0  0  0  0  0  0  0  0  0  0  # atno 10763 bound_to 10752
  154.5960  135.5545  153.7329 H   0  0  0  0  0  0  0  0  0  0  0  0  # atno 10764 bound_to 10752
  153.0123  135.6380  154.2007 H   0  0  0  0  0  0  0  0  0  0  0  0  # atno 10765 bound_to 10752
  140.2784  134.7770  157.3737 H   0  0  0  0  0  0  0  0  0  0  0  0  # atno 11005 bound_to 11000
  144.7330  140.4728  143.6924 LP  0  0  0  0  0  0  0  0  0  0  0  0  # atno 17320 bound_to 7965
  145.6117  139.1514  143.3072 LP  0  0  0  0  0  0  0  0  0  0  0  0  # atno 17321 bound_to 7965
  139.6017  144.7584  151.3155 LP  0  0  0  0  0  0  0  0  0  0  0  0  # atno 17342 bound_to 10162
  140.7263  143.6995  150.7856 LP  0  0  0  0  0  0  0  0  0  0  0  0  # atno 17343 bound_to 10162
  156.0183  130.3805  150.2041 LP  0  0  0  0  0  0  0  0  0  0  0  0  # atno 17370 bound_to 10713
  157.0230  130.9985  151.3334 LP  0  0  0  0  0  0  0  0  0  0  0  0  # atno 17371 bound_to 10713
  140.1306  134.5100  155.8108 LP  0  0  0  0  0  0  0  0  0  0  0  0  # atno 17394 bound_to 11000
  141.2166  133.6788  156.7033 LP  0  0  0  0  0  0  0  0  0  0  0  0  # atno 17395 bound_to 11000

$$$$
