AV-unprocessed.smi:1165|AV-procd|sdf|4928|dock3
  -GOLD-   22720 3513D 1   1.00000     0.00000
 Structure written by MMmdl.
 41 42  0  0  0  0  0  0  0  0  1 V2000
  151.4823  134.1199  156.5487 C   0  0  0  0  0  0  0  0  0  0  0  0
  150.6842  135.4094  156.7678 C   0  0  2  0  0  0  0  0  0  0  0  0
  151.5268  136.6630  156.4772 C   0  0  0  0  0  0  0  0  0  0  0  0
  150.7784  137.8815  156.8218 N   0  0  0  0  0  0  0  0  0  0  0  0
  151.3479  139.3924  156.1959 S   0  0  0  0  0  0  0  0  0  0  0  0
  152.4132  139.8958  157.0766 O   0  0  0  0  0  0  0  0  0  0  0  0
  151.5588  139.2418  154.7482 O   0  0  0  0  0  0  0  0  0  0  0  0
  149.9391  140.3560  156.4503 N   0  0  0  0  0  0  0  0  0  0  0  0
  149.9509  141.3935  157.4808 C   0  0  0  0  0  0  0  0  0  0  0  0
  151.1458  142.3323  157.2776 C   0  0  0  0  0  0  0  0  0  0  0  0
  151.4193  143.1738  158.5081 C   0  0  0  0  0  0  0  0  0  0  0  0
  152.5230  142.9013  159.3424 C   0  0  0  0  0  0  0  0  0  0  0  0
  152.7299  143.7081  160.4779 C   0  0  0  0  0  0  0  0  0  0  0  0
  151.8210  144.7548  160.7319 C   0  0  0  0  0  0  0  0  0  0  0  0
  150.7602  145.0241  159.9407 N   0  0  0  0  0  0  0  0  0  0  0  0
  150.5694  144.2462  158.8535 C   0  0  0  0  0  0  0  0  0  0  0  0
  150.2522  137.8667  158.1944 C   0  0  0  0  0  0  0  0  0  0  0  0
  149.4683  136.5707  158.4781 C   0  0  1  0  0  0  0  0  0  0  0  0
  148.0711  136.5526  157.8314 C   0  0  0  0  0  0  0  0  0  0  0  0
  150.2415  135.4271  158.1206 O   0  0  0  0  0  0  0  0  0  0  0  0
  151.8379  134.0473  155.5206 H   0  0  0  0  0  0  0  0  0  0  0  0
  150.8668  133.2429  156.7500 H   0  0  0  0  0  0  0  0  0  0  0  0
  152.3500  134.0758  157.2075 H   0  0  0  0  0  0  0  0  0  0  0  0
  149.8242  135.3871  156.0982 H   0  0  0  0  0  0  0  0  0  0  0  0
  152.4524  136.6444  157.0543 H   0  0  0  0  0  0  0  0  0  0  0  0
  151.8094  136.6809  155.4249 H   0  0  0  0  0  0  0  0  0  0  0  0
  149.0752  139.8157  156.4117 H   0  0  0  0  0  0  0  0  0  0  0  0
  149.0193  141.9584  157.4338 H   0  0  0  0  0  0  0  0  0  0  0  0
  149.9955  140.9224  158.4633 H   0  0  0  0  0  0  0  0  0  0  0  0
  152.0389  141.7558  157.0318 H   0  0  0  0  0  0  0  0  0  0  0  0
  150.9628  142.9952  156.4309 H   0  0  0  0  0  0  0  0  0  0  0  0
  153.1983  142.0882  159.1191 H   0  0  0  0  0  0  0  0  0  0  0  0
  153.5645  143.5284  161.1394 H   0  0  0  0  0  0  0  0  0  0  0  0
  151.9495  145.3926  161.5940 H   0  0  0  0  0  0  0  0  0  0  0  0
  149.7109  144.4847  158.2427 H   0  0  0  0  0  0  0  0  0  0  0  0
  151.0905  137.9543  158.8866 H   0  0  0  0  0  0  0  0  0  0  0  0
  149.6136  138.7343  158.3615 H   0  0  0  0  0  0  0  0  0  0  0  0
  149.3158  136.5059  159.5557 H   0  0  0  0  0  0  0  0  0  0  0  0
  147.4490  137.3516  158.2351 H   0  0  0  0  0  0  0  0  0  0  0  0
  147.5631  135.6083  158.0283 H   0  0  0  0  0  0  0  0  0  0  0  0
  148.1130  136.6931  156.7515 H   0  0  0  0  0  0  0  0  0  0  0  0
  1  2  1  0  0  0  0
  1 21  1  0  0  0  0
  1 22  1  0  0  0  0
  1 23  1  0  0  0  0
  2 20  1  0  0  0  0
  2  3  1  0  0  0  0
  2 24  1  0  0  0  0
  3  4  1  0  0  0  0
  3 25  1  0  0  0  0
  3 26  1  0  0  0  0
  4  5  1  0  0  0  0
  4 17  1  0  0  0  0
  5  6  2  0  0  0  0
  5  7  2  0  0  0  0
  5  8  1  0  0  0  0
  8  9  1  0  0  0  0
  8 27  1  0  0  0  0
  9 10  1  0  0  0  0
  9 28  1  0  0  0  0
  9 29  1  0  0  0  0
 10 11  1  0  0  0  0
 10 30  1  0  0  0  0
 10 31  1  0  0  0  0
 11 16  1  0  0  0  0
 11 12  2  0  0  0  0
 12 13  1  0  0  0  0
 12 32  1  0  0  0  0
 13 14  2  0  0  0  0
 13 33  1  0  0  0  0
 14 15  1  0  0  0  0
 14 34  1  0  0  0  0
 15 16  2  0  0  0  0
 16 35  1  0  0  0  0
 17 18  1  0  0  0  0
 17 36  1  0  0  0  0
 17 37  1  0  0  0  0
 18 19  1  0  0  0  0
 18 20  1  0  0  0  0
 18 38  1  0  0  0  0
 19 39  1  0  0  0  0
 19 40  1  0  0  0  0
 19 41  1  0  0  0  0
M  END
> <s_m_source_file>
AV-unprocessed.smi

> <i_m_source_file_index>
1165

> <i_lp_mmshare_version>
43012

> <i_f3d_flags>
0

> <s_epik_input>
W0NIM11bQ0BASF0xW0NIMl1OKFtDSDJdW0NASF0oTzEpW0NIM10pUyg9TykoPU8pW05IXVtDSDJdW0NIMl1jMltjSF1bY0hdW2NIXW5bY0hdMg==

> <s_epik_cmdline>
J2VwaWtfcHl0aG9uJywgJy1waCcsICc3LjAnLCAnLXRuJywgJzgnLCAnLW1hJywgJzIwMCcsICctbWV0YWxfYmluZGluZycsICctaW1hZScsICc8aW5maWxlLm1hZT4nLCAnLW9tYWUnLCAnPG91dGZpbGUubWFlPic=

> <r_epik_Ionization_Penalty>
0.0861056

> <r_epik_Ionization_Penalty_Charging>
0

> <r_epik_Ionization_Penalty_Neutral>
0.0861056

> <r_epik_State_Penalty>
0.0574425

> <r_epik_Charging_Adjusted_Penalty>
0.0574425

> <i_epik_Tot_Q>
0

> <i_epik_Tot_abs_Q>
0

> <r_epik_Metal_State_Penalty>
0.317425

> <b_epik_Metal_Only>
0

> <s_lp_Force_Field>
OPLS_2005

> <r_lp_Energy>
8.25328

> <b_lp_Chiralities_Consistent>
1

> <s_lp_Variant>
AV-unprocessed.smi:1165-1

> <Gold.Version>
5.8.1

> <Gold.Id.Protein>
6NUR|6NUR_protein|mol2

> <Gold.PLP.Fitness>
43.0514

> <Gold.PLP.PLP>
-31.6015

> <Gold.PLP.part.hbond>
-3.0000

> <Gold.PLP.part.metal>
0.0000

> <Gold.PLP.part.buried>
-6.5537

> <Gold.PLP.part.nonpolar>
-22.6026

> <Gold.PLP.part.repulsive>
0.2430

> <Gold.PLP.ligand.clash>
0.0000

> <Gold.PLP.ligand.torsion>
0.8046

> <Gold.PLP.Chemscore.Hbond>
2.9120

> <Gold.PLP.Chemscore.CHOScore>
1.1499

> <Gold.PLP.Chemscore.Metal>
0.0000

> <Gold.Chemscore.Hbonds>
donor molecule, donor type, donor heavy atom, donor atom, acceptor molecule, acceptor atom, score
      P1  H  6896  6907       L1    20  0.78
      P1  H  7989  7998       L1     7  0.96
      P1  H  7997  8010       L1     6  1.00
      L1  C    16    35       P1  8028  0.28
      L1  C    16    35       P1  8029  0.84

> <Gold.PLP.Chemscore.Internal.Correction>
0.8734

> <Gold.Rescore>
     Score         DG    S(hbond)    S(metal)    S(lipo)     H(rot)  DE(clash)    DE(int)     intcor
     18.84     -21.00       2.80        0.00      90.02       1.71       0.17       1.98       ----

> <Gold.Chemscore.Fitness>
18.8395

> <Gold.Chemscore.DG>
-20.9965

> <Gold.Chemscore.ZeroCoef>
-5.4800

> <Gold.Chemscore.Hbond>
2.8000

> <Gold.Chemscore.Metal>
0.0000

> <Gold.Chemscore.Lipo>
90.0157

> <Gold.Chemscore.Internal_Hbond>
0.0000

> <Gold.Chemscore.DEClash>
0.1749

> <Gold.Chemscore.DEInternal>
1.9821

> <Gold.Chemscore.Rot>
1.7060

> <Gold.Chemscore.Internal.Correction>
   9.000000E+99

> <Gold.Chemscore.Hbonds>
donor molecule, donor type, donor heavy atom, donor atom, acceptor molecule, acceptor atom, score
      P1  H  6896  6907       L1    20  0.58
      P1  H  7989  7998       L1     7  0.89
      P1  H  7997  8010       L1     6  0.94

> <Gold.Chemscore.Hbond.Weighted>
-9.3520

> <Gold.Chemscore.Metal.Weighted>
-0.0000

> <Gold.Chemscore.Lipo.Weighted>
-10.5318

> <Gold.Chemscore.Internal_Hbond.Weighted>
0.0000

> <Gold.Chemscore.DEClash.Weighted>
0.1749

> <Gold.Chemscore.DEInternal.Weighted>
1.9821

> <Gold.Chemscore.Rot.Weighted>
4.3674

> <Gold.Chemscore.Internal.Correction.Weighted>
   9.000000E+99

> <Gold.Protein.RotatedTorsions>
[ 6907 6896 6895 6894 ] final  -70.99 input  -60.11 | X-H torsion
[ 7974 7965 7964 7962 ] final  179.71 input  175.53 | X-H torsion
[ 8008 7997 7996 7995 ] final   61.96 input   59.86 | X-H torsion
[ 10167 10162 10161 10158 ] final   53.58 input  -65.29 | X-H torsion
[ 10718 10713 10712 10709 ] final  -51.30 input   66.30 | X-H torsion
[ 10763 10752 10751 10750 ] final  134.78 input  -60.55 | X-H torsion
[ 11005 11000 10999 10996 ] final  -34.81 input  -57.11 | X-H torsion

> <Gold.Protein.ActiveResidues>
 VAL166  LYS551  ARG553  GLY616  TRP617  ASP618  TYR619  PRO620  LYS621  CYS622 
 ASP623  PHE694  ASN695  SER759  ASP760  ASP761  ALA762  ILE779  LEU786  VAL792 
 PHE793  MET794  SER795  GLU796  ALA797  LYS798  CYS799  TRP800  GLU811  SER814 

> <Gold.Protein.RotatedAtoms>
  150.7232  134.5374  159.5729 H   0  0  0  0  0  0  0  0  0  0  0  0  # atno 6907 bound_to 6896
  152.2892  134.7737  160.0390 H   0  0  0  0  0  0  0  0  0  0  0  0  # atno 6908 bound_to 6896
  151.8357  133.3380  159.3664 H   0  0  0  0  0  0  0  0  0  0  0  0  # atno 6909 bound_to 6896
  144.7143  140.0589  143.6433 H   0  0  0  0  0  0  0  0  0  0  0  0  # atno 7974 bound_to 7965
  155.6068  140.3494  155.4610 H   0  0  0  0  0  0  0  0  0  0  0  0  # atno 8008 bound_to 7997
  156.0186  140.1248  157.0405 H   0  0  0  0  0  0  0  0  0  0  0  0  # atno 8009 bound_to 7997
  154.4306  140.1067  156.5917 H   0  0  0  0  0  0  0  0  0  0  0  0  # atno 8010 bound_to 7997
  140.2392  144.3602  150.6386 H   0  0  0  0  0  0  0  0  0  0  0  0  # atno 10167 bound_to 10162
  156.1722  130.4149  149.9630 H   0  0  0  0  0  0  0  0  0  0  0  0  # atno 10718 bound_to 10713
  153.8292  135.3106  155.3417 H   0  0  0  0  0  0  0  0  0  0  0  0  # atno 10763 bound_to 10752
  154.7980  135.4744  154.0210 H   0  0  0  0  0  0  0  0  0  0  0  0  # atno 10764 bound_to 10752
  153.1645  135.6867  153.8786 H   0  0  0  0  0  0  0  0  0  0  0  0  # atno 10765 bound_to 10752
  140.9746  133.7090  156.1581 H   0  0  0  0  0  0  0  0  0  0  0  0  # atno 11005 bound_to 11000
  145.9881  139.2993  143.1001 LP  0  0  0  0  0  0  0  0  0  0  0  0  # atno 17320 bound_to 7965
  145.8934  140.9289  143.0540 LP  0  0  0  0  0  0  0  0  0  0  0  0  # atno 17321 bound_to 7965
  140.6126  143.2170  151.6855 LP  0  0  0  0  0  0  0  0  0  0  0  0  # atno 17342 bound_to 10162
  139.5083  144.3616  152.0556 LP  0  0  0  0  0  0  0  0  0  0  0  0  # atno 17343 bound_to 10162
  156.7426  130.9085  151.3633 LP  0  0  0  0  0  0  0  0  0  0  0  0  # atno 17370 bound_to 10713
  157.6811  130.9141  150.0269 LP  0  0  0  0  0  0  0  0  0  0  0  0  # atno 17371 bound_to 10713
  140.7278  134.4288  157.5569 LP  0  0  0  0  0  0  0  0  0  0  0  0  # atno 17394 bound_to 11000
  139.8925  134.8752  156.2266 LP  0  0  0  0  0  0  0  0  0  0  0  0  # atno 17395 bound_to 11000

$$$$
