AV-unprocessed.smi:618|AV-procd|sdf|3080|dock5
  -GOLD-   22720 0 03D 1   1.00000     0.00000
 Structure written by MMmdl.
 41 43  0  0  0  0  0  0  0  0  2 V2000
  144.5125  136.6669  152.0458 O   0  0  0  0  0  0  0  0  0  0  0  0
  145.7028  136.4185  151.8550 C   0  0  0  0  0  0  0  0  0  0  0  0
  146.6729  137.3360  151.9725 N   0  0  0  0  0  0  0  0  0  0  0  0
  146.4571  138.7330  152.3344 C   0  0  0  0  0  0  0  0  0  0  0  0
  147.1481  139.0951  153.6684 C   0  0  2  0  0  0  0  0  0  0  0  0
  146.1467  139.3080  154.8299 C   0  0  0  0  0  0  0  0  0  0  0  0
  145.4869  140.6168  154.6685 N   0  3  1  0  0  0  0  0  0  0  0  0
  144.4886  141.0196  155.6745 C   0  0  0  0  0  0  0  0  0  0  0  0
  144.4669  142.5601  155.6177 C   0  0  0  0  0  0  0  0  0  0  0  0
  145.5986  142.9582  154.6537 C   0  0  0  0  0  0  0  0  0  0  0  0
  146.4654  141.7041  154.6043 C   0  0  2  0  0  0  0  0  0  0  0  0
  147.3641  141.4967  153.3800 C   0  0  0  0  0  0  0  0  0  0  0  0
  148.0155  140.2311  153.5225 O   0  0  0  0  0  0  0  0  0  0  0  0
  146.2045  135.2146  151.5314 N   0  0  0  0  0  0  0  0  0  0  0  0
  145.5025  134.0001  151.3036 C   0  0  0  0  0  0  0  0  0  0  0  0
  144.0926  133.8757  151.3481 C   0  0  0  0  0  0  0  0  0  0  0  0
  143.5122  132.6201  151.0849 C   0  0  0  0  0  0  0  0  0  0  0  0
  144.3602  131.5377  150.7804 C   0  0  0  0  0  0  0  0  0  0  0  0
  145.7044  131.6448  150.7206 N   0  0  0  0  0  0  0  0  0  0  0  0
  146.2535  132.8521  150.9726 C   0  0  0  0  0  0  0  0  0  0  0  0
  147.6256  137.0480  151.8023 H   0  0  0  0  0  0  0  0  0  0  0  0
  146.8204  139.3585  151.5198 H   0  0  0  0  0  0  0  0  0  0  0  0
  145.3855  138.9278  152.4034 H   0  0  0  0  0  0  0  0  0  0  0  0
  147.7860  138.2559  153.9471 H   0  0  0  0  0  0  0  0  0  0  0  0
  145.4018  138.5118  154.8542 H   0  0  0  0  0  0  0  0  0  0  0  0
  146.6731  139.2835  155.7854 H   0  0  0  0  0  0  0  0  0  0  0  0
  143.5158  140.5786  155.4565 H   0  0  0  0  0  0  0  0  0  0  0  0
  144.7996  140.6853  156.6656 H   0  0  0  0  0  0  0  0  0  0  0  0
  143.5054  142.9388  155.2693 H   0  0  0  0  0  0  0  0  0  0  0  0
  144.6422  142.9736  156.6115 H   0  0  0  0  0  0  0  0  0  0  0  0
  145.1861  143.1709  153.6662 H   0  0  0  0  0  0  0  0  0  0  0  0
  146.1491  143.8388  154.9863 H   0  0  0  0  0  0  0  0  0  0  0  0
  147.0802  141.6753  155.5070 H   0  0  0  0  0  0  0  0  0  0  0  0
  146.7938  141.5406  152.4518 H   0  0  0  0  0  0  0  0  0  0  0  0
  148.1200  142.2801  153.3261 H   0  0  0  0  0  0  0  0  0  0  0  0
  147.2111  135.1451  151.4964 H   0  0  0  0  0  0  0  0  0  0  0  0
  143.4484  134.7141  151.5630 H   0  0  0  0  0  0  0  0  0  0  0  0
  142.4405  132.4908  151.1119 H   0  0  0  0  0  0  0  0  0  0  0  0
  143.9472  130.5617  150.5731 H   0  0  0  0  0  0  0  0  0  0  0  0
  147.3312  132.9007  150.9129 H   0  0  0  0  0  0  0  0  0  0  0  0
  145.0091  140.6086  153.7786 H   0  0  0  0  0  0  0  0  0  0  0  0
  1  2  2  0  0  0  0
  2  3  1  0  0  0  0
  2 14  1  0  0  0  0
  3  4  1  0  0  0  0
  3 21  1  0  0  0  0
  4  5  1  0  0  0  0
  4 22  1  0  0  0  0
  4 23  1  0  0  0  0
  5 13  1  0  0  0  0
  5  6  1  0  0  0  0
  5 24  1  0  0  0  0
  6  7  1  0  0  0  0
  6 25  1  0  0  0  0
  6 26  1  0  0  0  0
  7 11  1  0  0  0  0
  7  8  1  0  0  0  0
  7 41  1  0  0  0  0
  8  9  1  0  0  0  0
  8 27  1  0  0  0  0
  8 28  1  0  0  0  0
  9 10  1  0  0  0  0
  9 29  1  0  0  0  0
  9 30  1  0  0  0  0
 10 11  1  0  0  0  0
 10 31  1  0  0  0  0
 10 32  1  0  0  0  0
 11 12  1  0  0  0  0
 11 33  1  0  0  0  0
 12 13  1  0  0  0  0
 12 34  1  0  0  0  0
 12 35  1  0  0  0  0
 14 15  1  0  0  0  0
 14 36  1  0  0  0  0
 15 20  1  0  0  0  0
 15 16  2  0  0  0  0
 16 17  1  0  0  0  0
 16 37  1  0  0  0  0
 17 18  2  0  0  0  0
 17 38  1  0  0  0  0
 18 19  1  0  0  0  0
 18 39  1  0  0  0  0
 19 20  2  0  0  0  0
 20 40  1  0  0  0  0
M  CHG  1   7   1
M  END
> <s_m_source_file>
AV-unprocessed.smi

> <i_m_source_file_index>
618

> <i_lp_mmshare_version>
43012

> <i_f3d_flags>
0

> <s_epik_input>
W2NIXTFuW2NIXVtjSF1bY0hdYzFbTkhdQyg9TylbTkhdW0NIMl1bQ0BIXShbQ0gyXTIpT1tDSDJdW0NAQEhdKE4yMylbQ0gyXVtDSDJdW0NIMl0z

> <s_epik_cmdline>
J2VwaWtfcHl0aG9uJywgJy1waCcsICc3LjAnLCAnLXRuJywgJzgnLCAnLW1hJywgJzIwMCcsICctbWV0YWxfYmluZGluZycsICctaW1hZScsICc8aW5maWxlLm1hZT4nLCAnLW9tYWUnLCAnPG91dGZpbGUubWFlPic=

> <r_epik_Ionization_Penalty>
0.111044

> <r_epik_Ionization_Penalty_Charging>
0.10673

> <r_epik_Ionization_Penalty_Neutral>
0.00431361

> <r_epik_State_Penalty>
0.0978747

> <r_epik_Charging_Adjusted_Penalty>
0.204605

> <i_epik_Tot_Q>
1

> <i_epik_Tot_abs_Q>
1

> <r_epik_Metal_State_Penalty>
0.0947591

> <b_epik_Metal_Only>
0

> <s_lp_Force_Field>
OPLS_2005

> <r_lp_Energy>
41.554

> <b_lp_Chiralities_Consistent>
1

> <s_lp_Variant>
AV-unprocessed.smi:618-7

> <Gold.Version>
5.8.1

> <Gold.Id.Protein>
6NUR|6NUR_protein|mol2

> <Gold.PLP.Fitness>
44.5409

> <Gold.PLP.PLP>
-32.5487

> <Gold.PLP.part.hbond>
-2.9153

> <Gold.PLP.part.metal>
0.0000

> <Gold.PLP.part.buried>
-8.1063

> <Gold.PLP.part.nonpolar>
-25.1140

> <Gold.PLP.part.repulsive>
3.1028

> <Gold.PLP.ligand.clash>
0.0000

> <Gold.PLP.ligand.torsion>
0.7116

> <Gold.PLP.Chemscore.Hbond>
3.8800

> <Gold.PLP.Chemscore.CHOScore>
0.5884

> <Gold.PLP.Chemscore.Metal>
0.0000

> <Gold.Chemscore.Hbonds>
donor molecule, donor type, donor heavy atom, donor atom, acceptor molecule, acceptor atom, score
      L1  H     3    21       P1  7948  1.00
      L1  H     7    41       P1 10175  2.00
      L1  H    14    36       P1  7948  0.87
      L1  C    20    40       P1 10747  0.55

> <Gold.PLP.Chemscore.Internal.Correction>
0.0101

> <Gold.Rescore>
     Score         DG    S(hbond)    S(metal)    S(lipo)     H(rot)  DE(clash)    DE(int)     intcor
     17.43     -19.76       2.86        0.00      68.23       1.27       0.38       1.95       ----

> <Gold.Chemscore.Fitness>
17.4298

> <Gold.Chemscore.DG>
-19.7602

> <Gold.Chemscore.ZeroCoef>
-5.4800

> <Gold.Chemscore.Hbond>
2.8554

> <Gold.Chemscore.Metal>
0.0000

> <Gold.Chemscore.Lipo>
68.2309

> <Gold.Chemscore.Internal_Hbond>
0.0000

> <Gold.Chemscore.DEClash>
0.3779

> <Gold.Chemscore.DEInternal>
1.9525

> <Gold.Chemscore.Rot>
1.2656

> <Gold.Chemscore.Internal.Correction>
   9.000000E+99

> <Gold.Chemscore.Hbonds>
donor molecule, donor type, donor heavy atom, donor atom, acceptor molecule, acceptor atom, score
      L1  H     3    21       P1  7948  0.93
      L1  H     7    41       P1 10175  0.99
      L1  H    14    36       P1  7948  0.68

> <Gold.Chemscore.Hbond.Weighted>
-9.5370

> <Gold.Chemscore.Metal.Weighted>
-0.0000

> <Gold.Chemscore.Lipo.Weighted>
-7.9830

> <Gold.Chemscore.Internal_Hbond.Weighted>
0.0000

> <Gold.Chemscore.DEClash.Weighted>
0.3779

> <Gold.Chemscore.DEInternal.Weighted>
1.9525

> <Gold.Chemscore.Rot.Weighted>
3.2399

> <Gold.Chemscore.Internal.Correction.Weighted>
   9.000000E+99

> <Gold.Protein.RotatedTorsions>
[ 6907 6896 6895 6894 ] final   28.39 input  -60.11 | X-H torsion
[ 7974 7965 7964 7962 ] final   50.06 input  175.53 | X-H torsion
[ 8008 7997 7996 7995 ] final    2.95 input   59.86 | X-H torsion
[ 10167 10162 10161 10158 ] final   66.32 input  -65.29 | X-H torsion
[ 10718 10713 10712 10709 ] final   32.85 input   66.30 | X-H torsion
[ 10763 10752 10751 10750 ] final  -38.70 input  -60.55 | X-H torsion
[ 11005 11000 10999 10996 ] final   56.18 input  -57.11 | X-H torsion

> <Gold.Protein.ActiveResidues>
 VAL166  LYS551  ARG553  GLY616  TRP617  ASP618  TYR619  PRO620  LYS621  CYS622 
 ASP623  PHE694  ASN695  SER759  ASP760  ASP761  ALA762  ILE779  LEU786  VAL792 
 PHE793  MET794  SER795  GLU796  ALA797  LYS798  CYS799  TRP800  GLU811  SER814 

> <Gold.Protein.RotatedAtoms>
  152.0163  134.9848  160.0569 H   0  0  0  0  0  0  0  0  0  0  0  0  # atno 6907 bound_to 6896
  152.1380  133.4442  159.4761 H   0  0  0  0  0  0  0  0  0  0  0  0  # atno 6908 bound_to 6896
  150.6862  134.2258  159.4458 H   0  0  0  0  0  0  0  0  0  0  0  0  # atno 6909 bound_to 6896
  146.0048  139.4478  142.9992 H   0  0  0  0  0  0  0  0  0  0  0  0  # atno 7974 bound_to 7965
  154.6978  140.2666  155.6749 H   0  0  0  0  0  0  0  0  0  0  0  0  # atno 8008 bound_to 7997
  156.2754  140.2778  156.1502 H   0  0  0  0  0  0  0  0  0  0  0  0  # atno 8009 bound_to 7997
  155.0807  140.0372  157.2628 H   0  0  0  0  0  0  0  0  0  0  0  0  # atno 8010 bound_to 7997
  140.1017  144.4898  150.7033 H   0  0  0  0  0  0  0  0  0  0  0  0  # atno 10167 bound_to 10162
  157.2905  130.7300  149.6608 H   0  0  0  0  0  0  0  0  0  0  0  0  # atno 10718 bound_to 10713
  153.9172  135.6786  153.4749 H   0  0  0  0  0  0  0  0  0  0  0  0  # atno 10763 bound_to 10752
  153.1047  135.4811  154.8927 H   0  0  0  0  0  0  0  0  0  0  0  0  # atno 10764 bound_to 10752
  154.7496  135.3181  154.8537 H   0  0  0  0  0  0  0  0  0  0  0  0  # atno 10765 bound_to 10752
  140.0549  134.5685  155.9220 H   0  0  0  0  0  0  0  0  0  0  0  0  # atno 11005 bound_to 11000
  145.7432  141.0000  143.1290 LP  0  0  0  0  0  0  0  0  0  0  0  0  # atno 17320 bound_to 7965
  144.6932  139.9124  143.7464 LP  0  0  0  0  0  0  0  0  0  0  0  0  # atno 17321 bound_to 7965
  140.6974  143.2412  151.4961 LP  0  0  0  0  0  0  0  0  0  0  0  0  # atno 17342 bound_to 10162
  139.5668  144.2024  152.1776 LP  0  0  0  0  0  0  0  0  0  0  0  0  # atno 17343 bound_to 10162
  155.9667  130.4310  150.4902 LP  0  0  0  0  0  0  0  0  0  0  0  0  # atno 17370 bound_to 10713
  157.2864  131.0617  151.2163 LP  0  0  0  0  0  0  0  0  0  0  0  0  # atno 17371 bound_to 10713
  141.1947  133.6584  156.5609 LP  0  0  0  0  0  0  0  0  0  0  0  0  # atno 17394 bound_to 11000
  140.3860  134.7482  157.4691 LP  0  0  0  0  0  0  0  0  0  0  0  0  # atno 17395 bound_to 11000

$$$$
