#       Name:                AV-unprocessed.smi:1
#       Creating user name   scv26
#       Creation time:       Thu Mar 26 15:09:12 2020


#       File generated by GOLD software.
#

@<TRIPOS>MOLECULE
AV-unprocessed.smi:1
    66    71     1
SMALL
NO_CHARGES


@<TRIPOS>ATOM
      1 ****        -5.7070   1.5276  -0.3139 O.2            1 S1                 0.0000
      2 ****        -5.8188   0.3714  -0.7226 C.2            1 S1                 0.0000
      3 ****        -4.6705  -0.4981  -0.9040 N.am           1 S1                 0.0000
      4 ****        -3.3588  -0.1812  -0.8000 C.ar           1 S1                 0.0000
      5 ****        -2.9300   1.0963  -0.6245 N.ar           1 S1                 0.0000
      6 ****        -1.6229   1.3619  -0.5490 C.ar           1 S1                 0.0000
      7 ****        -0.5947   0.5154  -0.6290 N.ar           1 S1                 0.0000
      8 ****        -1.0157  -0.7714  -0.8050 C.ar           1 S1                 0.0000
      9 ****        -2.3708  -1.1951  -0.8997 C.ar           1 S1                 0.0000
     10 ****        -2.4235  -2.5711  -1.0786 N.2            1 S1                 0.0000
     11 ****        -1.1703  -2.9371  -1.0823 C.2            1 S1                 0.0000
     12 ****        -0.2559  -1.9199  -0.9217 N.pl3          1 S1                 0.0000
     13 ****         1.2352  -2.0423  -0.8764 C.3            1 S1                 0.0000
     14 ****         1.7934  -0.8499  -1.3362 O.3            1 S1                 0.0000
     15 ****         2.9694  -0.5621  -0.5964 C.3            1 S1                 0.0000
     16 ****         3.3247   0.9273  -0.6837 C.3            1 S1                 0.0000
     17 ****         4.5542   1.1520  -0.0131 O.3            1 S1                 0.0000
     18 ****         4.9887   2.4092   0.1995 C.2            1 S1                 0.0000
     19 ****         4.3761   3.4143  -0.1664 O.2            1 S1                 0.0000
     20 ****         6.2904   2.4573   0.9262 C.ar           1 S1                 0.0000
     21 ****         6.8640   3.7122   1.2378 C.ar           1 S1                 0.0000
     22 ****         8.0923   3.7895   1.9227 C.ar           1 S1                 0.0000
     23 ****         8.7627   2.6127   2.3038 C.ar           1 S1                 0.0000
     24 ****         8.2027   1.3581   2.0003 C.ar           1 S1                 0.0000
     25 ****         6.9740   1.2788   1.3157 C.ar           1 S1                 0.0000
     26 ****         2.6565  -1.0756   0.8088 C.3            1 S1                 0.0000
     27 ****         1.9170  -0.1330   1.5654 O.3            1 S1                 0.0000
     28 ****         0.7853  -0.9709   2.4602 S.o2           1 S1                 0.0000
     29 ****         1.3928  -1.3161   3.7546 O.2            1 S1                 0.0000
     30 ****        -0.5086  -0.2800   2.3561 O.2            1 S1                 0.0000
     31 ****         0.7308  -2.3580   1.5305 O.3            1 S1                 0.0000
     32 ****         1.7616  -2.2964   0.5521 C.3            1 S1                 0.0000
     33 ****        -7.1612  -0.2533  -0.9690 C.ar           1 S1                 0.0000
     34 ****        -8.2934   0.1949  -0.2521 C.ar           1 S1                 0.0000
     35 ****        -9.5601  -0.3727  -0.4926 C.ar           1 S1                 0.0000
     36 ****        -9.7069  -1.3869  -1.4577 C.ar           1 S1                 0.0000
     37 ****        -8.5866  -1.8309  -2.1850 C.ar           1 S1                 0.0000
     38 ****        -7.3192  -1.2653  -1.9444 C.ar           1 S1                 0.0000
     39 ****        -4.8755  -1.4525  -1.1612 H              1 S1                 0.0000
     40 ****        -1.3645   2.4006  -0.4054 H              1 S1                 0.0000
     41 ****        -0.8753  -3.9699  -1.1983 H              1 S1                 0.0000
     42 ****         1.4663  -2.8576  -1.5630 H              1 S1                 0.0000
     43 ****         3.7760  -1.1594  -1.0250 H              1 S1                 0.0000
     44 ****         3.4260   1.2268  -1.7274 H              1 S1                 0.0000
     45 ****         2.5301   1.5344  -0.2469 H              1 S1                 0.0000
     46 ****         6.3681   4.6297   0.9550 H              1 S1                 0.0000
     47 ****         8.5203   4.7535   2.1552 H              1 S1                 0.0000
     48 ****         9.7054   2.6720   2.8276 H              1 S1                 0.0000
     49 ****         8.7168   0.4543   2.2921 H              1 S1                 0.0000
     50 ****         6.5730   0.2997   1.0978 H              1 S1                 0.0000
     51 ****         3.5603  -1.3341   1.3617 H              1 S1                 0.0000
     52 ****         2.3447  -3.2177   0.5498 H              1 S1                 0.0000
     53 ****        -8.1977   0.9744   0.4901 H              1 S1                 0.0000
     54 ****       -10.4201  -0.0280   0.0625 H              1 S1                 0.0000
     55 ****       -10.6786  -1.8206  -1.6431 H              1 S1                 0.0000
     56 ****        -8.6996  -2.6040  -2.9307 H              1 S1                 0.0000
     57 ****        -6.4744  -1.6143  -2.5204 H              1 S1                 0.0000
     58 ****        -4.8032   1.8954  -0.0952 LP             1 S1                 0.0000
     59 ****        -6.5200   2.0988  -0.2008 LP             1 S1                 0.0000
     60 ****        -3.5948   1.8398  -0.5517 LP             1 S1                 0.0000
     61 ****         0.3651   0.7894  -0.5677 LP             1 S1                 0.0000
     62 ****        -3.2338  -3.1481  -1.1809 LP             1 S1                 0.0000
     63 ****         1.1351  -0.1064  -1.2183 LP             1 S1                 0.0000
     64 ****         2.0231  -0.9412  -2.3052 LP             1 S1                 0.0000
     65 ****         3.5058   3.3210  -0.6500 LP             1 S1                 0.0000
     66 ****         4.7495   4.3230   0.0203 LP             1 S1                 0.0000
@<TRIPOS>BOND
    1    1    2 2     
    2    2    3 am    
    3    2   33 1     
    4    3    4 1     
    5    3   39 1     
    6    4    9 ar    
    7    4    5 ar    
    8    5    6 ar    
    9    6    7 ar    
   10    6   40 1     
   11    7    8 ar    
   12    8   12 1     
   13    8    9 ar    
   14    9   10 1     
   15   10   11 2     
   16   11   12 1     
   17   11   41 1     
   18   12   13 1     
   19   13   32 1     
   20   13   14 1     
   21   13   42 1     
   22   14   15 1     
   23   15   16 1     
   24   15   26 1     
   25   15   43 1     
   26   16   17 1     
   27   16   44 1     
   28   16   45 1     
   29   17   18 1     
   30   18   19 2     
   31   18   20 1     
   32   20   25 ar    
   33   20   21 ar    
   34   21   22 ar    
   35   21   46 1     
   36   22   23 ar    
   37   22   47 1     
   38   23   24 ar    
   39   23   48 1     
   40   24   25 ar    
   41   24   49 1     
   42   25   50 1     
   43   26   32 1     
   44   26   27 1     
   45   26   51 1     
   46   27   28 1     
   47   28   29 2     
   48   28   30 2     
   49   28   31 1     
   50   31   32 1     
   51   32   52 1     
   52   33   38 ar    
   53   33   34 ar    
   54   34   35 ar    
   55   34   53 1     
   56   35   36 ar    
   57   35   54 1     
   58   36   37 ar    
   59   36   55 1     
   60   37   38 ar    
   61   37   56 1     
   62   38   57 1     
   63    1   58 1     
   64    1   59 1     
   65    5   60 1     
   66    7   61 1     
   67   10   62 1     
   68   14   63 1     
   69   14   64 1     
   70   19   65 1     
   71   19   66 1     
@<TRIPOS>SUBSTRUCTURE
      1 S1             1
@<TRIPOS>SET
LONE_PAIRS      STATIC     ATOMS    <user>   **** ""
11 58 59 60 61 62 63 64 65 66 29 30
DONOR_HYDROGENS      STATIC     ATOMS    <user>   **** ""
1 39
ATOM$BLUE        STATIC     ATOMS    COLORGROUP SYSTEM
11 58 59 60 61 62 63 64 65 66 29 30
ATOM$RED        STATIC     ATOMS    COLORGROUP SYSTEM
1 39
