AV-unprocessed.smi:1897|AV-procd|sdf|7698|dock1
  -GOLD-   22720 9433D 1   1.00000     0.00000
 Structure written by MMmdl.
 38 40  0  0  0  0  0  0  0  0  3 V2000
  145.6275  142.3819  155.0058 C   0  0  0  0  0  0  0  0  0  0  0  0
  146.9700  141.8144  155.3166 C   0  0  0  0  0  0  0  0  0  0  0  0
  147.3700  141.5461  156.5618 N   0  0  0  0  0  0  0  0  0  0  0  0
  148.6552  141.0263  156.5973 N   0  0  0  0  0  0  0  0  0  0  0  0
  149.2029  140.8947  155.3803 C   0  0  0  0  0  0  0  0  0  0  0  0
  150.4393  140.3957  155.1945 N   0  5  0  0  0  0  0  0  0  0  0  0
  151.4129  140.4879  156.1369 C   0  0  0  0  0  0  0  0  0  0  0  0
  152.3827  139.7325  156.1849 O   0  0  0  0  0  0  0  0  0  0  0  0
  151.3070  141.4687  157.0541 N   0  0  0  0  0  0  0  0  0  0  0  0
  152.2868  141.7789  158.0895 C   0  0  2  0  0  0  0  0  0  0  0  0
  152.1122  140.9458  159.3524 C   0  0  0  0  0  0  0  0  0  0  0  0
  152.8735  141.7571  160.4050 C   0  0  0  0  0  0  0  0  0  0  0  0
  152.8351  143.1737  159.9658 N   0  3  2  0  0  0  0  0  0  0  0  0
  152.2538  144.1019  160.9720 C   0  0  0  0  0  0  0  0  0  0  0  0
  151.8889  145.4487  160.3309 C   0  0  0  0  0  0  0  0  0  0  0  0
  150.8182  145.2806  159.2366 C   0  0  0  0  0  0  0  0  0  0  0  0
  150.7987  143.8583  158.6449 C   0  0  0  0  0  0  0  0  0  0  0  0
  152.2130  143.2262  158.6121 C   0  0  2  0  0  0  0  0  0  0  0  0
  148.1512  141.4368  154.0737 S   0  0  0  0  0  0  0  0  0  0  0  0
  144.8803  141.5885  155.0004 H   0  0  0  0  0  0  0  0  0  0  0  0
  145.6372  142.8621  154.0271 H   0  0  0  0  0  0  0  0  0  0  0  0
  145.3475  143.1236  155.7543 H   0  0  0  0  0  0  0  0  0  0  0  0
  150.4997  142.0719  156.9947 H   0  0  0  0  0  0  0  0  0  0  0  0
  153.2911  141.5907  157.7044 H   0  0  0  0  0  0  0  0  0  0  0  0
  151.0569  140.8855  159.6236 H   0  0  0  0  0  0  0  0  0  0  0  0
  152.4911  139.9288  159.2479 H   0  0  0  0  0  0  0  0  0  0  0  0
  152.4632  141.6044  161.4042 H   0  0  0  0  0  0  0  0  0  0  0  0
  153.9179  141.4446  160.4324 H   0  0  0  0  0  0  0  0  0  0  0  0
  151.3590  143.6628  161.4167 H   0  0  0  0  0  0  0  0  0  0  0  0
  152.9714  144.2434  161.7806 H   0  0  0  0  0  0  0  0  0  0  0  0
  151.5402  146.1516  161.0881 H   0  0  0  0  0  0  0  0  0  0  0  0
  152.7877  145.8892  159.8972 H   0  0  0  0  0  0  0  0  0  0  0  0
  149.8306  145.5086  159.6394 H   0  0  0  0  0  0  0  0  0  0  0  0
  150.9990  146.0117  158.4479 H   0  0  0  0  0  0  0  0  0  0  0  0
  150.1363  143.2284  159.2405 H   0  0  0  0  0  0  0  0  0  0  0  0
  150.3600  143.8973  157.6473 H   0  0  0  0  0  0  0  0  0  0  0  0
  152.8382  143.8580  157.9795 H   0  0  0  0  0  0  0  0  0  0  0  0
  153.7961  143.4550  159.8345 H   0  0  0  0  0  0  0  0  0  0  0  0
  1  2  1  0  0  0  0
  1 20  1  0  0  0  0
  1 21  1  0  0  0  0
  1 22  1  0  0  0  0
  2 19  1  0  0  0  0
  2  3  2  0  0  0  0
  3  4  1  0  0  0  0
  4  5  2  0  0  0  0
  5  6  1  0  0  0  0
  5 19  1  0  0  0  0
  6  7  1  0  0  0  0
  7  8  2  0  0  0  0
  7  9  1  0  0  0  0
  9 10  1  0  0  0  0
  9 23  1  0  0  0  0
 10 18  1  0  0  0  0
 10 11  1  0  0  0  0
 10 24  1  0  0  0  0
 11 12  1  0  0  0  0
 11 25  1  0  0  0  0
 11 26  1  0  0  0  0
 12 13  1  0  0  0  0
 12 27  1  0  0  0  0
 12 28  1  0  0  0  0
 13 18  1  0  0  0  0
 13 14  1  0  0  0  0
 13 38  1  0  0  0  0
 14 15  1  0  0  0  0
 14 29  1  0  0  0  0
 14 30  1  0  0  0  0
 15 16  1  0  0  0  0
 15 31  1  0  0  0  0
 15 32  1  0  0  0  0
 16 17  1  0  0  0  0
 16 33  1  0  0  0  0
 16 34  1  0  0  0  0
 17 18  1  0  0  0  0
 17 35  1  0  0  0  0
 17 36  1  0  0  0  0
 18 37  1  0  0  0  0
M  CHG  1   6  -1
M  CHG  1  13   1
M  END
> <s_m_source_file>
AV-unprocessed.smi

> <i_m_source_file_index>
1897

> <i_lp_mmshare_version>
43012

> <i_f3d_flags>
0

> <s_epik_input>
W0NIM11jMW5uYyhzMSlbTkhdQyg9TylbTkhdW0NASF0oW0NIMl1bQ0gyXTIpW0NAQEhdKE4yMylbQ0gyXVtDSDJdW0NIMl1bQ0gyXTM=

> <s_epik_cmdline>
J2VwaWtfcHl0aG9uJywgJy1waCcsICc3LjAnLCAnLXRuJywgJzgnLCAnLW1hJywgJzIwMCcsICctbWV0YWxfYmluZGluZycsICctaW1hZScsICc8aW5maWxlLm1hZT4nLCAnLW9tYWUnLCAnPG91dGZpbGUubWFlPic=

> <r_lp_tautomer_probability>
1

> <r_epik_Ionization_Penalty>
3.77712

> <r_epik_Ionization_Penalty_Charging>
3.67739

> <r_epik_Ionization_Penalty_Neutral>
0.0997294

> <r_epik_State_Penalty>
3.67514

> <r_epik_Charging_Adjusted_Penalty>
7.35254

> <i_epik_Tot_Q>
0

> <i_epik_Tot_abs_Q>
2

> <r_epik_Metal_State_Penalty>
0.540795

> <b_epik_Metal_Only>
1

> <s_lp_Force_Field>
OPLS_2005

> <r_lp_Energy>
34.1596

> <b_lp_Chiralities_Consistent>
1

> <s_lp_Variant>
AV-unprocessed.smi:1897-15

> <Gold.Version>
5.8.1

> <Gold.Id.Protein>
6NUR|6NUR_protein|mol2

> <Gold.PLP.Fitness>
44.2309

> <Gold.PLP.PLP>
-39.4683

> <Gold.PLP.part.hbond>
-2.0000

> <Gold.PLP.part.metal>
0.0000

> <Gold.PLP.part.buried>
-5.9184

> <Gold.PLP.part.nonpolar>
-31.0163

> <Gold.PLP.part.repulsive>
0.3822

> <Gold.PLP.ligand.clash>
0.0286

> <Gold.PLP.ligand.torsion>
0.6130

> <Gold.PLP.Chemscore.Hbond>
2.0000

> <Gold.PLP.Chemscore.CHOScore>
0.0000

> <Gold.PLP.Chemscore.Metal>
0.0000

> <Gold.Chemscore.Hbonds>
donor molecule, donor type, donor heavy atom, donor atom, acceptor molecule, acceptor atom, score
      P1  H  7989  7998       L1     6  0.69
      P1  H  7997  8010       L1     8  1.00

> <Gold.PLP.Chemscore.Internal.Correction>
0.0172

> <Gold.Rescore>
     Score         DG    S(hbond)    S(metal)    S(lipo)     H(rot)  DE(clash)    DE(int)     intcor
     19.13     -19.92       1.67        0.00      97.67       1.00       0.11       0.68       ----

> <Gold.Chemscore.Fitness>
19.1332

> <Gold.Chemscore.DG>
-19.9163

> <Gold.Chemscore.ZeroCoef>
-5.4800

> <Gold.Chemscore.Hbond>
1.6675

> <Gold.Chemscore.Metal>
0.0000

> <Gold.Chemscore.Lipo>
97.6664

> <Gold.Chemscore.Internal_Hbond>
0.0000

> <Gold.Chemscore.DEClash>
0.1062

> <Gold.Chemscore.DEInternal>
0.6768

> <Gold.Chemscore.Rot>
1.0000

> <Gold.Chemscore.Internal.Correction>
   9.000000E+99

> <Gold.Chemscore.Hbonds>
donor molecule, donor type, donor heavy atom, donor atom, acceptor molecule, acceptor atom, score
      P1  H  7989  7998       L1     6  0.13
      P1  H  7997  8010       L1     8  0.97

> <Gold.Chemscore.Hbond.Weighted>
-5.5694

> <Gold.Chemscore.Metal.Weighted>
-0.0000

> <Gold.Chemscore.Lipo.Weighted>
-11.4270

> <Gold.Chemscore.Internal_Hbond.Weighted>
0.0000

> <Gold.Chemscore.DEClash.Weighted>
0.1062

> <Gold.Chemscore.DEInternal.Weighted>
0.6768

> <Gold.Chemscore.Rot.Weighted>
2.5600

> <Gold.Chemscore.Internal.Correction.Weighted>
   9.000000E+99

> <Gold.Protein.RotatedTorsions>
[ 6907 6896 6895 6894 ] final   44.65 input  -60.11 | X-H torsion
[ 7974 7965 7964 7962 ] final   82.59 input  175.53 | X-H torsion
[ 8008 7997 7996 7995 ] final   77.12 input   59.86 | X-H torsion
[ 10167 10162 10161 10158 ] final -101.40 input  -65.29 | X-H torsion
[ 10718 10713 10712 10709 ] final  -13.56 input   66.30 | X-H torsion
[ 10763 10752 10751 10750 ] final   54.46 input  -60.55 | X-H torsion
[ 11005 11000 10999 10996 ] final   11.97 input  -57.11 | X-H torsion

> <Gold.Protein.ActiveResidues>
 VAL166  LYS551  ARG553  GLY616  TRP617  ASP618  TYR619  PRO620  LYS621  CYS622 
 ASP623  PHE694  ASN695  SER759  ASP760  ASP761  ALA762  ILE779  LEU786  VAL792 
 PHE793  MET794  SER795  GLU796  ALA797  LYS798  CYS799  TRP800  GLU811  SER814 

> <Gold.Protein.RotatedAtoms>
  152.2351  134.8284  160.0468 H   0  0  0  0  0  0  0  0  0  0  0  0  # atno 6907 bound_to 6896
  151.9019  133.3535  159.3842 H   0  0  0  0  0  0  0  0  0  0  0  0  # atno 6908 bound_to 6896
  150.7037  134.4745  159.5485 H   0  0  0  0  0  0  0  0  0  0  0  0  # atno 6909 bound_to 6896
  145.6231  139.2389  143.2127 H   0  0  0  0  0  0  0  0  0  0  0  0  # atno 7974 bound_to 7965
  155.8370  140.3464  155.5608 H   0  0  0  0  0  0  0  0  0  0  0  0  # atno 8008 bound_to 7997
  155.8181  140.0909  157.1885 H   0  0  0  0  0  0  0  0  0  0  0  0  # atno 8009 bound_to 7997
  154.4004  140.1435  156.3454 H   0  0  0  0  0  0  0  0  0  0  0  0  # atno 8010 bound_to 7997
  140.2417  143.3534  152.0795 H   0  0  0  0  0  0  0  0  0  0  0  0  # atno 10167 bound_to 10162
  156.6286  130.4895  149.6138 H   0  0  0  0  0  0  0  0  0  0  0  0  # atno 10718 bound_to 10713
  152.9805  135.5744  154.4908 H   0  0  0  0  0  0  0  0  0  0  0  0  # atno 10763 bound_to 10752
  154.4442  135.2776  155.1828 H   0  0  0  0  0  0  0  0  0  0  0  0  # atno 10764 bound_to 10752
  154.3483  135.6214  153.5684 H   0  0  0  0  0  0  0  0  0  0  0  0  # atno 10765 bound_to 10752
  140.4972  134.0781  155.7785 H   0  0  0  0  0  0  0  0  0  0  0  0  # atno 11005 bound_to 11000
  146.1416  140.7050  142.9364 LP  0  0  0  0  0  0  0  0  0  0  0  0  # atno 17320 bound_to 7965
  144.7223  140.4414  143.6999 LP  0  0  0  0  0  0  0  0  0  0  0  0  # atno 17321 bound_to 7965
  139.5075  144.6833  151.5952 LP  0  0  0  0  0  0  0  0  0  0  0  0  # atno 17342 bound_to 10162
  140.6108  143.9439  150.6452 LP  0  0  0  0  0  0  0  0  0  0  0  0  # atno 17343 bound_to 10162
  156.2253  130.6762  151.1410 LP  0  0  0  0  0  0  0  0  0  0  0  0  # atno 17370 bound_to 10713
  157.7207  131.0683  150.6148 LP  0  0  0  0  0  0  0  0  0  0  0  0  # atno 17371 bound_to 10713
  141.1454  133.9065  157.2228 LP  0  0  0  0  0  0  0  0  0  0  0  0  # atno 17394 bound_to 11000
  139.9734  135.0121  156.9570 LP  0  0  0  0  0  0  0  0  0  0  0  0  # atno 17395 bound_to 11000

$$$$
