AV-unprocessed.smi:1976|AV-procd|sdf|7989|dock1
  -GOLD-   2272010173D 1   1.00000     0.00000
 Structure written by MMmdl.
 45 47  0  0  0  0  0  0  0  0  2 V2000
  147.3003  140.3209  156.3084 O   0  0  0  0  0  0  0  0  0  0  0  0
  147.8905  141.3526  155.9847 C   0  0  0  0  0  0  0  0  0  0  0  0
  149.3714  141.3299  155.5799 C   0  0  0  0  0  0  0  0  0  0  0  0
  150.2952  141.3104  156.7266 N   0  0  0  0  0  0  0  0  0  0  0  0
  150.7405  142.5579  157.2060 C   0  0  0  0  0  0  0  0  0  0  0  0
  151.5910  142.6837  158.2426 C   0  0  0  0  0  0  0  0  0  0  0  0
  152.0052  144.0464  158.7758 C   0  0  0  0  0  0  0  0  0  0  0  0
  152.6177  144.7647  157.8341 F   0  0  0  0  0  0  0  0  0  0  0  0
  150.9292  144.7211  159.1785 F   0  0  0  0  0  0  0  0  0  0  0  0
  152.8323  143.9261  159.8152 F   0  0  0  0  0  0  0  0  0  0  0  0
  152.0153  141.4534  158.8816 C   0  0  0  0  0  0  0  0  0  0  0  0
  151.5880  140.2526  158.4441 C   0  0  0  0  0  0  0  0  0  0  0  0
  150.6764  140.1318  157.3040 C   0  0  0  0  0  0  0  0  0  0  0  0
  150.2779  139.0407  156.8958 O   0  0  0  0  0  0  0  0  0  0  0  0
  147.3016  142.5583  155.9732 N   0  0  0  0  0  0  0  0  0  0  0  0
  145.9047  142.8185  156.3165 C   0  0  2  0  0  0  0  0  0  0  0  0
  145.2149  143.7860  155.3358 C   0  0  0  0  0  0  0  0  0  0  0  0
  144.3460  144.6830  156.2232 C   0  0  0  0  0  0  0  0  0  0  0  0
  145.1338  144.7840  157.4571 N   0  3  1  0  0  0  0  0  0  0  0  0
  144.5034  145.3791  158.6527 C   0  0  0  0  0  0  0  0  0  0  0  0
  145.5849  145.5436  159.7422 C   0  0  0  0  0  0  0  0  0  0  0  0
  146.3494  144.2275  160.0118 C   0  0  0  0  0  0  0  0  0  0  0  0
  146.8712  143.5889  158.7062 C   0  0  0  0  0  0  0  0  0  0  0  0
  145.7009  143.4490  157.7156 C   0  0  2  0  0  0  0  0  0  0  0  0
  149.5437  140.4703  154.9298 H   0  0  0  0  0  0  0  0  0  0  0  0
  149.5735  142.2019  154.9559 H   0  0  0  0  0  0  0  0  0  0  0  0
  150.3363  143.4105  156.6797 H   0  0  0  0  0  0  0  0  0  0  0  0
  152.6899  141.4940  159.7241 H   0  0  0  0  0  0  0  0  0  0  0  0
  151.9260  139.3565  158.9438 H   0  0  0  0  0  0  0  0  0  0  0  0
  147.8598  143.3523  155.6943 H   0  0  0  0  0  0  0  0  0  0  0  0
  145.3580  141.8737  156.2869 H   0  0  0  0  0  0  0  0  0  0  0  0
  145.9578  144.4004  154.8244 H   0  0  0  0  0  0  0  0  0  0  0  0
  144.6347  143.2677  154.5715 H   0  0  0  0  0  0  0  0  0  0  0  0
  144.1566  145.6602  155.7777 H   0  0  0  0  0  0  0  0  0  0  0  0
  143.3880  144.2044  156.4339 H   0  0  0  0  0  0  0  0  0  0  0  0
  144.0736  146.3488  158.3993 H   0  0  0  0  0  0  0  0  0  0  0  0
  143.6884  144.7445  159.0039 H   0  0  0  0  0  0  0  0  0  0  0  0
  146.2961  146.3078  159.4257 H   0  0  0  0  0  0  0  0  0  0  0  0
  145.1341  145.9102  160.6648 H   0  0  0  0  0  0  0  0  0  0  0  0
  147.1772  144.4080  160.6980 H   0  0  0  0  0  0  0  0  0  0  0  0
  145.6842  143.5240  160.5141 H   0  0  0  0  0  0  0  0  0  0  0  0
  147.6628  144.2048  158.2773 H   0  0  0  0  0  0  0  0  0  0  0  0
  147.3083  142.6146  158.9264 H   0  0  0  0  0  0  0  0  0  0  0  0
  144.9249  142.8546  158.2031 H   0  0  0  0  0  0  0  0  0  0  0  0
  145.9169  145.3779  157.2241 H   0  0  0  0  0  0  0  0  0  0  0  0
  1  2  2  0  0  0  0
  2  3  1  0  0  0  0
  2 15  1  0  0  0  0
  3  4  1  0  0  0  0
  3 25  1  0  0  0  0
  3 26  1  0  0  0  0
  4 13  1  0  0  0  0
  4  5  1  0  0  0  0
  5  6  2  0  0  0  0
  5 27  1  0  0  0  0
  6  7  1  0  0  0  0
  6 11  1  0  0  0  0
  7  8  1  0  0  0  0
  7  9  1  0  0  0  0
  7 10  1  0  0  0  0
 11 12  2  0  0  0  0
 11 28  1  0  0  0  0
 12 13  1  0  0  0  0
 12 29  1  0  0  0  0
 13 14  2  0  0  0  0
 15 16  1  0  0  0  0
 15 30  1  0  0  0  0
 16 24  1  0  0  0  0
 16 17  1  0  0  0  0
 16 31  1  0  0  0  0
 17 18  1  0  0  0  0
 17 32  1  0  0  0  0
 17 33  1  0  0  0  0
 18 19  1  0  0  0  0
 18 34  1  0  0  0  0
 18 35  1  0  0  0  0
 19 24  1  0  0  0  0
 19 20  1  0  0  0  0
 19 45  1  0  0  0  0
 20 21  1  0  0  0  0
 20 36  1  0  0  0  0
 20 37  1  0  0  0  0
 21 22  1  0  0  0  0
 21 38  1  0  0  0  0
 21 39  1  0  0  0  0
 22 23  1  0  0  0  0
 22 40  1  0  0  0  0
 22 41  1  0  0  0  0
 23 24  1  0  0  0  0
 23 42  1  0  0  0  0
 23 43  1  0  0  0  0
 24 44  1  0  0  0  0
M  CHG  1  19   1
M  END
> <s_m_source_file>
AV-unprocessed.smi

> <i_m_source_file_index>
1976

> <i_lp_mmshare_version>
43012

> <i_f3d_flags>
0

> <s_epik_input>
W0NIMl0xW0NIMl1bQ0gyXVtDSDJdW0NASF0oTjEyKVtDQEBIXShbQ0gyXVtDSDJdMilbTkhdQyg9TylbQ0gyXW4zW2NIXWMoQyhGKShGKUYpW2NIXVtjSF1jMz1P

> <s_epik_cmdline>
J2VwaWtfcHl0aG9uJywgJy1waCcsICc3LjAnLCAnLXRuJywgJzgnLCAnLW1hJywgJzIwMCcsICctbWV0YWxfYmluZGluZycsICctaW1hZScsICc8aW5maWxlLm1hZT4nLCAnLW9tYWUnLCAnPG91dGZpbGUubWFlPic=

> <r_lp_tautomer_probability>
1

> <r_epik_Ionization_Penalty>
0.00171506

> <r_epik_Ionization_Penalty_Charging>
0.00171498

> <r_epik_Ionization_Penalty_Neutral>
7.81737e-08

> <r_epik_State_Penalty>
0.00115937

> <r_epik_Charging_Adjusted_Penalty>
0.00287436

> <i_epik_Tot_Q>
1

> <i_epik_Tot_abs_Q>
1

> <r_epik_Metal_State_Penalty>
-0

> <b_epik_Metal_Only>
0

> <s_lp_Force_Field>
OPLS_2005

> <r_lp_Energy>
53.4145

> <b_lp_Chiralities_Consistent>
1

> <s_lp_Variant>
AV-unprocessed.smi:1976-7

> <Gold.Version>
5.8.1

> <Gold.Id.Protein>
6NUR|6NUR_protein|mol2

> <Gold.PLP.Fitness>
50.7348

> <Gold.PLP.PLP>
-40.5047

> <Gold.PLP.part.hbond>
-2.0000

> <Gold.PLP.part.metal>
0.0000

> <Gold.PLP.part.buried>
-4.8237

> <Gold.PLP.part.nonpolar>
-33.4575

> <Gold.PLP.part.repulsive>
0.0423

> <Gold.PLP.ligand.clash>
0.0000

> <Gold.PLP.ligand.torsion>
0.9048

> <Gold.PLP.Chemscore.Hbond>
3.0000

> <Gold.PLP.Chemscore.CHOScore>
1.0000

> <Gold.PLP.Chemscore.Metal>
0.0000

> <Gold.Chemscore.Hbonds>
donor molecule, donor type, donor heavy atom, donor atom, acceptor molecule, acceptor atom, score
      L1  H    15    30       P1  8028  1.00
      L1  H    19    45       P1  8029  1.40
      L1  C     5    27       P1  8028  1.00

> <Gold.PLP.Chemscore.Internal.Correction>
0.0398

> <Gold.Rescore>
     Score         DG    S(hbond)    S(metal)    S(lipo)     H(rot)  DE(clash)    DE(int)     intcor
     12.53     -13.49       0.99        0.00      74.80       1.58       0.13       0.83       ----

> <Gold.Chemscore.Fitness>
12.5331

> <Gold.Chemscore.DG>
-13.4938

> <Gold.Chemscore.ZeroCoef>
-5.4800

> <Gold.Chemscore.Hbond>
0.9923

> <Gold.Chemscore.Metal>
0.0000

> <Gold.Chemscore.Lipo>
74.8022

> <Gold.Chemscore.Internal_Hbond>
0.0000

> <Gold.Chemscore.DEClash>
0.1325

> <Gold.Chemscore.DEInternal>
0.8282

> <Gold.Chemscore.Rot>
1.5830

> <Gold.Chemscore.Internal.Correction>
   9.000000E+99

> <Gold.Chemscore.Hbonds>
donor molecule, donor type, donor heavy atom, donor atom, acceptor molecule, acceptor atom, score
      L1  H    15    30       P1  8028  0.30
      L1  H    19    45       P1  8029  0.07

> <Gold.Chemscore.Hbond.Weighted>
-3.3143

> <Gold.Chemscore.Metal.Weighted>
-0.0000

> <Gold.Chemscore.Lipo.Weighted>
-8.7519

> <Gold.Chemscore.Internal_Hbond.Weighted>
0.0000

> <Gold.Chemscore.DEClash.Weighted>
0.1325

> <Gold.Chemscore.DEInternal.Weighted>
0.8282

> <Gold.Chemscore.Rot.Weighted>
4.0524

> <Gold.Chemscore.Internal.Correction.Weighted>
   9.000000E+99

> <Gold.Protein.RotatedTorsions>
[ 6907 6896 6895 6894 ] final   -7.20 input  -60.11 | X-H torsion
[ 7974 7965 7964 7962 ] final   -4.13 input  175.53 | X-H torsion
[ 8008 7997 7996 7995 ] final  -40.25 input   59.86 | X-H torsion
[ 10167 10162 10161 10158 ] final   99.30 input  -65.29 | X-H torsion
[ 10718 10713 10712 10709 ] final   84.86 input   66.30 | X-H torsion
[ 10763 10752 10751 10750 ] final  145.15 input  -60.55 | X-H torsion
[ 11005 11000 10999 10996 ] final  -58.37 input  -57.11 | X-H torsion

> <Gold.Protein.ActiveResidues>
 VAL166  LYS551  ARG553  GLY616  TRP617  ASP618  TYR619  PRO620  LYS621  CYS622 
 ASP623  PHE694  ASN695  SER759  ASP760  ASP761  ALA762  ILE779  LEU786  VAL792 
 PHE793  MET794  SER795  GLU796  ALA797  LYS798  CYS799  TRP800  GLU811  SER814 

> <Gold.Protein.RotatedAtoms>
  151.4533  135.1032  159.9703 H   0  0  0  0  0  0  0  0  0  0  0  0  # atno 6907 bound_to 6896
  152.4880  133.8420  159.7168 H   0  0  0  0  0  0  0  0  0  0  0  0  # atno 6908 bound_to 6896
  150.9007  133.7063  159.2907 H   0  0  0  0  0  0  0  0  0  0  0  0  # atno 6909 bound_to 6896
  146.2378  140.1826  142.8332 H   0  0  0  0  0  0  0  0  0  0  0  0  # atno 7974 bound_to 7965
  154.4014  140.1530  156.2995 H   0  0  0  0  0  0  0  0  0  0  0  0  # atno 8008 bound_to 7997
  155.8713  140.3448  155.5801 H   0  0  0  0  0  0  0  0  0  0  0  0  # atno 8009 bound_to 7997
  155.7771  140.0838  157.2069 H   0  0  0  0  0  0  0  0  0  0  0  0  # atno 8010 bound_to 7997
  139.7630  144.6948  151.0265 H   0  0  0  0  0  0  0  0  0  0  0  0  # atno 10167 bound_to 10162
  157.6905  131.0151  150.2735 H   0  0  0  0  0  0  0  0  0  0  0  0  # atno 10718 bound_to 10713
  154.0006  135.2923  155.3403 H   0  0  0  0  0  0  0  0  0  0  0  0  # atno 10763 bound_to 10752
  154.7161  135.5129  153.8743 H   0  0  0  0  0  0  0  0  0  0  0  0  # atno 10764 bound_to 10752
  153.0767  135.6666  154.0248 H   0  0  0  0  0  0  0  0  0  0  0  0  # atno 10765 bound_to 10752
  141.1204  133.6612  156.4910 H   0  0  0  0  0  0  0  0  0  0  0  0  # atno 11005 bound_to 11000
  144.9922  140.8557  143.5332 LP  0  0  0  0  0  0  0  0  0  0  0  0  # atno 17320 bound_to 7965
  145.1833  139.2340  143.5281 LP  0  0  0  0  0  0  0  0  0  0  0  0  # atno 17321 bound_to 7965
  140.7808  143.4675  151.0192 LP  0  0  0  0  0  0  0  0  0  0  0  0  # atno 17342 bound_to 10162
  139.8361  143.7626  152.3180 LP  0  0  0  0  0  0  0  0  0  0  0  0  # atno 17343 bound_to 10162
  156.3294  130.3798  149.7504 LP  0  0  0  0  0  0  0  0  0  0  0  0  # atno 17370 bound_to 10713
  156.5049  130.8145  151.3147 LP  0  0  0  0  0  0  0  0  0  0  0  0  # atno 17371 bound_to 10713
  140.4523  134.6917  157.5046 LP  0  0  0  0  0  0  0  0  0  0  0  0  # atno 17394 bound_to 11000
  140.0157  134.6622  155.9313 LP  0  0  0  0  0  0  0  0  0  0  0  0  # atno 17395 bound_to 11000

$$$$
