AV-unprocessed.smi:2613|AV-procd|sdf|10213|dock2
  -GOLD-   2272014223D 1   1.00000     0.00000
 Structure written by MMmdl.
 28 29  0  0  0  0  0  0  0  0  3 V2000
  146.7931  139.5081  152.2943 C   0  0  0  0  0  0  0  0  0  0  0  0
  147.9593  139.5654  153.2224 C   0  0  0  0  0  0  0  0  0  0  0  0
  148.8139  138.5415  153.5032 N   0  3  0  0  0  0  0  0  0  0  0  0
  149.7771  138.9687  154.4187 C   0  0  0  0  0  0  0  0  0  0  0  0
  150.8439  138.2917  154.9987 C   0  0  0  0  0  0  0  0  0  0  0  0
  151.6515  139.0141  155.9104 C   0  0  0  0  0  0  0  0  0  0  0  0
  152.8186  138.3347  156.5742 C   0  0  0  0  0  0  0  0  0  0  0  0
  153.0553  137.1367  156.3030 O   0  0  0  0  0  0  0  0  0  0  0  0
  153.5187  138.9906  157.3773 O   0  5  0  0  0  0  0  0  0  0  0  0
  151.3617  140.3701  156.1991 C   0  0  0  0  0  0  0  0  0  0  0  0
  150.2771  141.0468  155.6035 C   0  0  0  0  0  0  0  0  0  0  0  0
  149.4964  140.3174  154.7103 C   0  0  0  0  0  0  0  0  0  0  0  0
  148.3694  140.6440  153.9485 N   0  0  0  0  0  0  0  0  0  0  0  0
  147.8146  142.0008  154.0299 C   0  0  0  0  0  0  0  0  0  0  0  0
  146.3163  141.9868  154.3627 C   0  0  0  0  0  0  0  0  0  0  0  0
  145.7644  143.2592  154.1065 O   0  0  0  0  0  0  0  0  0  0  0  0
  146.6575  138.4966  151.9107 H   0  0  0  0  0  0  0  0  0  0  0  0
  146.9505  140.1813  151.4516 H   0  0  0  0  0  0  0  0  0  0  0  0
  145.8831  139.8074  152.8148 H   0  0  0  0  0  0  0  0  0  0  0  0
  151.0453  137.2566  154.7630 H   0  0  0  0  0  0  0  0  0  0  0  0
  151.9816  140.9162  156.8958 H   0  0  0  0  0  0  0  0  0  0  0  0
  150.0728  142.0805  155.8392 H   0  0  0  0  0  0  0  0  0  0  0  0
  148.3804  142.5693  154.7690 H   0  0  0  0  0  0  0  0  0  0  0  0
  147.9843  142.4873  153.0687 H   0  0  0  0  0  0  0  0  0  0  0  0
  145.7946  141.2448  153.7574 H   0  0  0  0  0  0  0  0  0  0  0  0
  146.1507  141.7317  155.4097 H   0  0  0  0  0  0  0  0  0  0  0  0
  146.0326  143.8493  154.7945 H   0  0  0  0  0  0  0  0  0  0  0  0
  148.7423  137.6168  153.0988 H   0  0  0  0  0  0  0  0  0  0  0  0
  1  2  1  0  0  0  0
  1 17  1  0  0  0  0
  1 18  1  0  0  0  0
  1 19  1  0  0  0  0
  2 13  1  0  0  0  0
  2  3  2  0  0  0  0
  3  4  1  0  0  0  0
  3 28  1  0  0  0  0
  4 12  2  0  0  0  0
  4  5  1  0  0  0  0
  5  6  2  0  0  0  0
  5 20  1  0  0  0  0
  6  7  1  0  0  0  0
  6 10  1  0  0  0  0
  7  8  2  0  0  0  0
  7  9  1  0  0  0  0
 10 11  2  0  0  0  0
 10 21  1  0  0  0  0
 11 12  1  0  0  0  0
 11 22  1  0  0  0  0
 12 13  1  0  0  0  0
 13 14  1  0  0  0  0
 14 15  1  0  0  0  0
 14 23  1  0  0  0  0
 14 24  1  0  0  0  0
 15 16  1  0  0  0  0
 15 25  1  0  0  0  0
 15 26  1  0  0  0  0
 16 27  1  0  0  0  0
M  CHG  1   3   1
M  CHG  1   9  -1
M  END
> <s_m_source_file>
AV-unprocessed.smi

> <i_m_source_file_index>
2613

> <i_lp_mmshare_version>
43012

> <i_f3d_flags>
0

> <s_epik_input>
W09IXVtDSDJdW0NIMl1uKGMobjEpW0NIM10pYyhjMTIpW2NIXVtjSF1jKFtjSF0yKUMoPU8pW09IXQ==

> <s_epik_cmdline>
J2VwaWtfcHl0aG9uJywgJy1waCcsICc3LjAnLCAnLXRuJywgJzgnLCAnLW1hJywgJzIwMCcsICctbWV0YWxfYmluZGluZycsICctaW1hZScsICc8aW5maWxlLm1hZT4nLCAnLW9tYWUnLCAnPG91dGZpbGUubWFlPic=

> <r_epik_Ionization_Penalty>
0.929425

> <r_epik_Ionization_Penalty_Charging>
0.929425

> <r_epik_Ionization_Penalty_Neutral>
5.76694e-08

> <r_epik_State_Penalty>
0.971794

> <r_epik_Charging_Adjusted_Penalty>
1.90122

> <i_epik_Tot_Q>
0

> <i_epik_Tot_abs_Q>
2

> <r_epik_Metal_State_Penalty>
4.93694

> <b_epik_Metal_Only>
0

> <s_lp_Force_Field>
OPLS_2005

> <r_lp_Energy>
5.88702

> <b_lp_Chiralities_Consistent>
1

> <s_lp_Variant>
AV-unprocessed.smi:2613-2

> <Gold.Version>
5.8.1

> <Gold.Id.Protein>
6NUR|6NUR_protein|mol2

> <Gold.PLP.Fitness>
47.6220

> <Gold.PLP.PLP>
-31.4947

> <Gold.PLP.part.hbond>
-3.8640

> <Gold.PLP.part.metal>
0.0000

> <Gold.PLP.part.buried>
2.0035

> <Gold.PLP.part.nonpolar>
-29.9113

> <Gold.PLP.part.repulsive>
0.0552

> <Gold.PLP.ligand.clash>
0.0000

> <Gold.PLP.ligand.torsion>
0.0977

> <Gold.PLP.Chemscore.Hbond>
5.4400

> <Gold.PLP.Chemscore.CHOScore>
0.0000

> <Gold.PLP.Chemscore.Metal>
0.0000

> <Gold.Chemscore.Hbonds>
donor molecule, donor type, donor heavy atom, donor atom, acceptor molecule, acceptor atom, score
      L1  H     3    28       P1  7948  2.00
      P1  H  7997  8009       L1     9  2.00
      P1  H 10752 10765       L1     8  1.44

> <Gold.PLP.Chemscore.Internal.Correction>
0.0028

> <Gold.Rescore>
     Score         DG    S(hbond)    S(metal)    S(lipo)     H(rot)  DE(clash)    DE(int)     intcor
     15.96     -17.12       2.83        0.00      59.44       1.86       1.15       0.01       ----

> <Gold.Chemscore.Fitness>
15.9552

> <Gold.Chemscore.DG>
-17.1203

> <Gold.Chemscore.ZeroCoef>
-5.4800

> <Gold.Chemscore.Hbond>
2.8270

> <Gold.Chemscore.Metal>
0.0000

> <Gold.Chemscore.Lipo>
59.4375

> <Gold.Chemscore.Internal_Hbond>
0.0000

> <Gold.Chemscore.DEClash>
1.1539

> <Gold.Chemscore.DEInternal>
0.0112

> <Gold.Chemscore.Rot>
1.8579

> <Gold.Chemscore.Internal.Correction>
   9.000000E+99

> <Gold.Chemscore.Hbonds>
donor molecule, donor type, donor heavy atom, donor atom, acceptor molecule, acceptor atom, score
      L1  H     3    28       P1  7948  0.99
      P1  H  7997  8009       L1     9  0.79
      P1  H 10752 10765       L1     8  0.67

> <Gold.Chemscore.Hbond.Weighted>
-9.4422

> <Gold.Chemscore.Metal.Weighted>
-0.0000

> <Gold.Chemscore.Lipo.Weighted>
-6.9542

> <Gold.Chemscore.Internal_Hbond.Weighted>
0.0000

> <Gold.Chemscore.DEClash.Weighted>
1.1539

> <Gold.Chemscore.DEInternal.Weighted>
0.0112

> <Gold.Chemscore.Rot.Weighted>
4.7561

> <Gold.Chemscore.Internal.Correction.Weighted>
   9.000000E+99

> <Gold.Protein.RotatedTorsions>
[ 6907 6896 6895 6894 ] final  -40.69 input  -60.11 | X-H torsion
[ 7974 7965 7964 7962 ] final  -72.81 input  175.53 | X-H torsion
[ 8008 7997 7996 7995 ] final  179.14 input   59.86 | X-H torsion
[ 10167 10162 10161 10158 ] final  -53.81 input  -65.29 | X-H torsion
[ 10718 10713 10712 10709 ] final -138.11 input   66.30 | X-H torsion
[ 10763 10752 10751 10750 ] final -133.27 input  -60.55 | X-H torsion
[ 11005 11000 10999 10996 ] final   47.72 input  -57.11 | X-H torsion

> <Gold.Protein.ActiveResidues>
 VAL166  LYS551  ARG553  GLY616  TRP617  ASP618  TYR619  PRO620  LYS621  CYS622 
 ASP623  PHE694  ASN695  SER759  ASP760  ASP761  ALA762  ILE779  LEU786  VAL792 
 PHE793  MET794  SER795  GLU796  ALA797  LYS798  CYS799  TRP800  GLU811  SER814 

> <Gold.Protein.RotatedAtoms>
  150.9754  134.9120  159.7812 H   0  0  0  0  0  0  0  0  0  0  0  0  # atno 6907 bound_to 6896
  152.5204  134.3483  159.9252 H   0  0  0  0  0  0  0  0  0  0  0  0  # atno 6908 bound_to 6896
  151.3491  133.3891  159.2713 H   0  0  0  0  0  0  0  0  0  0  0  0  # atno 6909 bound_to 6896
  145.6603  140.9255  143.0937 H   0  0  0  0  0  0  0  0  0  0  0  0  # atno 7974 bound_to 7965
  156.0468  140.1316  157.0095 H   0  0  0  0  0  0  0  0  0  0  0  0  # atno 8008 bound_to 7997
  154.4416  140.1019  156.6387 H   0  0  0  0  0  0  0  0  0  0  0  0  # atno 8009 bound_to 7997
  155.5584  140.3464  155.4487 H   0  0  0  0  0  0  0  0  0  0  0  0  # atno 8010 bound_to 7997
  140.6465  143.2538  151.4845 H   0  0  0  0  0  0  0  0  0  0  0  0  # atno 10167 bound_to 10162
  156.2957  130.7400  151.1438 H   0  0  0  0  0  0  0  0  0  0  0  0  # atno 10718 bound_to 10713
  154.8734  135.3771  154.4546 H   0  0  0  0  0  0  0  0  0  0  0  0  # atno 10763 bound_to 10752
  153.5219  135.7029  153.5732 H   0  0  0  0  0  0  0  0  0  0  0  0  # atno 10764 bound_to 10752
  153.3975  135.3956  155.1931 H   0  0  0  0  0  0  0  0  0  0  0  0  # atno 10765 bound_to 10752
  140.1254  134.4775  155.8564 H   0  0  0  0  0  0  0  0  0  0  0  0  # atno 11005 bound_to 11000
  144.7091  139.8440  143.7420 LP  0  0  0  0  0  0  0  0  0  0  0  0  # atno 17320 bound_to 7965
  146.1131  139.4138  143.0275 LP  0  0  0  0  0  0  0  0  0  0  0  0  # atno 17321 bound_to 7965
  139.5676  144.2005  152.1788 LP  0  0  0  0  0  0  0  0  0  0  0  0  # atno 17342 bound_to 10162
  140.1292  144.5304  150.6813 LP  0  0  0  0  0  0  0  0  0  0  0  0  # atno 17343 bound_to 10162
  157.7354  131.0572  150.5469 LP  0  0  0  0  0  0  0  0  0  0  0  0  # atno 17370 bound_to 10713
  156.5590  130.4251  149.6072 LP  0  0  0  0  0  0  0  0  0  0  0  0  # atno 17371 bound_to 10713
  141.2160  133.6776  156.6968 LP  0  0  0  0  0  0  0  0  0  0  0  0  # atno 17394 bound_to 11000
  140.2911  134.8240  157.4017 LP  0  0  0  0  0  0  0  0  0  0  0  0  # atno 17395 bound_to 11000

$$$$
