AV-unprocessed.smi:3122|AV-procd|sdf|11899|dock6
  -GOLD-   2272017283D 1   1.00000     0.00000
 Structure written by MMmdl.
 29 30  0  0  0  0  0  0  0  0  1 V2000
  151.9683  144.0728  161.2790 C   0  0  0  0  0  0  0  0  0  0  0  0
  152.6660  143.8664  159.9268 C   0  0  0  0  0  0  0  0  0  0  0  0
  152.0419  144.7179  158.8121 C   0  0  0  0  0  0  0  0  0  0  0  0
  152.7271  142.4205  159.5464 C   0  0  0  0  0  0  0  0  0  0  0  0
  153.2024  141.4063  160.2751 N   0  0  0  0  0  0  0  0  0  0  0  0
  152.9903  140.2719  159.5245 N   0  0  0  0  0  0  0  0  0  0  0  0
  152.4099  140.6852  158.3951 C   0  0  0  0  0  0  0  0  0  0  0  0
  151.9191  139.8343  157.2687 C   0  0  1  0  0  0  0  0  0  0  0  0
  151.3677  140.6719  156.0985 C   0  0  0  0  0  0  0  0  0  0  0  0
  150.9852  139.8009  154.9880 N   0  0  0  0  0  0  0  0  0  0  0  0
  152.0982  138.9455  154.5788 C   0  0  0  0  0  0  0  0  0  0  0  0
  152.6370  138.1543  155.7844 C   0  0  0  0  0  0  0  0  0  0  0  0
  153.0245  139.0578  156.8140 O   0  0  0  0  0  0  0  0  0  0  0  0
  152.1885  142.0259  158.3636 O   0  0  0  0  0  0  0  0  0  0  0  0
  152.4695  143.5110  162.0680 H   0  0  0  0  0  0  0  0  0  0  0  0
  150.9291  143.7440  161.2444 H   0  0  0  0  0  0  0  0  0  0  0  0
  151.9747  145.1241  161.5679 H   0  0  0  0  0  0  0  0  0  0  0  0
  153.6957  144.2059  160.0475 H   0  0  0  0  0  0  0  0  0  0  0  0
  152.5967  144.6110  157.8795 H   0  0  0  0  0  0  0  0  0  0  0  0
  152.0430  145.7753  159.0776 H   0  0  0  0  0  0  0  0  0  0  0  0
  151.0092  144.4244  158.6204 H   0  0  0  0  0  0  0  0  0  0  0  0
  151.1432  139.1717  157.6572 H   0  0  0  0  0  0  0  0  0  0  0  0
  150.5092  141.2585  156.4265 H   0  0  0  0  0  0  0  0  0  0  0  0
  152.1248  141.3830  155.7653 H   0  0  0  0  0  0  0  0  0  0  0  0
  150.6830  140.3660  154.2008 H   0  0  0  0  0  0  0  0  0  0  0  0
  151.7758  138.2605  153.7944 H   0  0  0  0  0  0  0  0  0  0  0  0
  152.8977  139.5542  154.1544 H   0  0  0  0  0  0  0  0  0  0  0  0
  151.8889  137.4533  156.1583 H   0  0  0  0  0  0  0  0  0  0  0  0
  153.5047  137.5646  155.4885 H   0  0  0  0  0  0  0  0  0  0  0  0
  1  2  1  0  0  0  0
  1 15  1  0  0  0  0
  1 16  1  0  0  0  0
  1 17  1  0  0  0  0
  2  3  1  0  0  0  0
  2  4  1  0  0  0  0
  2 18  1  0  0  0  0
  3 19  1  0  0  0  0
  3 20  1  0  0  0  0
  3 21  1  0  0  0  0
  4 14  1  0  0  0  0
  4  5  2  0  0  0  0
  5  6  1  0  0  0  0
  6  7  2  0  0  0  0
  7  8  1  0  0  0  0
  7 14  1  0  0  0  0
  8 13  1  0  0  0  0
  8  9  1  0  0  0  0
  8 22  1  0  0  0  0
  9 10  1  0  0  0  0
  9 23  1  0  0  0  0
  9 24  1  0  0  0  0
 10 11  1  0  0  0  0
 10 25  1  0  0  0  0
 11 12  1  0  0  0  0
 11 26  1  0  0  0  0
 11 27  1  0  0  0  0
 12 13  1  0  0  0  0
 12 28  1  0  0  0  0
 12 29  1  0  0  0  0
M  END
> <s_m_source_file>
AV-unprocessed.smi

> <i_m_source_file_index>
3122

> <i_lp_mmshare_version>
43012

> <i_f3d_flags>
0

> <s_epik_input>
W0NIM11bQ0hdKFtDSDNdKWMxbm5jKG8xKVtDQEBIXTJbQ0gyXVtOSF1bQ0gyXVtDSDJdTzI=

> <s_epik_cmdline>
J2VwaWtfcHl0aG9uJywgJy1waCcsICc3LjAnLCAnLXRuJywgJzgnLCAnLW1hJywgJzIwMCcsICctbWV0YWxfYmluZGluZycsICctaW1hZScsICc8aW5maWxlLm1hZT4nLCAnLW9tYWUnLCAnPG91dGZpbGUubWFlPic=

> <r_lp_tautomer_probability>
1

> <r_epik_Ionization_Penalty>
1.64488

> <r_epik_Ionization_Penalty_Charging>
0

> <r_epik_Ionization_Penalty_Neutral>
1.64488

> <r_epik_State_Penalty>
1.74649

> <r_epik_Charging_Adjusted_Penalty>
1.74649

> <i_epik_Tot_Q>
0

> <i_epik_Tot_abs_Q>
0

> <r_epik_Metal_State_Penalty>
1.74649

> <b_epik_Metal_Only>
0

> <s_lp_Force_Field>
OPLS_2005

> <r_lp_Energy>
11.3744

> <b_lp_Chiralities_Consistent>
1

> <s_lp_Variant>
AV-unprocessed.smi:3122-4

> <Gold.Version>
5.8.1

> <Gold.Id.Protein>
6NUR|6NUR_protein|mol2

> <Gold.PLP.Fitness>
34.2326

> <Gold.PLP.PLP>
-31.3557

> <Gold.PLP.part.hbond>
-2.0000

> <Gold.PLP.part.metal>
0.0000

> <Gold.PLP.part.buried>
-4.6001

> <Gold.PLP.part.nonpolar>
-25.0474

> <Gold.PLP.part.repulsive>
0.0000

> <Gold.PLP.ligand.clash>
0.0000

> <Gold.PLP.ligand.torsion>
0.1043

> <Gold.PLP.Chemscore.Hbond>
1.0000

> <Gold.PLP.Chemscore.CHOScore>
0.0000

> <Gold.PLP.Chemscore.Metal>
0.0000

> <Gold.Chemscore.Hbonds>
donor molecule, donor type, donor heavy atom, donor atom, acceptor molecule, acceptor atom, score
      P1  H  7997  8008       L1    13  1.00

> <Gold.PLP.Chemscore.Internal.Correction>
0.0856

> <Gold.Rescore>
     Score         DG    S(hbond)    S(metal)    S(lipo)     H(rot)  DE(clash)    DE(int)     intcor
     13.10     -13.19       0.96        0.00      65.58       1.24       0.00       0.08       ----

> <Gold.Chemscore.Fitness>
13.1026

> <Gold.Chemscore.DG>
-13.1863

> <Gold.Chemscore.ZeroCoef>
-5.4800

> <Gold.Chemscore.Hbond>
0.9621

> <Gold.Chemscore.Metal>
0.0000

> <Gold.Chemscore.Lipo>
65.5802

> <Gold.Chemscore.Internal_Hbond>
0.0000

> <Gold.Chemscore.DEClash>
0.0000

> <Gold.Chemscore.DEInternal>
0.0837

> <Gold.Chemscore.Rot>
1.2422

> <Gold.Chemscore.Internal.Correction>
   9.000000E+99

> <Gold.Chemscore.Hbonds>
donor molecule, donor type, donor heavy atom, donor atom, acceptor molecule, acceptor atom, score
      P1  H  7997  8008       L1    13  0.69

> <Gold.Chemscore.Hbond.Weighted>
-3.2134

> <Gold.Chemscore.Metal.Weighted>
-0.0000

> <Gold.Chemscore.Lipo.Weighted>
-7.6729

> <Gold.Chemscore.Internal_Hbond.Weighted>
0.0000

> <Gold.Chemscore.DEClash.Weighted>
0.0000

> <Gold.Chemscore.DEInternal.Weighted>
0.0837

> <Gold.Chemscore.Rot.Weighted>
3.1799

> <Gold.Chemscore.Internal.Correction.Weighted>
   9.000000E+99

> <Gold.Protein.RotatedTorsions>
[ 6907 6896 6895 6894 ] final   66.58 input  -60.11 | X-H torsion
[ 7974 7965 7964 7962 ] final -124.08 input  175.53 | X-H torsion
[ 8008 7997 7996 7995 ] final  -65.78 input   59.86 | X-H torsion
[ 10167 10162 10161 10158 ] final -124.08 input  -65.29 | X-H torsion
[ 10718 10713 10712 10709 ] final  -75.69 input   66.30 | X-H torsion
[ 10763 10752 10751 10750 ] final  -82.45 input  -60.55 | X-H torsion
[ 11005 11000 10999 10996 ] final -131.29 input  -57.11 | X-H torsion

> <Gold.Protein.ActiveResidues>
 VAL166  LYS551  ARG553  GLY616  TRP617  ASP618  TYR619  PRO620  LYS621  CYS622 
 ASP623  PHE694  ASN695  SER759  ASP760  ASP761  ALA762  ILE779  LEU786  VAL792 
 PHE793  MET794  SER795  GLU796  ALA797  LYS798  CYS799  TRP800  GLU811  SER814 

> <Gold.Protein.RotatedAtoms>
  152.4491  134.5432  159.9844 H   0  0  0  0  0  0  0  0  0  0  0  0  # atno 6907 bound_to 6896
  151.5509  133.3412  159.2961 H   0  0  0  0  0  0  0  0  0  0  0  0  # atno 6908 bound_to 6896
  150.8415  134.7740  159.6999 H   0  0  0  0  0  0  0  0  0  0  0  0  # atno 6909 bound_to 6896
  145.0119  140.7913  143.4433 H   0  0  0  0  0  0  0  0  0  0  0  0  # atno 7974 bound_to 7965
  154.4693  140.0926  156.7103 H   0  0  0  0  0  0  0  0  0  0  0  0  # atno 8008 bound_to 7997
  155.4769  140.3466  155.4315 H   0  0  0  0  0  0  0  0  0  0  0  0  # atno 8009 bound_to 7997
  156.1011  140.1422  156.9454 H   0  0  0  0  0  0  0  0  0  0  0  0  # atno 8010 bound_to 7997
  139.9967  143.5584  152.2320 H   0  0  0  0  0  0  0  0  0  0  0  0  # atno 10167 bound_to 10162
  156.0199  130.4447  150.3081 H   0  0  0  0  0  0  0  0  0  0  0  0  # atno 10718 bound_to 10713
  154.5759  135.5591  153.7139 H   0  0  0  0  0  0  0  0  0  0  0  0  # atno 10763 bound_to 10752
  153.0064  135.6308  154.2050 H   0  0  0  0  0  0  0  0  0  0  0  0  # atno 10764 bound_to 10752
  154.1990  135.2879  155.2977 H   0  0  0  0  0  0  0  0  0  0  0  0  # atno 10765 bound_to 10752
  140.9271  134.1368  157.4266 H   0  0  0  0  0  0  0  0  0  0  0  0  # atno 11005 bound_to 11000
  145.2012  139.2251  143.5192 LP  0  0  0  0  0  0  0  0  0  0  0  0  # atno 17320 bound_to 7965
  146.3471  140.1830  142.8589 LP  0  0  0  0  0  0  0  0  0  0  0  0  # atno 17321 bound_to 7965
  139.6301  144.7643  151.2554 LP  0  0  0  0  0  0  0  0  0  0  0  0  # atno 17342 bound_to 10162
  140.7434  143.6494  150.8262 LP  0  0  0  0  0  0  0  0  0  0  0  0  # atno 17343 bound_to 10162
  157.1183  131.0240  151.3020 LP  0  0  0  0  0  0  0  0  0  0  0  0  # atno 17370 bound_to 10713
  157.4649  130.7675  149.7270 LP  0  0  0  0  0  0  0  0  0  0  0  0  # atno 17371 bound_to 10713
  139.8788  134.9992  156.5942 LP  0  0  0  0  0  0  0  0  0  0  0  0  # atno 17394 bound_to 11000
  140.7911  133.8581  155.8647 LP  0  0  0  0  0  0  0  0  0  0  0  0  # atno 17395 bound_to 11000

$$$$
