AV-unprocessed.smi:1554|AV-procd|sdf|6262|dock9
  -GOLD-   22720 6453D 1   1.00000     0.00000
 Structure written by MMmdl.
 49 51  0  0  0  0  0  0  0  0  3 V2000
  152.1546  144.3433  161.0420 C   0  0  0  0  0  0  0  0  0  0  0  0
  152.0251  143.3634  159.8883 C   0  0  0  0  0  0  0  0  0  0  0  0
  151.1552  143.6869  158.8229 C   0  0  0  0  0  0  0  0  0  0  0  0
  151.0597  142.7717  157.7814 C   0  0  0  0  0  0  0  0  0  0  0  0
  150.3058  142.8008  156.6065 N   0  3  0  0  0  0  0  0  0  0  0  0
  150.5422  141.6698  155.8865 C   0  0  0  0  0  0  0  0  0  0  0  0
  151.4403  140.9194  156.5818 N   0  0  0  0  0  0  0  0  0  0  0  0
  152.0191  139.6098  156.2490 C   0  0  0  0  0  0  0  0  0  0  0  0
  150.9519  138.5241  156.0065 C   0  0  2  0  0  0  0  0  0  0  0  0
  151.3286  137.3829  156.7498 O   0  0  0  0  0  0  0  0  0  0  0  0
  150.7940  138.1231  154.5232 C   0  0  0  0  0  0  0  0  0  0  0  0
  149.3741  138.0771  154.0900 N   0  3  2  0  0  0  0  0  0  0  0  0
  148.7871  139.4286  153.9306 C   0  0  0  0  0  0  0  0  0  0  0  0
  147.3386  139.3294  153.4248 C   0  0  0  0  0  0  0  0  0  0  0  0
  146.5748  138.5347  154.3234 O   0  0  0  0  0  0  0  0  0  0  0  0
  147.0692  137.2036  154.4201 C   0  0  2  0  0  0  0  0  0  0  0  0
  146.1297  136.4084  155.3335 C   0  0  0  0  0  0  0  0  0  0  0  0
  148.5119  137.2398  154.9610 C   0  0  0  0  0  0  0  0  0  0  0  0
  151.7897  141.5666  157.7741 C   0  0  0  0  0  0  0  0  0  0  0  0
  152.6510  141.2329  158.8174 C   0  0  0  0  0  0  0  0  0  0  0  0
  152.7639  142.1522  159.8848 C   0  0  0  0  0  0  0  0  0  0  0  0
  153.6980  141.8151  161.0347 C   0  0  0  0  0  0  0  0  0  0  0  0
  151.5080  145.2104  160.9039 H   0  0  0  0  0  0  0  0  0  0  0  0
  153.1804  144.7026  161.1253 H   0  0  0  0  0  0  0  0  0  0  0  0
  151.8761  143.8680  161.9829 H   0  0  0  0  0  0  0  0  0  0  0  0
  150.5894  144.6074  158.8188 H   0  0  0  0  0  0  0  0  0  0  0  0
  150.0959  141.4141  154.9361 H   0  0  0  0  0  0  0  0  0  0  0  0
  152.6829  139.7123  155.3906 H   0  0  0  0  0  0  0  0  0  0  0  0
  152.6540  139.3236  157.0891 H   0  0  0  0  0  0  0  0  0  0  0  0
  150.0040  138.8842  156.4052 H   0  0  0  0  0  0  0  0  0  0  0  0
  152.2594  137.2490  156.6523 H   0  0  0  0  0  0  0  0  0  0  0  0
  151.3336  138.8101  153.8704 H   0  0  0  0  0  0  0  0  0  0  0  0
  151.2528  137.1433  154.3796 H   0  0  0  0  0  0  0  0  0  0  0  0
  148.8140  139.9553  154.8859 H   0  0  0  0  0  0  0  0  0  0  0  0
  149.3806  140.0112  153.2250 H   0  0  0  0  0  0  0  0  0  0  0  0
  146.8927  140.3223  153.3646 H   0  0  0  0  0  0  0  0  0  0  0  0
  147.3036  138.9031  152.4209 H   0  0  0  0  0  0  0  0  0  0  0  0
  147.0599  136.7448  153.4296 H   0  0  0  0  0  0  0  0  0  0  0  0
  146.4612  135.3746  155.4340 H   0  0  0  0  0  0  0  0  0  0  0  0
  145.1161  136.3936  154.9321 H   0  0  0  0  0  0  0  0  0  0  0  0
  146.0853  136.8444  156.3321 H   0  0  0  0  0  0  0  0  0  0  0  0
  148.8998  136.2233  155.0151 H   0  0  0  0  0  0  0  0  0  0  0  0
  148.5222  137.6394  155.9765 H   0  0  0  0  0  0  0  0  0  0  0  0
  153.2161  140.3131  158.8205 H   0  0  0  0  0  0  0  0  0  0  0  0
  154.1874  140.8524  160.8834 H   0  0  0  0  0  0  0  0  0  0  0  0
  153.1468  141.7635  161.9740 H   0  0  0  0  0  0  0  0  0  0  0  0
  154.4765  142.5725  161.1303 H   0  0  0  0  0  0  0  0  0  0  0  0
  149.3689  137.6550  153.1719 H   0  0  0  0  0  0  0  0  0  0  0  0
  149.6726  143.5355  156.3171 H   0  0  0  0  0  0  0  0  0  0  0  0
  1  2  1  0  0  0  0
  1 23  1  0  0  0  0
  1 24  1  0  0  0  0
  1 25  1  0  0  0  0
  2 21  1  0  0  0  0
  2  3  2  0  0  0  0
  3  4  1  0  0  0  0
  3 26  1  0  0  0  0
  4 19  2  0  0  0  0
  4  5  1  0  0  0  0
  5  6  2  0  0  0  0
  5 49  1  0  0  0  0
  6  7  1  0  0  0  0
  6 27  1  0  0  0  0
  7  8  1  0  0  0  0
  7 19  1  0  0  0  0
  8  9  1  0  0  0  0
  8 28  1  0  0  0  0
  8 29  1  0  0  0  0
  9 10  1  0  0  0  0
  9 11  1  0  0  0  0
  9 30  1  0  0  0  0
 10 31  1  0  0  0  0
 11 12  1  0  0  0  0
 11 32  1  0  0  0  0
 11 33  1  0  0  0  0
 12 18  1  0  0  0  0
 12 13  1  0  0  0  0
 12 48  1  0  0  0  0
 13 14  1  0  0  0  0
 13 34  1  0  0  0  0
 13 35  1  0  0  0  0
 14 15  1  0  0  0  0
 14 36  1  0  0  0  0
 14 37  1  0  0  0  0
 15 16  1  0  0  0  0
 16 17  1  0  0  0  0
 16 18  1  0  0  0  0
 16 38  1  0  0  0  0
 17 39  1  0  0  0  0
 17 40  1  0  0  0  0
 17 41  1  0  0  0  0
 18 42  1  0  0  0  0
 18 43  1  0  0  0  0
 19 20  1  0  0  0  0
 20 21  2  0  0  0  0
 20 44  1  0  0  0  0
 21 22  1  0  0  0  0
 22 45  1  0  0  0  0
 22 46  1  0  0  0  0
 22 47  1  0  0  0  0
M  CHG  1   5   1
M  CHG  1  12   1
M  END
> <s_m_source_file>
AV-unprocessed.smi

> <i_m_source_file_index>
1554

> <i_lp_mmshare_version>
43012

> <i_f3d_flags>
0

> <s_epik_input>
W0NIM11jKFtjSF0xKWMoW0NIM10pW2NIXWMoYzEyKW4oW2NIXW4yKVtDSDJdW0NASF0oW09IXSlbQ0gyXU4zW0NIMl1bQ0gyXU9bQ0BASF0oW0NIM10pW0NIMl0z

> <s_epik_cmdline>
J2VwaWtfcHl0aG9uJywgJy1waCcsICc3LjAnLCAnLXRuJywgJzgnLCAnLW1hJywgJzIwMCcsICctbWV0YWxfYmluZGluZycsICctaW1hZScsICc8aW5maWxlLm1hZT4nLCAnLW9tYWUnLCAnPG91dGZpbGUubWFlPic=

> <r_epik_Ionization_Penalty>
1.8848

> <r_epik_Ionization_Penalty_Charging>
1.88479

> <r_epik_Ionization_Penalty_Neutral>
1.42224e-05

> <r_epik_State_Penalty>
1.94551

> <r_epik_Charging_Adjusted_Penalty>
3.8303

> <i_epik_Tot_Q>
2

> <i_epik_Tot_abs_Q>
2

> <r_epik_Metal_State_Penalty>
5.95849

> <b_epik_Metal_Only>
0

> <s_lp_Force_Field>
OPLS_2005

> <r_lp_Energy>
32.1421

> <b_lp_Chiralities_Consistent>
1

> <s_lp_Variant>
AV-unprocessed.smi:1554-23

> <Gold.Version>
5.8.1

> <Gold.Id.Protein>
6NUR|6NUR_protein|mol2

> <Gold.PLP.Fitness>
49.8827

> <Gold.PLP.PLP>
-40.6783

> <Gold.PLP.part.hbond>
-2.0000

> <Gold.PLP.part.metal>
0.0000

> <Gold.PLP.part.buried>
-4.4774

> <Gold.PLP.part.nonpolar>
-34.1712

> <Gold.PLP.part.repulsive>
0.1898

> <Gold.PLP.ligand.clash>
0.0000

> <Gold.PLP.ligand.torsion>
1.4157

> <Gold.PLP.Chemscore.Hbond>
4.0000

> <Gold.PLP.Chemscore.CHOScore>
0.0000

> <Gold.PLP.Chemscore.Metal>
0.0000

> <Gold.Chemscore.Hbonds>
donor molecule, donor type, donor heavy atom, donor atom, acceptor molecule, acceptor atom, score
      L1  H     5    49       P1  8028  2.00
      L1  H    12    48       P1  7948  2.00

> <Gold.PLP.Chemscore.Internal.Correction>
0.0358

> <Gold.Rescore>
     Score         DG    S(hbond)    S(metal)    S(lipo)     H(rot)  DE(clash)    DE(int)     intcor
     18.46     -19.85       1.99        0.00     112.34       2.11       0.03       1.37       ----

> <Gold.Chemscore.Fitness>
18.4594

> <Gold.Chemscore.DG>
-19.8541

> <Gold.Chemscore.ZeroCoef>
-5.4800

> <Gold.Chemscore.Hbond>
1.9871

> <Gold.Chemscore.Metal>
0.0000

> <Gold.Chemscore.Lipo>
112.3449

> <Gold.Chemscore.Internal_Hbond>
0.0000

> <Gold.Chemscore.DEClash>
0.0267

> <Gold.Chemscore.DEInternal>
1.3679

> <Gold.Chemscore.Rot>
2.1122

> <Gold.Chemscore.Internal.Correction>
   9.000000E+99

> <Gold.Chemscore.Hbonds>
donor molecule, donor type, donor heavy atom, donor atom, acceptor molecule, acceptor atom, score
      L1  H     5    49       P1  8028  0.97
      L1  H    12    48       P1  7948  0.93

> <Gold.Chemscore.Hbond.Weighted>
-6.6370

> <Gold.Chemscore.Metal.Weighted>
-0.0000

> <Gold.Chemscore.Lipo.Weighted>
-13.1444

> <Gold.Chemscore.Internal_Hbond.Weighted>
0.0000

> <Gold.Chemscore.DEClash.Weighted>
0.0267

> <Gold.Chemscore.DEInternal.Weighted>
1.3679

> <Gold.Chemscore.Rot.Weighted>
5.4073

> <Gold.Chemscore.Internal.Correction.Weighted>
   9.000000E+99

> <Gold.Protein.RotatedTorsions>
[ 6907 6896 6895 6894 ] final  -26.11 input  -60.11 | X-H torsion
[ 7974 7965 7964 7962 ] final -112.85 input  175.53 | X-H torsion
[ 8008 7997 7996 7995 ] final   40.44 input   59.86 | X-H torsion
[ 10167 10162 10161 10158 ] final -102.60 input  -65.29 | X-H torsion
[ 10718 10713 10712 10709 ] final  169.62 input   66.30 | X-H torsion
[ 10763 10752 10751 10750 ] final   61.60 input  -60.55 | X-H torsion
[ 11005 11000 10999 10996 ] final  159.58 input  -57.11 | X-H torsion

> <Gold.Protein.ActiveResidues>
 VAL166  LYS551  ARG553  GLY616  TRP617  ASP618  TYR619  PRO620  LYS621  CYS622 
 ASP623  PHE694  ASN695  SER759  ASP760  ASP761  ALA762  ILE779  LEU786  VAL792 
 PHE793  MET794  SER795  GLU796  ALA797  LYS798  CYS799  TRP800  GLU811  SER814 

> <Gold.Protein.RotatedAtoms>
  151.1656  135.0294  159.8728 H   0  0  0  0  0  0  0  0  0  0  0  0  # atno 6907 bound_to 6896
  152.5450  134.1229  159.8417 H   0  0  0  0  0  0  0  0  0  0  0  0  # atno 6908 bound_to 6896
  151.1329  133.4978  159.2631 H   0  0  0  0  0  0  0  0  0  0  0  0  # atno 6909 bound_to 6896
  145.1390  140.8767  143.3713 H   0  0  0  0  0  0  0  0  0  0  0  0  # atno 7974 bound_to 7965
  155.2531  140.3354  155.4280 H   0  0  0  0  0  0  0  0  0  0  0  0  # atno 8008 bound_to 7997
  156.2207  140.1808  156.7527 H   0  0  0  0  0  0  0  0  0  0  0  0  # atno 8009 bound_to 7997
  154.5821  140.0652  156.9104 H   0  0  0  0  0  0  0  0  0  0  0  0  # atno 8010 bound_to 7997
  140.2289  143.3621  152.0904 H   0  0  0  0  0  0  0  0  0  0  0  0  # atno 10167 bound_to 10162
  157.0200  131.0229  151.2777 H   0  0  0  0  0  0  0  0  0  0  0  0  # atno 10718 bound_to 10713
  152.9955  135.5495  154.6059 H   0  0  0  0  0  0  0  0  0  0  0  0  # atno 10763 bound_to 10752
  154.5391  135.2818  155.1114 H   0  0  0  0  0  0  0  0  0  0  0  0  # atno 10764 bound_to 10752
  154.2399  135.6418  153.5256 H   0  0  0  0  0  0  0  0  0  0  0  0  # atno 10765 bound_to 10752
  140.1975  134.8362  157.2981 H   0  0  0  0  0  0  0  0  0  0  0  0  # atno 11005 bound_to 11000
  145.0553  139.3149  143.5908 LP  0  0  0  0  0  0  0  0  0  0  0  0  # atno 17320 bound_to 7965
  146.3507  139.9975  142.8679 LP  0  0  0  0  0  0  0  0  0  0  0  0  # atno 17321 bound_to 7965
  139.5117  144.6905  151.5773 LP  0  0  0  0  0  0  0  0  0  0  0  0  # atno 17342 bound_to 10162
  140.6199  143.9277  150.6518 LP  0  0  0  0  0  0  0  0  0  0  0  0  # atno 17343 bound_to 10162
  157.5257  130.8026  149.7859 LP  0  0  0  0  0  0  0  0  0  0  0  0  # atno 17370 bound_to 10713
  156.0106  130.3835  150.2279 LP  0  0  0  0  0  0  0  0  0  0  0  0  # atno 17371 bound_to 10713
  140.2091  134.4161  155.7622 LP  0  0  0  0  0  0  0  0  0  0  0  0  # atno 17394 bound_to 11000
  141.2227  133.7109  156.8308 LP  0  0  0  0  0  0  0  0  0  0  0  0  # atno 17395 bound_to 11000

$$$$
