#       Name:                AV-unprocessed.smi:723
#       Creating user name   scv26
#       Creation time:       Fri Mar 27 00:50:15 2020


#       File generated by GOLD software.
#

@<TRIPOS>MOLECULE
AV-unprocessed.smi:723
    47    49     1
SMALL
NO_CHARGES


@<TRIPOS>ATOM
      1 ****        -5.5005   5.6123   1.5510 C.3            1 S1                 0.0000
      2 ****        -4.1803   5.4140   2.0260 O.3            1 S1                 0.0000
      3 ****        -3.7312   4.0831   1.8352 C.3            1 S1                 0.0000
      4 ****        -2.2984   3.9565   2.3685 C.3            1 S1                 0.0000
      5 ****        -1.7690   2.6210   2.1714 N.pl3          1 S1                 0.0000
      6 ****        -0.8995   2.1837   1.1916 C.2            1 S1                 0.0000
      7 ****        -0.7115   0.8520   1.4327 C.2            1 S1                 0.0000
      8 ****         0.0844  -0.0866   0.7287 N.am           1 S1                 0.0000
      9 ****         0.8606   0.1424  -0.3433 C.2            1 S1                 0.0000
     10 ****         1.0070   1.2358  -0.8902 O.2            1 S1                 0.0000
     11 ****         1.4641  -0.9815  -0.7513 N.am           1 S1                 0.0000
     12 ****         2.3560  -1.0923  -1.8624 C.3            1 S1                 0.0000
     13 ****         2.2935  -2.3306  -2.7396 C.3            1 S1                 0.0000
     14 ****         1.4294  -3.5474  -2.4436 C.3            1 S1                 0.0000
     15 ****         2.2951  -4.8053  -2.2327 C.3            1 S1                 0.0000
     16 ****         3.5127  -4.5934  -1.2963 C.3            1 S1                 0.0000
     17 ****         3.6268  -3.1688  -0.7196 C.3            1 S1                 0.0000
     18 ****         3.4680  -2.1258  -1.8155 C.3            1 S1                 0.0000
     19 ****        -1.4994   0.5499   2.5737 C.2            1 S1                 0.0000
     20 ****        -2.1346   1.6246   3.0156 N.2            1 S1                 0.0000
     21 ****        -5.7965   6.6488   1.7117 H              1 S1                 0.0000
     22 ****        -6.2098   4.9735   2.0791 H              1 S1                 0.0000
     23 ****        -5.5704   5.4047   0.4823 H              1 S1                 0.0000
     24 ****        -4.3911   3.3884   2.3577 H              1 S1                 0.0000
     25 ****        -3.7584   3.8299   0.7740 H              1 S1                 0.0000
     26 ****        -1.6438   4.6674   1.8626 H              1 S1                 0.0000
     27 ****        -2.2641   4.1950   3.4326 H              1 S1                 0.0000
     28 ****        -0.5092   2.8464   0.4333 H              1 S1                 0.0000
     29 ****         0.0601  -1.0331   1.0787 H              1 S1                 0.0000
     30 ****         1.2805  -1.8301  -0.2365 H              1 S1                 0.0000
     31 ****         2.6064  -0.1661  -2.3778 H              1 S1                 0.0000
     32 ****         2.5097  -2.1924  -3.7974 H              1 S1                 0.0000
     33 ****         0.8314  -3.3720  -1.5499 H              1 S1                 0.0000
     34 ****         0.7227  -3.6967  -3.2604 H              1 S1                 0.0000
     35 ****         1.6706  -5.6134  -1.8505 H              1 S1                 0.0000
     36 ****         2.6579  -5.1474  -3.2026 H              1 S1                 0.0000
     37 ****         3.4832  -5.3156  -0.4799 H              1 S1                 0.0000
     38 ****         4.4227  -4.8166  -1.8547 H              1 S1                 0.0000
     39 ****         2.8628  -3.0289   0.0448 H              1 S1                 0.0000
     40 ****         4.5876  -3.0286  -0.2235 H              1 S1                 0.0000
     41 ****         4.4016  -1.8640  -2.3102 H              1 S1                 0.0000
     42 ****        -1.6285  -0.3923   3.0859 H              1 S1                 0.0000
     43 ****        -4.1557   5.6241   3.0034 LP             1 S1                 0.0000
     44 ****        -3.5665   6.0333   1.5364 LP             1 S1                 0.0000
     45 ****         0.5273   2.0393  -0.5378 LP             1 S1                 0.0000
     46 ****         1.6057   1.3203  -1.6867 LP             1 S1                 0.0000
     47 ****        -2.7501   1.6877   3.8012 LP             1 S1                 0.0000
@<TRIPOS>BOND
    1    1    2 1     
    2    1   21 1     
    3    1   22 1     
    4    1   23 1     
    5    2    3 1     
    6    3    4 1     
    7    3   24 1     
    8    3   25 1     
    9    4    5 1     
   10    4   26 1     
   11    4   27 1     
   12    5   20 1     
   13    5    6 1     
   14    6    7 2     
   15    6   28 1     
   16    7    8 1     
   17    7   19 1     
   18    8    9 am    
   19    8   29 1     
   20    9   10 2     
   21    9   11 am    
   22   11   12 1     
   23   11   30 1     
   24   12   18 1     
   25   12   13 1     
   26   12   31 1     
   27   13   18 1     
   28   13   14 1     
   29   13   32 1     
   30   14   15 1     
   31   14   33 1     
   32   14   34 1     
   33   15   16 1     
   34   15   35 1     
   35   15   36 1     
   36   16   17 1     
   37   16   37 1     
   38   16   38 1     
   39   17   18 1     
   40   17   39 1     
   41   17   40 1     
   42   18   41 1     
   43   19   20 2     
   44   19   42 1     
   45    2   43 1     
   46    2   44 1     
   47   10   45 1     
   48   10   46 1     
   49   20   47 1     
@<TRIPOS>SUBSTRUCTURE
      1 S1             1
@<TRIPOS>SET
LONE_PAIRS      STATIC     ATOMS    <user>   **** ""
5 43 44 45 46 47
DONOR_HYDROGENS      STATIC     ATOMS    <user>   **** ""
2 29 30
ATOM$BLUE        STATIC     ATOMS    COLORGROUP SYSTEM
5 43 44 45 46 47
ATOM$RED        STATIC     ATOMS    COLORGROUP SYSTEM
2 29 30
