#       Name:                AV-unprocessed.smi:1550
#       Creating user name   scv26
#       Creation time:       Fri Mar 27 06:40:37 2020


#       File generated by GOLD software.
#

@<TRIPOS>MOLECULE
AV-unprocessed.smi:1550
    51    52     1
SMALL
NO_CHARGES


@<TRIPOS>ATOM
      1 ****        -1.4437  -2.4990   2.2043 C.3            1 S1                 0.0000
      2 ****        -1.0232  -1.6746   0.9785 C.3            1 S1                 0.0000
      3 ****         0.4011  -1.6391   0.9514 O.3            1 S1                 0.0000
      4 ****         0.9765  -1.2101  -0.2777 C.3            1 S1                 0.0000
      5 ****         2.5044  -1.2683  -0.1537 C.3            1 S1                 0.0000
      6 ****         3.2040  -0.5606  -1.3308 C.3            1 S1                 0.0000
      7 ****         4.7256  -0.7128  -1.2234 C.3            1 S1                 0.0000
      8 ****         5.0876  -2.1946  -1.0782 C.3            1 S1                 0.0000
      9 ****         4.2931  -2.8258   0.0758 C.3            1 S1                 0.0000
     10 ****         2.8979  -2.6395  -0.1411 O.3            1 S1                 0.0000
     11 ****        -1.5888  -0.2465   1.0418 C.2            1 S1                 0.0000
     12 ****        -1.4027   0.4311   2.0521 O.2            1 S1                 0.0000
     13 ****        -2.2357   0.1645  -0.0667 N.am           1 S1                 0.0000
     14 ****        -2.8576   1.3938  -0.3471 C.2            1 S1                 0.0000
     15 ****        -3.1172   2.3682   0.5687 C.2            1 S1                 0.0000
     16 ****        -3.7706   3.6211   0.2114 C.2            1 S1                 0.0000
     17 ****        -4.1391   4.6965   1.2183 C.3            1 S1                 0.0000
     18 ****        -5.2780   5.3016   0.8801 F              1 S1                 0.0000
     19 ****        -4.2841   4.1791   2.4384 F              1 S1                 0.0000
     20 ****        -3.1785   5.6182   1.2692 F              1 S1                 0.0000
     21 ****        -4.1105   3.6725  -1.1263 C.2            1 S1                 0.0000
     22 ****        -3.8851   2.7601  -2.0968 N.pl3          1 S1                -1.0000
     23 ****        -3.2616   1.5976  -1.7540 C.2            1 S1                 0.0000
     24 ****        -3.0298   0.7216  -2.5882 O.2            1 S1                 0.0000
     25 ****        -2.5296  -2.5477   2.2946 H              1 S1                 0.0000
     26 ****        -1.0473  -2.0771   3.1287 H              1 S1                 0.0000
     27 ****        -1.0743  -3.5216   2.1262 H              1 S1                 0.0000
     28 ****        -1.3914  -2.1830   0.0848 H              1 S1                 0.0000
     29 ****         0.6358  -1.8366  -1.1034 H              1 S1                 0.0000
     30 ****         0.6725  -0.1861  -0.4972 H              1 S1                 0.0000
     31 ****         2.8018  -0.7912   0.7819 H              1 S1                 0.0000
     32 ****         2.8599  -0.9863  -2.2743 H              1 S1                 0.0000
     33 ****         2.9375   0.4967  -1.3501 H              1 S1                 0.0000
     34 ****         5.2154  -0.2845  -2.0984 H              1 S1                 0.0000
     35 ****         5.0888  -0.1596  -0.3563 H              1 S1                 0.0000
     36 ****         4.8605  -2.7211  -2.0062 H              1 S1                 0.0000
     37 ****         6.1584  -2.3073  -0.9071 H              1 S1                 0.0000
     38 ****         4.5012  -3.8943   0.1343 H              1 S1                 0.0000
     39 ****         4.5848  -2.3920   1.0335 H              1 S1                 0.0000
     40 ****        -2.2577  -0.4913  -0.8342 H              1 S1                 0.0000
     41 ****        -2.8543   2.2427   1.6054 H              1 S1                 0.0000
     42 ****        -4.6450   4.5843  -1.4684 H              1 S1                 0.0000
     43 ****         0.7366  -2.5611   1.1442 LP             1 S1                 0.0000
     44 ****         0.7081  -1.0155   1.6704 LP             1 S1                 0.0000
     45 ****         2.6570  -3.0465  -1.0222 LP             1 S1                 0.0000
     46 ****         2.3986  -3.1058   0.5891 LP             1 S1                 0.0000
     47 ****        -0.8881   0.0515   2.8209 LP             1 S1                 0.0000
     48 ****        -1.7661   1.3613   2.1042 LP             1 S1                 0.0000
     49 ****        -4.1678   2.9329  -3.0403 LP             1 S1                 0.0000
     50 ****        -2.5703  -0.1226  -2.3122 LP             1 S1                 0.0000
     51 ****        -3.3011   0.8546  -3.5415 LP             1 S1                 0.0000
@<TRIPOS>BOND
    1    1    2 1     
    2    1   25 1     
    3    1   26 1     
    4    1   27 1     
    5    2    3 1     
    6    2   11 1     
    7    2   28 1     
    8    3    4 1     
    9    4    5 1     
   10    4   29 1     
   11    4   30 1     
   12    5   10 1     
   13    5    6 1     
   14    5   31 1     
   15    6    7 1     
   16    6   32 1     
   17    6   33 1     
   18    7    8 1     
   19    7   34 1     
   20    7   35 1     
   21    8    9 1     
   22    8   36 1     
   23    8   37 1     
   24    9   10 1     
   25    9   38 1     
   26    9   39 1     
   27   11   12 2     
   28   11   13 am    
   29   13   14 1     
   30   13   40 1     
   31   14   23 1     
   32   14   15 2     
   33   15   16 1     
   34   15   41 1     
   35   16   17 1     
   36   16   21 2     
   37   17   18 1     
   38   17   19 1     
   39   17   20 1     
   40   21   22 1     
   41   21   42 1     
   42   22   23 1     
   43   23   24 2     
   44    3   43 1     
   45    3   44 1     
   46   10   45 1     
   47   10   46 1     
   48   12   47 1     
   49   12   48 1     
   50   22   49 1     
   51   24   50 1     
   52   24   51 1     
@<TRIPOS>SUBSTRUCTURE
      1 S1             1
@<TRIPOS>SET
LONE_PAIRS      STATIC     ATOMS    <user>   **** ""
9 43 44 45 46 47 48 49 50 51
DONOR_HYDROGENS      STATIC     ATOMS    <user>   **** ""
1 40
ATOM$BLUE        STATIC     ATOMS    COLORGROUP SYSTEM
9 43 44 45 46 47 48 49 50 51
ATOM$RED        STATIC     ATOMS    COLORGROUP SYSTEM
1 40
