AV-unprocessed.smi:759|AV-procd|sdf|3620|dock3
  -GOLD-   22720 1 13D 1   1.00000     0.00000
 Structure written by MMmdl.
 24 25  0  0  0  0  0  0  0  0  2 V2000
  151.9377  138.3204  154.2010 C   0  0  0  0  0  0  0  0  0  0  0  0
  152.9831  138.1249  155.0027 N   0  0  0  0  0  0  0  0  0  0  0  0
  152.8661  138.9368  156.0754 N   0  0  0  0  0  0  0  0  0  0  0  0
  151.7225  139.5754  155.8211 C   0  0  0  0  0  0  0  0  0  0  0  0
  151.1818  140.6010  156.7696 C   0  0  1  0  0  0  0  0  0  0  0  0
  152.1457  140.8775  157.9390 C   0  0  0  0  0  0  0  0  0  0  0  0
  151.5584  141.9432  158.8772 C   0  0  0  0  0  0  0  0  0  0  0  0
  151.1777  143.2133  158.0977 C   0  0  0  0  0  0  0  0  0  0  0  0
  150.2369  142.8931  157.0017 N   0  3  0  0  0  0  0  0  0  0  0  0
  150.7780  141.9016  156.0458 C   0  0  0  0  0  0  0  0  0  0  0  0
  151.0886  139.2317  154.6570 N   0  0  0  0  0  0  0  0  0  0  0  0
  153.7554  137.4873  154.8697 H   0  0  0  0  0  0  0  0  0  0  0  0
  151.7950  137.7887  153.2717 H   0  0  0  0  0  0  0  0  0  0  0  0
  150.2701  140.1867  157.2047 H   0  0  0  0  0  0  0  0  0  0  0  0
  152.3425  139.9591  158.4935 H   0  0  0  0  0  0  0  0  0  0  0  0
  153.1070  141.2234  157.5562 H   0  0  0  0  0  0  0  0  0  0  0  0
  150.6768  141.5434  159.3801 H   0  0  0  0  0  0  0  0  0  0  0  0
  152.2770  142.1870  159.6603 H   0  0  0  0  0  0  0  0  0  0  0  0
  150.7133  143.9410  158.7635 H   0  0  0  0  0  0  0  0  0  0  0  0
  152.0687  143.6849  157.6809 H   0  0  0  0  0  0  0  0  0  0  0  0
  149.3887  142.5214  157.4051 H   0  0  0  0  0  0  0  0  0  0  0  0
  151.6365  142.3383  155.5334 H   0  0  0  0  0  0  0  0  0  0  0  0
  150.0236  141.6964  155.2858 H   0  0  0  0  0  0  0  0  0  0  0  0
  150.0145  143.7421  156.5016 H   0  0  0  0  0  0  0  0  0  0  0  0
  1 11  2  0  0  0  0
  1 13  1  0  0  0  0
  1  2  1  0  0  0  0
  2 12  1  0  0  0  0
  2  3  1  0  0  0  0
  3  4  2  0  0  0  0
  4 11  1  0  0  0  0
  4  5  1  0  0  0  0
  5 10  1  0  0  0  0
  5  6  1  0  0  0  0
  5 14  1  0  0  0  0
  6  7  1  0  0  0  0
  6 15  1  0  0  0  0
  6 16  1  0  0  0  0
  7  8  1  0  0  0  0
  7 17  1  0  0  0  0
  7 18  1  0  0  0  0
  8  9  1  0  0  0  0
  8 19  1  0  0  0  0
  8 20  1  0  0  0  0
  9 10  1  0  0  0  0
  9 21  1  0  0  0  0
  9 24  1  0  0  0  0
 10 22  1  0  0  0  0
 10 23  1  0  0  0  0
M  CHG  1   9   1
M  END
> <s_m_source_file>
AV-unprocessed.smi

> <i_m_source_file_index>
759

> <i_lp_mmshare_version>
43012

> <i_f3d_flags>
0

> <s_epik_input>
W25IXTFbY0hdbm5jMVtDQEBIXTJbQ0gyXVtDSDJdW0NIMl1bTkhdW0NIMl0y

> <s_epik_cmdline>
J2VwaWtfcHl0aG9uJywgJy1waCcsICc3LjAnLCAnLXRuJywgJzgnLCAnLW1hJywgJzIwMCcsICctbWV0YWxfYmluZGluZycsICctaW1hZScsICc8aW5maWxlLm1hZT4nLCAnLW9tYWUnLCAnPG91dGZpbGUubWFlPic=

> <r_lp_tautomer_probability>
0.948284

> <r_epik_Ionization_Penalty>
0.0050177

> <r_epik_Ionization_Penalty_Charging>
0.000345518

> <r_epik_Ionization_Penalty_Neutral>
0.00467218

> <r_epik_State_Penalty>
0.271452

> <r_epik_Charging_Adjusted_Penalty>
0.271797

> <i_epik_Tot_Q>
1

> <i_epik_Tot_abs_Q>
1

> <r_epik_Metal_State_Penalty>
0.537172

> <b_epik_Metal_Only>
0

> <s_lp_Force_Field>
OPLS_2005

> <r_lp_Energy>
9.69095

> <b_lp_Chiralities_Consistent>
1

> <s_lp_Variant>
AV-unprocessed.smi:759-2

> <Gold.Version>
5.8.1

> <Gold.Id.Protein>
6NUR|6NUR_protein|mol2

> <Gold.PLP.Fitness>
33.8589

> <Gold.PLP.PLP>
-19.7591

> <Gold.PLP.part.hbond>
-2.9967

> <Gold.PLP.part.metal>
0.0000

> <Gold.PLP.part.buried>
-5.1200

> <Gold.PLP.part.nonpolar>
-12.3731

> <Gold.PLP.part.repulsive>
0.4516

> <Gold.PLP.ligand.clash>
0.0000

> <Gold.PLP.ligand.torsion>
0.1380

> <Gold.PLP.Chemscore.Hbond>
3.9913

> <Gold.PLP.Chemscore.CHOScore>
0.7864

> <Gold.PLP.Chemscore.Metal>
0.0000

> <Gold.Chemscore.Hbonds>
donor molecule, donor type, donor heavy atom, donor atom, acceptor molecule, acceptor atom, score
      L1  H     9    24       P1  8028  2.00
      P1  H  7989  7998       L1    11  0.85
      P1  H  7997  8009       L1     3  1.00
      L1  C     1    13       P1  7949  0.82

> <Gold.PLP.Chemscore.Internal.Correction>
0.0427

> <Gold.Rescore>
     Score         DG    S(hbond)    S(metal)    S(lipo)     H(rot)  DE(clash)    DE(int)     intcor
     14.17     -14.24       1.98        0.00      40.12       1.00       0.03       0.04       ----

> <Gold.Chemscore.Fitness>
14.1702

> <Gold.Chemscore.DG>
-14.2360

> <Gold.Chemscore.ZeroCoef>
-5.4800

> <Gold.Chemscore.Hbond>
1.9826

> <Gold.Chemscore.Metal>
0.0000

> <Gold.Chemscore.Lipo>
40.1200

> <Gold.Chemscore.Internal_Hbond>
0.0000

> <Gold.Chemscore.DEClash>
0.0270

> <Gold.Chemscore.DEInternal>
0.0388

> <Gold.Chemscore.Rot>
1.0000

> <Gold.Chemscore.Internal.Correction>
   9.000000E+99

> <Gold.Chemscore.Hbonds>
donor molecule, donor type, donor heavy atom, donor atom, acceptor molecule, acceptor atom, score
      L1  H     9    24       P1  8028  0.95
      P1  H  7989  7998       L1    11  0.05
      P1  H  7997  8009       L1     3  0.52

> <Gold.Chemscore.Hbond.Weighted>
-6.6220

> <Gold.Chemscore.Metal.Weighted>
-0.0000

> <Gold.Chemscore.Lipo.Weighted>
-4.6940

> <Gold.Chemscore.Internal_Hbond.Weighted>
0.0000

> <Gold.Chemscore.DEClash.Weighted>
0.0270

> <Gold.Chemscore.DEInternal.Weighted>
0.0388

> <Gold.Chemscore.Rot.Weighted>
2.5600

> <Gold.Chemscore.Internal.Correction.Weighted>
   9.000000E+99

> <Gold.Protein.RotatedTorsions>
[ 6907 6896 6895 6894 ] final   -2.94 input  -60.11 | X-H torsion
[ 7974 7965 7964 7962 ] final   56.94 input  175.53 | X-H torsion
[ 8008 7997 7996 7995 ] final -145.99 input   59.86 | X-H torsion
[ 10167 10162 10161 10158 ] final  143.05 input  -65.29 | X-H torsion
[ 10718 10713 10712 10709 ] final   96.15 input   66.30 | X-H torsion
[ 10763 10752 10751 10750 ] final  145.02 input  -60.55 | X-H torsion
[ 11005 11000 10999 10996 ] final  118.08 input  -57.11 | X-H torsion

> <Gold.Protein.ActiveResidues>
 VAL166  LYS551  ARG553  GLY616  TRP617  ASP618  TYR619  PRO620  LYS621  CYS622 
 ASP623  PHE694  ASN695  SER759  ASP760  ASP761  ALA762  ILE779  LEU786  VAL792 
 PHE793  MET794  SER795  GLU796  ALA797  LYS798  CYS799  TRP800  GLU811  SER814 

> <Gold.Protein.RotatedAtoms>
  151.5219  135.1067  159.9880 H   0  0  0  0  0  0  0  0  0  0  0  0  # atno 6907 bound_to 6896
  152.4617  133.7832  159.6872 H   0  0  0  0  0  0  0  0  0  0  0  0  # atno 6908 bound_to 6896
  150.8582  133.7619  159.3027 H   0  0  0  0  0  0  0  0  0  0  0  0  # atno 6909 bound_to 6896
  145.9344  139.3835  143.0401 H   0  0  0  0  0  0  0  0  0  0  0  0  # atno 7974 bound_to 7965
  155.5521  140.0617  157.2847 H   0  0  0  0  0  0  0  0  0  0  0  0  # atno 8008 bound_to 7997
  154.4417  140.1900  156.0742 H   0  0  0  0  0  0  0  0  0  0  0  0  # atno 8009 bound_to 7997
  156.0508  140.3284  155.7353 H   0  0  0  0  0  0  0  0  0  0  0  0  # atno 8010 bound_to 7997
  139.4979  144.6066  151.6364 H   0  0  0  0  0  0  0  0  0  0  0  0  # atno 10167 bound_to 10162
  157.6930  131.0569  150.4447 H   0  0  0  0  0  0  0  0  0  0  0  0  # atno 10718 bound_to 10713
  153.9985  135.2925  155.3405 H   0  0  0  0  0  0  0  0  0  0  0  0  # atno 10763 bound_to 10752
  154.7173  135.5124  153.8761 H   0  0  0  0  0  0  0  0  0  0  0  0  # atno 10764 bound_to 10752
  153.0777  135.6669  154.0229 H   0  0  0  0  0  0  0  0  0  0  0  0  # atno 10765 bound_to 10752
  139.9097  134.9617  156.7449 H   0  0  0  0  0  0  0  0  0  0  0  0  # atno 11005 bound_to 11000
  145.8383  140.9594  143.0813 LP  0  0  0  0  0  0  0  0  0  0  0  0  # atno 17320 bound_to 7965
  144.6769  140.0251  143.7483 LP  0  0  0  0  0  0  0  0  0  0  0  0  # atno 17321 bound_to 7965
  140.5730  144.0076  150.6227 LP  0  0  0  0  0  0  0  0  0  0  0  0  # atno 17342 bound_to 10162
  140.3200  143.3143  152.0793 LP  0  0  0  0  0  0  0  0  0  0  0  0  # atno 17343 bound_to 10162
  156.4803  130.4072  149.6465 LP  0  0  0  0  0  0  0  0  0  0  0  0  # atno 17370 bound_to 10713
  156.3513  130.7433  151.2393 LP  0  0  0  0  0  0  0  0  0  0  0  0  # atno 17371 bound_to 10713
  140.6820  133.9466  155.7916 LP  0  0  0  0  0  0  0  0  0  0  0  0  # atno 17394 bound_to 11000
  141.0503  134.0494  157.3791 LP  0  0  0  0  0  0  0  0  0  0  0  0  # atno 17395 bound_to 11000

$$$$
