AV-unprocessed.smi:58|AV-procd|sdf|583|dock1
  -GOLD-   2262016483D 1   1.00000     0.00000
 Structure written by MMmdl.
 32 33  0  0  0  0  0  0  0  0  1 V2000
  154.9061  140.5645  162.4304 C   0  0  0  0  0  0  0  0  0  0  0  0
  153.9347  141.5019  161.9098 N   0  0  0  0  0  0  0  0  0  0  0  0
  153.3502  142.5765  162.5433 C   0  0  0  0  0  0  0  0  0  0  0  0
  152.5037  143.1669  161.6484 C   0  0  0  0  0  0  0  0  0  0  0  0
  151.7157  144.3107  161.8949 N   0  0  0  0  0  0  0  0  0  0  0  0
  152.6229  142.3533  160.4782 C   0  0  0  0  0  0  0  0  0  0  0  0
  151.8762  142.6880  159.2164 C   0  0  0  0  0  0  0  0  0  0  0  0
  151.4010  143.8159  159.0788 O   0  0  0  0  0  0  0  0  0  0  0  0
  151.7145  141.7066  158.2976 N   0  0  0  0  0  0  0  0  0  0  0  0
  152.2710  140.3536  158.3812 C   0  0  0  0  0  0  0  0  0  0  0  0
  151.7119  139.5898  157.1829 C   0  0  0  0  0  0  0  0  0  0  0  0
  151.3924  140.6811  156.1728 C   0  0  0  0  0  0  0  0  0  0  0  0
  150.9901  141.8873  157.0321 C   0  0  1  0  0  0  0  0  0  0  0  0
  149.4645  141.9615  157.2667 C   0  0  0  0  0  0  0  0  0  0  0  0
  149.1270  143.1643  157.9246 O   0  0  0  0  0  0  0  0  0  0  0  0
  153.5020  141.3726  160.6396 N   0  0  0  0  0  0  0  0  0  0  0  0
  155.1328  140.8001  163.4706 H   0  0  0  0  0  0  0  0  0  0  0  0
  155.8247  140.6221  161.8458 H   0  0  0  0  0  0  0  0  0  0  0  0
  154.5079  139.5509  162.3752 H   0  0  0  0  0  0  0  0  0  0  0  0
  153.5873  142.8327  163.5656 H   0  0  0  0  0  0  0  0  0  0  0  0
  151.7323  144.7814  162.7886 H   0  0  0  0  0  0  0  0  0  0  0  0
  150.9982  144.6105  161.2505 H   0  0  0  0  0  0  0  0  0  0  0  0
  153.3580  140.4074  158.3082 H   0  0  0  0  0  0  0  0  0  0  0  0
  152.0133  139.8597  159.3192 H   0  0  0  0  0  0  0  0  0  0  0  0
  152.4063  138.8440  156.7951 H   0  0  0  0  0  0  0  0  0  0  0  0
  150.7943  139.0749  157.4702 H   0  0  0  0  0  0  0  0  0  0  0  0
  152.2934  140.9234  155.6075 H   0  0  0  0  0  0  0  0  0  0  0  0
  150.6284  140.3805  155.4550 H   0  0  0  0  0  0  0  0  0  0  0  0
  151.3268  142.8066  156.5487 H   0  0  0  0  0  0  0  0  0  0  0  0
  148.9176  141.8950  156.3256 H   0  0  0  0  0  0  0  0  0  0  0  0
  149.1201  141.1391  157.8935 H   0  0  0  0  0  0  0  0  0  0  0  0
  149.1381  143.8662  157.2917 H   0  0  0  0  0  0  0  0  0  0  0  0
  1  2  1  0  0  0  0
  1 17  1  0  0  0  0
  1 18  1  0  0  0  0
  1 19  1  0  0  0  0
  2 16  1  0  0  0  0
  2  3  1  0  0  0  0
  3  4  2  0  0  0  0
  3 20  1  0  0  0  0
  4  5  1  0  0  0  0
  4  6  1  0  0  0  0
  5 21  1  0  0  0  0
  5 22  1  0  0  0  0
  6  7  1  0  0  0  0
  6 16  2  0  0  0  0
  7  8  2  0  0  0  0
  7  9  1  0  0  0  0
  9 13  1  0  0  0  0
  9 10  1  0  0  0  0
 10 11  1  0  0  0  0
 10 23  1  0  0  0  0
 10 24  1  0  0  0  0
 11 12  1  0  0  0  0
 11 25  1  0  0  0  0
 11 26  1  0  0  0  0
 12 13  1  0  0  0  0
 12 27  1  0  0  0  0
 12 28  1  0  0  0  0
 13 14  1  0  0  0  0
 13 29  1  0  0  0  0
 14 15  1  0  0  0  0
 14 30  1  0  0  0  0
 14 31  1  0  0  0  0
 15 32  1  0  0  0  0
M  END
> <s_m_source_file>
AV-unprocessed.smi

> <i_m_source_file_index>
58

> <i_lp_mmshare_version>
43012

> <i_f3d_flags>
0

> <s_epik_input>
W0NIM11uMVtjSF1jKFtOSDJdKWMobjEpQyg9TylOMltDSDJdW0NIMl1bQ0gyXVtDQEhdMltDSDJdW09IXQ==

> <s_epik_cmdline>
J2VwaWtfcHl0aG9uJywgJy1waCcsICc3LjAnLCAnLXRuJywgJzgnLCAnLW1hJywgJzIwMCcsICctbWV0YWxfYmluZGluZycsICctaW1hZScsICc8aW5maWxlLm1hZT4nLCAnLW9tYWUnLCAnPG91dGZpbGUubWFlPic=

> <r_lp_tautomer_probability>
1

> <r_epik_Ionization_Penalty>
5.64206e-05

> <r_epik_Ionization_Penalty_Charging>
0

> <r_epik_Ionization_Penalty_Neutral>
5.64206e-05

> <r_epik_State_Penalty>
-0

> <r_epik_Charging_Adjusted_Penalty>
0

> <i_epik_Tot_Q>
0

> <i_epik_Tot_abs_Q>
0

> <r_epik_Metal_State_Penalty>
-0

> <b_epik_Metal_Only>
0

> <s_lp_Force_Field>
OPLS_2005

> <r_lp_Energy>
40.444

> <b_lp_Chiralities_Consistent>
1

> <s_lp_Variant>
AV-unprocessed.smi:58-1

> <Gold.Version>
5.8.1

> <Gold.Id.Protein>
6NUR|6NUR_protein|mol2

> <Gold.PLP.Fitness>
41.2603

> <Gold.PLP.PLP>
-38.4023

> <Gold.PLP.part.hbond>
-3.6014

> <Gold.PLP.part.metal>
0.0000

> <Gold.PLP.part.buried>
-3.9578

> <Gold.PLP.part.nonpolar>
-29.6214

> <Gold.PLP.part.repulsive>
0.1203

> <Gold.PLP.ligand.clash>
0.0000

> <Gold.PLP.ligand.torsion>
0.2144

> <Gold.PLP.Chemscore.Hbond>
1.0000

> <Gold.PLP.Chemscore.CHOScore>
0.0000

> <Gold.PLP.Chemscore.Metal>
0.0000

> <Gold.Chemscore.Hbonds>
donor molecule, donor type, donor heavy atom, donor atom, acceptor molecule, acceptor atom, score
      L1  H    15    32       P1  8028  0.95

> <Gold.PLP.Chemscore.Internal.Correction>
0.2868

> <Gold.Rescore>
     Score         DG    S(hbond)    S(metal)    S(lipo)     H(rot)  DE(clash)    DE(int)     intcor
     10.56     -13.59       0.99        0.00      73.74       1.49       0.08       2.94       ----

> <Gold.Chemscore.Fitness>
10.5649

> <Gold.Chemscore.DG>
-13.5900

> <Gold.Chemscore.ZeroCoef>
-5.4800

> <Gold.Chemscore.Hbond>
0.9875

> <Gold.Chemscore.Metal>
0.0000

> <Gold.Chemscore.Lipo>
73.7425

> <Gold.Chemscore.Internal_Hbond>
0.0000

> <Gold.Chemscore.DEClash>
0.0806

> <Gold.Chemscore.DEInternal>
2.9445

> <Gold.Chemscore.Rot>
1.4907

> <Gold.Chemscore.Internal.Correction>
   9.000000E+99

> <Gold.Chemscore.Hbonds>
donor molecule, donor type, donor heavy atom, donor atom, acceptor molecule, acceptor atom, score
      L1  H    15    32       P1  8028  0.21

> <Gold.Chemscore.Hbond.Weighted>
-3.2984

> <Gold.Chemscore.Metal.Weighted>
-0.0000

> <Gold.Chemscore.Lipo.Weighted>
-8.6279

> <Gold.Chemscore.Internal_Hbond.Weighted>
0.0000

> <Gold.Chemscore.DEClash.Weighted>
0.0806

> <Gold.Chemscore.DEInternal.Weighted>
2.9445

> <Gold.Chemscore.Rot.Weighted>
3.8163

> <Gold.Chemscore.Internal.Correction.Weighted>
   9.000000E+99

> <Gold.Protein.RotatedTorsions>
[ 6907 6896 6895 6894 ] final -163.25 input  -60.11 | X-H torsion
[ 7974 7965 7964 7962 ] final   12.12 input  175.53 | X-H torsion
[ 8008 7997 7996 7995 ] final   32.47 input   59.86 | X-H torsion
[ 10167 10162 10161 10158 ] final   82.70 input  -65.29 | X-H torsion
[ 10718 10713 10712 10709 ] final   -4.37 input   66.30 | X-H torsion
[ 10763 10752 10751 10750 ] final  -28.97 input  -60.55 | X-H torsion
[ 11005 11000 10999 10996 ] final  -22.81 input  -57.11 | X-H torsion

> <Gold.Protein.ActiveResidues>
 VAL166  LYS551  ARG553  GLY616  TRP617  ASP618  TYR619  PRO620  LYS621  CYS622 
 ASP623  PHE694  ASN695  SER759  ASP760  ASP761  ALA762  ILE779  LEU786  VAL792 
 PHE793  MET794  SER795  GLU796  ALA797  LYS798  CYS799  TRP800  GLU811  SER814 

> <Gold.Protein.RotatedAtoms>
  151.3931  133.3782  159.2723 H   0  0  0  0  0  0  0  0  0  0  0  0  # atno 6907 bound_to 6896
  150.9490  134.8893  159.7670 H   0  0  0  0  0  0  0  0  0  0  0  0  # atno 6908 bound_to 6896
  152.5104  134.3885  159.9428 H   0  0  0  0  0  0  0  0  0  0  0  0  # atno 6909 bound_to 6896
  146.2358  139.9383  142.8486 H   0  0  0  0  0  0  0  0  0  0  0  0  # atno 7974 bound_to 7965
  155.1230  140.3250  155.4492 H   0  0  0  0  0  0  0  0  0  0  0  0  # atno 8008 bound_to 7997
  156.2657  140.2024  156.6300 H   0  0  0  0  0  0  0  0  0  0  0  0  # atno 8009 bound_to 7997
  154.6669  140.0541  157.0110 H   0  0  0  0  0  0  0  0  0  0  0  0  # atno 8010 bound_to 7997
  139.9261  144.6182  150.8391 H   0  0  0  0  0  0  0  0  0  0  0  0  # atno 10167 bound_to 10162
  156.7623  130.5273  149.5783 H   0  0  0  0  0  0  0  0  0  0  0  0  # atno 10718 bound_to 10713
  153.7570  135.6922  153.4933 H   0  0  0  0  0  0  0  0  0  0  0  0  # atno 10763 bound_to 10752
  153.1964  135.4452  155.0211 H   0  0  0  0  0  0  0  0  0  0  0  0  # atno 10764 bound_to 10752
  154.8167  135.3402  154.7088 H   0  0  0  0  0  0  0  0  0  0  0  0  # atno 10765 bound_to 10752
  140.8692  133.7732  156.0167 H   0  0  0  0  0  0  0  0  0  0  0  0  # atno 11005 bound_to 11000
  145.1977  140.9840  143.4174 LP  0  0  0  0  0  0  0  0  0  0  0  0  # atno 17320 bound_to 7965
  144.9801  139.3792  143.6266 LP  0  0  0  0  0  0  0  0  0  0  0  0  # atno 17321 bound_to 7965
  140.7650  143.3263  151.2509 LP  0  0  0  0  0  0  0  0  0  0  0  0  # atno 17342 bound_to 10162
  139.6821  143.9837  152.2814 LP  0  0  0  0  0  0  0  0  0  0  0  0  # atno 17343 bound_to 10162
  156.1331  130.6192  151.0362 LP  0  0  0  0  0  0  0  0  0  0  0  0  # atno 17370 bound_to 10713
  157.6729  131.0857  150.7568 LP  0  0  0  0  0  0  0  0  0  0  0  0  # atno 17371 bound_to 10713
  140.8593  134.2860  157.5242 LP  0  0  0  0  0  0  0  0  0  0  0  0  # atno 17394 bound_to 11000
  139.8711  134.9509  156.4070 LP  0  0  0  0  0  0  0  0  0  0  0  0  # atno 17395 bound_to 11000

$$$$
