#       Name:                AV-unprocessed.smi:1687
#       Creating user name   scv26
#       Creation time:       Fri Mar 27 07:53:03 2020


#       File generated by GOLD software.
#

@<TRIPOS>MOLECULE
AV-unprocessed.smi:1687
    48    49     1
SMALL
NO_CHARGES


@<TRIPOS>ATOM
      1 ****        -3.9352  -0.3117   4.0829 C.3            1 S1                 0.0000
      2 ****        -2.7227  -1.2551   3.9922 C.3            1 S1                 0.0000
      3 ****        -1.3815  -0.5238   4.1883 C.3            1 S1                 0.0000
      4 ****        -0.9954   0.3198   2.9605 C.3            1 S1                 0.0000
      5 ****        -0.9574  -0.5187   1.7308 N.4            1 S1                 1.0000
      6 ****        -0.3826   0.1444   0.5233 C.3            1 S1                 0.0000
      7 ****        -1.0297   1.5136   0.2194 C.3            1 S1                 0.0000
      8 ****         1.1598   0.2170   0.6228 C.3            1 S1                 0.0000
      9 ****         1.7800   0.7686  -0.5781 N.am           1 S1                 0.0000
     10 ****         1.9406   0.1058  -1.7326 C.2            1 S1                 0.0000
     11 ****         1.5702  -1.0566  -1.9006 O.2            1 S1                 0.0000
     12 ****         2.5451   0.8736  -2.6563 N.am           1 S1                 0.0000
     13 ****         2.8721   0.5396  -3.9978 C.ar           1 S1                 0.0000
     14 ****         3.5263   1.5592  -4.7255 C.ar           1 S1                 0.0000
     15 ****         3.8915   1.3286  -6.0660 C.ar           1 S1                 0.0000
     16 ****         3.5923   0.0825  -6.6450 C.ar           1 S1                 0.0000
     17 ****         2.9391  -0.8781  -5.8510 C.ar           1 S1                 0.0000
     18 ****         2.5878  -0.6590  -4.5660 N.ar           1 S1                 0.0000
     19 ****        -2.2633  -1.1821   1.4756 C.3            1 S1                 0.0000
     20 ****        -2.6860  -2.0513   2.6744 C.3            1 S1                 0.0000
     21 ****        -3.9310   0.4431   3.2971 H              1 S1                 0.0000
     22 ****        -3.9531   0.2097   5.0402 H              1 S1                 0.0000
     23 ****        -4.8687  -0.8684   3.9983 H              1 S1                 0.0000
     24 ****        -2.8290  -1.9718   4.8076 H              1 S1                 0.0000
     25 ****        -1.4206   0.1052   5.0785 H              1 S1                 0.0000
     26 ****        -0.5969  -1.2590   4.3731 H              1 S1                 0.0000
     27 ****        -1.7054   1.1379   2.8371 H              1 S1                 0.0000
     28 ****        -0.0220   0.7748   3.1395 H              1 S1                 0.0000
     29 ****        -0.6044  -0.5066  -0.3235 H              1 S1                 0.0000
     30 ****        -0.6980   1.8995  -0.7446 H              1 S1                 0.0000
     31 ****        -0.7725   2.2608   0.9703 H              1 S1                 0.0000
     32 ****        -2.1163   1.4438   0.1734 H              1 S1                 0.0000
     33 ****         1.4634   0.8491   1.4565 H              1 S1                 0.0000
     34 ****         1.5736  -0.7731   0.8222 H              1 S1                 0.0000
     35 ****         2.1145   1.7198  -0.5238 H              1 S1                 0.0000
     36 ****         2.7987   1.8072  -2.3689 H              1 S1                 0.0000
     37 ****         3.7491   2.5110  -4.2653 H              1 S1                 0.0000
     38 ****         4.3924   2.0949  -6.6390 H              1 S1                 0.0000
     39 ****         3.8562  -0.1319  -7.6700 H              1 S1                 0.0000
     40 ****         2.6921  -1.8475  -6.2579 H              1 S1                 0.0000
     41 ****        -3.0269  -0.4343   1.2604 H              1 S1                 0.0000
     42 ****        -2.1894  -1.8175   0.5923 H              1 S1                 0.0000
     43 ****        -1.9804  -2.8769   2.7769 H              1 S1                 0.0000
     44 ****        -3.6572  -2.5082   2.4813 H              1 S1                 0.0000
     45 ****        -0.3205  -1.2757   1.9351 H              1 S1                 0.0000
     46 ****         1.1252  -1.5524  -1.1548 LP             1 S1                 0.0000
     47 ****         1.7145  -1.5048  -2.7828 LP             1 S1                 0.0000
     48 ****         2.1238  -1.3715  -4.0395 LP             1 S1                 0.0000
@<TRIPOS>BOND
    1    1    2 1     
    2    1   21 1     
    3    1   22 1     
    4    1   23 1     
    5    2   20 1     
    6    2    3 1     
    7    2   24 1     
    8    3    4 1     
    9    3   25 1     
   10    3   26 1     
   11    4    5 1     
   12    4   27 1     
   13    4   28 1     
   14    5    6 1     
   15    5   19 1     
   16    5   45 1     
   17    6    7 1     
   18    6    8 1     
   19    6   29 1     
   20    7   30 1     
   21    7   31 1     
   22    7   32 1     
   23    8    9 1     
   24    8   33 1     
   25    8   34 1     
   26    9   10 am    
   27    9   35 1     
   28   10   11 2     
   29   10   12 am    
   30   12   13 1     
   31   12   36 1     
   32   13   18 ar    
   33   13   14 ar    
   34   14   15 ar    
   35   14   37 1     
   36   15   16 ar    
   37   15   38 1     
   38   16   17 ar    
   39   16   39 1     
   40   17   18 ar    
   41   17   40 1     
   42   19   20 1     
   43   19   41 1     
   44   19   42 1     
   45   20   43 1     
   46   20   44 1     
   47   11   46 1     
   48   11   47 1     
   49   18   48 1     
@<TRIPOS>SUBSTRUCTURE
      1 S1             1
@<TRIPOS>SET
LONE_PAIRS      STATIC     ATOMS    <user>   **** ""
3 46 47 48
DONOR_HYDROGENS      STATIC     ATOMS    <user>   **** ""
3 45 35 36
ATOM$BLUE        STATIC     ATOMS    COLORGROUP SYSTEM
3 46 47 48
ATOM$RED        STATIC     ATOMS    COLORGROUP SYSTEM
3 45 35 36
