AV-unprocessed.smi:1560|AV-procd|sdf|6275|dock5
  -GOLD-   22720 6463D 1   1.00000     0.00000
 Structure written by MMmdl.
 47 48  0  0  0  0  0  0  0  0  1 V2000
  151.2980  145.2684  158.9754 C   0  0  0  0  0  0  0  0  0  0  0  0
  152.2272  144.0470  158.8725 C   0  0  0  0  0  0  0  0  0  0  0  0
  151.5685  142.7532  158.2883 C   0  0  1  0  0  0  0  0  0  0  0  0
  150.1912  142.6048  158.9877 C   0  0  0  0  0  0  0  0  0  0  0  0
  151.3008  142.9725  156.7635 C   0  0  0  0  0  0  0  0  0  0  0  0
  150.2120  142.1512  156.2489 N   0  0  0  0  0  0  0  0  0  0  0  0
  150.3373  140.9694  155.6270 C   0  0  0  0  0  0  0  0  0  0  0  0
  151.4272  140.4409  155.4109 O   0  0  0  0  0  0  0  0  0  0  0  0
  149.0489  140.2628  155.1692 C   0  0  0  0  0  0  0  0  0  0  0  0
  147.8534  141.1241  155.1581 N   0  0  0  0  0  0  0  0  0  0  0  0
  147.3037  141.5361  153.9523 C   0  0  0  0  0  0  0  0  0  0  0  0
  146.2292  142.3552  153.8633 C   0  0  0  0  0  0  0  0  0  0  0  0
  145.5813  142.8572  155.0702 C   0  0  0  0  0  0  0  0  0  0  0  0
  144.6063  143.6048  155.0934 O   0  0  0  0  0  0  0  0  0  0  0  0
  146.1623  142.4200  156.2634 N   0  0  0  0  0  0  0  0  0  0  0  0
  147.2694  141.5763  156.3621 C   0  0  0  0  0  0  0  0  0  0  0  0
  147.7111  141.2630  157.4667 O   0  0  0  0  0  0  0  0  0  0  0  0
  152.4413  141.5591  158.4980 N   0  0  0  0  0  0  0  0  0  0  0  0
  153.0204  141.4341  159.8429 C   0  0  0  0  0  0  0  0  0  0  0  0
  154.0033  140.2559  159.9484 C   0  0  0  0  0  0  0  0  0  0  0  0
  153.3464  139.0503  159.5801 O   0  0  0  0  0  0  0  0  0  0  0  0
  152.8296  139.1023  158.2568 C   0  0  0  0  0  0  0  0  0  0  0  0
  151.8371  140.2709  158.1304 C   0  0  0  0  0  0  0  0  0  0  0  0
  145.7482  142.7434  157.1257 H   0  0  0  0  0  0  0  0  0  0  0  0
  151.8426  146.1307  159.3601 H   0  0  0  0  0  0  0  0  0  0  0  0
  150.4633  145.0853  159.6517 H   0  0  0  0  0  0  0  0  0  0  0  0
  150.8895  145.5459  158.0036 H   0  0  0  0  0  0  0  0  0  0  0  0
  153.1068  144.3242  158.2927 H   0  0  0  0  0  0  0  0  0  0  0  0
  152.6399  143.8531  159.8631 H   0  0  0  0  0  0  0  0  0  0  0  0
  149.5719  143.4913  158.8455 H   0  0  0  0  0  0  0  0  0  0  0  0
  150.2880  142.4704  160.0647 H   0  0  0  0  0  0  0  0  0  0  0  0
  149.6213  141.7614  158.5988 H   0  0  0  0  0  0  0  0  0  0  0  0
  151.0712  144.0189  156.5584 H   0  0  0  0  0  0  0  0  0  0  0  0
  152.1901  142.7294  156.1813 H   0  0  0  0  0  0  0  0  0  0  0  0
  149.2778  142.5105  156.3821 H   0  0  0  0  0  0  0  0  0  0  0  0
  149.2218  139.8564  154.1716 H   0  0  0  0  0  0  0  0  0  0  0  0
  148.8854  139.3912  155.8054 H   0  0  0  0  0  0  0  0  0  0  0  0
  147.7555  141.1939  153.0321 H   0  0  0  0  0  0  0  0  0  0  0  0
  145.8483  142.6429  152.8939 H   0  0  0  0  0  0  0  0  0  0  0  0
  153.5659  142.3331  160.1210 H   0  0  0  0  0  0  0  0  0  0  0  0
  152.2320  141.2975  160.5827 H   0  0  0  0  0  0  0  0  0  0  0  0
  154.8718  140.4181  159.3081 H   0  0  0  0  0  0  0  0  0  0  0  0
  154.3722  140.1618  160.9700 H   0  0  0  0  0  0  0  0  0  0  0  0
  153.6473  139.2119  157.5427 H   0  0  0  0  0  0  0  0  0  0  0  0
  152.3334  138.1583  158.0317 H   0  0  0  0  0  0  0  0  0  0  0  0
  150.9712  140.0666  158.7603 H   0  0  0  0  0  0  0  0  0  0  0  0
  151.4862  140.2815  157.1007 H   0  0  0  0  0  0  0  0  0  0  0  0
  1  2  1  0  0  0  0
  1 25  1  0  0  0  0
  1 26  1  0  0  0  0
  1 27  1  0  0  0  0
  2  3  1  0  0  0  0
  2 28  1  0  0  0  0
  2 29  1  0  0  0  0
  3  4  1  0  0  0  0
  3  5  1  0  0  0  0
  3 18  1  0  0  0  0
  4 30  1  0  0  0  0
  4 31  1  0  0  0  0
  4 32  1  0  0  0  0
  5  6  1  0  0  0  0
  5 33  1  0  0  0  0
  5 34  1  0  0  0  0
  6  7  1  0  0  0  0
  6 35  1  0  0  0  0
  7  8  2  0  0  0  0
  7  9  1  0  0  0  0
  9 10  1  0  0  0  0
  9 36  1  0  0  0  0
  9 37  1  0  0  0  0
 10 16  1  0  0  0  0
 10 11  1  0  0  0  0
 11 12  2  0  0  0  0
 11 38  1  0  0  0  0
 12 13  1  0  0  0  0
 12 39  1  0  0  0  0
 13 14  2  0  0  0  0
 13 15  1  0  0  0  0
 15 24  1  0  0  0  0
 15 16  1  0  0  0  0
 16 17  2  0  0  0  0
 18 23  1  0  0  0  0
 18 19  1  0  0  0  0
 19 20  1  0  0  0  0
 19 40  1  0  0  0  0
 19 41  1  0  0  0  0
 20 21  1  0  0  0  0
 20 42  1  0  0  0  0
 20 43  1  0  0  0  0
 21 22  1  0  0  0  0
 22 23  1  0  0  0  0
 22 44  1  0  0  0  0
 22 45  1  0  0  0  0
 23 46  1  0  0  0  0
 23 47  1  0  0  0  0
M  END
> <s_m_source_file>
AV-unprocessed.smi

> <i_m_source_file_index>
1560

> <i_lp_mmshare_version>
43012

> <i_f3d_flags>
0

> <s_epik_input>
W0NIMl0xW0NIMl1PW0NIMl1bQ0gyXU4xW0NAQF0oW0NIM10pKFtDSDJdW0NIM10pW0NIMl1bTkhdQyg9TylbQ0gyXW4yW2NIXVtjSF1jKD1PKVtuSF1jMj1P

> <s_epik_cmdline>
J2VwaWtfcHl0aG9uJywgJy1waCcsICc3LjAnLCAnLXRuJywgJzgnLCAnLW1hJywgJzIwMCcsICctbWV0YWxfYmluZGluZycsICctaW1hZScsICc8aW5maWxlLm1hZT4nLCAnLW9tYWUnLCAnPG91dGZpbGUubWFlPic=

> <r_lp_tautomer_probability>
0.999537

> <r_epik_Ionization_Penalty>
0.321965

> <r_epik_Ionization_Penalty_Charging>
0.00329831

> <r_epik_Ionization_Penalty_Neutral>
0.318667

> <r_epik_State_Penalty>
0.288097

> <r_epik_Charging_Adjusted_Penalty>
0.291396

> <i_epik_Tot_Q>
0

> <i_epik_Tot_abs_Q>
0

> <r_epik_Metal_State_Penalty>
0.654595

> <b_epik_Metal_Only>
0

> <s_lp_Force_Field>
OPLS_2005

> <r_lp_Energy>
42.3402

> <b_lp_Chiralities_Consistent>
1

> <s_lp_Variant>
AV-unprocessed.smi:1560-1

> <Gold.Version>
5.8.1

> <Gold.Id.Protein>
6NUR|6NUR_protein|mol2

> <Gold.PLP.Fitness>
42.4532

> <Gold.PLP.PLP>
-39.6535

> <Gold.PLP.part.hbond>
-2.0531

> <Gold.PLP.part.metal>
0.0000

> <Gold.PLP.part.buried>
-6.1428

> <Gold.PLP.part.nonpolar>
-31.2162

> <Gold.PLP.part.repulsive>
0.4119

> <Gold.PLP.ligand.clash>
0.0000

> <Gold.PLP.ligand.torsion>
1.1289

> <Gold.PLP.Chemscore.Hbond>
0.9968

> <Gold.PLP.Chemscore.CHOScore>
0.6592

> <Gold.PLP.Chemscore.Metal>
0.0000

> <Gold.Chemscore.Hbonds>
donor molecule, donor type, donor heavy atom, donor atom, acceptor molecule, acceptor atom, score
      L1  H     6    35       P1  8028  0.06
      P1  H  7989  7998       L1     8  0.88
      L1  C    11    38       P1  7957  0.18

> <Gold.PLP.Chemscore.Internal.Correction>
0.0893

> <Gold.Rescore>
     Score         DG    S(hbond)    S(metal)    S(lipo)     H(rot)  DE(clash)    DE(int)     intcor
     12.45     -14.41       1.23        0.00      95.49       2.49       0.51       1.45       ----

> <Gold.Chemscore.Fitness>
12.4504

> <Gold.Chemscore.DG>
-14.4100

> <Gold.Chemscore.ZeroCoef>
-5.4800

> <Gold.Chemscore.Hbond>
1.2344

> <Gold.Chemscore.Metal>
0.0000

> <Gold.Chemscore.Lipo>
95.4854

> <Gold.Chemscore.Internal_Hbond>
0.0000

> <Gold.Chemscore.DEClash>
0.5082

> <Gold.Chemscore.DEInternal>
1.4514

> <Gold.Chemscore.Rot>
2.4862

> <Gold.Chemscore.Internal.Correction>
   9.000000E+99

> <Gold.Chemscore.Hbonds>
donor molecule, donor type, donor heavy atom, donor atom, acceptor molecule, acceptor atom, score
      L1  H     6    35       P1  8028  0.07
      P1  H  7989  7998       L1     8  0.22

> <Gold.Chemscore.Hbond.Weighted>
-4.1228

> <Gold.Chemscore.Metal.Weighted>
-0.0000

> <Gold.Chemscore.Lipo.Weighted>
-11.1718

> <Gold.Chemscore.Internal_Hbond.Weighted>
0.0000

> <Gold.Chemscore.DEClash.Weighted>
0.5082

> <Gold.Chemscore.DEInternal.Weighted>
1.4514

> <Gold.Chemscore.Rot.Weighted>
6.3646

> <Gold.Chemscore.Internal.Correction.Weighted>
   9.000000E+99

> <Gold.Protein.RotatedTorsions>
[ 6907 6896 6895 6894 ] final  147.18 input  -60.11 | X-H torsion
[ 7974 7965 7964 7962 ] final  175.51 input  175.53 | X-H torsion
[ 8008 7997 7996 7995 ] final   80.03 input   59.86 | X-H torsion
[ 10167 10162 10161 10158 ] final  135.14 input  -65.29 | X-H torsion
[ 10718 10713 10712 10709 ] final  -61.56 input   66.30 | X-H torsion
[ 10763 10752 10751 10750 ] final   45.97 input  -60.55 | X-H torsion
[ 11005 11000 10999 10996 ] final -135.79 input  -57.11 | X-H torsion

> <Gold.Protein.ActiveResidues>
 VAL166  LYS551  ARG553  GLY616  TRP617  ASP618  TYR619  PRO620  LYS621  CYS622 
 ASP623  PHE694  ASN695  SER759  ASP760  ASP761  ALA762  ILE779  LEU786  VAL792 
 PHE793  MET794  SER795  GLU796  ALA797  LYS798  CYS799  TRP800  GLU811  SER814 

> <Gold.Protein.RotatedAtoms>
  152.1582  133.4564  159.4847 H   0  0  0  0  0  0  0  0  0  0  0  0  # atno 6907 bound_to 6896
  150.6903  134.2105  159.4366 H   0  0  0  0  0  0  0  0  0  0  0  0  # atno 6908 bound_to 6896
  152.0006  134.9930  160.0615 H   0  0  0  0  0  0  0  0  0  0  0  0  # atno 6909 bound_to 6896
  144.7200  139.9958  143.6440 H   0  0  0  0  0  0  0  0  0  0  0  0  # atno 7974 bound_to 7965
  155.8779  140.3445  155.5867 H   0  0  0  0  0  0  0  0  0  0  0  0  # atno 8008 bound_to 7997
  155.7754  140.0851  157.2106 H   0  0  0  0  0  0  0  0  0  0  0  0  # atno 8009 bound_to 7997
  154.4022  140.1510  156.2977 H   0  0  0  0  0  0  0  0  0  0  0  0  # atno 8010 bound_to 7997
  139.5229  144.6532  151.5240 H   0  0  0  0  0  0  0  0  0  0  0  0  # atno 10167 bound_to 10162
  156.0913  130.4199  150.1011 H   0  0  0  0  0  0  0  0  0  0  0  0  # atno 10718 bound_to 10713
  152.9817  135.6023  154.3524 H   0  0  0  0  0  0  0  0  0  0  0  0  # atno 10763 bound_to 10752
  154.3212  135.2769  155.2520 H   0  0  0  0  0  0  0  0  0  0  0  0  # atno 10764 bound_to 10752
  154.4686  135.5947  153.6361 H   0  0  0  0  0  0  0  0  0  0  0  0  # atno 10765 bound_to 10752
  140.8865  134.1865  157.4556 H   0  0  0  0  0  0  0  0  0  0  0  0  # atno 11005 bound_to 11000
  146.0375  139.3391  143.0717 LP  0  0  0  0  0  0  0  0  0  0  0  0  # atno 17320 bound_to 7965
  145.8376  140.9598  143.0816 LP  0  0  0  0  0  0  0  0  0  0  0  0  # atno 17321 bound_to 7965
  140.6346  143.9009  150.6636 LP  0  0  0  0  0  0  0  0  0  0  0  0  # atno 17342 bound_to 10162
  140.2324  143.3725  152.1554 LP  0  0  0  0  0  0  0  0  0  0  0  0  # atno 17343 bound_to 10162
  156.9020  130.9623  151.3575 LP  0  0  0  0  0  0  0  0  0  0  0  0  # atno 17370 bound_to 10713
  157.6063  130.8550  149.8881 LP  0  0  0  0  0  0  0  0  0  0  0  0  # atno 17371 bound_to 10713
  139.8725  134.9840  156.5221 LP  0  0  0  0  0  0  0  0  0  0  0  0  # atno 17394 bound_to 11000
  140.8398  133.8214  155.9064 LP  0  0  0  0  0  0  0  0  0  0  0  0  # atno 17395 bound_to 11000

$$$$
