AV-unprocessed.smi:2441|AV-procd|sdf|9619|dock7
  -GOLD-   2272013253D 1   1.00000     0.00000
 Structure written by MMmdl.
 40 41  0  0  0  0  0  0  0  0  1 V2000
  146.6203  142.9897  154.0160 C   0  0  0  0  0  0  0  0  0  0  0  0
  147.6248  141.8632  153.7150 C   0  0  2  0  0  0  0  0  0  0  0  0
  146.9580  140.7598  152.8681 C   0  0  0  0  0  0  0  0  0  0  0  0
  147.9306  139.6158  152.5450 C   0  0  0  0  0  0  0  0  0  0  0  0
  148.5246  139.0194  153.8279 C   0  0  0  0  0  0  0  0  0  0  0  0
  149.2106  140.1045  154.6697 C   0  0  0  0  0  0  0  0  0  0  0  0
  148.2496  141.2634  155.0004 C   0  0  1  0  0  0  0  0  0  0  0  0
  148.9852  142.2850  155.7449 N   0  0  0  0  0  0  0  0  0  0  0  0
  149.5877  142.1168  156.9311 C   0  0  0  0  0  0  0  0  0  0  0  0
  149.5809  141.0544  157.5521 O   0  0  0  0  0  0  0  0  0  0  0  0
  150.1985  143.2515  157.3193 N   0  0  0  0  0  0  0  0  0  0  0  0
  150.9144  143.5204  158.4990 C   0  0  0  0  0  0  0  0  0  0  0  0
  150.8291  144.6767  159.2037 C   0  0  0  0  0  0  0  0  0  0  0  0
  151.6107  144.8751  160.4000 C   0  0  0  0  0  0  0  0  0  0  0  0
  152.4332  143.8926  160.7920 C   0  0  0  0  0  0  0  0  0  0  0  0
  152.5484  142.6920  160.0735 N   0  0  0  0  0  0  0  0  0  0  0  0
  153.4864  141.7093  160.6233 C   0  0  0  0  0  0  0  0  0  0  0  0
  151.8281  142.4461  158.9368 C   0  0  0  0  0  0  0  0  0  0  0  0
  151.9404  141.3843  158.3198 O   0  0  0  0  0  0  0  0  0  0  0  0
  145.8053  142.6324  154.6458 H   0  0  0  0  0  0  0  0  0  0  0  0
  146.1830  143.3803  153.0969 H   0  0  0  0  0  0  0  0  0  0  0  0
  147.0940  143.8269  154.5288 H   0  0  0  0  0  0  0  0  0  0  0  0
  148.4294  142.2941  153.1170 H   0  0  0  0  0  0  0  0  0  0  0  0
  146.0937  140.3603  153.4005 H   0  0  0  0  0  0  0  0  0  0  0  0
  146.5765  141.1832  151.9384 H   0  0  0  0  0  0  0  0  0  0  0  0
  147.4164  138.8397  151.9778 H   0  0  0  0  0  0  0  0  0  0  0  0
  148.7336  139.9862  151.9065 H   0  0  0  0  0  0  0  0  0  0  0  0
  147.7360  138.5449  154.4132 H   0  0  0  0  0  0  0  0  0  0  0  0
  149.2396  138.2355  153.5773 H   0  0  0  0  0  0  0  0  0  0  0  0
  149.5942  139.6638  155.5908 H   0  0  0  0  0  0  0  0  0  0  0  0
  150.0767  140.4860  154.1267 H   0  0  0  0  0  0  0  0  0  0  0  0
  147.4411  140.8592  155.6128 H   0  0  0  0  0  0  0  0  0  0  0  0
  149.0468  143.1954  155.3133 H   0  0  0  0  0  0  0  0  0  0  0  0
  150.1757  144.0177  156.6620 H   0  0  0  0  0  0  0  0  0  0  0  0
  150.1947  145.4898  158.8903 H   0  0  0  0  0  0  0  0  0  0  0  0
  151.5341  145.7925  160.9651 H   0  0  0  0  0  0  0  0  0  0  0  0
  153.0530  143.9574  161.6751 H   0  0  0  0  0  0  0  0  0  0  0  0
  153.6303  140.8268  159.9992 H   0  0  0  0  0  0  0  0  0  0  0  0
  153.1356  141.3670  161.5976 H   0  0  0  0  0  0  0  0  0  0  0  0
  154.4675  142.1651  160.7622 H   0  0  0  0  0  0  0  0  0  0  0  0
  1  2  1  0  0  0  0
  1 20  1  0  0  0  0
  1 21  1  0  0  0  0
  1 22  1  0  0  0  0
  2  7  1  0  0  0  0
  2  3  1  0  0  0  0
  2 23  1  0  0  0  0
  3  4  1  0  0  0  0
  3 24  1  0  0  0  0
  3 25  1  0  0  0  0
  4  5  1  0  0  0  0
  4 26  1  0  0  0  0
  4 27  1  0  0  0  0
  5  6  1  0  0  0  0
  5 28  1  0  0  0  0
  5 29  1  0  0  0  0
  6  7  1  0  0  0  0
  6 30  1  0  0  0  0
  6 31  1  0  0  0  0
  7  8  1  0  0  0  0
  7 32  1  0  0  0  0
  8  9  1  0  0  0  0
  8 33  1  0  0  0  0
  9 10  2  0  0  0  0
  9 11  1  0  0  0  0
 11 12  1  0  0  0  0
 11 34  1  0  0  0  0
 12 18  1  0  0  0  0
 12 13  2  0  0  0  0
 13 14  1  0  0  0  0
 13 35  1  0  0  0  0
 14 15  2  0  0  0  0
 14 36  1  0  0  0  0
 15 16  1  0  0  0  0
 15 37  1  0  0  0  0
 16 17  1  0  0  0  0
 16 18  1  0  0  0  0
 17 38  1  0  0  0  0
 17 39  1  0  0  0  0
 17 40  1  0  0  0  0
 18 19  2  0  0  0  0
M  END
> <s_m_source_file>
AV-unprocessed.smi

> <i_m_source_file_index>
2441

> <i_lp_mmshare_version>
43012

> <i_f3d_flags>
0

> <s_epik_input>
W0NIM11bQ0BASF0xW0NIMl1bQ0gyXVtDSDJdW0NIMl1bQ0BIXTFbTkhdQyg9TylbTkhdYzJbY0hdW2NIXVtjSF1uKFtDSDNdKWMyPU8=

> <s_epik_cmdline>
J2VwaWtfcHl0aG9uJywgJy1waCcsICc3LjAnLCAnLXRuJywgJzgnLCAnLW1hJywgJzIwMCcsICctbWV0YWxfYmluZGluZycsICctaW1hZScsICc8aW5maWxlLm1hZT4nLCAnLW9tYWUnLCAnPG91dGZpbGUubWFlPic=

> <r_lp_tautomer_probability>
1

> <r_epik_Ionization_Penalty>
2.64999e-05

> <r_epik_Ionization_Penalty_Charging>
5.09663e-06

> <r_epik_Ionization_Penalty_Neutral>
2.14032e-05

> <r_epik_State_Penalty>
-0

> <r_epik_Charging_Adjusted_Penalty>
5.09663e-06

> <i_epik_Tot_Q>
0

> <i_epik_Tot_abs_Q>
0

> <r_epik_Metal_State_Penalty>
-0

> <b_epik_Metal_Only>
0

> <s_lp_Force_Field>
OPLS_2005

> <r_lp_Energy>
23.8871

> <b_lp_Chiralities_Consistent>
1

> <s_lp_Variant>
AV-unprocessed.smi:2441-1

> <Gold.Version>
5.8.1

> <Gold.Id.Protein>
6NUR|6NUR_protein|mol2

> <Gold.PLP.Fitness>
43.6240

> <Gold.PLP.PLP>
-39.2549

> <Gold.PLP.part.hbond>
-2.0000

> <Gold.PLP.part.metal>
0.0000

> <Gold.PLP.part.buried>
-1.9054

> <Gold.PLP.part.nonpolar>
-37.2816

> <Gold.PLP.part.repulsive>
0.1418

> <Gold.PLP.ligand.clash>
0.0000

> <Gold.PLP.ligand.torsion>
0.3374

> <Gold.PLP.Chemscore.Hbond>
1.6800

> <Gold.PLP.Chemscore.CHOScore>
0.0000

> <Gold.PLP.Chemscore.Metal>
0.0000

> <Gold.Chemscore.Hbonds>
donor molecule, donor type, donor heavy atom, donor atom, acceptor molecule, acceptor atom, score
      L1  H     8    33       P1  8028  0.83
      L1  H    11    34       P1  8028  0.69

> <Gold.PLP.Chemscore.Internal.Correction>
0.0040

> <Gold.Rescore>
     Score         DG    S(hbond)    S(metal)    S(lipo)     H(rot)  DE(clash)    DE(int)     intcor
     15.39     -19.88       1.87        0.00      91.65       1.00       1.27       3.23       ----

> <Gold.Chemscore.Fitness>
15.3906

> <Gold.Chemscore.DG>
-19.8849

> <Gold.Chemscore.ZeroCoef>
-5.4800

> <Gold.Chemscore.Hbond>
1.8687

> <Gold.Chemscore.Metal>
0.0000

> <Gold.Chemscore.Lipo>
91.6546

> <Gold.Chemscore.Internal_Hbond>
0.0000

> <Gold.Chemscore.DEClash>
1.2676

> <Gold.Chemscore.DEInternal>
3.2267

> <Gold.Chemscore.Rot>
1.0000

> <Gold.Chemscore.Internal.Correction>
   9.000000E+99

> <Gold.Chemscore.Hbonds>
donor molecule, donor type, donor heavy atom, donor atom, acceptor molecule, acceptor atom, score
      L1  H     8    33       P1  8028  0.80
      L1  H    11    34       P1  8028  0.68

> <Gold.Chemscore.Hbond.Weighted>
-6.2413

> <Gold.Chemscore.Metal.Weighted>
-0.0000

> <Gold.Chemscore.Lipo.Weighted>
-10.7236

> <Gold.Chemscore.Internal_Hbond.Weighted>
0.0000

> <Gold.Chemscore.DEClash.Weighted>
1.2676

> <Gold.Chemscore.DEInternal.Weighted>
3.2267

> <Gold.Chemscore.Rot.Weighted>
2.5600

> <Gold.Chemscore.Internal.Correction.Weighted>
   9.000000E+99

> <Gold.Protein.RotatedTorsions>
[ 6907 6896 6895 6894 ] final  113.65 input  -60.11 | X-H torsion
[ 7974 7965 7964 7962 ] final  -12.17 input  175.53 | X-H torsion
[ 8008 7997 7996 7995 ] final   88.01 input   59.86 | X-H torsion
[ 10167 10162 10161 10158 ] final   -4.46 input  -65.29 | X-H torsion
[ 10718 10713 10712 10709 ] final   16.14 input   66.30 | X-H torsion
[ 10763 10752 10751 10750 ] final   61.18 input  -60.55 | X-H torsion
[ 11005 11000 10999 10996 ] final  -61.43 input  -57.11 | X-H torsion

> <Gold.Protein.ActiveResidues>
 VAL166  LYS551  ARG553  GLY616  TRP617  ASP618  TYR619  PRO620  LYS621  CYS622 
 ASP623  PHE694  ASN695  SER759  ASP760  ASP761  ALA762  ILE779  LEU786  VAL792 
 PHE793  MET794  SER795  GLU796  ALA797  LYS798  CYS799  TRP800  GLU811  SER814 

> <Gold.Protein.RotatedAtoms>
  152.4849  133.8346  159.7120 H   0  0  0  0  0  0  0  0  0  0  0  0  # atno 6907 bound_to 6896
  150.8927  133.7213  159.2907 H   0  0  0  0  0  0  0  0  0  0  0  0  # atno 6908 bound_to 6896
  151.4680  135.1047  159.9796 H   0  0  0  0  0  0  0  0  0  0  0  0  # atno 6909 bound_to 6896
  146.2161  140.3018  142.8376 H   0  0  0  0  0  0  0  0  0  0  0  0  # atno 7974 bound_to 7965
  155.9825  140.3376  155.6676 H   0  0  0  0  0  0  0  0  0  0  0  0  # atno 8008 bound_to 7997
  155.6530  140.0707  157.2598 H   0  0  0  0  0  0  0  0  0  0  0  0  # atno 8009 bound_to 7997
  154.4196  140.1722  156.1682 H   0  0  0  0  0  0  0  0  0  0  0  0  # atno 8010 bound_to 7997
  140.6928  143.6421  150.8426 H   0  0  0  0  0  0  0  0  0  0  0  0  # atno 10167 bound_to 10162
  157.0636  130.6319  149.5791 H   0  0  0  0  0  0  0  0  0  0  0  0  # atno 10718 bound_to 10713
  152.9943  135.5510  154.5993 H   0  0  0  0  0  0  0  0  0  0  0  0  # atno 10763 bound_to 10752
  154.5338  135.2815  155.1159 H   0  0  0  0  0  0  0  0  0  0  0  0  # atno 10764 bound_to 10752
  154.2463  135.6407  153.5277 H   0  0  0  0  0  0  0  0  0  0  0  0  # atno 10765 bound_to 10752
  141.1324  133.6630  156.5373 H   0  0  0  0  0  0  0  0  0  0  0  0  # atno 11005 bound_to 11000
  144.9051  140.7690  143.5842 LP  0  0  0  0  0  0  0  0  0  0  0  0  # atno 17320 bound_to 7965
  145.2946  139.1871  143.4722 LP  0  0  0  0  0  0  0  0  0  0  0  0  # atno 17321 bound_to 7965
  140.0136  143.5616  152.2829 LP  0  0  0  0  0  0  0  0  0  0  0  0  # atno 17342 bound_to 10162
  139.6349  144.7649  151.2458 LP  0  0  0  0  0  0  0  0  0  0  0  0  # atno 17343 bound_to 10162
  155.9971  130.5042  150.7521 LP  0  0  0  0  0  0  0  0  0  0  0  0  # atno 17370 bound_to 10713
  157.4934  131.0913  151.0399 LP  0  0  0  0  0  0  0  0  0  0  0  0  # atno 17371 bound_to 10713
  140.4167  134.7223  157.4867 LP  0  0  0  0  0  0  0  0  0  0  0  0  # atno 17394 bound_to 11000
  140.0388  134.6297  155.9007 LP  0  0  0  0  0  0  0  0  0  0  0  0  # atno 17395 bound_to 11000

$$$$
