AV-unprocessed.smi:683|AV-procd|sdf|3331|dock9
  -GOLD-   22720 0303D 1   1.00000     0.00000
 Structure written by MMmdl.
 29 30  0  0  0  0  0  0  0  0  2 V2000
  147.4257  131.5236  159.7235 N   0  0  0  0  0  0  0  0  0  0  0  0
  147.4293  132.5400  160.2764 C   0  0  0  0  0  0  0  0  0  0  0  0
  147.4339  133.8167  160.9710 C   0  0  0  0  0  0  0  0  0  0  0  0
  146.9381  133.9049  162.2868 C   0  0  0  0  0  0  0  0  0  0  0  0
  146.9442  135.1425  162.9564 C   0  0  0  0  0  0  0  0  0  0  0  0
  147.4461  136.2894  162.3126 C   0  0  0  0  0  0  0  0  0  0  0  0
  147.9470  136.2179  160.9966 C   0  0  0  0  0  0  0  0  0  0  0  0
  148.4203  137.3886  160.4437 O   0  0  0  0  0  0  0  0  0  0  0  0
  148.9565  137.3408  159.1287 C   0  0  0  0  0  0  0  0  0  0  0  0
  150.4283  136.9121  159.2110 C   0  0  0  0  0  0  0  0  0  0  0  0
  151.1928  137.4058  158.0583 N   0  0  0  0  0  0  0  0  0  0  0  0
  151.1820  138.7894  157.8141 C   0  0  0  0  0  0  0  0  0  0  0  0
  151.8446  139.3375  156.7773 C   0  0  0  0  0  0  0  0  0  0  0  0
  151.8125  141.0427  156.5012 Cl  0  0  0  0  0  0  0  0  0  0  0  0
  152.5891  138.4455  155.8903 C   0  0  0  0  0  0  0  0  0  0  0  0
  153.2086  138.9132  154.9360 O   0  0  0  0  0  0  0  0  0  0  0  0
  152.5608  137.1087  156.1664 N   0  5  0  0  0  0  0  0  0  0  0  0
  151.8786  136.5699  157.2236 C   0  0  0  0  0  0  0  0  0  0  0  0
  151.8593  135.3592  157.4464 O   0  0  0  0  0  0  0  0  0  0  0  0
  147.9359  134.9672  160.3277 C   0  0  0  0  0  0  0  0  0  0  0  0
  146.5525  133.0284  162.7879 H   0  0  0  0  0  0  0  0  0  0  0  0
  146.5644  135.2121  163.9649 H   0  0  0  0  0  0  0  0  0  0  0  0
  147.4480  137.2350  162.8351 H   0  0  0  0  0  0  0  0  0  0  0  0
  148.3958  136.6291  158.5207 H   0  0  0  0  0  0  0  0  0  0  0  0
  148.8849  138.3230  158.6585 H   0  0  0  0  0  0  0  0  0  0  0  0
  150.8649  137.2848  160.1389 H   0  0  0  0  0  0  0  0  0  0  0  0
  150.4982  135.8252  159.2795 H   0  0  0  0  0  0  0  0  0  0  0  0
  150.6025  139.3732  158.5143 H   0  0  0  0  0  0  0  0  0  0  0  0
  148.3098  134.8707  159.3189 H   0  0  0  0  0  0  0  0  0  0  0  0
  1  2  3  0  0  0  0
  2  3  1  0  0  0  0
  3 20  1  0  0  0  0
  3  4  2  0  0  0  0
  4  5  1  0  0  0  0
  4 21  1  0  0  0  0
  5  6  2  0  0  0  0
  5 22  1  0  0  0  0
  6  7  1  0  0  0  0
  6 23  1  0  0  0  0
  7  8  1  0  0  0  0
  7 20  2  0  0  0  0
  8  9  1  0  0  0  0
  9 10  1  0  0  0  0
  9 24  1  0  0  0  0
  9 25  1  0  0  0  0
 10 11  1  0  0  0  0
 10 26  1  0  0  0  0
 10 27  1  0  0  0  0
 11 18  1  0  0  0  0
 11 12  1  0  0  0  0
 12 13  2  0  0  0  0
 12 28  1  0  0  0  0
 13 14  1  0  0  0  0
 13 15  1  0  0  0  0
 15 16  2  0  0  0  0
 15 17  1  0  0  0  0
 17 18  1  0  0  0  0
 18 19  2  0  0  0  0
 20 29  1  0  0  0  0
M  CHG  1  17  -1
M  END
> <s_m_source_file>
AV-unprocessed.smi

> <i_m_source_file_index>
683

> <i_lp_mmshare_version>
43012

> <i_f3d_flags>
0

> <s_epik_input>
TiNDYzFbY0hdW2NIXVtjSF1jKFtjSF0xKU9bQ0gyXVtDSDJdbjJbY0hdYyhDbCljKD1PKVtuSF1jMj1P

> <s_epik_cmdline>
J2VwaWtfcHl0aG9uJywgJy1waCcsICc3LjAnLCAnLXRuJywgJzgnLCAnLW1hJywgJzIwMCcsICctbWV0YWxfYmluZGluZycsICctaW1hZScsICc8aW5maWxlLm1hZT4nLCAnLW9tYWUnLCAnPG91dGZpbGUubWFlPic=

> <r_epik_Ionization_Penalty>
1.49102

> <r_epik_Ionization_Penalty_Charging>
6.47896e-09

> <r_epik_Ionization_Penalty_Neutral>
1.49102

> <r_epik_State_Penalty>
1.58045

> <r_epik_Charging_Adjusted_Penalty>
1.58045

> <i_epik_Tot_Q>
-1

> <i_epik_Tot_abs_Q>
1

> <r_epik_Metal_State_Penalty>
0.00788874

> <b_epik_Metal_Only>
0

> <s_lp_Force_Field>
OPLS_2005

> <r_lp_Energy>
20.1006

> <b_lp_Chiralities_Consistent>
1

> <s_lp_Variant>
AV-unprocessed.smi:683-2

> <Gold.Version>
5.8.1

> <Gold.Id.Protein>
6NUR|6NUR_protein|mol2

> <Gold.PLP.Fitness>
44.6947

> <Gold.PLP.PLP>
-34.3417

> <Gold.PLP.part.hbond>
-5.0000

> <Gold.PLP.part.metal>
0.0000

> <Gold.PLP.part.buried>
-3.5082

> <Gold.PLP.part.nonpolar>
-26.9275

> <Gold.PLP.part.repulsive>
0.0000

> <Gold.PLP.ligand.clash>
0.0000

> <Gold.PLP.ligand.torsion>
0.2914

> <Gold.PLP.Chemscore.Hbond>
3.6392

> <Gold.PLP.Chemscore.CHOScore>
0.0000

> <Gold.PLP.Chemscore.Metal>
0.0000

> <Gold.Chemscore.Hbonds>
donor molecule, donor type, donor heavy atom, donor atom, acceptor molecule, acceptor atom, score
      P1  H  6931  6943       L1     8  0.62
      P1  H  6934  6947       L1     8  0.43
      P1  H  7997  8008       L1    16  1.00
      P1  H 10752 10765       L1    17  1.48

> <Gold.PLP.Chemscore.Internal.Correction>
0.0185

> <Gold.Rescore>
     Score         DG    S(hbond)    S(metal)    S(lipo)     H(rot)  DE(clash)    DE(int)     intcor
     15.00     -15.31       2.00        0.00      70.07       1.97       0.05       0.26       ----

> <Gold.Chemscore.Fitness>
14.9998

> <Gold.Chemscore.DG>
-15.3103

> <Gold.Chemscore.ZeroCoef>
-5.4800

> <Gold.Chemscore.Hbond>
2.0000

> <Gold.Chemscore.Metal>
0.0000

> <Gold.Chemscore.Lipo>
70.0673

> <Gold.Chemscore.Internal_Hbond>
0.0000

> <Gold.Chemscore.DEClash>
0.0525

> <Gold.Chemscore.DEInternal>
0.2581

> <Gold.Chemscore.Rot>
1.9717

> <Gold.Chemscore.Internal.Correction>
   9.000000E+99

> <Gold.Chemscore.Hbonds>
donor molecule, donor type, donor heavy atom, donor atom, acceptor molecule, acceptor atom, score
      P1  H  6931  6943       L1     8  0.25
      P1  H  6934  6947       L1     8  0.33
      P1  H  7997  8008       L1    16  0.32
      P1  H 10752 10765       L1    17  0.32

> <Gold.Chemscore.Hbond.Weighted>
-6.6799

> <Gold.Chemscore.Metal.Weighted>
-0.0000

> <Gold.Chemscore.Lipo.Weighted>
-8.1979

> <Gold.Chemscore.Internal_Hbond.Weighted>
0.0000

> <Gold.Chemscore.DEClash.Weighted>
0.0525

> <Gold.Chemscore.DEInternal.Weighted>
0.2581

> <Gold.Chemscore.Rot.Weighted>
5.0475

> <Gold.Chemscore.Internal.Correction.Weighted>
   9.000000E+99

> <Gold.Protein.RotatedTorsions>
[ 6907 6896 6895 6894 ] final -109.65 input  -60.11 | X-H torsion
[ 7974 7965 7964 7962 ] final   18.72 input  175.53 | X-H torsion
[ 8008 7997 7996 7995 ] final  -12.27 input   59.86 | X-H torsion
[ 10167 10162 10161 10158 ] final -118.32 input  -65.29 | X-H torsion
[ 10718 10713 10712 10709 ] final -144.65 input   66.30 | X-H torsion
[ 10763 10752 10751 10750 ] final -135.84 input  -60.55 | X-H torsion
[ 11005 11000 10999 10996 ] final  -46.54 input  -57.11 | X-H torsion

> <Gold.Protein.ActiveResidues>
 VAL166  LYS551  ARG553  GLY616  TRP617  ASP618  TYR619  PRO620  LYS621  CYS622 
 ASP623  PHE694  ASN695  SER759  ASP760  ASP761  ALA762  ILE779  LEU786  VAL792 
 PHE793  MET794  SER795  GLU796  ALA797  LYS798  CYS799  TRP800  GLU811  SER814 

> <Gold.Protein.RotatedAtoms>
  150.7575  133.9498  159.3481 H   0  0  0  0  0  0  0  0  0  0  0  0  # atno 6907 bound_to 6896
  151.7414  135.0851  160.0325 H   0  0  0  0  0  0  0  0  0  0  0  0  # atno 6908 bound_to 6896
  152.3526  133.6160  159.5992 H   0  0  0  0  0  0  0  0  0  0  0  0  # atno 6909 bound_to 6896
  146.2175  139.8416  142.8640 H   0  0  0  0  0  0  0  0  0  0  0  0  # atno 7974 bound_to 7965
  154.5392  140.2280  155.8670 H   0  0  0  0  0  0  0  0  0  0  0  0  # atno 8008 bound_to 7997
  156.1842  140.3093  155.9168 H   0  0  0  0  0  0  0  0  0  0  0  0  # atno 8009 bound_to 7997
  155.3292  140.0444  157.3032 H   0  0  0  0  0  0  0  0  0  0  0  0  # atno 8010 bound_to 7997
  140.0587  143.4989  152.2043 H   0  0  0  0  0  0  0  0  0  0  0  0  # atno 10167 bound_to 10162
  156.3728  130.7796  151.1979 H   0  0  0  0  0  0  0  0  0  0  0  0  # atno 10718 bound_to 10713
  154.8695  135.3691  154.4964 H   0  0  0  0  0  0  0  0  0  0  0  0  # atno 10763 bound_to 10752
  153.5608  135.7023  153.5553 H   0  0  0  0  0  0  0  0  0  0  0  0  # atno 10764 bound_to 10752
  153.3630  135.4041  155.1696 H   0  0  0  0  0  0  0  0  0  0  0  0  # atno 10765 bound_to 10752
  141.0585  133.6717  156.3170 H   0  0  0  0  0  0  0  0  0  0  0  0  # atno 11005 bound_to 11000
  145.2893  141.0162  143.3672 LP  0  0  0  0  0  0  0  0  0  0  0  0  # atno 17320 bound_to 7965
  144.9089  139.4553  143.6596 LP  0  0  0  0  0  0  0  0  0  0  0  0  # atno 17321 bound_to 7965
  139.5907  144.7549  151.3408 LP  0  0  0  0  0  0  0  0  0  0  0  0  # atno 17342 bound_to 10162
  140.7182  143.7208  150.7697 LP  0  0  0  0  0  0  0  0  0  0  0  0  # atno 17343 bound_to 10162
  157.7485  131.0367  150.4422 LP  0  0  0  0  0  0  0  0  0  0  0  0  # atno 17370 bound_to 10713
  156.4652  130.4040  149.6551 LP  0  0  0  0  0  0  0  0  0  0  0  0  # atno 17371 bound_to 10713
  140.5916  134.5645  157.5500 LP  0  0  0  0  0  0  0  0  0  0  0  0  # atno 17394 bound_to 11000
  139.9411  134.7785  156.0675 LP  0  0  0  0  0  0  0  0  0  0  0  0  # atno 17395 bound_to 11000

$$$$
