#       Name:                AV-unprocessed.smi:2527
#       Creating user name   scv26
#       Creation time:       Fri Mar 27 13:58:51 2020


#       File generated by GOLD software.
#

@<TRIPOS>MOLECULE
AV-unprocessed.smi:2527
    42    44     1
SMALL
NO_CHARGES


@<TRIPOS>ATOM
      1 ****        -2.1249   3.4930   1.6106 C.3            1 S1                 0.0000
      2 ****        -1.7471   2.1482   1.8442 O.3            1 S1                 0.0000
      3 ****        -2.4396   1.2343   1.0092 C.3            1 S1                 0.0000
      4 ****        -1.9736  -0.1987   1.3036 C.3            1 S1                 0.0000
      5 ****        -0.5354  -0.3806   1.0573 N.pl3          1 S1                 0.0000
      6 ****         0.1229  -0.7375  -0.0807 C.2            1 S1                 0.0000
      7 ****        -0.6141  -1.0930  -1.6431 S.3            1 S1                 0.0000
      8 ****         0.7614  -1.5033  -2.7510 C.3            1 S1                 0.0000
      9 ****         0.3328  -1.9117  -4.1431 C.2            1 S1                 0.0000
     10 ****         0.6007  -1.0602  -5.1757 N.am           1 S1                 0.0000
     11 ****         0.1353  -1.6442  -6.2753 C.2            1 S1                 0.0000
     12 ****         0.2227  -1.1251  -7.3861 O.2            1 S1                 0.0000
     13 ****        -0.4114  -2.8380  -5.9372 N.pl3          1 S1                -1.0000
     14 ****        -0.2627  -2.9829  -4.5194 N.2            1 S1                 0.0000
     15 ****         1.4542  -0.7688   0.2044 N.pl3          1 S1                 1.0000
     16 ****         1.6528  -0.4205   1.5416 C.ar           1 S1                 0.0000
     17 ****         2.8207  -0.3083   2.2896 C.ar           1 S1                 0.0000
     18 ****         2.6763   0.0769   3.6390 C.ar           1 S1                 0.0000
     19 ****         4.0811   0.2383   4.6269 Cl             1 S1                 0.0000
     20 ****         1.4056   0.3338   4.1944 C.ar           1 S1                 0.0000
     21 ****         0.2278   0.2142   3.4280 C.ar           1 S1                 0.0000
     22 ****         0.3798  -0.1679   2.0954 C.ar           1 S1                 0.0000
     23 ****         1.0616  -0.1652  -5.1075 H              1 S1                 0.0000
     24 ****        -1.5750   4.1492   2.2851 H              1 S1                 0.0000
     25 ****        -3.1903   3.6418   1.7912 H              1 S1                 0.0000
     26 ****        -1.8969   3.7938   0.5873 H              1 S1                 0.0000
     27 ****        -3.5140   1.3137   1.1810 H              1 S1                 0.0000
     28 ****        -2.2583   1.4753  -0.0396 H              1 S1                 0.0000
     29 ****        -2.2010  -0.4823   2.3312 H              1 S1                 0.0000
     30 ****        -2.5108  -0.9023   0.6670 H              1 S1                 0.0000
     31 ****         1.4272  -0.6413  -2.8080 H              1 S1                 0.0000
     32 ****         1.3366  -2.3179  -2.3105 H              1 S1                 0.0000
     33 ****         3.7946  -0.5026   1.8648 H              1 S1                 0.0000
     34 ****         1.3307   0.6305   5.2306 H              1 S1                 0.0000
     35 ****        -0.7386   0.4196   3.8642 H              1 S1                 0.0000
     36 ****         2.1703  -1.0095  -0.4687 H              1 S1                 0.0000
     37 ****        -1.9427   1.9217   2.7984 LP             1 S1                 0.0000
     38 ****        -0.7659   2.0570   1.6743 LP             1 S1                 0.0000
     39 ****         0.6569  -0.2300  -7.4869 LP             1 S1                 0.0000
     40 ****        -0.1405  -1.5980  -8.1890 LP             1 S1                 0.0000
     41 ****        -0.8381  -3.4939  -6.5600 LP             1 S1                 0.0000
     42 ****        -0.5581  -3.7498  -3.9496 LP             1 S1                 0.0000
@<TRIPOS>BOND
    1    1    2 1     
    2    1   24 1     
    3    1   25 1     
    4    1   26 1     
    5    2    3 1     
    6    3    4 1     
    7    3   27 1     
    8    3   28 1     
    9    4    5 1     
   10    4   29 1     
   11    4   30 1     
   12    5   22 1     
   13    5    6 1     
   14    6    7 1     
   15    6   15 2     
   16    7    8 1     
   17    8   31 1     
   18    8   32 1     
   19    8    9 1     
   20    9   14 2     
   21    9   10 1     
   22   10   11 am    
   23   10   23 1     
   24   11   13 1     
   25   11   12 2     
   26   13   14 1     
   27   15   16 1     
   28   15   36 1     
   29   16   22 ar    
   30   16   17 ar    
   31   17   18 ar    
   32   17   33 1     
   33   18   19 1     
   34   18   20 ar    
   35   20   21 ar    
   36   20   34 1     
   37   21   22 ar    
   38   21   35 1     
   39    2   37 1     
   40    2   38 1     
   41   12   39 1     
   42   12   40 1     
   43   13   41 1     
   44   14   42 1     
@<TRIPOS>SUBSTRUCTURE
      1 S1             1
@<TRIPOS>SET
LONE_PAIRS      STATIC     ATOMS    <user>   **** ""
6 37 38 39 40 41 42
DONOR_HYDROGENS      STATIC     ATOMS    <user>   **** ""
2 23 36
ATOM$BLUE        STATIC     ATOMS    COLORGROUP SYSTEM
6 37 38 39 40 41 42
ATOM$RED        STATIC     ATOMS    COLORGROUP SYSTEM
2 23 36
