AV-unprocessed.smi:2841|AV-procd|sdf|10935|dock2
  -GOLD-   2272015383D 1   1.00000     0.00000
 Structure written by MMmdl.
 46 48  0  0  0  0  0  0  0  0  1 V2000
  147.9600  135.8101  155.9874 O   0  0  0  0  0  0  0  0  0  0  0  0
  148.3160  135.9150  154.8142 C   0  0  0  0  0  0  0  0  0  0  0  0
  148.0429  135.0032  153.8711 N   0  0  0  0  0  0  0  0  0  0  0  0
  147.2851  133.7717  154.0830 C   0  0  0  0  0  0  0  0  0  0  0  0
  147.3146  132.7994  152.8721 C   0  0  0  0  0  0  0  0  0  0  0  0
  148.6569  132.3719  152.7304 O   0  0  0  0  0  0  0  0  0  0  0  0
  146.4300  131.5433  153.0933 C   0  0  0  0  0  0  0  0  0  0  0  0
  146.0458  130.7508  151.8304 C   0  0  0  0  0  0  0  0  0  0  0  0
  144.7714  131.2848  151.1526 C   0  0  0  0  0  0  0  0  0  0  0  0
  144.9503  132.6075  150.3927 C   0  0  0  0  0  0  0  0  0  0  0  0
  145.5185  133.7626  151.2351 C   0  0  0  0  0  0  0  0  0  0  0  0
  147.0099  133.5772  151.5666 C   0  0  0  0  0  0  0  0  0  0  0  0
  149.0382  136.9299  154.3108 N   0  0  0  0  0  0  0  0  0  0  0  0
  149.5187  138.0839  154.9846 C   0  0  0  0  0  0  0  0  0  0  0  0
  149.2774  138.3896  156.3468 C   0  0  0  0  0  0  0  0  0  0  0  0
  149.7543  139.5185  156.9151 N   0  0  0  0  0  0  0  0  0  0  0  0
  150.4714  140.3336  156.1364 C   0  0  0  0  0  0  0  0  0  0  0  0
  150.9686  141.5991  156.7636 C   0  0  0  0  0  0  0  0  0  0  0  0
  151.9101  141.5567  157.9500 C   0  0  0  0  0  0  0  0  0  0  0  0
  150.4940  142.0251  158.1380 C   0  0  0  0  0  0  0  0  0  0  0  0
  150.7407  140.1619  154.8392 N   0  0  0  0  0  0  0  0  0  0  0  0
  150.2656  139.0376  154.2620 C   0  0  0  0  0  0  0  0  0  0  0  0
  148.3794  135.1724  152.9348 H   0  0  0  0  0  0  0  0  0  0  0  0
  147.7487  133.2855  154.9415 H   0  0  0  0  0  0  0  0  0  0  0  0
  146.2603  133.9908  154.3905 H   0  0  0  0  0  0  0  0  0  0  0  0
  148.7071  131.7767  151.9984 H   0  0  0  0  0  0  0  0  0  0  0  0
  146.9408  130.8690  153.7828 H   0  0  0  0  0  0  0  0  0  0  0  0
  145.5134  131.8294  153.6106 H   0  0  0  0  0  0  0  0  0  0  0  0
  146.8771  130.6981  151.1265 H   0  0  0  0  0  0  0  0  0  0  0  0
  145.8487  129.7213  152.1310 H   0  0  0  0  0  0  0  0  0  0  0  0
  144.4129  130.5350  150.4465 H   0  0  0  0  0  0  0  0  0  0  0  0
  143.9782  131.3922  151.8930 H   0  0  0  0  0  0  0  0  0  0  0  0
  145.5831  132.4444  149.5195 H   0  0  0  0  0  0  0  0  0  0  0  0
  143.9791  132.9082  149.9984 H   0  0  0  0  0  0  0  0  0  0  0  0
  145.4153  134.6774  150.6506 H   0  0  0  0  0  0  0  0  0  0  0  0
  144.9265  133.9188  152.1372 H   0  0  0  0  0  0  0  0  0  0  0  0
  147.4802  134.5599  151.6282 H   0  0  0  0  0  0  0  0  0  0  0  0
  147.4936  133.0966  150.7142 H   0  0  0  0  0  0  0  0  0  0  0  0
  149.3244  136.8381  153.3469 H   0  0  0  0  0  0  0  0  0  0  0  0
  148.6878  137.7568  156.9915 H   0  0  0  0  0  0  0  0  0  0  0  0
  151.1273  142.3750  156.0172 H   0  0  0  0  0  0  0  0  0  0  0  0
  152.1717  140.5819  158.3572 H   0  0  0  0  0  0  0  0  0  0  0  0
  152.6984  142.3055  157.9900 H   0  0  0  0  0  0  0  0  0  0  0  0
  150.3336  143.0883  158.3053 H   0  0  0  0  0  0  0  0  0  0  0  0
  149.8143  141.3620  158.6696 H   0  0  0  0  0  0  0  0  0  0  0  0
  150.4871  138.8985  153.2139 H   0  0  0  0  0  0  0  0  0  0  0  0
  1  2  2  0  0  0  0
  2  3  1  0  0  0  0
  2 13  1  0  0  0  0
  3  4  1  0  0  0  0
  3 23  1  0  0  0  0
  4  5  1  0  0  0  0
  4 24  1  0  0  0  0
  4 25  1  0  0  0  0
  5 12  1  0  0  0  0
  5  6  1  0  0  0  0
  5  7  1  0  0  0  0
  6 26  1  0  0  0  0
  7  8  1  0  0  0  0
  7 27  1  0  0  0  0
  7 28  1  0  0  0  0
  8  9  1  0  0  0  0
  8 29  1  0  0  0  0
  8 30  1  0  0  0  0
  9 10  1  0  0  0  0
  9 31  1  0  0  0  0
  9 32  1  0  0  0  0
 10 11  1  0  0  0  0
 10 33  1  0  0  0  0
 10 34  1  0  0  0  0
 11 12  1  0  0  0  0
 11 35  1  0  0  0  0
 11 36  1  0  0  0  0
 12 37  1  0  0  0  0
 12 38  1  0  0  0  0
 13 14  1  0  0  0  0
 13 39  1  0  0  0  0
 14 22  1  0  0  0  0
 14 15  2  0  0  0  0
 15 16  1  0  0  0  0
 15 40  1  0  0  0  0
 16 17  2  0  0  0  0
 17 18  1  0  0  0  0
 17 21  1  0  0  0  0
 18 20  1  0  0  0  0
 18 19  1  0  0  0  0
 18 41  1  0  0  0  0
 19 20  1  0  0  0  0
 19 42  1  0  0  0  0
 19 43  1  0  0  0  0
 20 44  1  0  0  0  0
 20 45  1  0  0  0  0
 21 22  2  0  0  0  0
 22 46  1  0  0  0  0
M  END
> <s_m_source_file>
AV-unprocessed.smi

> <i_m_source_file_index>
2841

> <i_lp_mmshare_version>
43012

> <i_f3d_flags>
0

> <s_epik_input>
W0NIMl0xW0NIMl1bQ0hdMWMobltjSF0yKW5bY0hdYzJbTkhdQyg9TylbTkhdW0NIMl1DMyhbT0hdKVtDSDJdW0NIMl1bQ0gyXVtDSDJdW0NIMl1bQ0gyXTM=

> <s_epik_cmdline>
J2VwaWtfcHl0aG9uJywgJy1waCcsICc3LjAnLCAnLXRuJywgJzgnLCAnLW1hJywgJzIwMCcsICctbWV0YWxfYmluZGluZycsICctaW1hZScsICc8aW5maWxlLm1hZT4nLCAnLW9tYWUnLCAnPG91dGZpbGUubWFlPic=

> <r_lp_tautomer_probability>
1

> <r_epik_Ionization_Penalty>
2.96041e-05

> <r_epik_Ionization_Penalty_Charging>
0

> <r_epik_Ionization_Penalty_Neutral>
2.96041e-05

> <r_epik_State_Penalty>
-0

> <r_epik_Charging_Adjusted_Penalty>
0

> <i_epik_Tot_Q>
0

> <i_epik_Tot_abs_Q>
0

> <r_epik_Metal_State_Penalty>
-0

> <b_epik_Metal_Only>
0

> <s_lp_Force_Field>
OPLS_2005

> <r_lp_Energy>
18.825

> <b_lp_Chiralities_Consistent>
1

> <s_lp_Variant>
AV-unprocessed.smi:2841-1

> <Gold.Version>
5.8.1

> <Gold.Id.Protein>
6NUR|6NUR_protein|mol2

> <Gold.PLP.Fitness>
48.1915

> <Gold.PLP.PLP>
-33.4510

> <Gold.PLP.part.hbond>
-4.0000

> <Gold.PLP.part.metal>
0.0000

> <Gold.PLP.part.buried>
-5.0847

> <Gold.PLP.part.nonpolar>
-24.3248

> <Gold.PLP.part.repulsive>
0.0987

> <Gold.PLP.ligand.clash>
0.0000

> <Gold.PLP.ligand.torsion>
0.1972

> <Gold.PLP.Chemscore.Hbond>
3.9920

> <Gold.PLP.Chemscore.CHOScore>
1.0000

> <Gold.PLP.Chemscore.Metal>
0.0000

> <Gold.Chemscore.Hbonds>
donor molecule, donor type, donor heavy atom, donor atom, acceptor molecule, acceptor atom, score
      L1  H     3    23       P1  7948  0.99
      L1  H     6    26       P1 10747  1.00
      L1  H    13    39       P1  7948  0.96
      P1  H  7989  7998       L1    21  1.00
      L1  C    22    46       P1  7957  1.00

> <Gold.PLP.Chemscore.Internal.Correction>
0.1588

> <Gold.Rescore>
     Score         DG    S(hbond)    S(metal)    S(lipo)     H(rot)  DE(clash)    DE(int)     intcor
     19.77     -21.55       3.27        0.00      85.82       1.92       0.37       1.40       ----

> <Gold.Chemscore.Fitness>
19.7749

> <Gold.Chemscore.DG>
-21.5477

> <Gold.Chemscore.ZeroCoef>
-5.4800

> <Gold.Chemscore.Hbond>
3.2727

> <Gold.Chemscore.Metal>
0.0000

> <Gold.Chemscore.Lipo>
85.8202

> <Gold.Chemscore.Internal_Hbond>
0.0000

> <Gold.Chemscore.DEClash>
0.3708

> <Gold.Chemscore.DEInternal>
1.4021

> <Gold.Chemscore.Rot>
1.9156

> <Gold.Chemscore.Internal.Correction>
   9.000000E+99

> <Gold.Chemscore.Hbonds>
donor molecule, donor type, donor heavy atom, donor atom, acceptor molecule, acceptor atom, score
      L1  H     3    23       P1  7948  0.81
      L1  H     6    26       P1 10747  0.97
      L1  H    13    39       P1  7948  0.86
      P1  H  7989  7998       L1    21  0.30

> <Gold.Chemscore.Hbond.Weighted>
-10.9308

> <Gold.Chemscore.Metal.Weighted>
-0.0000

> <Gold.Chemscore.Lipo.Weighted>
-10.0410

> <Gold.Chemscore.Internal_Hbond.Weighted>
0.0000

> <Gold.Chemscore.DEClash.Weighted>
0.3708

> <Gold.Chemscore.DEInternal.Weighted>
1.4021

> <Gold.Chemscore.Rot.Weighted>
4.9040

> <Gold.Chemscore.Internal.Correction.Weighted>
   9.000000E+99

> <Gold.Protein.RotatedTorsions>
[ 6907 6896 6895 6894 ] final  127.22 input  -60.11 | X-H torsion
[ 7974 7965 7964 7962 ] final  167.35 input  175.53 | X-H torsion
[ 8008 7997 7996 7995 ] final -152.59 input   59.86 | X-H torsion
[ 10167 10162 10161 10158 ] final   43.92 input  -65.29 | X-H torsion
[ 10718 10713 10712 10709 ] final -157.68 input   66.30 | X-H torsion
[ 10763 10752 10751 10750 ] final   43.16 input  -60.55 | X-H torsion
[ 11005 11000 10999 10996 ] final   24.05 input  -57.11 | X-H torsion

> <Gold.Protein.ActiveResidues>
 VAL166  LYS551  ARG553  GLY616  TRP617  ASP618  TYR619  PRO620  LYS621  CYS622 
 ASP623  PHE694  ASN695  SER759  ASP760  ASP761  ALA762  ILE779  LEU786  VAL792 
 PHE793  MET794  SER795  GLU796  ALA797  LYS798  CYS799  TRP800  GLU811  SER814 

> <Gold.Protein.RotatedAtoms>
  152.3832  133.6575  159.6177 H   0  0  0  0  0  0  0  0  0  0  0  0  # atno 6907 bound_to 6896
  150.7758  133.9079  159.3369 H   0  0  0  0  0  0  0  0  0  0  0  0  # atno 6908 bound_to 6896
  151.6880  135.0952  160.0280 H   0  0  0  0  0  0  0  0  0  0  0  0  # atno 6909 bound_to 6896
  144.7427  139.8749  143.6392 H   0  0  0  0  0  0  0  0  0  0  0  0  # atno 7974 bound_to 7965
  155.6575  140.0719  157.2565 H   0  0  0  0  0  0  0  0  0  0  0  0  # atno 8008 bound_to 7997
  154.4149  140.1722  156.1791 H   0  0  0  0  0  0  0  0  0  0  0  0  # atno 8009 bound_to 7997
  155.9725  140.3361  155.6592 H   0  0  0  0  0  0  0  0  0  0  0  0  # atno 8010 bound_to 7997
  140.3395  144.2488  150.6157 H   0  0  0  0  0  0  0  0  0  0  0  0  # atno 10167 bound_to 10162
  156.5437  130.8574  151.2757 H   0  0  0  0  0  0  0  0  0  0  0  0  # atno 10718 bound_to 10713
  152.9866  135.6110  154.3067 H   0  0  0  0  0  0  0  0  0  0  0  0  # atno 10763 bound_to 10752
  154.2785  135.2777  155.2709 H   0  0  0  0  0  0  0  0  0  0  0  0  # atno 10764 bound_to 10752
  154.5059  135.5854  153.6624 H   0  0  0  0  0  0  0  0  0  0  0  0  # atno 10765 bound_to 10752
  140.3630  134.2105  155.7671 H   0  0  0  0  0  0  0  0  0  0  0  0  # atno 11005 bound_to 11000
  146.1254  139.4279  143.0202 LP  0  0  0  0  0  0  0  0  0  0  0  0  # atno 17320 bound_to 7965
  145.7243  141.0064  143.1385 LP  0  0  0  0  0  0  0  0  0  0  0  0  # atno 17321 bound_to 7965
  140.5322  143.2241  151.8220 LP  0  0  0  0  0  0  0  0  0  0  0  0  # atno 17342 bound_to 10162
  139.4843  144.4705  151.9430 LP  0  0  0  0  0  0  0  0  0  0  0  0  # atno 17343 bound_to 10162
  157.7400  130.9843  150.2353 LP  0  0  0  0  0  0  0  0  0  0  0  0  # atno 17370 bound_to 10713
  156.2948  130.3750  149.7807 LP  0  0  0  0  0  0  0  0  0  0  0  0  # atno 17371 bound_to 10713
  141.1978  133.8050  157.0610 LP  0  0  0  0  0  0  0  0  0  0  0  0  # atno 17394 bound_to 11000
  140.0612  134.9754  157.1308 LP  0  0  0  0  0  0  0  0  0  0  0  0  # atno 17395 bound_to 11000

$$$$
