AV-unprocessed.smi:1365|AV-procd|sdf|5568|dock10
  -GOLD-   22720 5163D 1   1.00000     0.00000
 Structure written by MMmdl.
 42 43  0  0  0  0  0  0  0  0  2 V2000
  147.4886  135.4504  162.7995 C   0  0  0  0  0  0  0  0  0  0  0  0
  147.7537  135.8833  161.3980 C   0  0  0  0  0  0  0  0  0  0  0  0
  147.9011  135.1978  160.2249 C   0  0  0  0  0  0  0  0  0  0  0  0
  148.1441  136.2296  159.2797 C   0  0  0  0  0  0  0  0  0  0  0  0
  148.3631  135.9274  157.9111 N   0  0  0  0  0  0  0  0  0  0  0  0
  148.9124  134.8137  157.3970 C   0  0  0  0  0  0  0  0  0  0  0  0
  149.3401  133.8640  158.0542 O   0  0  0  0  0  0  0  0  0  0  0  0
  148.9363  134.8534  156.0566 N   0  0  0  0  0  0  0  0  0  0  0  0
  149.4175  133.7755  155.1998 C   0  0  0  0  0  0  0  0  0  0  0  0
  148.2726  133.1023  154.4247 C   0  0  0  0  0  0  0  0  0  0  0  0
  148.7669  132.4224  153.1367 C   0  0  0  0  0  0  0  0  0  0  0  0
  147.6508  132.0353  152.2373 N   0  3  0  0  0  0  0  0  0  0  0  0
  146.8701  130.8874  152.7698 C   0  0  0  0  0  0  0  0  0  0  0  0
  145.8070  130.4194  151.7612 C   0  0  0  0  0  0  0  0  0  0  0  0
  144.8761  131.5737  151.3691 C   0  0  0  0  0  0  0  0  0  0  0  0
  145.7029  132.7577  150.8516 C   0  0  0  0  0  0  0  0  0  0  0  0
  146.7675  133.1778  151.8789 C   0  0  0  0  0  0  0  0  0  0  0  0
  148.1394  137.4364  159.8249 N   0  0  0  0  0  0  0  0  0  0  0  0
  147.8900  137.2206  161.1855 O   0  0  0  0  0  0  0  0  0  0  0  0
  147.0550  134.4504  162.8222 H   0  0  0  0  0  0  0  0  0  0  0  0
  146.7930  136.1304  163.2916 H   0  0  0  0  0  0  0  0  0  0  0  0
  148.4122  135.4325  163.3783 H   0  0  0  0  0  0  0  0  0  0  0  0
  147.8490  134.1298  160.0729 H   0  0  0  0  0  0  0  0  0  0  0  0
  148.0473  136.6246  157.2532 H   0  0  0  0  0  0  0  0  0  0  0  0
  148.5689  135.6738  155.5968 H   0  0  0  0  0  0  0  0  0  0  0  0
  150.1722  134.1607  154.5119 H   0  0  0  0  0  0  0  0  0  0  0  0
  149.9200  133.0416  155.8304 H   0  0  0  0  0  0  0  0  0  0  0  0
  147.7832  132.3789  155.0766 H   0  0  0  0  0  0  0  0  0  0  0  0
  147.5173  133.8457  154.1657 H   0  0  0  0  0  0  0  0  0  0  0  0
  149.4171  133.1277  152.6170 H   0  0  0  0  0  0  0  0  0  0  0  0
  149.3819  131.5507  153.3657 H   0  0  0  0  0  0  0  0  0  0  0  0
  147.5404  130.0556  152.9903 H   0  0  0  0  0  0  0  0  0  0  0  0
  146.3969  131.1724  153.7110 H   0  0  0  0  0  0  0  0  0  0  0  0
  146.2961  130.0233  150.8701 H   0  0  0  0  0  0  0  0  0  0  0  0
  145.2255  129.5996  152.1845 H   0  0  0  0  0  0  0  0  0  0  0  0
  144.1671  131.2461  150.6081 H   0  0  0  0  0  0  0  0  0  0  0  0
  144.2871  131.8835  152.2334 H   0  0  0  0  0  0  0  0  0  0  0  0
  146.1870  132.4851  149.9129 H   0  0  0  0  0  0  0  0  0  0  0  0
  145.0473  133.6002  150.6286 H   0  0  0  0  0  0  0  0  0  0  0  0
  146.2853  133.5623  152.7793 H   0  0  0  0  0  0  0  0  0  0  0  0
  147.3549  133.9957  151.4633 H   0  0  0  0  0  0  0  0  0  0  0  0
  148.0757  131.7095  151.3805 H   0  0  0  0  0  0  0  0  0  0  0  0
  1  2  1  0  0  0  0
  1 20  1  0  0  0  0
  1 21  1  0  0  0  0
  1 22  1  0  0  0  0
  2 19  1  0  0  0  0
  2  3  2  0  0  0  0
  3  4  1  0  0  0  0
  3 23  1  0  0  0  0
  4  5  1  0  0  0  0
  4 18  2  0  0  0  0
  5  6  1  0  0  0  0
  5 24  1  0  0  0  0
  6  7  2  0  0  0  0
  6  8  1  0  0  0  0
  8  9  1  0  0  0  0
  8 25  1  0  0  0  0
  9 10  1  0  0  0  0
  9 26  1  0  0  0  0
  9 27  1  0  0  0  0
 10 11  1  0  0  0  0
 10 28  1  0  0  0  0
 10 29  1  0  0  0  0
 11 12  1  0  0  0  0
 11 30  1  0  0  0  0
 11 31  1  0  0  0  0
 12 17  1  0  0  0  0
 12 13  1  0  0  0  0
 12 42  1  0  0  0  0
 13 14  1  0  0  0  0
 13 32  1  0  0  0  0
 13 33  1  0  0  0  0
 14 15  1  0  0  0  0
 14 34  1  0  0  0  0
 14 35  1  0  0  0  0
 15 16  1  0  0  0  0
 15 36  1  0  0  0  0
 15 37  1  0  0  0  0
 16 17  1  0  0  0  0
 16 38  1  0  0  0  0
 16 39  1  0  0  0  0
 17 40  1  0  0  0  0
 17 41  1  0  0  0  0
 18 19  1  0  0  0  0
M  CHG  1  12   1
M  END
> <s_m_source_file>
AV-unprocessed.smi

> <i_m_source_file_index>
1365

> <i_lp_mmshare_version>
43012

> <i_f3d_flags>
0

> <s_epik_input>
W0NIM11jMVtjSF1jKG5vMSlbTkhdQyg9TylbTkhdW0NIMl1bQ0gyXVtDSDJdTjJbQ0gyXVtDSDJdW0NIMl1bQ0gyXVtDSDJdMg==

> <s_epik_cmdline>
J2VwaWtfcHl0aG9uJywgJy1waCcsICc3LjAnLCAnLXRuJywgJzgnLCAnLW1hJywgJzIwMCcsICctbWV0YWxfYmluZGluZycsICctaW1hZScsICc8aW5maWxlLm1hZT4nLCAnLW9tYWUnLCAnPG91dGZpbGUubWFlPic=

> <r_epik_Ionization_Penalty>
0.000389345

> <r_epik_Ionization_Penalty_Charging>
0.000358942

> <r_epik_Ionization_Penalty_Neutral>
3.04028e-05

> <r_epik_State_Penalty>
0.000218395

> <r_epik_Charging_Adjusted_Penalty>
0.000577337

> <i_epik_Tot_Q>
1

> <i_epik_Tot_abs_Q>
1

> <r_epik_Metal_State_Penalty>
0.0112716

> <b_epik_Metal_Only>
0

> <s_lp_Force_Field>
OPLS_2005

> <r_lp_Energy>
13.5089

> <b_lp_Chiralities_Consistent>
1

> <s_lp_Variant>
AV-unprocessed.smi:1365-1

> <Gold.Version>
5.8.1

> <Gold.Id.Protein>
6NUR|6NUR_protein|mol2

> <Gold.PLP.Fitness>
44.4546

> <Gold.PLP.PLP>
-35.9823

> <Gold.PLP.part.hbond>
-5.9273

> <Gold.PLP.part.metal>
0.0000

> <Gold.PLP.part.buried>
-4.0823

> <Gold.PLP.part.nonpolar>
-26.0935

> <Gold.PLP.part.repulsive>
0.0772

> <Gold.PLP.ligand.clash>
0.0000

> <Gold.PLP.ligand.torsion>
0.4403

> <Gold.PLP.Chemscore.Hbond>
3.1080

> <Gold.PLP.Chemscore.CHOScore>
0.0000

> <Gold.PLP.Chemscore.Metal>
0.0000

> <Gold.Chemscore.Hbonds>
donor molecule, donor type, donor heavy atom, donor atom, acceptor molecule, acceptor atom, score
      L1  H    12    42       P1 10747  1.00
      P1  H  6896  6908       L1     7  1.00
      P1  H  6931  6943       L1    19  0.98

> <Gold.PLP.Chemscore.Internal.Correction>
0.0288

> <Gold.Rescore>
     Score         DG    S(hbond)    S(metal)    S(lipo)     H(rot)  DE(clash)    DE(int)     intcor
     17.23     -19.06       2.78        0.00      76.57       1.82       0.14       1.69       ----

> <Gold.Chemscore.Fitness>
17.2318

> <Gold.Chemscore.DG>
-19.0621

> <Gold.Chemscore.ZeroCoef>
-5.4800

> <Gold.Chemscore.Hbond>
2.7792

> <Gold.Chemscore.Metal>
0.0000

> <Gold.Chemscore.Lipo>
76.5706

> <Gold.Chemscore.Internal_Hbond>
0.0000

> <Gold.Chemscore.DEClash>
0.1394

> <Gold.Chemscore.DEInternal>
1.6909

> <Gold.Chemscore.Rot>
1.8201

> <Gold.Chemscore.Internal.Correction>
   9.000000E+99

> <Gold.Chemscore.Hbonds>
donor molecule, donor type, donor heavy atom, donor atom, acceptor molecule, acceptor atom, score
      L1  H    12    42       P1 10747  1.00
      P1  H  6896  6908       L1     7  0.99
      P1  H  6931  6943       L1    19  0.28

> <Gold.Chemscore.Hbond.Weighted>
-9.2826

> <Gold.Chemscore.Metal.Weighted>
-0.0000

> <Gold.Chemscore.Lipo.Weighted>
-8.9588

> <Gold.Chemscore.Internal_Hbond.Weighted>
0.0000

> <Gold.Chemscore.DEClash.Weighted>
0.1394

> <Gold.Chemscore.DEInternal.Weighted>
1.6909

> <Gold.Chemscore.Rot.Weighted>
4.6593

> <Gold.Chemscore.Internal.Correction.Weighted>
   9.000000E+99

> <Gold.Protein.RotatedTorsions>
[ 6907 6896 6895 6894 ] final  118.49 input  -60.11 | X-H torsion
[ 7974 7965 7964 7962 ] final -164.25 input  175.53 | X-H torsion
[ 8008 7997 7996 7995 ] final  -87.52 input   59.86 | X-H torsion
[ 10167 10162 10161 10158 ] final   99.31 input  -65.29 | X-H torsion
[ 10718 10713 10712 10709 ] final  -26.57 input   66.30 | X-H torsion
[ 10763 10752 10751 10750 ] final  -63.18 input  -60.55 | X-H torsion
[ 11005 11000 10999 10996 ] final -115.84 input  -57.11 | X-H torsion

> <Gold.Protein.ActiveResidues>
 VAL166  LYS551  ARG553  GLY616  TRP617  ASP618  TYR619  PRO620  LYS621  CYS622 
 ASP623  PHE694  ASN695  SER759  ASP760  ASP761  ALA762  ILE779  LEU786  VAL792 
 PHE793  MET794  SER795  GLU796  ALA797  LYS798  CYS799  TRP800  GLU811  SER814 

> <Gold.Protein.RotatedAtoms>
  152.4539  133.7684  159.6784 H   0  0  0  0  0  0  0  0  0  0  0  0  # atno 6907 bound_to 6896
  150.8459  133.7852  159.3049 H   0  0  0  0  0  0  0  0  0  0  0  0  # atno 6908 bound_to 6896
  151.5462  135.1071  159.9990 H   0  0  0  0  0  0  0  0  0  0  0  0  # atno 6909 bound_to 6896
  144.7302  140.2988  143.6208 H   0  0  0  0  0  0  0  0  0  0  0  0  # atno 7974 bound_to 7965
  154.6642  140.0565  157.0095 H   0  0  0  0  0  0  0  0  0  0  0  0  # atno 8008 bound_to 7997
  155.1184  140.3245  155.4485 H   0  0  0  0  0  0  0  0  0  0  0  0  # atno 8009 bound_to 7997
  156.2631  140.2002  156.6306 H   0  0  0  0  0  0  0  0  0  0  0  0  # atno 8010 bound_to 7997
  139.7629  144.6948  151.0266 H   0  0  0  0  0  0  0  0  0  0  0  0  # atno 10167 bound_to 10162
  156.4495  130.4481  149.6999 H   0  0  0  0  0  0  0  0  0  0  0  0  # atno 10718 bound_to 10713
  154.3111  135.6215  153.5466 H   0  0  0  0  0  0  0  0  0  0  0  0  # atno 10763 bound_to 10752
  152.9829  135.5701  154.5176 H   0  0  0  0  0  0  0  0  0  0  0  0  # atno 10764 bound_to 10752
  154.4826  135.2864  155.1535 H   0  0  0  0  0  0  0  0  0  0  0  0  # atno 10765 bound_to 10752
  141.0461  133.9760  157.2915 H   0  0  0  0  0  0  0  0  0  0  0  0  # atno 11005 bound_to 11000
  145.7781  139.1881  143.2173 LP  0  0  0  0  0  0  0  0  0  0  0  0  # atno 17320 bound_to 7965
  146.0856  140.7714  142.9620 LP  0  0  0  0  0  0  0  0  0  0  0  0  # atno 17321 bound_to 7965
  140.7808  143.4676  151.0190 LP  0  0  0  0  0  0  0  0  0  0  0  0  # atno 17342 bound_to 10162
  139.8362  143.7625  152.3180 LP  0  0  0  0  0  0  0  0  0  0  0  0  # atno 17343 bound_to 10162
  156.3832  130.7589  151.2584 LP  0  0  0  0  0  0  0  0  0  0  0  0  # atno 17370 bound_to 10713
  157.7503  131.0289  150.4072 LP  0  0  0  0  0  0  0  0  0  0  0  0  # atno 17371 bound_to 10713
  139.9313  135.0199  156.8409 LP  0  0  0  0  0  0  0  0  0  0  0  0  # atno 17394 bound_to 11000
  140.6144  134.0053  155.7590 LP  0  0  0  0  0  0  0  0  0  0  0  0  # atno 17395 bound_to 11000

$$$$
