AV-unprocessed.smi:1762|AV-procd|sdf|7124|dock5
  -GOLD-   22720 8363D 1   1.00000     0.00000
 Structure written by MMmdl.
 52 53  0  0  0  0  0  0  0  0  3 V2000
  150.1264  134.7990  154.5245 C   0  0  0  0  0  0  0  0  0  0  0  0
  149.6680  135.6685  155.7091 C   0  0  1  0  0  0  0  0  0  0  0  0
  149.7185  137.1804  155.4123 C   0  0  0  0  0  0  0  0  0  0  0  0
  148.6219  137.5956  154.4939 N   0  3  2  0  0  0  0  0  0  0  0  0
  148.6362  139.0441  154.0977 C   0  0  2  0  0  0  0  0  0  0  0  0
  149.1510  139.9258  155.2622 C   0  0  0  0  0  0  0  0  0  0  0  0
  148.3819  140.1824  156.1949 O   0  0  0  0  0  0  0  0  0  0  0  0
  150.4539  140.2710  155.0780 N   0  5  0  0  0  0  0  0  0  0  0  0
  151.3377  140.7494  156.1392 C   0  0  0  0  0  0  0  0  0  0  0  0
  150.9497  142.1879  156.5529 C   0  0  0  0  0  0  0  0  0  0  0  0
  151.5390  142.6701  157.8771 C   0  0  0  0  0  0  0  0  0  0  0  0
  152.2250  141.7726  158.7275 C   0  0  0  0  0  0  0  0  0  0  0  0
  152.7406  142.2555  159.9452 C   0  0  0  0  0  0  0  0  0  0  0  0
  152.5476  143.6108  160.2735 C   0  0  0  0  0  0  0  0  0  0  0  0
  151.8433  144.4259  159.3652 C   0  0  0  0  0  0  0  0  0  0  0  0
  151.3436  143.9735  158.1953 N   0  0  0  0  0  0  0  0  0  0  0  0
  147.2751  139.5845  153.5404 C   0  0  0  0  0  0  0  0  0  0  0  0
  146.8220  138.8586  152.2583 C   0  0  0  0  0  0  0  0  0  0  0  0
  147.2293  141.1127  153.3290 C   0  0  0  0  0  0  0  0  0  0  0  0
  147.3204  137.1604  155.0761 C   0  0  0  0  0  0  0  0  0  0  0  0
  147.3049  135.6430  155.3202 C   0  0  2  0  0  0  0  0  0  0  0  0
  145.9985  135.1826  155.9767 C   0  0  0  0  0  0  0  0  0  0  0  0
  148.3779  135.2951  156.1874 O   0  0  0  0  0  0  0  0  0  0  0  0
  151.1670  135.0063  154.2741 H   0  0  0  0  0  0  0  0  0  0  0  0
  149.5374  134.9791  153.6254 H   0  0  0  0  0  0  0  0  0  0  0  0
  150.0519  133.7389  154.7677 H   0  0  0  0  0  0  0  0  0  0  0  0
  150.3591  135.4698  156.5288 H   0  0  0  0  0  0  0  0  0  0  0  0
  149.6333  137.7438  156.3428 H   0  0  0  0  0  0  0  0  0  0  0  0
  150.7010  137.3996  154.9997 H   0  0  0  0  0  0  0  0  0  0  0  0
  149.3423  139.1042  153.2654 H   0  0  0  0  0  0  0  0  0  0  0  0
  151.3039  140.0986  157.0132 H   0  0  0  0  0  0  0  0  0  0  0  0
  152.3818  140.7610  155.8226 H   0  0  0  0  0  0  0  0  0  0  0  0
  151.2681  142.8773  155.7699 H   0  0  0  0  0  0  0  0  0  0  0  0
  149.8632  142.2775  156.5957 H   0  0  0  0  0  0  0  0  0  0  0  0
  152.3604  140.7385  158.4460 H   0  0  0  0  0  0  0  0  0  0  0  0
  153.2741  141.5977  160.6152 H   0  0  0  0  0  0  0  0  0  0  0  0
  152.9298  144.0155  161.1987 H   0  0  0  0  0  0  0  0  0  0  0  0
  151.6749  145.4695  159.5860 H   0  0  0  0  0  0  0  0  0  0  0  0
  146.5028  139.3375  154.2675 H   0  0  0  0  0  0  0  0  0  0  0  0
  147.4607  139.0951  151.4063 H   0  0  0  0  0  0  0  0  0  0  0  0
  145.8044  139.1419  151.9882 H   0  0  0  0  0  0  0  0  0  0  0  0
  146.8361  137.7766  152.3933 H   0  0  0  0  0  0  0  0  0  0  0  0
  147.8702  141.4270  152.5054 H   0  0  0  0  0  0  0  0  0  0  0  0
  147.5412  141.6606  154.2174 H   0  0  0  0  0  0  0  0  0  0  0  0
  146.2169  141.4375  153.0876 H   0  0  0  0  0  0  0  0  0  0  0  0
  147.1449  137.6967  156.0104 H   0  0  0  0  0  0  0  0  0  0  0  0
  146.4866  137.4013  154.4175 H   0  0  0  0  0  0  0  0  0  0  0  0
  147.4078  135.1176  154.3703 H   0  0  0  0  0  0  0  0  0  0  0  0
  145.1393  135.4176  155.3478 H   0  0  0  0  0  0  0  0  0  0  0  0
  145.8489  135.6677  156.9418 H   0  0  0  0  0  0  0  0  0  0  0  0
  146.0033  134.1051  156.1420 H   0  0  0  0  0  0  0  0  0  0  0  0
  148.7469  137.0758  153.6371 H   0  0  0  0  0  0  0  0  0  0  0  0
  1  2  1  0  0  0  0
  1 24  1  0  0  0  0
  1 25  1  0  0  0  0
  1 26  1  0  0  0  0
  2 23  1  0  0  0  0
  2  3  1  0  0  0  0
  2 27  1  0  0  0  0
  3  4  1  0  0  0  0
  3 28  1  0  0  0  0
  3 29  1  0  0  0  0
  4  5  1  0  0  0  0
  4 20  1  0  0  0  0
  4 52  1  0  0  0  0
  5  6  1  0  0  0  0
  5 17  1  0  0  0  0
  5 30  1  0  0  0  0
  6  7  2  0  0  0  0
  6  8  1  0  0  0  0
  8  9  1  0  0  0  0
  9 10  1  0  0  0  0
  9 31  1  0  0  0  0
  9 32  1  0  0  0  0
 10 11  1  0  0  0  0
 10 33  1  0  0  0  0
 10 34  1  0  0  0  0
 11 16  1  0  0  0  0
 11 12  2  0  0  0  0
 12 13  1  0  0  0  0
 12 35  1  0  0  0  0
 13 14  2  0  0  0  0
 13 36  1  0  0  0  0
 14 15  1  0  0  0  0
 14 37  1  0  0  0  0
 15 16  2  0  0  0  0
 15 38  1  0  0  0  0
 17 18  1  0  0  0  0
 17 19  1  0  0  0  0
 17 39  1  0  0  0  0
 18 40  1  0  0  0  0
 18 41  1  0  0  0  0
 18 42  1  0  0  0  0
 19 43  1  0  0  0  0
 19 44  1  0  0  0  0
 19 45  1  0  0  0  0
 20 21  1  0  0  0  0
 20 46  1  0  0  0  0
 20 47  1  0  0  0  0
 21 22  1  0  0  0  0
 21 23  1  0  0  0  0
 21 48  1  0  0  0  0
 22 49  1  0  0  0  0
 22 50  1  0  0  0  0
 22 51  1  0  0  0  0
M  CHG  1   4   1
M  CHG  1   8  -1
M  END
> <s_m_source_file>
AV-unprocessed.smi

> <i_m_source_file_index>
1762

> <i_lp_mmshare_version>
43012

> <i_f3d_flags>
0

> <s_epik_input>
W0NIM11bQ0BASF0xW0NIMl1OKFtDSDJdW0NASF0oTzEpW0NIM10pW0NAQEhdKFtDSF0oW0NIM10pW0NIM10pQyg9TylbTkhdW0NIMl1bQ0gyXWMyW2NIXVtjSF1bY0hdW2NIXW4y

> <s_epik_cmdline>
J2VwaWtfcHl0aG9uJywgJy1waCcsICc3LjAnLCAnLXRuJywgJzgnLCAnLW1hJywgJzIwMCcsICctbWV0YWxfYmluZGluZycsICctaW1hZScsICc8aW5maWxlLm1hZT4nLCAnLW9tYWUnLCAnPG91dGZpbGUubWFlPic=

> <r_epik_Ionization_Penalty>
7.82966

> <r_epik_Ionization_Penalty_Charging>
7.7461

> <r_epik_Ionization_Penalty_Neutral>
0.0835571

> <r_epik_State_Penalty>
8.52273

> <r_epik_Charging_Adjusted_Penalty>
16.2688

> <i_epik_Tot_Q>
0

> <i_epik_Tot_abs_Q>
2

> <r_epik_Metal_State_Penalty>
4.47451

> <b_epik_Metal_Only>
1

> <s_lp_Force_Field>
OPLS_2005

> <r_lp_Energy>
24.9826

> <b_lp_Chiralities_Consistent>
1

> <s_lp_Variant>
AV-unprocessed.smi:1762-26

> <Gold.Version>
5.8.1

> <Gold.Id.Protein>
6NUR|6NUR_protein|mol2

> <Gold.PLP.Fitness>
45.8132

> <Gold.PLP.PLP>
-39.5944

> <Gold.PLP.part.hbond>
-2.0000

> <Gold.PLP.part.metal>
0.0000

> <Gold.PLP.part.buried>
-5.6715

> <Gold.PLP.part.nonpolar>
-31.9282

> <Gold.PLP.part.repulsive>
0.2408

> <Gold.PLP.ligand.clash>
0.0000

> <Gold.PLP.ligand.torsion>
1.2666

> <Gold.PLP.Chemscore.Hbond>
2.8000

> <Gold.PLP.Chemscore.CHOScore>
0.0000

> <Gold.PLP.Chemscore.Metal>
0.0000

> <Gold.Chemscore.Hbonds>
donor molecule, donor type, donor heavy atom, donor atom, acceptor molecule, acceptor atom, score
      L1  H     4    52       P1  7948  2.00
      P1  H  7989  7998       L1     8  0.79

> <Gold.PLP.Chemscore.Internal.Correction>
0.3521

> <Gold.Rescore>
     Score         DG    S(hbond)    S(metal)    S(lipo)     H(rot)  DE(clash)    DE(int)     intcor
     17.93     -19.13       1.13        0.00     119.39       1.60       0.19       1.00       ----

> <Gold.Chemscore.Fitness>
17.9336

> <Gold.Chemscore.DG>
-19.1250

> <Gold.Chemscore.ZeroCoef>
-5.4800

> <Gold.Chemscore.Hbond>
1.1303

> <Gold.Chemscore.Metal>
0.0000

> <Gold.Chemscore.Lipo>
119.3925

> <Gold.Chemscore.Internal_Hbond>
0.0000

> <Gold.Chemscore.DEClash>
0.1931

> <Gold.Chemscore.DEInternal>
0.9983

> <Gold.Chemscore.Rot>
1.6012

> <Gold.Chemscore.Internal.Correction>
   9.000000E+99

> <Gold.Chemscore.Hbonds>
donor molecule, donor type, donor heavy atom, donor atom, acceptor molecule, acceptor atom, score
      L1  H     4    52       P1  7948  0.98
      P1  H  7989  7998       L1     8  0.13

> <Gold.Chemscore.Hbond.Weighted>
-3.7751

> <Gold.Chemscore.Metal.Weighted>
-0.0000

> <Gold.Chemscore.Lipo.Weighted>
-13.9689

> <Gold.Chemscore.Internal_Hbond.Weighted>
0.0000

> <Gold.Chemscore.DEClash.Weighted>
0.1931

> <Gold.Chemscore.DEInternal.Weighted>
0.9983

> <Gold.Chemscore.Rot.Weighted>
4.0990

> <Gold.Chemscore.Internal.Correction.Weighted>
   9.000000E+99

> <Gold.Protein.RotatedTorsions>
[ 6907 6896 6895 6894 ] final -179.38 input  -60.11 | X-H torsion
[ 7974 7965 7964 7962 ] final  109.40 input  175.53 | X-H torsion
[ 8008 7997 7996 7995 ] final -105.50 input   59.86 | X-H torsion
[ 10167 10162 10161 10158 ] final   80.07 input  -65.29 | X-H torsion
[ 10718 10713 10712 10709 ] final -161.23 input   66.30 | X-H torsion
[ 10763 10752 10751 10750 ] final  -14.01 input  -60.55 | X-H torsion
[ 11005 11000 10999 10996 ] final -168.39 input  -57.11 | X-H torsion

> <Gold.Protein.ActiveResidues>
 VAL166  LYS551  ARG553  GLY616  TRP617  ASP618  TYR619  PRO620  LYS621  CYS622 
 ASP623  PHE694  ASN695  SER759  ASP760  ASP761  ALA762  ILE779  LEU786  VAL792 
 PHE793  MET794  SER795  GLU796  ALA797  LYS798  CYS799  TRP800  GLU811  SER814 

> <Gold.Protein.RotatedAtoms>
  151.6524  133.3320  159.3154 H   0  0  0  0  0  0  0  0  0  0  0  0  # atno 6907 bound_to 6896
  150.7953  134.7013  159.6561 H   0  0  0  0  0  0  0  0  0  0  0  0  # atno 6908 bound_to 6896
  152.4040  134.6243  160.0110 H   0  0  0  0  0  0  0  0  0  0  0  0  # atno 6909 bound_to 6896
  145.2682  139.2676  143.3980 H   0  0  0  0  0  0  0  0  0  0  0  0  # atno 7974 bound_to 7965
  154.9007  140.0413  157.1891 H   0  0  0  0  0  0  0  0  0  0  0  0  # atno 8008 bound_to 7997
  154.8446  140.2920  155.5616 H   0  0  0  0  0  0  0  0  0  0  0  0  # atno 8009 bound_to 7997
  156.2993  140.2476  156.3395 H   0  0  0  0  0  0  0  0  0  0  0  0  # atno 8010 bound_to 7997
  139.9536  144.6009  150.8138 H   0  0  0  0  0  0  0  0  0  0  0  0  # atno 10167 bound_to 10162
  156.5933  130.8779  151.2895 H   0  0  0  0  0  0  0  0  0  0  0  0  # atno 10718 bound_to 10713
  153.5219  135.7015  153.5727 H   0  0  0  0  0  0  0  0  0  0  0  0  # atno 10763 bound_to 10752
  153.3772  135.3929  155.1831 H   0  0  0  0  0  0  0  0  0  0  0  0  # atno 10764 bound_to 10752
  154.8693  135.3826  154.4708 H   0  0  0  0  0  0  0  0  0  0  0  0  # atno 10765 bound_to 10752
  140.5425  134.5508  157.5103 H   0  0  0  0  0  0  0  0  0  0  0  0  # atno 11005 bound_to 11000
  146.3254  140.3118  142.8627 LP  0  0  0  0  0  0  0  0  0  0  0  0  # atno 17320 bound_to 7965
  144.9358  140.8025  143.5661 LP  0  0  0  0  0  0  0  0  0  0  0  0  # atno 17321 bound_to 7965
  140.7575  143.3088  151.2896 LP  0  0  0  0  0  0  0  0  0  0  0  0  # atno 17342 bound_to 10162
  139.6609  144.0191  152.2691 LP  0  0  0  0  0  0  0  0  0  0  0  0  # atno 17343 bound_to 10162
  157.7298  130.9676  150.1804 LP  0  0  0  0  0  0  0  0  0  0  0  0  # atno 17370 bound_to 10713
  156.2531  130.3702  149.8211 LP  0  0  0  0  0  0  0  0  0  0  0  0  # atno 17371 bound_to 10713
  139.9496  134.7640  156.0479 LP  0  0  0  0  0  0  0  0  0  0  0  0  # atno 17394 bound_to 11000
  141.1218  133.6610  156.3235 LP  0  0  0  0  0  0  0  0  0  0  0  0  # atno 17395 bound_to 11000

$$$$
