AV-unprocessed.smi:2339|AV-procd|sdf|9340|dock2
  -GOLD-   2272012563D 1   1.00000     0.00000
 Structure written by MMmdl.
 49 52  0  0  0  0  0  0  0  0  1 V2000
  148.5743  131.2031  161.4036 C   0  0  0  0  0  0  0  0  0  0  0  0
  147.8188  132.0086  160.3409 C   0  0  0  0  0  0  0  0  0  0  0  0
  147.7684  133.4255  160.6720 N   0  0  0  0  0  0  0  0  0  0  0  0
  147.2446  133.8660  161.8828 C   0  0  0  0  0  0  0  0  0  0  0  0
  147.1105  135.1632  162.2195 C   0  0  0  0  0  0  0  0  0  0  0  0
  147.5323  136.2062  161.2632 C   0  0  0  0  0  0  0  0  0  0  0  0
  147.4228  137.4008  161.5390 O   0  0  0  0  0  0  0  0  0  0  0  0
  148.0889  135.7360  159.9670 C   0  0  0  0  0  0  0  0  0  0  0  0
  148.4961  136.7367  159.0696 N   0  0  0  0  0  0  0  0  0  0  0  0
  149.7017  137.3227  158.9207 C   0  0  0  0  0  0  0  0  0  0  0  0
  150.7161  137.0381  159.5526 O   0  0  0  0  0  0  0  0  0  0  0  0
  149.7198  138.2929  157.9908 N   0  0  0  0  0  0  0  0  0  0  0  0
  150.8548  139.1216  157.5833 C   0  0  2  0  0  0  0  0  0  0  0  0
  150.6351  140.5968  157.9210 C   0  0  1  0  0  0  0  0  0  0  0  0
  151.2558  141.5482  158.8804 C   0  0  0  0  0  0  0  0  0  0  0  0
  151.4532  142.7382  157.9044 C   0  0  0  0  0  0  0  0  0  0  0  0
  151.1800  142.2160  156.5814 O   0  0  0  0  0  0  0  0  0  0  0  0
  151.4835  140.8401  156.6903 C   0  0  2  0  0  0  0  0  0  0  0  0
  150.8104  139.5959  156.0790 C   0  0  0  0  0  0  0  0  0  0  0  0
  149.4664  139.7612  155.3525 C   0  0  0  0  0  0  0  0  0  0  0  0
  149.2745  138.5187  154.4848 C   0  0  0  0  0  0  0  0  0  0  0  0
  150.6852  138.0485  154.1314 C   0  0  0  0  0  0  0  0  0  0  0  0
  151.6382  138.8036  155.0664 C   0  0  0  0  0  0  0  0  0  0  0  0
  148.1702  134.3971  159.7577 C   0  0  0  0  0  0  0  0  0  0  0  0
  148.6006  130.1455  161.1412 H   0  0  0  0  0  0  0  0  0  0  0  0
  148.0963  131.2926  162.3795 H   0  0  0  0  0  0  0  0  0  0  0  0
  149.6042  131.5478  161.5005 H   0  0  0  0  0  0  0  0  0  0  0  0
  148.2960  131.8791  159.3687 H   0  0  0  0  0  0  0  0  0  0  0  0
  146.8039  131.6233  160.2365 H   0  0  0  0  0  0  0  0  0  0  0  0
  146.9507  133.0734  162.5558 H   0  0  0  0  0  0  0  0  0  0  0  0
  146.7010  135.4586  163.1743 H   0  0  0  0  0  0  0  0  0  0  0  0
  147.7642  137.0721  158.4603 H   0  0  0  0  0  0  0  0  0  0  0  0
  148.8497  138.4742  157.5115 H   0  0  0  0  0  0  0  0  0  0  0  0
  151.8285  138.7491  157.9151 H   0  0  0  0  0  0  0  0  0  0  0  0
  149.5871  140.8704  157.7660 H   0  0  0  0  0  0  0  0  0  0  0  0
  150.6012  141.7957  159.7163 H   0  0  0  0  0  0  0  0  0  0  0  0
  152.2051  141.1756  159.2680 H   0  0  0  0  0  0  0  0  0  0  0  0
  150.7701  143.5602  158.1201 H   0  0  0  0  0  0  0  0  0  0  0  0
  152.4731  143.1212  157.9604 H   0  0  0  0  0  0  0  0  0  0  0  0
  152.5572  140.6898  156.8517 H   0  0  0  0  0  0  0  0  0  0  0  0
  148.6174  139.8941  156.0227 H   0  0  0  0  0  0  0  0  0  0  0  0
  149.5012  140.6448  154.7139 H   0  0  0  0  0  0  0  0  0  0  0  0
  148.7657  137.7446  155.0598 H   0  0  0  0  0  0  0  0  0  0  0  0
  148.6681  138.7202  153.6013 H   0  0  0  0  0  0  0  0  0  0  0  0
  150.7764  136.9687  154.2547 H   0  0  0  0  0  0  0  0  0  0  0  0
  150.9198  138.2777  153.0914 H   0  0  0  0  0  0  0  0  0  0  0  0
  152.2546  139.4825  154.4760 H   0  0  0  0  0  0  0  0  0  0  0  0
  152.3269  138.1172  155.5579 H   0  0  0  0  0  0  0  0  0  0  0  0
  148.5701  133.9650  158.8547 H   0  0  0  0  0  0  0  0  0  0  0  0
  1  2  1  0  0  0  0
  1 25  1  0  0  0  0
  1 26  1  0  0  0  0
  1 27  1  0  0  0  0
  2  3  1  0  0  0  0
  2 28  1  0  0  0  0
  2 29  1  0  0  0  0
  3 24  1  0  0  0  0
  3  4  1  0  0  0  0
  4  5  2  0  0  0  0
  4 30  1  0  0  0  0
  5  6  1  0  0  0  0
  5 31  1  0  0  0  0
  6  7  2  0  0  0  0
  6  8  1  0  0  0  0
  8  9  1  0  0  0  0
  8 24  2  0  0  0  0
  9 10  1  0  0  0  0
  9 32  1  0  0  0  0
 10 11  2  0  0  0  0
 10 12  1  0  0  0  0
 12 13  1  0  0  0  0
 12 33  1  0  0  0  0
 13 19  1  0  0  0  0
 13 14  1  0  0  0  0
 13 34  1  0  0  0  0
 14 18  1  0  0  0  0
 14 15  1  0  0  0  0
 14 35  1  0  0  0  0
 15 16  1  0  0  0  0
 15 36  1  0  0  0  0
 15 37  1  0  0  0  0
 16 17  1  0  0  0  0
 16 38  1  0  0  0  0
 16 39  1  0  0  0  0
 17 18  1  0  0  0  0
 18 19  1  0  0  0  0
 18 40  1  0  0  0  0
 19 23  1  0  0  0  0
 19 20  1  0  0  0  0
 20 21  1  0  0  0  0
 20 41  1  0  0  0  0
 20 42  1  0  0  0  0
 21 22  1  0  0  0  0
 21 43  1  0  0  0  0
 21 44  1  0  0  0  0
 22 23  1  0  0  0  0
 22 45  1  0  0  0  0
 22 46  1  0  0  0  0
 23 47  1  0  0  0  0
 23 48  1  0  0  0  0
 24 49  1  0  0  0  0
M  END
> <s_m_source_file>
AV-unprocessed.smi

> <i_m_source_file_index>
2339

> <i_lp_mmshare_version>
43012

> <i_f3d_flags>
0

> <s_epik_input>
W0NIM11bQ0gyXW4xW2NIXVtjSF1jKD1PKWMoW2NIXTEpW05IXUMoPU8pW05IXVtDQEBIXTJbQ0BASF0oW0NIMl1bQ0gyXU8zKVtDQEBIXTNDMjRbQ0gyXVtDSDJdW0NIMl1bQ0gyXTQ=

> <s_epik_cmdline>
J2VwaWtfcHl0aG9uJywgJy1waCcsICc3LjAnLCAnLXRuJywgJzgnLCAnLW1hJywgJzIwMCcsICctbWV0YWxfYmluZGluZycsICctaW1hZScsICc8aW5maWxlLm1hZT4nLCAnLW9tYWUnLCAnPG91dGZpbGUubWFlPic=

> <r_lp_tautomer_probability>
1

> <r_epik_Ionization_Penalty>
0.00145966

> <r_epik_Ionization_Penalty_Charging>
0.00143969

> <r_epik_Ionization_Penalty_Neutral>
1.99697e-05

> <r_epik_State_Penalty>
0.000961843

> <r_epik_Charging_Adjusted_Penalty>
0.00240153

> <i_epik_Tot_Q>
0

> <i_epik_Tot_abs_Q>
0

> <r_epik_Metal_State_Penalty>
-0

> <b_epik_Metal_Only>
0

> <s_lp_Force_Field>
OPLS_2005

> <r_lp_Energy>
78.6194

> <b_lp_Chiralities_Consistent>
1

> <s_lp_Variant>
AV-unprocessed.smi:2339-5

> <Gold.Version>
5.8.1

> <Gold.Id.Protein>
6NUR|6NUR_protein|mol2

> <Gold.PLP.Fitness>
47.1952

> <Gold.PLP.PLP>
-40.8385

> <Gold.PLP.part.hbond>
-3.0000

> <Gold.PLP.part.metal>
0.0000

> <Gold.PLP.part.buried>
-4.3123

> <Gold.PLP.part.nonpolar>
-33.9337

> <Gold.PLP.part.repulsive>
0.3350

> <Gold.PLP.ligand.clash>
0.0000

> <Gold.PLP.ligand.torsion>
0.9869

> <Gold.PLP.Chemscore.Hbond>
2.6800

> <Gold.PLP.Chemscore.CHOScore>
0.0000

> <Gold.PLP.Chemscore.Metal>
0.0000

> <Gold.Chemscore.Hbonds>
donor molecule, donor type, donor heavy atom, donor atom, acceptor molecule, acceptor atom, score
      P1  H  6896  6908       L1    11  0.96
      P1  H  6931  6943       L1     7  0.82
      P1  H  6934  6947       L1     7  0.83

> <Gold.PLP.Chemscore.Internal.Correction>
0.2905

> <Gold.Rescore>
     Score         DG    S(hbond)    S(metal)    S(lipo)     H(rot)  DE(clash)    DE(int)     intcor
     21.42     -22.36       2.71        0.00      92.49       1.17       0.00       0.94       ----

> <Gold.Chemscore.Fitness>
21.4225

> <Gold.Chemscore.DG>
-22.3635

> <Gold.Chemscore.ZeroCoef>
-5.4800

> <Gold.Chemscore.Hbond>
2.7094

> <Gold.Chemscore.Metal>
0.0000

> <Gold.Chemscore.Lipo>
92.4930

> <Gold.Chemscore.Internal_Hbond>
0.0000

> <Gold.Chemscore.DEClash>
0.0015

> <Gold.Chemscore.DEInternal>
0.9396

> <Gold.Chemscore.Rot>
1.1670

> <Gold.Chemscore.Internal.Correction>
   9.000000E+99

> <Gold.Chemscore.Hbonds>
donor molecule, donor type, donor heavy atom, donor atom, acceptor molecule, acceptor atom, score
      P1  H  6896  6908       L1    11  0.82
      P1  H  6931  6943       L1     7  0.74
      P1  H  6934  6947       L1     7  0.83

> <Gold.Chemscore.Hbond.Weighted>
-9.0493

> <Gold.Chemscore.Metal.Weighted>
-0.0000

> <Gold.Chemscore.Lipo.Weighted>
-10.8217

> <Gold.Chemscore.Internal_Hbond.Weighted>
0.0000

> <Gold.Chemscore.DEClash.Weighted>
0.0015

> <Gold.Chemscore.DEInternal.Weighted>
0.9396

> <Gold.Chemscore.Rot.Weighted>
2.9874

> <Gold.Chemscore.Internal.Correction.Weighted>
   9.000000E+99

> <Gold.Protein.RotatedTorsions>
[ 6907 6896 6895 6894 ] final -154.83 input  -60.11 | X-H torsion
[ 7974 7965 7964 7962 ] final   99.91 input  175.53 | X-H torsion
[ 8008 7997 7996 7995 ] final   -1.86 input   59.86 | X-H torsion
[ 10167 10162 10161 10158 ] final  -48.55 input  -65.29 | X-H torsion
[ 10718 10713 10712 10709 ] final   86.32 input   66.30 | X-H torsion
[ 10763 10752 10751 10750 ] final   74.91 input  -60.55 | X-H torsion
[ 11005 11000 10999 10996 ] final  -44.71 input  -57.11 | X-H torsion

> <Gold.Protein.ActiveResidues>
 VAL166  LYS551  ARG553  GLY616  TRP617  ASP618  TYR619  PRO620  LYS621  CYS622 
 ASP623  PHE694  ASN695  SER759  ASP760  ASP761  ALA762  ILE779  LEU786  VAL792 
 PHE793  MET794  SER795  GLU796  ALA797  LYS798  CYS799  TRP800  GLU811  SER814 

> <Gold.Protein.RotatedAtoms>
  151.2634  133.4291  159.2617 H   0  0  0  0  0  0  0  0  0  0  0  0  # atno 6907 bound_to 6896
  151.0510  134.9673  159.8222 H   0  0  0  0  0  0  0  0  0  0  0  0  # atno 6908 bound_to 6896
  152.5382  134.2588  159.8980 H   0  0  0  0  0  0  0  0  0  0  0  0  # atno 6909 bound_to 6896
  145.3925  139.2360  143.3344 H   0  0  0  0  0  0  0  0  0  0  0  0  # atno 7974 bound_to 7965
  154.6421  140.2549  155.7310 H   0  0  0  0  0  0  0  0  0  0  0  0  # atno 8008 bound_to 7997
  156.2534  140.2885  156.0739 H   0  0  0  0  0  0  0  0  0  0  0  0  # atno 8009 bound_to 7997
  155.1581  140.0383  157.2826 H   0  0  0  0  0  0  0  0  0  0  0  0  # atno 8010 bound_to 7997
  140.6726  143.2735  151.4087 H   0  0  0  0  0  0  0  0  0  0  0  0  # atno 10167 bound_to 10162
  157.6927  131.0211  150.2956 H   0  0  0  0  0  0  0  0  0  0  0  0  # atno 10718 bound_to 10713
  153.0619  135.5008  154.8112 H   0  0  0  0  0  0  0  0  0  0  0  0  # atno 10763 bound_to 10752
  154.6895  135.2982  154.9502 H   0  0  0  0  0  0  0  0  0  0  0  0  # atno 10764 bound_to 10752
  154.0261  135.6735  153.4829 H   0  0  0  0  0  0  0  0  0  0  0  0  # atno 10765 bound_to 10752
  141.0468  133.6758  156.2910 H   0  0  0  0  0  0  0  0  0  0  0  0  # atno 11005 bound_to 11000
  146.2790  140.4611  142.8784 LP  0  0  0  0  0  0  0  0  0  0  0  0  # atno 17320 bound_to 7965
  144.8430  140.6886  143.6217 LP  0  0  0  0  0  0  0  0  0  0  0  0  # atno 17321 bound_to 7965
  139.6001  144.1313  152.2189 LP  0  0  0  0  0  0  0  0  0  0  0  0  # atno 17342 bound_to 10162
  140.0694  144.5791  150.7203 LP  0  0  0  0  0  0  0  0  0  0  0  0  # atno 17343 bound_to 10162
  156.3480  130.3826  149.7353 LP  0  0  0  0  0  0  0  0  0  0  0  0  # atno 17370 bound_to 10713
  156.4840  130.8054  151.3067 LP  0  0  0  0  0  0  0  0  0  0  0  0  # atno 17371 bound_to 10713
  140.6131  134.5438  157.5536 LP  0  0  0  0  0  0  0  0  0  0  0  0  # atno 17394 bound_to 11000
  139.9318  134.7949  156.0910 LP  0  0  0  0  0  0  0  0  0  0  0  0  # atno 17395 bound_to 11000

$$$$
