AV-unprocessed.smi:265|AV-procd|sdf|2017|dock1
  -GOLD-   2262021213D 1   1.00000     0.00000
 Structure written by MMmdl.
 52 56  0  0  0  0  0  0  0  0  1 V2000
  147.9185  132.2142  153.7678 C   0  0  0  0  0  0  0  0  0  0  0  0
  149.3786  132.2394  154.2462 C   0  0  2  0  0  0  0  0  0  0  0  0
  149.7391  131.0073  154.8694 O   0  0  0  0  0  0  0  0  0  0  0  0
  150.4151  131.2508  156.0973 C   0  0  0  0  0  0  0  0  0  0  0  0
  150.8880  132.6978  156.0119 C   0  0  0  0  0  0  0  0  0  0  0  0
  149.7637  133.3666  155.2323 C   0  0  2  0  0  0  0  0  0  0  0  0
  148.6930  133.6287  156.1242 O   0  0  0  0  0  0  0  0  0  0  0  0
  150.1223  134.7283  154.5817 C   0  0  0  0  0  0  0  0  0  0  0  0
  150.4683  135.7858  155.5186 N   0  0  0  0  0  0  0  0  0  0  0  0
  150.8025  135.6356  156.8468 C   0  0  0  0  0  0  0  0  0  0  0  0
  151.0751  136.7421  157.4831 N   0  0  0  0  0  0  0  0  0  0  0  0
  150.9377  137.7270  156.5142 C   0  0  0  0  0  0  0  0  0  0  0  0
  151.0852  139.1377  156.5149 C   0  0  0  0  0  0  0  0  0  0  0  0
  151.4233  139.8194  157.6293 N   0  0  0  0  0  0  0  0  0  0  0  0
  152.6706  139.3589  158.2403 C   0  0  0  0  0  0  0  0  0  0  0  0
  152.8963  140.0273  159.6099 C   0  0  0  0  0  0  0  0  0  0  0  0
  152.8226  141.5532  159.4623 C   0  0  2  0  0  0  0  0  0  0  0  0
  152.9172  142.2170  160.7135 O   0  0  0  0  0  0  0  0  0  0  0  0
  153.0172  143.6405  160.5936 C   0  0  0  0  0  0  0  0  0  0  0  0
  151.9841  144.2342  159.6114 C   0  0  0  0  0  0  0  0  0  0  0  0
  151.7944  145.4480  159.5831 O   0  0  0  0  0  0  0  0  0  0  0  0
  151.3465  143.3960  158.7772 N   0  0  0  0  0  0  0  0  0  0  0  0
  151.4642  141.9463  158.8593 C   0  0  1  0  0  0  0  0  0  0  0  0
  151.2847  141.2691  157.4915 C   0  0  0  0  0  0  0  0  0  0  0  0
  150.8735  139.8038  155.3497 N   0  0  0  0  0  0  0  0  0  0  0  0
  150.5362  139.1252  154.2482 C   0  0  0  0  0  0  0  0  0  0  0  0
  150.3574  137.8103  154.0986 N   0  0  0  0  0  0  0  0  0  0  0  0
  150.5682  137.1440  155.2705 C   0  0  0  0  0  0  0  0  0  0  0  0
  153.6397  141.8813  158.8160 H   0  0  0  0  0  0  0  0  0  0  0  0
  150.6680  141.6036  159.5229 H   0  0  0  0  0  0  0  0  0  0  0  0
  147.6447  133.1586  153.2971 H   0  0  0  0  0  0  0  0  0  0  0  0
  147.2271  132.0328  154.5909 H   0  0  0  0  0  0  0  0  0  0  0  0
  147.7681  131.4220  153.0344 H   0  0  0  0  0  0  0  0  0  0  0  0
  150.0189  132.2958  153.3674 H   0  0  0  0  0  0  0  0  0  0  0  0
  149.7082  131.1258  156.9183 H   0  0  0  0  0  0  0  0  0  0  0  0
  151.2356  130.5489  156.2472 H   0  0  0  0  0  0  0  0  0  0  0  0
  151.0750  133.1477  156.9877 H   0  0  0  0  0  0  0  0  0  0  0  0
  151.8215  132.7197  155.4508 H   0  0  0  0  0  0  0  0  0  0  0  0
  147.9643  133.9673  155.6269 H   0  0  0  0  0  0  0  0  0  0  0  0
  150.9605  134.6012  153.8950 H   0  0  0  0  0  0  0  0  0  0  0  0
  149.2878  135.0812  153.9742 H   0  0  0  0  0  0  0  0  0  0  0  0
  150.8286  134.6718  157.3346 H   0  0  0  0  0  0  0  0  0  0  0  0
  152.6458  138.2746  158.3576 H   0  0  0  0  0  0  0  0  0  0  0  0
  153.5054  139.5889  157.5765 H   0  0  0  0  0  0  0  0  0  0  0  0
  152.1397  139.6847  160.3170 H   0  0  0  0  0  0  0  0  0  0  0  0
  153.8634  139.7327  160.0178 H   0  0  0  0  0  0  0  0  0  0  0  0
  152.8902  144.0896  161.5789 H   0  0  0  0  0  0  0  0  0  0  0  0
  154.0182  143.9008  160.2475 H   0  0  0  0  0  0  0  0  0  0  0  0
  150.6930  143.7778  158.1089 H   0  0  0  0  0  0  0  0  0  0  0  0
  152.0277  141.6441  156.7858 H   0  0  0  0  0  0  0  0  0  0  0  0
  150.3015  141.5066  157.0826 H   0  0  0  0  0  0  0  0  0  0  0  0
  150.3875  139.7209  153.3596 H   0  0  0  0  0  0  0  0  0  0  0  0
  1  2  1  0  0  0  0
  1 31  1  0  0  0  0
  1 32  1  0  0  0  0
  1 33  1  0  0  0  0
  2  6  1  0  0  0  0
  2  3  1  0  0  0  0
  2 34  1  0  0  0  0
  3  4  1  0  0  0  0
  4  5  1  0  0  0  0
  4 35  1  0  0  0  0
  4 36  1  0  0  0  0
  5  6  1  0  0  0  0
  5 37  1  0  0  0  0
  5 38  1  0  0  0  0
  6  7  1  0  0  0  0
  6  8  1  0  0  0  0
  7 39  1  0  0  0  0
  8  9  1  0  0  0  0
  8 40  1  0  0  0  0
  8 41  1  0  0  0  0
  9 28  1  0  0  0  0
  9 10  1  0  0  0  0
 10 11  2  0  0  0  0
 10 42  1  0  0  0  0
 11 12  1  0  0  0  0
 12 28  2  0  0  0  0
 12 13  1  0  0  0  0
 13 14  1  0  0  0  0
 13 25  2  0  0  0  0
 14 24  1  0  0  0  0
 14 15  1  0  0  0  0
 15 16  1  0  0  0  0
 15 43  1  0  0  0  0
 15 44  1  0  0  0  0
 16 17  1  0  0  0  0
 16 45  1  0  0  0  0
 16 46  1  0  0  0  0
 17 29  1  0  0  0  0
 17 23  1  0  0  0  0
 17 18  1  0  0  0  0
 18 19  1  0  0  0  0
 19 20  1  0  0  0  0
 19 47  1  0  0  0  0
 19 48  1  0  0  0  0
 20 21  2  0  0  0  0
 20 22  1  0  0  0  0
 22 23  1  0  0  0  0
 22 49  1  0  0  0  0
 23 30  1  0  0  0  0
 23 24  1  0  0  0  0
 24 50  1  0  0  0  0
 24 51  1  0  0  0  0
 25 26  1  0  0  0  0
 26 27  2  0  0  0  0
 26 52  1  0  0  0  0
 27 28  1  0  0  0  0
M  END
> <s_m_source_file>
AV-unprocessed.smi

> <i_m_source_file_index>
265

> <i_lp_mmshare_version>
43012

> <i_f3d_flags>
0

> <s_epik_input>
W0NIMl0xW0NIMl1PW0NAQEhdKFtDSDNdKVtDQEBdMShbT0hdKVtDSDJdbihbY0hdbjIpYyhjMjMpbltjSF1uYzNOKFtDSDJdW0NIMl00KVtDSDJdW0NAQEhdKFtDQEhdNDUpW05IXUMoPU8pW0NIMl1PNQ==

> <s_epik_cmdline>
J2VwaWtfcHl0aG9uJywgJy1waCcsICc3LjAnLCAnLXRuJywgJzgnLCAnLW1hJywgJzIwMCcsICctbWV0YWxfYmluZGluZycsICctaW1hZScsICc8aW5maWxlLm1hZT4nLCAnLW9tYWUnLCAnPG91dGZpbGUubWFlPic=

> <r_lp_tautomer_probability>
1

> <r_epik_Ionization_Penalty>
0.00221504

> <r_epik_Ionization_Penalty_Charging>
0

> <r_epik_Ionization_Penalty_Neutral>
0.00221504

> <r_epik_State_Penalty>
-0

> <r_epik_Charging_Adjusted_Penalty>
0

> <i_epik_Tot_Q>
0

> <i_epik_Tot_abs_Q>
0

> <r_epik_Metal_State_Penalty>
-0

> <b_epik_Metal_Only>
0

> <s_lp_Force_Field>
OPLS_2005

> <r_lp_Energy>
49.4841

> <b_lp_Chiralities_Consistent>
1

> <s_lp_Variant>
AV-unprocessed.smi:265-3

> <Gold.Version>
5.8.1

> <Gold.Id.Protein>
6NUR|6NUR_protein|mol2

> <Gold.PLP.Fitness>
41.5732

> <Gold.PLP.PLP>
-38.9552

> <Gold.PLP.part.hbond>
-0.2358

> <Gold.PLP.part.metal>
0.0000

> <Gold.PLP.part.buried>
-8.6456

> <Gold.PLP.part.nonpolar>
-31.5440

> <Gold.PLP.part.repulsive>
1.0249

> <Gold.PLP.ligand.clash>
0.0030

> <Gold.PLP.ligand.torsion>
0.3155

> <Gold.PLP.Chemscore.Hbond>
0.0000

> <Gold.PLP.Chemscore.CHOScore>
1.0000

> <Gold.PLP.Chemscore.Metal>
0.0000

> <Gold.Chemscore.Hbonds>
donor molecule, donor type, donor heavy atom, donor atom, acceptor molecule, acceptor atom, score
      L1  C    26    52       P1  7957  1.00

> <Gold.PLP.Chemscore.Internal.Correction>
0.2521

> <Gold.Rescore>
     Score         DG    S(hbond)    S(metal)    S(lipo)     H(rot)  DE(clash)    DE(int)     intcor
      7.81      -9.36       0.00        0.00      82.26       2.25       0.10       1.45       ----

> <Gold.Chemscore.Fitness>
7.8116

> <Gold.Chemscore.DG>
-9.3571

> <Gold.Chemscore.ZeroCoef>
-5.4800

> <Gold.Chemscore.Hbond>
0.0000

> <Gold.Chemscore.Metal>
0.0000

> <Gold.Chemscore.Lipo>
82.2648

> <Gold.Chemscore.Internal_Hbond>
0.0000

> <Gold.Chemscore.DEClash>
0.0959

> <Gold.Chemscore.DEInternal>
1.4495

> <Gold.Chemscore.Rot>
2.2453

> <Gold.Chemscore.Internal.Correction>
   9.000000E+99

> <Gold.Chemscore.Hbond.Weighted>
-0.0000

> <Gold.Chemscore.Metal.Weighted>
-0.0000

> <Gold.Chemscore.Lipo.Weighted>
-9.6250

> <Gold.Chemscore.Internal_Hbond.Weighted>
0.0000

> <Gold.Chemscore.DEClash.Weighted>
0.0959

> <Gold.Chemscore.DEInternal.Weighted>
1.4495

> <Gold.Chemscore.Rot.Weighted>
5.7479

> <Gold.Chemscore.Internal.Correction.Weighted>
   9.000000E+99

> <Gold.Protein.RotatedTorsions>
[ 6907 6896 6895 6894 ] final -177.75 input  -60.11 | X-H torsion
[ 7974 7965 7964 7962 ] final  113.01 input  175.53 | X-H torsion
[ 8008 7997 7996 7995 ] final  153.18 input   59.86 | X-H torsion
[ 10167 10162 10161 10158 ] final  104.43 input  -65.29 | X-H torsion
[ 10718 10713 10712 10709 ] final -166.69 input   66.30 | X-H torsion
[ 10763 10752 10751 10750 ] final -165.87 input  -60.55 | X-H torsion
[ 11005 11000 10999 10996 ] final   28.75 input  -57.11 | X-H torsion

> <Gold.Protein.ActiveResidues>
 VAL166  LYS551  ARG553  GLY616  TRP617  ASP618  TYR619  PRO620  LYS621  CYS622 
 ASP623  PHE694  ASN695  SER759  ASP760  ASP761  ALA762  ILE779  LEU786  VAL792 
 PHE793  MET794  SER795  GLU796  ALA797  LYS798  CYS799  TRP800  GLU811  SER814 

> <Gold.Protein.RotatedAtoms>
  151.6260  133.3335  159.3098 H   0  0  0  0  0  0  0  0  0  0  0  0  # atno 6907 bound_to 6896
  150.8081  134.7222  159.6674 H   0  0  0  0  0  0  0  0  0  0  0  0  # atno 6908 bound_to 6896
  152.4177  134.6017  160.0053 H   0  0  0  0  0  0  0  0  0  0  0  0  # atno 6909 bound_to 6896
  145.2223  139.2856  143.4211 H   0  0  0  0  0  0  0  0  0  0  0  0  # atno 7974 bound_to 7965
  156.2594  140.2001  156.6449 H   0  0  0  0  0  0  0  0  0  0  0  0  # atno 8008 bound_to 7997
  154.6581  140.0564  157.0056 H   0  0  0  0  0  0  0  0  0  0  0  0  # atno 8009 bound_to 7997
  155.1317  140.3234  155.4475 H   0  0  0  0  0  0  0  0  0  0  0  0  # atno 8010 bound_to 7997
  139.7178  144.7064  151.0922 H   0  0  0  0  0  0  0  0  0  0  0  0  # atno 10167 bound_to 10162
  156.6715  130.9086  151.3044 H   0  0  0  0  0  0  0  0  0  0  0  0  # atno 10718 bound_to 10713
  154.6889  135.2967  154.9507 H   0  0  0  0  0  0  0  0  0  0  0  0  # atno 10763 bound_to 10752
  154.0477  135.6649  153.4801 H   0  0  0  0  0  0  0  0  0  0  0  0  # atno 10764 bound_to 10752
  153.0598  135.5122  154.7971 H   0  0  0  0  0  0  0  0  0  0  0  0  # atno 10765 bound_to 10752
  140.3122  134.2637  155.7732 H   0  0  0  0  0  0  0  0  0  0  0  0  # atno 11005 bound_to 11000
  146.3373  140.2533  142.8599 LP  0  0  0  0  0  0  0  0  0  0  0  0  # atno 17320 bound_to 7965
  144.9753  140.8408  143.5430 LP  0  0  0  0  0  0  0  0  0  0  0  0  # atno 17321 bound_to 7965
  140.7747  143.5206  150.9541 LP  0  0  0  0  0  0  0  0  0  0  0  0  # atno 17342 bound_to 10162
  139.8893  143.6973  152.3147 LP  0  0  0  0  0  0  0  0  0  0  0  0  # atno 17343 bound_to 10162
  157.7075  130.9402  150.0980 LP  0  0  0  0  0  0  0  0  0  0  0  0  # atno 17370 bound_to 10713
  156.1935  130.3656  149.8879 LP  0  0  0  0  0  0  0  0  0  0  0  0  # atno 17371 bound_to 10713
  141.2105  133.7716  156.9924 LP  0  0  0  0  0  0  0  0  0  0  0  0  # atno 17394 bound_to 11000
  140.1015  134.9533  157.1929 LP  0  0  0  0  0  0  0  0  0  0  0  0  # atno 17395 bound_to 11000

$$$$
