AV-unprocessed.smi:66|AV-procd|sdf|618|dock5
  -GOLD-   2262016513D 1   1.00000     0.00000
 Structure written by MMmdl.
 28 30  0  0  0  0  0  0  0  0  2 V2000
  152.1628  137.2680  155.5187 O   0  0  0  0  0  0  0  0  0  0  0  0
  152.2966  138.5101  155.4731 C   0  0  0  0  0  0  0  0  0  0  0  0
  153.1002  139.1268  154.7382 O   0  5  0  0  0  0  0  0  0  0  0  0
  151.3989  139.3376  156.4048 C   0  0  1  0  0  0  0  0  0  0  0  0
  152.2184  140.2716  157.3113 C   0  0  0  0  0  0  0  0  0  0  0  0
  151.2527  141.4189  157.5906 C   0  0  1  0  0  0  0  0  0  0  0  0
  151.9118  142.6043  157.9829 O   0  0  0  0  0  0  0  0  0  0  0  0
  150.5086  141.5750  156.2652 C   0  0  0  0  0  0  0  0  0  0  0  0
  150.5066  140.2431  155.6734 N   0  0  0  0  0  0  0  0  0  0  0  0
  149.4141  139.8050  154.9933 C   0  0  0  0  0  0  0  0  0  0  0  0
  149.3284  138.4945  154.6404 N   0  0  0  0  0  0  0  0  0  0  0  0
  148.2659  138.0373  153.9719 C   0  0  0  0  0  0  0  0  0  0  0  0
  147.1870  138.7061  153.5600 N   0  0  0  0  0  0  0  0  0  0  0  0
  147.2688  140.0207  153.9055 C   0  0  0  0  0  0  0  0  0  0  0  0
  146.3572  141.0226  153.6502 N   0  0  0  0  0  0  0  0  0  0  0  0
  146.8915  142.1670  154.1880 C   0  0  0  0  0  0  0  0  0  0  0  0
  148.0525  142.0084  154.7637 N   0  0  0  0  0  0  0  0  0  0  0  0
  148.3313  140.6515  154.6139 C   0  0  0  0  0  0  0  0  0  0  0  0
  145.4879  140.8804  153.1569 H   0  0  0  0  0  0  0  0  0  0  0  0
  150.7993  138.6723  157.0280 H   0  0  0  0  0  0  0  0  0  0  0  0
  152.5553  139.7779  158.2232 H   0  0  0  0  0  0  0  0  0  0  0  0
  153.1008  140.6481  156.7899 H   0  0  0  0  0  0  0  0  0  0  0  0
  150.5514  141.1193  158.3707 H   0  0  0  0  0  0  0  0  0  0  0  0
  152.4766  142.8778  157.2762 H   0  0  0  0  0  0  0  0  0  0  0  0
  149.5068  141.9741  156.4292 H   0  0  0  0  0  0  0  0  0  0  0  0
  151.0390  142.2469  155.5891 H   0  0  0  0  0  0  0  0  0  0  0  0
  148.2843  136.9842  153.7334 H   0  0  0  0  0  0  0  0  0  0  0  0
  146.3930  143.1240  154.1376 H   0  0  0  0  0  0  0  0  0  0  0  0
  1  2  2  0  0  0  0
  2  3  1  0  0  0  0
  2  4  1  0  0  0  0
  4  5  1  0  0  0  0
  4 20  1  0  0  0  0
  4  9  1  0  0  0  0
  5  6  1  0  0  0  0
  5 21  1  0  0  0  0
  5 22  1  0  0  0  0
  6  7  1  0  0  0  0
  6  8  1  0  0  0  0
  6 23  1  0  0  0  0
  7 24  1  0  0  0  0
  8 25  1  0  0  0  0
  8 26  1  0  0  0  0
  8  9  1  0  0  0  0
  9 10  1  0  0  0  0
 10 11  1  0  0  0  0
 10 18  2  0  0  0  0
 11 12  2  0  0  0  0
 12 27  1  0  0  0  0
 12 13  1  0  0  0  0
 13 14  2  0  0  0  0
 14 15  1  0  0  0  0
 14 18  1  0  0  0  0
 15 16  1  0  0  0  0
 15 19  1  0  0  0  0
 16 17  2  0  0  0  0
 16 28  1  0  0  0  0
 17 18  1  0  0  0  0
M  CHG  1   3  -1
M  END
> <s_m_source_file>
AV-unprocessed.smi

> <i_m_source_file_index>
66

> <i_lp_mmshare_version>
43012

> <i_f3d_flags>
0

> <s_epik_input>
Tz1DKFtPSF0pW0NAQEhdMVtDSDJdW0NAQEhdKFtPSF0pW0NIMl1OMWMobltjSF1uMiljKGMyMylbbkhdW2NIXW4z

> <s_epik_cmdline>
J2VwaWtfcHl0aG9uJywgJy1waCcsICc3LjAnLCAnLXRuJywgJzgnLCAnLW1hJywgJzIwMCcsICctbWV0YWxfYmluZGluZycsICctaW1hZScsICc8aW5maWxlLm1hZT4nLCAnLW9tYWUnLCAnPG91dGZpbGUubWFlPic=

> <r_lp_tautomer_probability>
0.955585

> <r_epik_Ionization_Penalty>
0.00455415

> <r_epik_Ionization_Penalty_Charging>
0.000248217

> <r_epik_Ionization_Penalty_Neutral>
0.00430593

> <r_epik_State_Penalty>
0.0207074

> <r_epik_Charging_Adjusted_Penalty>
0.0209557

> <i_epik_Tot_Q>
-1

> <i_epik_Tot_abs_Q>
1

> <r_epik_Metal_State_Penalty>
0.337372

> <b_epik_Metal_Only>
0

> <s_lp_Force_Field>
OPLS_2005

> <r_lp_Energy>
25.5493

> <b_lp_Chiralities_Consistent>
1

> <s_lp_Variant>
AV-unprocessed.smi:66-2

> <Gold.Version>
5.8.1

> <Gold.Id.Protein>
6NUR|6NUR_protein|mol2

> <Gold.PLP.Fitness>
41.1853

> <Gold.PLP.PLP>
-24.5971

> <Gold.PLP.part.hbond>
-3.1696

> <Gold.PLP.part.metal>
0.0000

> <Gold.PLP.part.buried>
-2.5702

> <Gold.PLP.part.nonpolar>
-21.5821

> <Gold.PLP.part.repulsive>
1.8034

> <Gold.PLP.ligand.clash>
0.0000

> <Gold.PLP.ligand.torsion>
0.1351

> <Gold.PLP.Chemscore.Hbond>
4.6873

> <Gold.PLP.Chemscore.CHOScore>
0.8603

> <Gold.PLP.Chemscore.Metal>
0.0000

> <Gold.Chemscore.Hbonds>
donor molecule, donor type, donor heavy atom, donor atom, acceptor molecule, acceptor atom, score
      L1  H    15    19       P1 10175  1.00
      P1  H  7997  8009       L1     3  1.82
      P1  H 10752 10764       L1     1  1.68
      L1  C    12    27       P1  7948  0.86

> <Gold.PLP.Chemscore.Internal.Correction>
0.2158

> <Gold.Rescore>
     Score         DG    S(hbond)    S(metal)    S(lipo)     H(rot)  DE(clash)    DE(int)     intcor
      9.85     -13.56       2.76        0.00      29.26       1.78       1.43       2.28       ----

> <Gold.Chemscore.Fitness>
9.8501

> <Gold.Chemscore.DG>
-13.5610

> <Gold.Chemscore.ZeroCoef>
-5.4800

> <Gold.Chemscore.Hbond>
2.7621

> <Gold.Chemscore.Metal>
0.0000

> <Gold.Chemscore.Lipo>
29.2590

> <Gold.Chemscore.Internal_Hbond>
0.0000

> <Gold.Chemscore.DEClash>
1.4298

> <Gold.Chemscore.DEInternal>
2.2811

> <Gold.Chemscore.Rot>
1.7842

> <Gold.Chemscore.Internal.Correction>
   9.000000E+99

> <Gold.Chemscore.Hbonds>
donor molecule, donor type, donor heavy atom, donor atom, acceptor molecule, acceptor atom, score
      L1  H    15    19       P1 10175  0.54
      P1  H  7997  8009       L1     3  0.69
      P1  H 10752 10764       L1     1  0.77

> <Gold.Chemscore.Hbond.Weighted>
-9.2254

> <Gold.Chemscore.Metal.Weighted>
-0.0000

> <Gold.Chemscore.Lipo.Weighted>
-3.4233

> <Gold.Chemscore.Internal_Hbond.Weighted>
0.0000

> <Gold.Chemscore.DEClash.Weighted>
1.4298

> <Gold.Chemscore.DEInternal.Weighted>
2.2811

> <Gold.Chemscore.Rot.Weighted>
4.5676

> <Gold.Chemscore.Internal.Correction.Weighted>
   9.000000E+99

> <Gold.Protein.RotatedTorsions>
[ 6907 6896 6895 6894 ] final  -98.57 input  -60.11 | X-H torsion
[ 7974 7965 7964 7962 ] final  115.89 input  175.53 | X-H torsion
[ 8008 7997 7996 7995 ] final -134.29 input   59.86 | X-H torsion
[ 10167 10162 10161 10158 ] final  -97.07 input  -65.29 | X-H torsion
[ 10718 10713 10712 10709 ] final  -47.45 input   66.30 | X-H torsion
[ 10763 10752 10751 10750 ] final  -50.27 input  -60.55 | X-H torsion
[ 11005 11000 10999 10996 ] final  108.00 input  -57.11 | X-H torsion

> <Gold.Protein.ActiveResidues>
 VAL166  LYS551  ARG553  GLY616  TRP617  ASP618  TYR619  PRO620  LYS621  CYS622 
 ASP623  PHE694  ASN695  SER759  ASP760  ASP761  ALA762  ILE779  LEU786  VAL792 
 PHE793  MET794  SER795  GLU796  ALA797  LYS798  CYS799  TRP800  GLU811  SER814 

> <Gold.Protein.RotatedAtoms>
  150.7051  134.1174  159.4022 H   0  0  0  0  0  0  0  0  0  0  0  0  # atno 6907 bound_to 6896
  151.9161  135.0316  160.0527 H   0  0  0  0  0  0  0  0  0  0  0  0  # atno 6908 bound_to 6896
  152.2296  133.5012  159.5245 H   0  0  0  0  0  0  0  0  0  0  0  0  # atno 6909 bound_to 6896
  145.1864  139.3023  143.4391 H   0  0  0  0  0  0  0  0  0  0  0  0  # atno 7974 bound_to 7965
  155.3596  140.0482  157.3046 H   0  0  0  0  0  0  0  0  0  0  0  0  # atno 8008 bound_to 7997
  154.5185  140.2216  155.8984 H   0  0  0  0  0  0  0  0  0  0  0  0  # atno 8009 bound_to 7997
  156.1663  140.3105  155.8900 H   0  0  0  0  0  0  0  0  0  0  0  0  # atno 8010 bound_to 7997
  140.2873  143.3244  152.0382 H   0  0  0  0  0  0  0  0  0  0  0  0  # atno 10167 bound_to 10162
  156.2084  130.4159  149.9148 H   0  0  0  0  0  0  0  0  0  0  0  0  # atno 10718 bound_to 10713
  154.1076  135.6554  153.4879 H   0  0  0  0  0  0  0  0  0  0  0  0  # atno 10763 bound_to 10752
  153.0267  135.5240  154.7224 H   0  0  0  0  0  0  0  0  0  0  0  0  # atno 10764 bound_to 10752
  154.6395  135.2986  155.0090 H   0  0  0  0  0  0  0  0  0  0  0  0  # atno 10765 bound_to 10752
  139.8837  134.9417  156.5905 H   0  0  0  0  0  0  0  0  0  0  0  0  # atno 11005 bound_to 11000
  146.3444  140.2062  142.8589 LP  0  0  0  0  0  0  0  0  0  0  0  0  # atno 17320 bound_to 7965
  145.0084  140.8693  143.5239 LP  0  0  0  0  0  0  0  0  0  0  0  0  # atno 17321 bound_to 7965
  139.4947  144.6550  151.6592 LP  0  0  0  0  0  0  0  0  0  0  0  0  # atno 17342 bound_to 10162
  140.5762  144.0024  150.6243 LP  0  0  0  0  0  0  0  0  0  0  0  0  # atno 17343 bound_to 10162
  156.6834  130.8867  151.3579 LP  0  0  0  0  0  0  0  0  0  0  0  0  # atno 17370 bound_to 10713
  157.7025  130.9348  150.0828 LP  0  0  0  0  0  0  0  0  0  0  0  0  # atno 17371 bound_to 10713
  140.7959  133.8544  155.8685 LP  0  0  0  0  0  0  0  0  0  0  0  0  # atno 17394 bound_to 11000
  140.9636  134.1624  157.4634 LP  0  0  0  0  0  0  0  0  0  0  0  0  # atno 17395 bound_to 11000

$$$$
