AV-unprocessed.smi:907|AV-procd|sdf|4108|dock6
  -GOLD-   22720 2 03D 1   1.00000     0.00000
 Structure written by MMmdl.
 53 56  0  0  0  0  0  0  0  0  2 V2000
  152.6107  139.3672  156.2908 O   0  0  0  0  0  0  0  0  0  0  0  0
  151.6395  139.6349  155.5826 C   0  0  0  0  0  0  0  0  0  0  0  0
  151.0249  140.8274  155.6361 N   0  0  0  0  0  0  0  0  0  0  0  0
  151.4322  141.9327  156.4925 C   0  0  0  0  0  0  0  0  0  0  0  0
  151.0058  141.6743  157.9443 C   0  0  0  0  0  0  0  0  0  0  0  0
  151.5145  142.7431  158.8930 C   0  0  0  0  0  0  0  0  0  0  0  0
  152.2577  142.3938  160.0406 C   0  0  0  0  0  0  0  0  0  0  0  0
  152.7124  143.4255  160.8845 C   0  0  0  0  0  0  0  0  0  0  0  0
  152.4086  144.7592  160.5500 C   0  0  0  0  0  0  0  0  0  0  0  0
  151.6600  145.0031  159.3813 C   0  0  0  0  0  0  0  0  0  0  0  0
  151.2190  144.0212  158.5656 N   0  0  0  0  0  0  0  0  0  0  0  0
  151.0892  138.7506  154.7128 N   0  0  0  0  0  0  0  0  0  0  0  0
  151.6439  137.4494  154.3207 C   0  0  0  0  0  0  0  0  0  0  0  0
  150.8215  136.3405  154.9987 C   0  0  0  0  0  0  0  0  0  0  0  0
  149.3689  136.4327  154.6628 N   0  3  0  0  0  0  0  0  0  0  0  0
  148.5809  135.3464  155.3230 C   0  0  2  0  0  0  0  0  0  0  0  0
  149.3809  134.0180  155.3979 C   0  0  0  0  0  0  0  0  0  0  0  0
  148.4420  132.9895  154.7470 C   0  0  1  0  0  0  0  0  0  0  0  0
  147.2370  132.7379  155.6679 C   0  0  0  0  0  0  0  0  0  0  0  0
  146.4353  134.0435  155.5289 C   0  0  0  0  0  0  0  0  0  0  0  0
  147.3018  134.8836  154.5689 C   0  0  2  0  0  0  0  0  0  0  0  0
  147.8273  133.8111  153.6219 C   0  0  0  0  0  0  0  0  0  0  0  0
  148.8315  137.8085  154.8821 C   0  0  0  0  0  0  0  0  0  0  0  0
  149.7156  138.8867  154.2266 C   0  0  0  0  0  0  0  0  0  0  0  0
  150.2229  140.9796  155.0422 H   0  0  0  0  0  0  0  0  0  0  0  0
  152.5151  142.0525  156.4337 H   0  0  0  0  0  0  0  0  0  0  0  0
  150.9835  142.8596  156.1310 H   0  0  0  0  0  0  0  0  0  0  0  0
  149.9175  141.6325  158.0123 H   0  0  0  0  0  0  0  0  0  0  0  0
  151.3710  140.7002  158.2727 H   0  0  0  0  0  0  0  0  0  0  0  0
  152.4773  141.3614  160.2696 H   0  0  0  0  0  0  0  0  0  0  0  0
  153.2851  143.1981  161.7716 H   0  0  0  0  0  0  0  0  0  0  0  0
  152.7415  145.5757  161.1732 H   0  0  0  0  0  0  0  0  0  0  0  0
  151.4097  146.0134  159.0938 H   0  0  0  0  0  0  0  0  0  0  0  0
  151.5855  137.3467  153.2361 H   0  0  0  0  0  0  0  0  0  0  0  0
  152.6988  137.3252  154.5653 H   0  0  0  0  0  0  0  0  0  0  0  0
  151.2270  135.3742  154.7018 H   0  0  0  0  0  0  0  0  0  0  0  0
  150.9440  136.4084  156.0809 H   0  0  0  0  0  0  0  0  0  0  0  0
  148.3090  135.6898  156.3228 H   0  0  0  0  0  0  0  0  0  0  0  0
  150.3042  134.0640  154.8189 H   0  0  0  0  0  0  0  0  0  0  0  0
  149.6466  133.7505  156.4213 H   0  0  0  0  0  0  0  0  0  0  0  0
  148.9473  132.0772  154.4284 H   0  0  0  0  0  0  0  0  0  0  0  0
  146.6500  131.8876  155.3187 H   0  0  0  0  0  0  0  0  0  0  0  0
  147.5370  132.5390  156.6974 H   0  0  0  0  0  0  0  0  0  0  0  0
  145.4570  133.8429  155.0899 H   0  0  0  0  0  0  0  0  0  0  0  0
  146.2723  134.5373  156.4876 H   0  0  0  0  0  0  0  0  0  0  0  0
  146.7099  135.6636  154.0960 H   0  0  0  0  0  0  0  0  0  0  0  0
  148.5607  134.1865  152.9059 H   0  0  0  0  0  0  0  0  0  0  0  0
  147.0377  133.2839  153.0834 H   0  0  0  0  0  0  0  0  0  0  0  0
  147.8372  137.9078  154.4525 H   0  0  0  0  0  0  0  0  0  0  0  0
  148.7437  137.9977  155.9534 H   0  0  0  0  0  0  0  0  0  0  0  0
  149.2966  139.8763  154.4154 H   0  0  0  0  0  0  0  0  0  0  0  0
  149.7060  138.7681  153.1422 H   0  0  0  0  0  0  0  0  0  0  0  0
  149.2974  136.2695  153.6686 H   0  0  0  0  0  0  0  0  0  0  0  0
  1  2  2  0  0  0  0
  2  3  1  0  0  0  0
  2 12  1  0  0  0  0
  3  4  1  0  0  0  0
  3 25  1  0  0  0  0
  4  5  1  0  0  0  0
  4 26  1  0  0  0  0
  4 27  1  0  0  0  0
  5  6  1  0  0  0  0
  5 28  1  0  0  0  0
  5 29  1  0  0  0  0
  6 11  1  0  0  0  0
  6  7  2  0  0  0  0
  7  8  1  0  0  0  0
  7 30  1  0  0  0  0
  8  9  2  0  0  0  0
  8 31  1  0  0  0  0
  9 10  1  0  0  0  0
  9 32  1  0  0  0  0
 10 11  2  0  0  0  0
 10 33  1  0  0  0  0
 12 24  1  0  0  0  0
 12 13  1  0  0  0  0
 13 14  1  0  0  0  0
 13 34  1  0  0  0  0
 13 35  1  0  0  0  0
 14 15  1  0  0  0  0
 14 36  1  0  0  0  0
 14 37  1  0  0  0  0
 15 16  1  0  0  0  0
 15 23  1  0  0  0  0
 15 53  1  0  0  0  0
 16 21  1  0  0  0  0
 16 17  1  0  0  0  0
 16 38  1  0  0  0  0
 17 18  1  0  0  0  0
 17 39  1  0  0  0  0
 17 40  1  0  0  0  0
 18 22  1  0  0  0  0
 18 19  1  0  0  0  0
 18 41  1  0  0  0  0
 19 20  1  0  0  0  0
 19 42  1  0  0  0  0
 19 43  1  0  0  0  0
 20 21  1  0  0  0  0
 20 44  1  0  0  0  0
 20 45  1  0  0  0  0
 21 22  1  0  0  0  0
 21 46  1  0  0  0  0
 22 47  1  0  0  0  0
 22 48  1  0  0  0  0
 23 24  1  0  0  0  0
 23 49  1  0  0  0  0
 23 50  1  0  0  0  0
 24 51  1  0  0  0  0
 24 52  1  0  0  0  0
M  CHG  1  15   1
M  END
> <s_m_source_file>
AV-unprocessed.smi

> <i_m_source_file_index>
907

> <i_lp_mmshare_version>
43012

> <i_f3d_flags>
0

> <s_epik_input>
W0NIMl0xW0NIMl1bQ0BASF0oW0NIMl0yKVtDQEBIXShbQ0gyXVtDQEhdMTIpTihbQ0gyXVtDSDJdMylbQ0gyXVtDSDJdTjNDKD1PKVtOSF1bQ0gyXVtDSDJdYzRbY0hdW2NIXVtjSF1bY0hdbjQ=

> <s_epik_cmdline>
J2VwaWtfcHl0aG9uJywgJy1waCcsICc3LjAnLCAnLXRuJywgJzgnLCAnLW1hJywgJzIwMCcsICctbWV0YWxfYmluZGluZycsICctaW1hZScsICc8aW5maWxlLm1hZT4nLCAnLW9tYWUnLCAnPG91dGZpbGUubWFlPic=

> <r_epik_Ionization_Penalty>
0.0419258

> <r_epik_Ionization_Penalty_Charging>
0.00262064

> <r_epik_Ionization_Penalty_Neutral>
0.0393052

> <r_epik_State_Penalty>
0.0329887

> <r_epik_Charging_Adjusted_Penalty>
0.0356093

> <i_epik_Tot_Q>
1

> <i_epik_Tot_abs_Q>
1

> <r_epik_Metal_State_Penalty>
0.0309172

> <b_epik_Metal_Only>
0

> <s_lp_Force_Field>
OPLS_2005

> <r_lp_Energy>
96.3886

> <b_lp_Chiralities_Consistent>
1

> <s_lp_Variant>
AV-unprocessed.smi:907-3

> <Gold.Version>
5.8.1

> <Gold.Id.Protein>
6NUR|6NUR_protein|mol2

> <Gold.PLP.Fitness>
52.6807

> <Gold.PLP.PLP>
-45.6840

> <Gold.PLP.part.hbond>
-2.0000

> <Gold.PLP.part.metal>
0.0000

> <Gold.PLP.part.buried>
-3.2983

> <Gold.PLP.part.nonpolar>
-40.3278

> <Gold.PLP.part.repulsive>
0.3344

> <Gold.PLP.ligand.clash>
0.6261

> <Gold.PLP.ligand.torsion>
0.7369

> <Gold.PLP.Chemscore.Hbond>
3.0000

> <Gold.PLP.Chemscore.CHOScore>
0.0000

> <Gold.PLP.Chemscore.Metal>
0.0000

> <Gold.Chemscore.Hbonds>
donor molecule, donor type, donor heavy atom, donor atom, acceptor molecule, acceptor atom, score
      L1  H    15    53       P1  7948  2.00
      P1  H  7997  8008       L1     1  1.00

> <Gold.PLP.Chemscore.Internal.Correction>
0.0966

> <Gold.Rescore>
     Score         DG    S(hbond)    S(metal)    S(lipo)     H(rot)  DE(clash)    DE(int)     intcor
     21.26     -22.25       1.87        0.00     119.90       1.37       0.20       0.78       ----

> <Gold.Chemscore.Fitness>
21.2636

> <Gold.Chemscore.DG>
-22.2485

> <Gold.Chemscore.ZeroCoef>
-5.4800

> <Gold.Chemscore.Hbond>
1.8728

> <Gold.Chemscore.Metal>
0.0000

> <Gold.Chemscore.Lipo>
119.9018

> <Gold.Chemscore.Internal_Hbond>
0.0000

> <Gold.Chemscore.DEClash>
0.2028

> <Gold.Chemscore.DEInternal>
0.7821

> <Gold.Chemscore.Rot>
1.3731

> <Gold.Chemscore.Internal.Correction>
   9.000000E+99

> <Gold.Chemscore.Hbonds>
donor molecule, donor type, donor heavy atom, donor atom, acceptor molecule, acceptor atom, score
      L1  H    15    53       P1  7948  0.85
      P1  H  7997  8008       L1     1  1.00

> <Gold.Chemscore.Hbond.Weighted>
-6.2551

> <Gold.Chemscore.Metal.Weighted>
-0.0000

> <Gold.Chemscore.Lipo.Weighted>
-14.0285

> <Gold.Chemscore.Internal_Hbond.Weighted>
0.0000

> <Gold.Chemscore.DEClash.Weighted>
0.2028

> <Gold.Chemscore.DEInternal.Weighted>
0.7821

> <Gold.Chemscore.Rot.Weighted>
3.5152

> <Gold.Chemscore.Internal.Correction.Weighted>
   9.000000E+99

> <Gold.Protein.RotatedTorsions>
[ 6907 6896 6895 6894 ] final   73.49 input  -60.11 | X-H torsion
[ 7974 7965 7964 7962 ] final   74.24 input  175.53 | X-H torsion
[ 8008 7997 7996 7995 ] final  -51.68 input   59.86 | X-H torsion
[ 10167 10162 10161 10158 ] final    6.14 input  -65.29 | X-H torsion
[ 10718 10713 10712 10709 ] final -149.33 input   66.30 | X-H torsion
[ 10763 10752 10751 10750 ] final  -54.24 input  -60.55 | X-H torsion
[ 11005 11000 10999 10996 ] final   95.98 input  -57.11 | X-H torsion

> <Gold.Protein.ActiveResidues>
 VAL166  LYS551  ARG553  GLY616  TRP617  ASP618  TYR619  PRO620  LYS621  CYS622 
 ASP623  PHE694  ASN695  SER759  ASP760  ASP761  ALA762  ILE779  LEU786  VAL792 
 PHE793  MET794  SER795  GLU796  ALA797  LYS798  CYS799  TRP800  GLU811  SER814 

> <Gold.Protein.RotatedAtoms>
  152.4926  134.4414  159.9544 H   0  0  0  0  0  0  0  0  0  0  0  0  # atno 6907 bound_to 6896
  151.4398  133.3640  159.2788 H   0  0  0  0  0  0  0  0  0  0  0  0  # atno 6908 bound_to 6896
  150.9095  134.8535  159.7475 H   0  0  0  0  0  0  0  0  0  0  0  0  # atno 6909 bound_to 6896
  145.7307  139.2683  143.1543 H   0  0  0  0  0  0  0  0  0  0  0  0  # atno 7974 bound_to 7965
  154.4088  140.1242  156.4869 H   0  0  0  0  0  0  0  0  0  0  0  0  # atno 8008 bound_to 7997
  155.7029  140.3494  155.4921 H   0  0  0  0  0  0  0  0  0  0  0  0  # atno 8009 bound_to 7997
  155.9369  140.1080  157.1077 H   0  0  0  0  0  0  0  0  0  0  0  0  # atno 8010 bound_to 7997
  140.6444  143.7697  150.7476 H   0  0  0  0  0  0  0  0  0  0  0  0  # atno 10167 bound_to 10162
  156.4317  130.8079  151.2306 H   0  0  0  0  0  0  0  0  0  0  0  0  # atno 10718 bound_to 10713
  154.1717  135.6458  153.5011 H   0  0  0  0  0  0  0  0  0  0  0  0  # atno 10763 bound_to 10752
  153.0082  135.5385  154.6606 H   0  0  0  0  0  0  0  0  0  0  0  0  # atno 10764 bound_to 10752
  154.5947  135.2937  155.0571 H   0  0  0  0  0  0  0  0  0  0  0  0  # atno 10765 bound_to 10752
  139.8785  134.8927  156.4091 H   0  0  0  0  0  0  0  0  0  0  0  0  # atno 11005 bound_to 11000
  146.0540  140.8040  142.9768 LP  0  0  0  0  0  0  0  0  0  0  0  0  # atno 17320 bound_to 7965
  144.6893  140.3095  143.7250 LP  0  0  0  0  0  0  0  0  0  0  0  0  # atno 17321 bound_to 7965
  140.1335  143.4505  152.2239 LP  0  0  0  0  0  0  0  0  0  0  0  0  # atno 17342 bound_to 10162
  139.5654  144.7432  151.4037 LP  0  0  0  0  0  0  0  0  0  0  0  0  # atno 17343 bound_to 10162
  157.7508  131.0196  150.3674 LP  0  0  0  0  0  0  0  0  0  0  0  0  # atno 17370 bound_to 10713
  156.4013  130.3916  149.6958 LP  0  0  0  0  0  0  0  0  0  0  0  0  # atno 17371 bound_to 10713
  140.9213  133.7643  155.9910 LP  0  0  0  0  0  0  0  0  0  0  0  0  # atno 17394 bound_to 11000
  140.8436  134.3037  157.5303 LP  0  0  0  0  0  0  0  0  0  0  0  0  # atno 17395 bound_to 11000

$$$$
