AV-unprocessed.smi:1496|AV-procd|sdf|6056|dock9
  -GOLD-   22720 6173D 1   1.00000     0.00000
 Structure written by MMmdl.
 43 44  0  0  0  0  0  0  0  0  2 V2000
  144.2193  142.2537  155.5002 C   0  0  0  0  0  0  0  0  0  0  0  0
  145.5823  141.7102  155.9805 C   0  0  0  0  0  0  0  0  0  0  0  0
  145.6383  141.7834  157.5151 C   0  0  0  0  0  0  0  0  0  0  0  0
  145.8244  140.2545  155.5158 C   0  0  0  0  0  0  0  0  0  0  0  0
  146.0537  140.1766  154.0527 N   0  3  2  0  0  0  0  0  0  0  0  0
  146.2115  138.7778  153.5817 C   0  0  0  0  0  0  0  0  0  0  0  0
  146.5779  138.6938  152.0874 C   0  0  0  0  0  0  0  0  0  0  0  0
  146.7430  137.3100  151.6573 N   0  0  0  0  0  0  0  0  0  0  0  0
  145.7390  136.4424  151.4667 C   0  0  0  0  0  0  0  0  0  0  0  0
  144.5558  136.7371  151.6316 O   0  0  0  0  0  0  0  0  0  0  0  0
  146.2021  135.2429  151.0742 N   0  0  0  0  0  0  0  0  0  0  0  0
  145.4842  134.0471  150.7937 C   0  0  0  0  0  0  0  0  0  0  0  0
  146.0245  132.9130  150.1384 C   0  0  0  0  0  0  0  0  0  0  0  0
  145.1949  131.7974  149.9140 C   0  0  0  0  0  0  0  0  0  0  0  0
  143.8563  131.8555  150.3464 C   0  0  0  0  0  0  0  0  0  0  0  0
  143.3251  132.9313  150.9641 N   0  0  0  0  0  0  0  0  0  0  0  0
  144.1265  133.9968  151.1761 C   0  0  0  0  0  0  0  0  0  0  0  0
  147.1732  141.0659  153.6622 C   0  0  0  0  0  0  0  0  0  0  0  0
  146.8933  142.5046  154.1193 C   0  0  0  0  0  0  0  0  0  0  0  0
  146.6565  142.5359  155.5235 O   0  0  0  0  0  0  0  0  0  0  0  0
  143.3971  141.6950  155.9482 H   0  0  0  0  0  0  0  0  0  0  0  0
  144.0978  142.1829  154.4198 H   0  0  0  0  0  0  0  0  0  0  0  0
  144.0943  143.3004  155.7787 H   0  0  0  0  0  0  0  0  0  0  0  0
  144.8650  141.1640  157.9710 H   0  0  0  0  0  0  0  0  0  0  0  0
  145.4940  142.8052  157.8679 H   0  0  0  0  0  0  0  0  0  0  0  0
  146.6017  141.4407  157.8938 H   0  0  0  0  0  0  0  0  0  0  0  0
  146.6950  139.8377  156.0257 H   0  0  0  0  0  0  0  0  0  0  0  0
  144.9721  139.6326  155.7937 H   0  0  0  0  0  0  0  0  0  0  0  0
  146.9551  138.2628  154.1921 H   0  0  0  0  0  0  0  0  0  0  0  0
  145.2687  138.2506  153.7352 H   0  0  0  0  0  0  0  0  0  0  0  0
  145.8184  139.1867  151.4778 H   0  0  0  0  0  0  0  0  0  0  0  0
  147.5178  139.2071  151.8880 H   0  0  0  0  0  0  0  0  0  0  0  0
  147.6871  136.9897  151.4965 H   0  0  0  0  0  0  0  0  0  0  0  0
  147.2003  135.1819  150.9358 H   0  0  0  0  0  0  0  0  0  0  0  0
  147.0453  132.8713  149.7946 H   0  0  0  0  0  0  0  0  0  0  0  0
  145.5766  130.9172  149.4182 H   0  0  0  0  0  0  0  0  0  0  0  0
  143.1939  131.0172  150.1883 H   0  0  0  0  0  0  0  0  0  0  0  0
  143.6656  134.8397  151.6704 H   0  0  0  0  0  0  0  0  0  0  0  0
  148.1014  140.7054  154.1084 H   0  0  0  0  0  0  0  0  0  0  0  0
  147.3142  141.0585  152.5823 H   0  0  0  0  0  0  0  0  0  0  0  0
  147.7535  143.1373  153.9002 H   0  0  0  0  0  0  0  0  0  0  0  0
  146.0518  142.9317  153.5737 H   0  0  0  0  0  0  0  0  0  0  0  0
  145.2178  140.5370  153.6148 H   0  0  0  0  0  0  0  0  0  0  0  0
  1  2  1  0  0  0  0
  1 21  1  0  0  0  0
  1 22  1  0  0  0  0
  1 23  1  0  0  0  0
  2 20  1  0  0  0  0
  2  3  1  0  0  0  0
  2  4  1  0  0  0  0
  3 24  1  0  0  0  0
  3 25  1  0  0  0  0
  3 26  1  0  0  0  0
  4  5  1  0  0  0  0
  4 27  1  0  0  0  0
  4 28  1  0  0  0  0
  5  6  1  0  0  0  0
  5 18  1  0  0  0  0
  5 43  1  0  0  0  0
  6  7  1  0  0  0  0
  6 29  1  0  0  0  0
  6 30  1  0  0  0  0
  7  8  1  0  0  0  0
  7 31  1  0  0  0  0
  7 32  1  0  0  0  0
  8  9  1  0  0  0  0
  8 33  1  0  0  0  0
  9 10  2  0  0  0  0
  9 11  1  0  0  0  0
 11 12  1  0  0  0  0
 11 34  1  0  0  0  0
 12 17  1  0  0  0  0
 12 13  2  0  0  0  0
 13 14  1  0  0  0  0
 13 35  1  0  0  0  0
 14 15  2  0  0  0  0
 14 36  1  0  0  0  0
 15 16  1  0  0  0  0
 15 37  1  0  0  0  0
 16 17  2  0  0  0  0
 17 38  1  0  0  0  0
 18 19  1  0  0  0  0
 18 39  1  0  0  0  0
 18 40  1  0  0  0  0
 19 20  1  0  0  0  0
 19 41  1  0  0  0  0
 19 42  1  0  0  0  0
M  CHG  1   5   1
M  END
> <s_m_source_file>
AV-unprocessed.smi

> <i_m_source_file_index>
1496

> <i_lp_mmshare_version>
43012

> <i_f3d_flags>
0

> <s_epik_input>
W0NIM11DMShbQ0gzXSlbQ0gyXU4oW0NIMl1bQ0gyXU8xKVtDSDJdW0NIMl1bTkhdQyg9TylbTkhdYzJbY0hdW2NIXVtjSF1uW2NIXTI=

> <s_epik_cmdline>
J2VwaWtfcHl0aG9uJywgJy1waCcsICc3LjAnLCAnLXRuJywgJzgnLCAnLW1hJywgJzIwMCcsICctbWV0YWxfYmluZGluZycsICctaW1hZScsICc8aW5maWxlLm1hZT4nLCAnLW9tYWUnLCAnPG91dGZpbGUubWFlPic=

> <r_epik_Ionization_Penalty>
0.606681

> <r_epik_Ionization_Penalty_Charging>
0.602531

> <r_epik_Ionization_Penalty_Neutral>
0.00415082

> <r_epik_State_Penalty>
0.607427

> <r_epik_Charging_Adjusted_Penalty>
1.20996

> <i_epik_Tot_Q>
1

> <i_epik_Tot_abs_Q>
1

> <r_epik_Metal_State_Penalty>
0.604583

> <b_epik_Metal_Only>
0

> <s_lp_Force_Field>
OPLS_2005

> <r_lp_Energy>
20.8776

> <b_lp_Chiralities_Consistent>
1

> <s_lp_Variant>
AV-unprocessed.smi:1496-2

> <Gold.Version>
5.8.1

> <Gold.Id.Protein>
6NUR|6NUR_protein|mol2

> <Gold.PLP.Fitness>
44.4791

> <Gold.PLP.PLP>
-31.8436

> <Gold.PLP.part.hbond>
-2.8162

> <Gold.PLP.part.metal>
0.0000

> <Gold.PLP.part.buried>
-6.0636

> <Gold.PLP.part.nonpolar>
-26.8614

> <Gold.PLP.part.repulsive>
4.0300

> <Gold.PLP.ligand.clash>
0.0000

> <Gold.PLP.ligand.torsion>
0.1556

> <Gold.PLP.Chemscore.Hbond>
3.3466

> <Gold.PLP.Chemscore.CHOScore>
0.9644

> <Gold.PLP.Chemscore.Metal>
0.0000

> <Gold.Chemscore.Hbonds>
donor molecule, donor type, donor heavy atom, donor atom, acceptor molecule, acceptor atom, score
      L1  H     5    43       P1 10175  2.00
      L1  H     8    33       P1  7948  0.88
      L1  H    11    34       P1  7948  0.45
      L1  C    15    37       P1 10952  0.97

> <Gold.PLP.Chemscore.Internal.Correction>
0.0136

> <Gold.Rescore>
     Score         DG    S(hbond)    S(metal)    S(lipo)     H(rot)  DE(clash)    DE(int)     intcor
     16.62     -18.70       2.72        0.00      68.13       1.50       0.54       1.54       ----

> <Gold.Chemscore.Fitness>
16.6158

> <Gold.Chemscore.DG>
-18.7036

> <Gold.Chemscore.ZeroCoef>
-5.4800

> <Gold.Chemscore.Hbond>
2.7230

> <Gold.Chemscore.Metal>
0.0000

> <Gold.Chemscore.Lipo>
68.1313

> <Gold.Chemscore.Internal_Hbond>
0.0000

> <Gold.Chemscore.DEClash>
0.5448

> <Gold.Chemscore.DEInternal>
1.5431

> <Gold.Chemscore.Rot>
1.5010

> <Gold.Chemscore.Internal.Correction>
   9.000000E+99

> <Gold.Chemscore.Hbonds>
donor molecule, donor type, donor heavy atom, donor atom, acceptor molecule, acceptor atom, score
      L1  H     5    43       P1 10175  0.97
      L1  H     8    33       P1  7948  0.84
      L1  H    11    34       P1  7948  0.20

> <Gold.Chemscore.Hbond.Weighted>
-9.0949

> <Gold.Chemscore.Metal.Weighted>
-0.0000

> <Gold.Chemscore.Lipo.Weighted>
-7.9714

> <Gold.Chemscore.Internal_Hbond.Weighted>
0.0000

> <Gold.Chemscore.DEClash.Weighted>
0.5448

> <Gold.Chemscore.DEInternal.Weighted>
1.5431

> <Gold.Chemscore.Rot.Weighted>
3.8426

> <Gold.Chemscore.Internal.Correction.Weighted>
   9.000000E+99

> <Gold.Protein.RotatedTorsions>
[ 6907 6896 6895 6894 ] final -158.00 input  -60.11 | X-H torsion
[ 7974 7965 7964 7962 ] final   88.02 input  175.53 | X-H torsion
[ 8008 7997 7996 7995 ] final   70.31 input   59.86 | X-H torsion
[ 10167 10162 10161 10158 ] final -169.49 input  -65.29 | X-H torsion
[ 10718 10713 10712 10709 ] final    6.65 input   66.30 | X-H torsion
[ 10763 10752 10751 10750 ] final -161.03 input  -60.55 | X-H torsion
[ 11005 11000 10999 10996 ] final   15.51 input  -57.11 | X-H torsion

> <Gold.Protein.ActiveResidues>
 VAL166  LYS551  ARG553  GLY616  TRP617  ASP618  TYR619  PRO620  LYS621  CYS622 
 ASP623  PHE694  ASN695  SER759  ASP760  ASP761  ALA762  ILE779  LEU786  VAL792 
 PHE793  MET794  SER795  GLU796  ALA797  LYS798  CYS799  TRP800  GLU811  SER814 

> <Gold.Protein.RotatedAtoms>
  151.3114  133.4079  159.2646 H   0  0  0  0  0  0  0  0  0  0  0  0  # atno 6907 bound_to 6896
  151.0111  134.9398  159.8018 H   0  0  0  0  0  0  0  0  0  0  0  0  # atno 6908 bound_to 6896
  152.5301  134.3079  159.9155 H   0  0  0  0  0  0  0  0  0  0  0  0  # atno 6909 bound_to 6896
  145.5513  139.2296  143.2511 H   0  0  0  0  0  0  0  0  0  0  0  0  # atno 7974 bound_to 7965
  155.7369  140.3491  155.5085 H   0  0  0  0  0  0  0  0  0  0  0  0  # atno 8008 bound_to 7997
  155.9131  140.1054  157.1286 H   0  0  0  0  0  0  0  0  0  0  0  0  # atno 8009 bound_to 7997
  154.4059  140.1264  156.4569 H   0  0  0  0  0  0  0  0  0  0  0  0  # atno 8010 bound_to 7997
  139.5920  144.1193  152.1645 H   0  0  0  0  0  0  0  0  0  0  0  0  # atno 10167 bound_to 10162
  156.9254  130.5806  149.5648 H   0  0  0  0  0  0  0  0  0  0  0  0  # atno 10718 bound_to 10713
  154.7339  135.3053  154.8844 H   0  0  0  0  0  0  0  0  0  0  0  0  # atno 10763 bound_to 10752
  153.9679  135.6745  153.4750 H   0  0  0  0  0  0  0  0  0  0  0  0  # atno 10764 bound_to 10752
  153.0944  135.4943  154.8673 H   0  0  0  0  0  0  0  0  0  0  0  0  # atno 10765 bound_to 10752
  140.4575  134.1161  155.7711 H   0  0  0  0  0  0  0  0  0  0  0  0  # atno 11005 bound_to 11000
  146.1915  140.6336  142.9143 LP  0  0  0  0  0  0  0  0  0  0  0  0  # atno 17320 bound_to 7965
  144.7528  140.5233  143.6790 LP  0  0  0  0  0  0  0  0  0  0  0  0  # atno 17321 bound_to 7965
  140.0770  144.5732  150.7150 LP  0  0  0  0  0  0  0  0  0  0  0  0  # atno 17342 bound_to 10162
  140.7181  143.2562  151.4370 LP  0  0  0  0  0  0  0  0  0  0  0  0  # atno 17343 bound_to 10162
  156.0472  130.5546  150.8907 LP  0  0  0  0  0  0  0  0  0  0  0  0  # atno 17370 bound_to 10713
  157.5881  131.0945  150.9163 LP  0  0  0  0  0  0  0  0  0  0  0  0  # atno 17371 bound_to 10713
  141.1636  133.8745  157.1778 LP  0  0  0  0  0  0  0  0  0  0  0  0  # atno 17394 bound_to 11000
  139.9967  135.0044  157.0098 LP  0  0  0  0  0  0  0  0  0  0  0  0  # atno 17395 bound_to 11000

$$$$
