AV-unprocessed.smi:3112|AV-procd|sdf|11841|dock8
  -GOLD-   2272017223D 1   1.00000     0.00000
 Structure written by MMmdl.
 37 37  0  0  0  0  0  0  0  0  2 V2000
  147.1225  140.8144  152.9172 C   0  0  0  0  0  0  0  0  0  0  0  0
  146.9695  139.4144  153.5279 C   0  0  0  0  0  0  0  0  0  0  0  0
  146.4325  138.3677  152.5348 C   0  0  1  0  0  0  0  0  0  0  0  0
  147.4289  138.0996  151.5674 O   0  0  0  0  0  0  0  0  0  0  0  0
  146.0597  137.0482  153.2309 C   0  0  0  0  0  0  0  0  0  0  0  0
  146.4118  135.8863  152.3875 N   0  3  0  0  0  0  0  0  0  0  0  0
  146.2336  134.5595  153.0234 C   0  0  2  0  0  0  0  0  0  0  0  0
  146.9283  134.5417  154.3984 C   0  0  0  0  0  0  0  0  0  0  0  0
  146.7570  133.4489  152.0751 C   0  0  1  0  0  0  0  0  0  0  0  0
  147.0917  132.1298  152.7968 C   0  0  0  0  0  0  0  0  0  0  0  0
  145.8015  133.1952  151.0018 N   0  0  0  0  0  0  0  0  0  0  0  0
  145.9065  132.3246  149.9346 C   0  0  0  0  0  0  0  0  0  0  0  0
  144.7453  132.4092  149.2218 C   0  0  0  0  0  0  0  0  0  0  0  0
  143.9744  133.3625  149.9430 C   0  0  0  0  0  0  0  0  0  0  0  0
  144.6045  133.8224  151.0118 N   0  0  0  0  0  0  0  0  0  0  0  0
  147.4710  141.5263  153.6657 H   0  0  0  0  0  0  0  0  0  0  0  0
  146.1720  141.1811  152.5287 H   0  0  0  0  0  0  0  0  0  0  0  0
  147.8430  140.8172  152.0991 H   0  0  0  0  0  0  0  0  0  0  0  0
  147.9260  139.0862  153.9370 H   0  0  0  0  0  0  0  0  0  0  0  0
  146.2864  139.4866  154.3751 H   0  0  0  0  0  0  0  0  0  0  0  0
  145.5531  138.7708  152.0300 H   0  0  0  0  0  0  0  0  0  0  0  0
  148.0618  137.5047  151.9406 H   0  0  0  0  0  0  0  0  0  0  0  0
  146.5482  136.9790  154.2033 H   0  0  0  0  0  0  0  0  0  0  0  0
  144.9842  137.0242  153.4115 H   0  0  0  0  0  0  0  0  0  0  0  0
  145.8096  135.9151  151.5764 H   0  0  0  0  0  0  0  0  0  0  0  0
  145.1654  134.3933  153.1737 H   0  0  0  0  0  0  0  0  0  0  0  0
  146.7404  133.6107  154.9325 H   0  0  0  0  0  0  0  0  0  0  0  0
  146.5687  135.3444  155.0420 H   0  0  0  0  0  0  0  0  0  0  0  0
  148.0081  134.6573  154.2982 H   0  0  0  0  0  0  0  0  0  0  0  0
  147.6813  133.8037  151.6142 H   0  0  0  0  0  0  0  0  0  0  0  0
  147.9353  132.2454  153.4768 H   0  0  0  0  0  0  0  0  0  0  0  0
  147.3674  131.3534  152.0821 H   0  0  0  0  0  0  0  0  0  0  0  0
  146.2443  131.7620  153.3760 H   0  0  0  0  0  0  0  0  0  0  0  0
  146.7884  131.7225  149.7721 H   0  0  0  0  0  0  0  0  0  0  0  0
  144.4846  131.8704  148.3229 H   0  0  0  0  0  0  0  0  0  0  0  0
  142.9809  133.7271  149.7270 H   0  0  0  0  0  0  0  0  0  0  0  0
  147.3677  135.9780  152.0732 H   0  0  0  0  0  0  0  0  0  0  0  0
  1  2  1  0  0  0  0
  1 16  1  0  0  0  0
  1 17  1  0  0  0  0
  1 18  1  0  0  0  0
  2  3  1  0  0  0  0
  2 19  1  0  0  0  0
  2 20  1  0  0  0  0
  3  4  1  0  0  0  0
  3  5  1  0  0  0  0
  3 21  1  0  0  0  0
  4 22  1  0  0  0  0
  5  6  1  0  0  0  0
  5 23  1  0  0  0  0
  5 24  1  0  0  0  0
  6  7  1  0  0  0  0
  6 25  1  0  0  0  0
  6 37  1  0  0  0  0
  7  8  1  0  0  0  0
  7  9  1  0  0  0  0
  7 26  1  0  0  0  0
  8 27  1  0  0  0  0
  8 28  1  0  0  0  0
  8 29  1  0  0  0  0
  9 10  1  0  0  0  0
  9 11  1  0  0  0  0
  9 30  1  0  0  0  0
 10 31  1  0  0  0  0
 10 32  1  0  0  0  0
 10 33  1  0  0  0  0
 11 15  1  0  0  0  0
 11 12  1  0  0  0  0
 12 13  2  0  0  0  0
 12 34  1  0  0  0  0
 13 14  1  0  0  0  0
 13 35  1  0  0  0  0
 14 15  2  0  0  0  0
 14 36  1  0  0  0  0
M  CHG  1   6   1
M  END
> <s_m_source_file>
AV-unprocessed.smi

> <i_m_source_file_index>
3112

> <i_lp_mmshare_version>
43012

> <i_f3d_flags>
0

> <s_epik_input>
W0NIM11bQ0gyXVtDQEhdKFtPSF0pW0NIMl1bTkhdW0NASF0oW0NIM10pW0NASF0oW0NIM10pbjFbY0hdW2NIXVtjSF1uMQ==

> <s_epik_cmdline>
J2VwaWtfcHl0aG9uJywgJy1waCcsICc3LjAnLCAnLXRuJywgJzgnLCAnLW1hJywgJzIwMCcsICctbWV0YWxfYmluZGluZycsICctaW1hZScsICc8aW5maWxlLm1hZT4nLCAnLW9tYWUnLCAnPG91dGZpbGUubWFlPic=

> <r_lp_tautomer_probability>
1

> <r_epik_Ionization_Penalty>
0.0154842

> <r_epik_Ionization_Penalty_Charging>
0.0154724

> <r_epik_Ionization_Penalty_Neutral>
1.17979e-05

> <r_epik_State_Penalty>
0.0121607

> <r_epik_Charging_Adjusted_Penalty>
0.0276331

> <i_epik_Tot_Q>
1

> <i_epik_Tot_abs_Q>
1

> <r_epik_Metal_State_Penalty>
0.0121863

> <b_epik_Metal_Only>
0

> <s_lp_Force_Field>
OPLS_2005

> <r_lp_Energy>
12.5622

> <b_lp_Chiralities_Consistent>
1

> <s_lp_Variant>
AV-unprocessed.smi:3112-6

> <Gold.Version>
5.8.1

> <Gold.Id.Protein>
6NUR|6NUR_protein|mol2

> <Gold.PLP.Fitness>
42.8362

> <Gold.PLP.PLP>
-28.1640

> <Gold.PLP.part.hbond>
-3.5603

> <Gold.PLP.part.metal>
0.0000

> <Gold.PLP.part.buried>
-3.4928

> <Gold.PLP.part.nonpolar>
-21.5041

> <Gold.PLP.part.repulsive>
0.1503

> <Gold.PLP.ligand.clash>
0.0000

> <Gold.PLP.ligand.torsion>
1.0226

> <Gold.PLP.Chemscore.Hbond>
3.5420

> <Gold.PLP.Chemscore.CHOScore>
2.0000

> <Gold.PLP.Chemscore.Metal>
0.0000

> <Gold.Chemscore.Hbonds>
donor molecule, donor type, donor heavy atom, donor atom, acceptor molecule, acceptor atom, score
      L1  H     4    22       P1  7948  0.99
      L1  H     6    37       P1  7948  2.00
      P1  H  7954  7966       L1     4  0.50
      L1  C    12    34       P1 10747  1.00
      L1  C    14    36       P1 10186  1.00

> <Gold.PLP.Chemscore.Internal.Correction>
0.0914

> <Gold.Rescore>
     Score         DG    S(hbond)    S(metal)    S(lipo)     H(rot)  DE(clash)    DE(int)     intcor
     13.39     -15.39       1.96        0.00      81.40       2.41       0.35       1.65       ----

> <Gold.Chemscore.Fitness>
13.3923

> <Gold.Chemscore.DG>
-15.3906

> <Gold.Chemscore.ZeroCoef>
-5.4800

> <Gold.Chemscore.Hbond>
1.9621

> <Gold.Chemscore.Metal>
0.0000

> <Gold.Chemscore.Lipo>
81.4007

> <Gold.Chemscore.Internal_Hbond>
0.0000

> <Gold.Chemscore.DEClash>
0.3452

> <Gold.Chemscore.DEInternal>
1.6531

> <Gold.Chemscore.Rot>
2.4089

> <Gold.Chemscore.Internal.Correction>
   9.000000E+99

> <Gold.Chemscore.Hbonds>
donor molecule, donor type, donor heavy atom, donor atom, acceptor molecule, acceptor atom, score
      L1  H     4    22       P1  7948  0.87
      L1  H     6    37       P1  7948  0.98
      P1  H  7954  7966       L1     4  0.02

> <Gold.Chemscore.Hbond.Weighted>
-6.5534

> <Gold.Chemscore.Metal.Weighted>
-0.0000

> <Gold.Chemscore.Lipo.Weighted>
-9.5239

> <Gold.Chemscore.Internal_Hbond.Weighted>
0.0000

> <Gold.Chemscore.DEClash.Weighted>
0.3452

> <Gold.Chemscore.DEInternal.Weighted>
1.6531

> <Gold.Chemscore.Rot.Weighted>
6.1667

> <Gold.Chemscore.Internal.Correction.Weighted>
   9.000000E+99

> <Gold.Protein.RotatedTorsions>
[ 6907 6896 6895 6894 ] final  -54.16 input  -60.11 | X-H torsion
[ 7974 7965 7964 7962 ] final -148.66 input  175.53 | X-H torsion
[ 8008 7997 7996 7995 ] final   27.21 input   59.86 | X-H torsion
[ 10167 10162 10161 10158 ] final -133.08 input  -65.29 | X-H torsion
[ 10718 10713 10712 10709 ] final  101.26 input   66.30 | X-H torsion
[ 10763 10752 10751 10750 ] final  -61.62 input  -60.55 | X-H torsion
[ 11005 11000 10999 10996 ] final    5.10 input  -57.11 | X-H torsion

> <Gold.Protein.ActiveResidues>
 VAL166  LYS551  ARG553  GLY616  TRP617  ASP618  TYR619  PRO620  LYS621  CYS622 
 ASP623  PHE694  ASN695  SER759  ASP760  ASP761  ALA762  ILE779  LEU786  VAL792 
 PHE793  MET794  SER795  GLU796  ALA797  LYS798  CYS799  TRP800  GLU811  SER814 

> <Gold.Protein.RotatedAtoms>
  150.8363  134.7637  159.6895 H   0  0  0  0  0  0  0  0  0  0  0  0  # atno 6907 bound_to 6896
  152.4459  134.5493  159.9872 H   0  0  0  0  0  0  0  0  0  0  0  0  # atno 6908 bound_to 6896
  151.5642  133.3361  159.3013 H   0  0  0  0  0  0  0  0  0  0  0  0  # atno 6909 bound_to 6896
  144.8015  140.5167  143.5703 H   0  0  0  0  0  0  0  0  0  0  0  0  # atno 7974 bound_to 7965
  155.0393  140.3167  155.4730 H   0  0  0  0  0  0  0  0  0  0  0  0  # atno 8008 bound_to 7997
  156.2858  140.2166  156.5459 H   0  0  0  0  0  0  0  0  0  0  0  0  # atno 8009 bound_to 7997
  154.7303  140.0482  157.0708 H   0  0  0  0  0  0  0  0  0  0  0  0  # atno 8010 bound_to 7997
  139.9020  143.6596  152.2593 H   0  0  0  0  0  0  0  0  0  0  0  0  # atno 10167 bound_to 10162
  157.6834  131.0721  150.5225 H   0  0  0  0  0  0  0  0  0  0  0  0  # atno 10718 bound_to 10713
  154.2874  135.6260  153.5371 H   0  0  0  0  0  0  0  0  0  0  0  0  # atno 10763 bound_to 10752
  152.9857  135.5647  154.5428 H   0  0  0  0  0  0  0  0  0  0  0  0  # atno 10764 bound_to 10752
  154.5032  135.2873  155.1380 H   0  0  0  0  0  0  0  0  0  0  0  0  # atno 10765 bound_to 10752
  140.5745  134.0071  155.8022 H   0  0  0  0  0  0  0  0  0  0  0  0  # atno 11005 bound_to 11000
  145.5540  139.1477  143.3378 LP  0  0  0  0  0  0  0  0  0  0  0  0  # atno 17320 bound_to 7965
  146.2298  140.5678  142.8980 LP  0  0  0  0  0  0  0  0  0  0  0  0  # atno 17321 bound_to 7965
  139.7017  144.7634  151.1262 LP  0  0  0  0  0  0  0  0  0  0  0  0  # atno 17342 bound_to 10162
  140.7705  143.5449  150.9270 LP  0  0  0  0  0  0  0  0  0  0  0  0  # atno 17343 bound_to 10162
  156.5538  130.4238  149.6095 LP  0  0  0  0  0  0  0  0  0  0  0  0  # atno 17370 bound_to 10713
  156.2880  130.7108  151.1949 LP  0  0  0  0  0  0  0  0  0  0  0  0  # atno 17371 bound_to 10713
  141.1035  133.9730  157.3037 LP  0  0  0  0  0  0  0  0  0  0  0  0  # atno 17394 bound_to 11000
  139.9346  135.0197  156.8514 LP  0  0  0  0  0  0  0  0  0  0  0  0  # atno 17395 bound_to 11000

$$$$
