#       Name:                AV-unprocessed.smi:533
#       Creating user name   scv26
#       Creation time:       Thu Mar 26 23:34:33 2020


#       File generated by GOLD software.
#

@<TRIPOS>MOLECULE
AV-unprocessed.smi:533
    43    44     1
SMALL
NO_CHARGES


@<TRIPOS>ATOM
      1 ****         1.6239   4.1788  -0.4178 C.3            1 S1                 0.0000
      2 ****         1.5792   2.6509  -0.5087 C.3            1 S1                 0.0000
      3 ****         0.2165   2.1559  -0.5252 N.pl3          1 S1                 0.0000
      4 ****        -0.2985   0.8664  -0.5644 C.2            1 S1                 0.0000
      5 ****        -1.6009   0.5712  -0.5711 N.2            1 S1                 0.0000
      6 ****        -1.5966  -0.8164  -0.6029 C.2            1 S1                 0.0000
      7 ****        -0.3283  -1.3007  -0.6136 C.2            1 S1                 0.0000
      8 ****        -0.0348  -2.7391  -0.6336 C.2            1 S1                 0.0000
      9 ****         1.1043  -3.2006  -0.6354 O.2            1 S1                 0.0000
     10 ****        -1.1514  -3.5071  -0.6478 N.am           1 S1                 0.0000
     11 ****        -2.4534  -3.0855  -0.6422 C.2            1 S1                 0.0000
     12 ****        -3.3621  -3.9153  -0.6570 O.2            1 S1                 0.0000
     13 ****        -2.6849  -1.7322  -0.6189 N.am           1 S1                 0.0000
     14 ****        -4.0403  -1.1780  -0.6080 C.3            1 S1                 0.0000
     15 ****         0.5337  -0.2040  -0.5954 N.pl3          1 S1                 0.0000
     16 ****         1.9934  -0.1948  -0.5977 C.3            1 S1                 0.0000
     17 ****         2.5737  -0.1381   0.8229 C.3            1 S1                 0.0000
     18 ****         2.1099  -1.2443   1.5795 O.3            1 S1                 0.0000
     19 ****         2.6028  -1.2421   2.9071 C.3            1 S1                 0.0000
     20 ****        -1.0059  -4.5061  -0.6628 H              1 S1                 0.0000
     21 ****         2.6542   4.5346  -0.4034 H              1 S1                 0.0000
     22 ****         1.1375   4.5342   0.4913 H              1 S1                 0.0000
     23 ****         1.1247   4.6405  -1.2704 H              1 S1                 0.0000
     24 ****         2.0871   2.3138  -1.4127 H              1 S1                 0.0000
     25 ****         2.1049   2.2095   0.3385 H              1 S1                 0.0000
     26 ****        -0.4804   2.8863  -0.5105 H              1 S1                 0.0000
     27 ****        -4.8293  -1.9298  -0.6455 H              1 S1                 0.0000
     28 ****        -4.1794  -0.5181  -1.4648 H              1 S1                 0.0000
     29 ****        -4.1935  -0.5893   0.2970 H              1 S1                 0.0000
     30 ****         2.3610  -1.0731  -1.1256 H              1 S1                 0.0000
     31 ****         2.3427   0.6604  -1.1769 H              1 S1                 0.0000
     32 ****         3.6637  -0.1496   0.7755 H              1 S1                 0.0000
     33 ****         2.2786   0.7939   1.3078 H              1 S1                 0.0000
     34 ****         2.2217  -2.1129   3.4405 H              1 S1                 0.0000
     35 ****         2.2804  -0.3497   3.4452 H              1 S1                 0.0000
     36 ****         3.6925  -1.2874   2.9236 H              1 S1                 0.0000
     37 ****        -2.3833   1.1938  -0.5568 LP             1 S1                 0.0000
     38 ****         1.8929  -2.5858  -0.6228 LP             1 S1                 0.0000
     39 ****         1.2425  -4.1909  -0.6495 LP             1 S1                 0.0000
     40 ****        -3.1473  -4.8919  -0.6730 LP             1 S1                 0.0000
     41 ****        -4.3153  -3.6131  -0.6530 LP             1 S1                 0.0000
     42 ****         2.4061  -2.0868   1.1294 LP             1 S1                 0.0000
     43 ****         1.1107  -1.2157   1.6089 LP             1 S1                 0.0000
@<TRIPOS>BOND
    1    1    2 1     
    2    1   21 1     
    3    1   22 1     
    4    1   23 1     
    5    2    3 1     
    6    2   24 1     
    7    2   25 1     
    8    3    4 1     
    9    3   26 1     
   10    4   15 1     
   11    4    5 2     
   12    5    6 1     
   13    6   13 1     
   14    6    7 2     
   15    7    8 1     
   16    7   15 1     
   17    8    9 2     
   18    8   10 1     
   19   10   20 1     
   20   10   11 1     
   21   11   12 2     
   22   11   13 1     
   23   13   14 1     
   24   14   27 1     
   25   14   28 1     
   26   14   29 1     
   27   15   16 1     
   28   16   17 1     
   29   16   30 1     
   30   16   31 1     
   31   17   18 1     
   32   17   32 1     
   33   17   33 1     
   34   18   19 1     
   35   19   34 1     
   36   19   35 1     
   37   19   36 1     
   38    5   37 1     
   39    9   38 1     
   40    9   39 1     
   41   12   40 1     
   42   12   41 1     
   43   18   42 1     
   44   18   43 1     
@<TRIPOS>SUBSTRUCTURE
      1 S1             1
@<TRIPOS>SET
LONE_PAIRS      STATIC     ATOMS    <user>   **** ""
7 37 38 39 40 41 42 43
DONOR_HYDROGENS      STATIC     ATOMS    <user>   **** ""
2 26 20
ATOM$BLUE        STATIC     ATOMS    COLORGROUP SYSTEM
7 37 38 39 40 41 42 43
ATOM$RED        STATIC     ATOMS    COLORGROUP SYSTEM
2 26 20
