AV-unprocessed.smi:70|AV-procd|sdf|660|dock2
  -GOLD-   2262016563D 1   1.00000     0.00000
 Structure written by MMmdl.
 25 26  0  0  0  0  0  0  0  0  2 V2000
  149.2750  141.2798  153.1458 O   0  0  0  0  0  0  0  0  0  0  0  0
  148.8026  140.5178  154.2440 C   0  0  2  0  0  0  0  0  0  0  0  0
  149.3287  139.0690  154.1143 C   0  0  0  0  0  0  0  0  0  0  0  0
  150.7765  138.9692  154.2064 N   0  0  0  0  0  0  0  0  0  0  0  0
  151.5823  137.8846  153.9255 C   0  0  0  0  0  0  0  0  0  0  0  0
  152.8406  138.3469  154.1863 C   0  0  0  0  0  0  0  0  0  0  0  0
  152.7505  139.6725  154.6062 N   0  0  0  0  0  0  0  0  0  0  0  0
  151.5071  140.0371  154.6077 N   0  0  0  0  0  0  0  0  0  0  0  0
  147.2750  140.6101  154.2781 C   0  0  0  0  0  0  0  0  0  0  0  0
  147.0035  141.9581  154.9490 C   0  0  0  0  0  0  0  0  0  0  0  0
  148.1487  142.2103  155.8452 N   0  3  0  0  0  0  0  0  0  0  0  0
  149.2133  141.2320  155.5425 C   0  0  0  0  0  0  0  0  0  0  0  0
  149.4645  140.6936  152.4284 H   0  0  0  0  0  0  0  0  0  0  0  0
  148.9057  138.4486  154.9056 H   0  0  0  0  0  0  0  0  0  0  0  0
  149.0021  138.6244  153.1726 H   0  0  0  0  0  0  0  0  0  0  0  0
  151.2110  136.9300  153.5829 H   0  0  0  0  0  0  0  0  0  0  0  0
  153.7927  137.8427  154.1075 H   0  0  0  0  0  0  0  0  0  0  0  0
  146.8120  140.5234  153.2941 H   0  0  0  0  0  0  0  0  0  0  0  0
  146.8678  139.8134  154.9026 H   0  0  0  0  0  0  0  0  0  0  0  0
  146.9727  142.7509  154.2007 H   0  0  0  0  0  0  0  0  0  0  0  0
  146.0586  141.9714  155.4926 H   0  0  0  0  0  0  0  0  0  0  0  0
  148.4898  143.1482  155.6896 H   0  0  0  0  0  0  0  0  0  0  0  0
  149.2432  140.5206  156.3688 H   0  0  0  0  0  0  0  0  0  0  0  0
  150.1937  141.7069  155.4832 H   0  0  0  0  0  0  0  0  0  0  0  0
  147.8645  142.1081  156.8090 H   0  0  0  0  0  0  0  0  0  0  0  0
  1  2  1  0  0  0  0
  1 13  1  0  0  0  0
  2 12  1  0  0  0  0
  2  3  1  0  0  0  0
  2  9  1  0  0  0  0
  3  4  1  0  0  0  0
  3 14  1  0  0  0  0
  3 15  1  0  0  0  0
  4  8  1  0  0  0  0
  4  5  1  0  0  0  0
  5  6  2  0  0  0  0
  5 16  1  0  0  0  0
  6  7  1  0  0  0  0
  6 17  1  0  0  0  0
  7  8  2  0  0  0  0
  9 10  1  0  0  0  0
  9 18  1  0  0  0  0
  9 19  1  0  0  0  0
 10 11  1  0  0  0  0
 10 20  1  0  0  0  0
 10 21  1  0  0  0  0
 11 12  1  0  0  0  0
 11 22  1  0  0  0  0
 11 25  1  0  0  0  0
 12 23  1  0  0  0  0
 12 24  1  0  0  0  0
M  CHG  1  11   1
M  END
> <s_m_source_file>
AV-unprocessed.smi

> <i_m_source_file_index>
70

> <i_lp_mmshare_version>
43012

> <i_f3d_flags>
0

> <s_epik_input>
W0NIMl0xW05IXVtDSDJdW0NIMl1bQ0BAXTEoW09IXSlbQ0gyXW4yW2NIXVtjSF1ubjI=

> <s_epik_cmdline>
J2VwaWtfcHl0aG9uJywgJy1waCcsICc3LjAnLCAnLXRuJywgJzgnLCAnLW1hJywgJzIwMCcsICctbWV0YWxfYmluZGluZycsICctaW1hZScsICc8aW5maWxlLm1hZT4nLCAnLW9tYWUnLCAnPG91dGZpbGUubWFlPic=

> <r_lp_tautomer_probability>
1

> <r_epik_Ionization_Penalty>
0.00649776

> <r_epik_Ionization_Penalty_Charging>
0.00648305

> <r_epik_Ionization_Penalty_Neutral>
1.4704e-05

> <r_epik_State_Penalty>
0.00479756

> <r_epik_Charging_Adjusted_Penalty>
0.0112806

> <i_epik_Tot_Q>
1

> <i_epik_Tot_abs_Q>
1

> <r_epik_Metal_State_Penalty>
-0

> <b_epik_Metal_Only>
0

> <s_lp_Force_Field>
OPLS_2005

> <r_lp_Energy>
24.9841

> <b_lp_Chiralities_Consistent>
1

> <s_lp_Variant>
AV-unprocessed.smi:70-2

> <Gold.Version>
5.8.1

> <Gold.Id.Protein>
6NUR|6NUR_protein|mol2

> <Gold.PLP.Fitness>
45.9570

> <Gold.PLP.PLP>
-27.6652

> <Gold.PLP.part.hbond>
-6.4642

> <Gold.PLP.part.metal>
0.0000

> <Gold.PLP.part.buried>
-3.0210

> <Gold.PLP.part.nonpolar>
-19.1309

> <Gold.PLP.part.repulsive>
0.1310

> <Gold.PLP.ligand.clash>
0.0000

> <Gold.PLP.ligand.torsion>
0.1267

> <Gold.PLP.Chemscore.Hbond>
5.3250

> <Gold.PLP.Chemscore.CHOScore>
0.8561

> <Gold.PLP.Chemscore.Metal>
0.0000

> <Gold.Chemscore.Hbonds>
donor molecule, donor type, donor heavy atom, donor atom, acceptor molecule, acceptor atom, score
      L1  H     1    13       P1  7957  0.73
      L1  H    11    22       P1  8028  2.00
      P1  H  7989  7998       L1     8  0.46
      P1  H  7997  8009       L1     7  0.59
      P1  H  8011  8017       L1     1  0.40
      L1  C     5    16       P1  7949  1.00

> <Gold.PLP.Chemscore.Internal.Correction>
0.0019

> <Gold.Rescore>
     Score         DG    S(hbond)    S(metal)    S(lipo)     H(rot)  DE(clash)    DE(int)     intcor
     14.15     -16.04       2.94        0.00      47.05       1.87       0.02       1.87       ----

> <Gold.Chemscore.Fitness>
14.1462

> <Gold.Chemscore.DG>
-16.0421

> <Gold.Chemscore.ZeroCoef>
-5.4800

> <Gold.Chemscore.Hbond>
2.9449

> <Gold.Chemscore.Metal>
0.0000

> <Gold.Chemscore.Lipo>
47.0523

> <Gold.Chemscore.Internal_Hbond>
0.0000

> <Gold.Chemscore.DEClash>
0.0231

> <Gold.Chemscore.DEInternal>
1.8728

> <Gold.Chemscore.Rot>
1.8669

> <Gold.Chemscore.Internal.Correction>
   9.000000E+99

> <Gold.Chemscore.Hbonds>
donor molecule, donor type, donor heavy atom, donor atom, acceptor molecule, acceptor atom, score
      L1  H     1    13       P1  7957  0.73
      L1  H    11    22       P1  8028  0.98
      P1  H  7989  7998       L1     8  0.03
      P1  H  7997  8009       L1     7  0.46
      P1  H  8011  8017       L1     1  0.01

> <Gold.Chemscore.Hbond.Weighted>
-9.8361

> <Gold.Chemscore.Metal.Weighted>
-0.0000

> <Gold.Chemscore.Lipo.Weighted>
-5.5051

> <Gold.Chemscore.Internal_Hbond.Weighted>
0.0000

> <Gold.Chemscore.DEClash.Weighted>
0.0231

> <Gold.Chemscore.DEInternal.Weighted>
1.8728

> <Gold.Chemscore.Rot.Weighted>
4.7791

> <Gold.Chemscore.Internal.Correction.Weighted>
   9.000000E+99

> <Gold.Protein.RotatedTorsions>
[ 6907 6896 6895 6894 ] final   12.73 input  -60.11 | X-H torsion
[ 7974 7965 7964 7962 ] final  -37.09 input  175.53 | X-H torsion
[ 8008 7997 7996 7995 ] final -138.34 input   59.86 | X-H torsion
[ 10167 10162 10161 10158 ] final  -86.42 input  -65.29 | X-H torsion
[ 10718 10713 10712 10709 ] final    7.76 input   66.30 | X-H torsion
[ 10763 10752 10751 10750 ] final  175.31 input  -60.55 | X-H torsion
[ 11005 11000 10999 10996 ] final  -49.14 input  -57.11 | X-H torsion

> <Gold.Protein.ActiveResidues>
 VAL166  LYS551  ARG553  GLY616  TRP617  ASP618  TYR619  PRO620  LYS621  CYS622 
 ASP623  PHE694  ASN695  SER759  ASP760  ASP761  ALA762  ILE779  LEU786  VAL792 
 PHE793  MET794  SER795  GLU796  ALA797  LYS798  CYS799  TRP800  GLU811  SER814 

> <Gold.Protein.RotatedAtoms>
  151.7751  135.0776  160.0365 H   0  0  0  0  0  0  0  0  0  0  0  0  # atno 6907 bound_to 6896
  152.3262  133.5903  159.5786 H   0  0  0  0  0  0  0  0  0  0  0  0  # atno 6908 bound_to 6896
  150.7397  133.9853  159.3631 H   0  0  0  0  0  0  0  0  0  0  0  0  # atno 6909 bound_to 6896
  146.0605  140.6355  142.8999 H   0  0  0  0  0  0  0  0  0  0  0  0  # atno 7974 bound_to 7965
  155.4267  140.0522  157.3021 H   0  0  0  0  0  0  0  0  0  0  0  0  # atno 8008 bound_to 7997
  154.4878  140.2108  155.9574 H   0  0  0  0  0  0  0  0  0  0  0  0  # atno 8009 bound_to 7997
  156.1300  140.3173  155.8339 H   0  0  0  0  0  0  0  0  0  0  0  0  # atno 8010 bound_to 7997
  140.3943  143.2691  151.9224 H   0  0  0  0  0  0  0  0  0  0  0  0  # atno 10167 bound_to 10162
  156.9416  130.5863  149.5653 H   0  0  0  0  0  0  0  0  0  0  0  0  # atno 10718 bound_to 10713
  154.4658  135.2769  155.1679 H   0  0  0  0  0  0  0  0  0  0  0  0  # atno 10763 bound_to 10752
  154.3448  135.6162  153.5617 H   0  0  0  0  0  0  0  0  0  0  0  0  # atno 10764 bound_to 10752
  152.9859  135.5797  154.5029 H   0  0  0  0  0  0  0  0  0  0  0  0  # atno 10765 bound_to 10752
  141.0742  133.6670  156.3543 H   0  0  0  0  0  0  0  0  0  0  0  0  # atno 11005 bound_to 11000
  144.7172  140.4251  143.7035 LP  0  0  0  0  0  0  0  0  0  0  0  0  # atno 17320 bound_to 7965
  145.6568  139.1574  143.2831 LP  0  0  0  0  0  0  0  0  0  0  0  0  # atno 17321 bound_to 7965
  139.4787  144.5696  151.8109 LP  0  0  0  0  0  0  0  0  0  0  0  0  # atno 17342 bound_to 10162
  140.4807  144.1454  150.5932 LP  0  0  0  0  0  0  0  0  0  0  0  0  # atno 17343 bound_to 10162
  156.0402  130.5485  150.8751 LP  0  0  0  0  0  0  0  0  0  0  0  0  # atno 17370 bound_to 10713
  157.5781  131.0946  150.9314 LP  0  0  0  0  0  0  0  0  0  0  0  0  # atno 17371 bound_to 10713
  140.5609  134.5935  157.5433 LP  0  0  0  0  0  0  0  0  0  0  0  0  # atno 17394 bound_to 11000
  139.9554  134.7543  156.0353 LP  0  0  0  0  0  0  0  0  0  0  0  0  # atno 17395 bound_to 11000

$$$$
