AV-unprocessed.smi:1686|AV-procd|sdf|6762|dock3
  -GOLD-   22720 7523D 1   1.00000     0.00000
 Structure written by MMmdl.
 41 43  0  0  0  0  0  0  0  0  1 V2000
  144.9655  141.7729  155.4961 C   0  0  0  0  0  0  0  0  0  0  0  0
  145.8138  140.8095  156.2758 C   0  0  0  0  0  0  0  0  0  0  0  0
  145.3226  140.2537  157.3755 N   0  0  0  0  0  0  0  0  0  0  0  0
  146.3228  139.4096  157.8711 O   0  0  0  0  0  0  0  0  0  0  0  0
  147.3770  139.5075  157.0294 C   0  0  0  0  0  0  0  0  0  0  0  0
  148.8266  138.6139  157.2630 Cl  0  0  0  0  0  0  0  0  0  0  0  0
  147.1412  140.3696  155.9971 C   0  0  0  0  0  0  0  0  0  0  0  0
  148.0358  140.7501  154.8416 C   0  0  0  0  0  0  0  0  0  0  0  0
  149.4922  140.7989  155.3071 C   0  0  0  0  0  0  0  0  0  0  0  0
  150.3247  140.0433  154.8072 O   0  0  0  0  0  0  0  0  0  0  0  0
  149.7833  141.7073  156.2514 N   0  0  0  0  0  0  0  0  0  0  0  0
  151.1164  142.0417  156.7443 C   0  0  2  0  0  0  0  0  0  0  0  0
  151.7937  140.7548  157.2449 C   0  0  0  0  0  0  0  0  0  0  0  0
  150.9862  143.1273  157.8413 C   0  0  2  0  0  0  0  0  0  0  0  0
  150.9234  144.5724  157.2813 C   0  0  0  0  0  0  0  0  0  0  0  0
  152.0343  145.3016  158.0560 C   0  0  1  0  0  0  0  0  0  0  0  0
  151.6215  145.4503  159.5314 C   0  0  0  0  0  0  0  0  0  0  0  0
  151.7564  144.0124  160.0659 C   0  0  0  0  0  0  0  0  0  0  0  0
  152.1880  143.2225  158.8149 C   0  0  2  0  0  0  0  0  0  0  0  0
  153.1097  144.2263  158.1297 C   0  0  0  0  0  0  0  0  0  0  0  0
  145.1627  141.6960  154.4269 H   0  0  0  0  0  0  0  0  0  0  0  0
  145.1662  142.8007  155.7985 H   0  0  0  0  0  0  0  0  0  0  0  0
  143.9021  141.5831  155.6466 H   0  0  0  0  0  0  0  0  0  0  0  0
  147.9553  140.0389  154.0192 H   0  0  0  0  0  0  0  0  0  0  0  0
  147.7567  141.7215  154.4312 H   0  0  0  0  0  0  0  0  0  0  0  0
  149.0231  142.2708  156.6031 H   0  0  0  0  0  0  0  0  0  0  0  0
  151.7172  142.4470  155.9287 H   0  0  0  0  0  0  0  0  0  0  0  0
  152.8227  140.9330  157.5546 H   0  0  0  0  0  0  0  0  0  0  0  0
  151.8243  139.9992  156.4592 H   0  0  0  0  0  0  0  0  0  0  0  0
  151.2588  140.3282  158.0938 H   0  0  0  0  0  0  0  0  0  0  0  0
  150.0767  142.9211  158.4080 H   0  0  0  0  0  0  0  0  0  0  0  0
  151.1446  144.6016  156.2135 H   0  0  0  0  0  0  0  0  0  0  0  0
  149.9442  145.0312  157.4244 H   0  0  0  0  0  0  0  0  0  0  0  0
  152.3489  146.2368  157.5921 H   0  0  0  0  0  0  0  0  0  0  0  0
  152.2985  146.1218  160.0610 H   0  0  0  0  0  0  0  0  0  0  0  0
  150.6088  145.8412  159.6377 H   0  0  0  0  0  0  0  0  0  0  0  0
  152.5255  143.9633  160.8377 H   0  0  0  0  0  0  0  0  0  0  0  0
  150.8278  143.6383  160.4986 H   0  0  0  0  0  0  0  0  0  0  0  0
  152.6554  142.2697  159.0598 H   0  0  0  0  0  0  0  0  0  0  0  0
  153.4634  143.8981  157.1510 H   0  0  0  0  0  0  0  0  0  0  0  0
  153.9674  144.5130  158.7410 H   0  0  0  0  0  0  0  0  0  0  0  0
  1  2  1  0  0  0  0
  1 21  1  0  0  0  0
  1 22  1  0  0  0  0
  1 23  1  0  0  0  0
  2  7  1  0  0  0  0
  2  3  2  0  0  0  0
  3  4  1  0  0  0  0
  4  5  1  0  0  0  0
  5  6  1  0  0  0  0
  5  7  2  0  0  0  0
  7  8  1  0  0  0  0
  8  9  1  0  0  0  0
  8 24  1  0  0  0  0
  8 25  1  0  0  0  0
  9 10  2  0  0  0  0
  9 11  1  0  0  0  0
 11 12  1  0  0  0  0
 11 26  1  0  0  0  0
 12 13  1  0  0  0  0
 12 14  1  0  0  0  0
 12 27  1  0  0  0  0
 13 28  1  0  0  0  0
 13 29  1  0  0  0  0
 13 30  1  0  0  0  0
 14 19  1  0  0  0  0
 14 15  1  0  0  0  0
 14 31  1  0  0  0  0
 15 16  1  0  0  0  0
 15 32  1  0  0  0  0
 15 33  1  0  0  0  0
 16 20  1  0  0  0  0
 16 17  1  0  0  0  0
 16 34  1  0  0  0  0
 17 18  1  0  0  0  0
 17 35  1  0  0  0  0
 17 36  1  0  0  0  0
 18 19  1  0  0  0  0
 18 37  1  0  0  0  0
 18 38  1  0  0  0  0
 19 20  1  0  0  0  0
 19 39  1  0  0  0  0
 20 40  1  0  0  0  0
 20 41  1  0  0  0  0
M  END
> <s_m_source_file>
AV-unprocessed.smi

> <i_m_source_file_index>
1686

> <i_lp_mmshare_version>
43012

> <i_f3d_flags>
0

> <s_epik_input>
W0NIM11jMW5vYyhDbCljMVtDSDJdQyg9TylbTkhdW0NASF0oW0NIM10pW0NASF0oW0NIMl1bQ0BIXTIzKVtDQEhdKFtDSDJdMylbQ0gyXVtDSDJdMg==

> <s_epik_cmdline>
J2VwaWtfcHl0aG9uJywgJy1waCcsICc3LjAnLCAnLXRuJywgJzgnLCAnLW1hJywgJzIwMCcsICctbWV0YWxfYmluZGluZycsICctaW1hZScsICc8aW5maWxlLm1hZT4nLCAnLW9tYWUnLCAnPG91dGZpbGUubWFlPic=

> <r_lp_tautomer_probability>
1

> <r_epik_Ionization_Penalty>
2.01576e-08

> <r_epik_Ionization_Penalty_Charging>
0

> <r_epik_Ionization_Penalty_Neutral>
2.01576e-08

> <r_epik_State_Penalty>
-0

> <r_epik_Charging_Adjusted_Penalty>
0

> <i_epik_Tot_Q>
0

> <i_epik_Tot_abs_Q>
0

> <r_epik_Metal_State_Penalty>
-0

> <b_epik_Metal_Only>
0

> <s_lp_Force_Field>
OPLS_2005

> <r_lp_Energy>
45.7389

> <b_lp_Chiralities_Consistent>
1

> <s_lp_Variant>
AV-unprocessed.smi:1686-5

> <Gold.Version>
5.8.1

> <Gold.Id.Protein>
6NUR|6NUR_protein|mol2

> <Gold.PLP.Fitness>
49.9900

> <Gold.PLP.PLP>
-45.7114

> <Gold.PLP.part.hbond>
-2.0000

> <Gold.PLP.part.metal>
0.0000

> <Gold.PLP.part.buried>
-4.4430

> <Gold.PLP.part.nonpolar>
-38.8004

> <Gold.PLP.part.repulsive>
0.3320

> <Gold.PLP.ligand.clash>
0.0000

> <Gold.PLP.ligand.torsion>
0.8751

> <Gold.PLP.Chemscore.Hbond>
2.0000

> <Gold.PLP.Chemscore.CHOScore>
0.0000

> <Gold.PLP.Chemscore.Metal>
0.0000

> <Gold.Chemscore.Hbonds>
donor molecule, donor type, donor heavy atom, donor atom, acceptor molecule, acceptor atom, score
      P1  H  7989  7998       L1    10  1.00

> <Gold.PLP.Chemscore.Internal.Correction>
0.0288

> <Gold.Rescore>
     Score         DG    S(hbond)    S(metal)    S(lipo)     H(rot)  DE(clash)    DE(int)     intcor
     18.00     -21.01       1.51        0.00     121.74       1.46       0.22       2.79       ----

> <Gold.Chemscore.Fitness>
17.9992

> <Gold.Chemscore.DG>
-21.0143

> <Gold.Chemscore.ZeroCoef>
-5.4800

> <Gold.Chemscore.Hbond>
1.5092

> <Gold.Chemscore.Metal>
0.0000

> <Gold.Chemscore.Lipo>
121.7389

> <Gold.Chemscore.Internal_Hbond>
0.0000

> <Gold.Chemscore.DEClash>
0.2247

> <Gold.Chemscore.DEInternal>
2.7904

> <Gold.Chemscore.Rot>
1.4648

> <Gold.Chemscore.Internal.Correction>
   9.000000E+99

> <Gold.Chemscore.Hbonds>
donor molecule, donor type, donor heavy atom, donor atom, acceptor molecule, acceptor atom, score
      P1  H  7989  7998       L1    10  0.86

> <Gold.Chemscore.Hbond.Weighted>
-5.0408

> <Gold.Chemscore.Metal.Weighted>
-0.0000

> <Gold.Chemscore.Lipo.Weighted>
-14.2435

> <Gold.Chemscore.Internal_Hbond.Weighted>
0.0000

> <Gold.Chemscore.DEClash.Weighted>
0.2247

> <Gold.Chemscore.DEInternal.Weighted>
2.7904

> <Gold.Chemscore.Rot.Weighted>
3.7500

> <Gold.Chemscore.Internal.Correction.Weighted>
   9.000000E+99

> <Gold.Protein.RotatedTorsions>
[ 6907 6896 6895 6894 ] final   -3.20 input  -60.11 | X-H torsion
[ 7974 7965 7964 7962 ] final  177.58 input  175.53 | X-H torsion
[ 8008 7997 7996 7995 ] final -169.26 input   59.86 | X-H torsion
[ 10167 10162 10161 10158 ] final  -80.81 input  -65.29 | X-H torsion
[ 10718 10713 10712 10709 ] final   88.82 input   66.30 | X-H torsion
[ 10763 10752 10751 10750 ] final  126.21 input  -60.55 | X-H torsion
[ 11005 11000 10999 10996 ] final -141.63 input  -57.11 | X-H torsion

> <Gold.Protein.ActiveResidues>
 VAL166  LYS551  ARG553  GLY616  TRP617  ASP618  TYR619  PRO620  LYS621  CYS622 
 ASP623  PHE694  ASN695  SER759  ASP760  ASP761  ALA762  ILE779  LEU786  VAL792 
 PHE793  MET794  SER795  GLU796  ALA797  LYS798  CYS799  TRP800  GLU811  SER814 

> <Gold.Protein.RotatedAtoms>
  151.5177  135.1066  159.9870 H   0  0  0  0  0  0  0  0  0  0  0  0  # atno 6907 bound_to 6896
  152.4634  133.7867  159.6890 H   0  0  0  0  0  0  0  0  0  0  0  0  # atno 6908 bound_to 6896
  150.8606  133.7584  159.3019 H   0  0  0  0  0  0  0  0  0  0  0  0  # atno 6909 bound_to 6896
  144.7167  140.0269  143.6439 H   0  0  0  0  0  0  0  0  0  0  0  0  # atno 7974 bound_to 7965
  155.9025  140.1043  157.1339 H   0  0  0  0  0  0  0  0  0  0  0  0  # atno 8008 bound_to 7997
  154.4028  140.1290  156.4519 H   0  0  0  0  0  0  0  0  0  0  0  0  # atno 8009 bound_to 7997
  155.7405  140.3467  155.5104 H   0  0  0  0  0  0  0  0  0  0  0  0  # atno 8010 bound_to 7997
  140.4469  143.2496  151.8545 H   0  0  0  0  0  0  0  0  0  0  0  0  # atno 10167 bound_to 10162
  157.6951  131.0309  150.3332 H   0  0  0  0  0  0  0  0  0  0  0  0  # atno 10718 bound_to 10713
  153.6897  135.3301  155.3199 H   0  0  0  0  0  0  0  0  0  0  0  0  # atno 10763 bound_to 10752
  154.8443  135.4428  154.1521 H   0  0  0  0  0  0  0  0  0  0  0  0  # atno 10764 bound_to 10752
  153.2559  135.6986  153.7707 H   0  0  0  0  0  0  0  0  0  0  0  0  # atno 10765 bound_to 10752
  140.8305  134.2523  157.4859 H   0  0  0  0  0  0  0  0  0  0  0  0  # atno 11005 bound_to 11000
  146.0135  139.3190  143.0856 LP  0  0  0  0  0  0  0  0  0  0  0  0  # atno 17320 bound_to 7965
  145.8654  140.9451  143.0678 LP  0  0  0  0  0  0  0  0  0  0  0  0  # atno 17321 bound_to 7965
  139.4793  144.5165  151.8861 LP  0  0  0  0  0  0  0  0  0  0  0  0  # atno 17342 bound_to 10162
  140.4253  144.2188  150.5887 LP  0  0  0  0  0  0  0  0  0  0  0  0  # atno 17343 bound_to 10162
  156.3803  130.3879  149.7107 LP  0  0  0  0  0  0  0  0  0  0  0  0  # atno 17370 bound_to 10713
  156.4491  130.7898  151.2919 LP  0  0  0  0  0  0  0  0  0  0  0  0  # atno 17371 bound_to 10713
  139.8705  134.9583  156.4297 LP  0  0  0  0  0  0  0  0  0  0  0  0  # atno 17394 bound_to 11000
  140.9003  133.7784  155.9672 LP  0  0  0  0  0  0  0  0  0  0  0  0  # atno 17395 bound_to 11000

$$$$
