#       Name:                AV-unprocessed.smi:1687
#       Creating user name   scv26
#       Creation time:       Fri Mar 27 07:52:49 2020


#       File generated by GOLD software.
#

@<TRIPOS>MOLECULE
AV-unprocessed.smi:1687
    48    49     1
SMALL
NO_CHARGES


@<TRIPOS>ATOM
      1 ****        -3.1218  -3.5139  -4.2792 C.3            1 S1                 0.0000
      2 ****        -2.2446  -2.9320  -3.1617 C.3            1 S1                 0.0000
      3 ****        -2.9839  -2.9070  -1.8125 C.3            1 S1                 0.0000
      4 ****        -2.1121  -2.2891  -0.7059 C.3            1 S1                 0.0000
      5 ****        -1.6663  -0.9227  -1.0854 N.4            1 S1                 1.0000
      6 ****        -1.0356  -0.1650   0.0352 C.3            1 S1                 0.0000
      7 ****        -1.1508   1.3512  -0.2156 C.3            1 S1                 0.0000
      8 ****         0.4095  -0.6333   0.3472 C.3            1 S1                 0.0000
      9 ****         0.9727   0.0290   1.5213 N.am           1 S1                 0.0000
     10 ****         1.8002   1.0846   1.4945 C.2            1 S1                 0.0000
     11 ****         2.1616   1.6345   0.4537 O.2            1 S1                 0.0000
     12 ****         2.1646   1.4512   2.7359 N.am           1 S1                 0.0000
     13 ****         3.0173   2.5207   3.1192 C.ar           1 S1                 0.0000
     14 ****         3.2240   2.6528   4.5111 C.ar           1 S1                 0.0000
     15 ****         4.0540   3.6834   4.9936 C.ar           1 S1                 0.0000
     16 ****         4.6563   4.5567   4.0704 C.ar           1 S1                 0.0000
     17 ****         4.3983   4.3557   2.7017 C.ar           1 S1                 0.0000
     18 ****         3.6028   3.3690   2.2374 N.ar           1 S1                 0.0000
     19 ****        -0.9031  -0.9300  -2.3634 C.3            1 S1                 0.0000
     20 ****        -1.7555  -1.5133  -3.5023 C.3            1 S1                 0.0000
     21 ****        -4.0179  -2.9126  -4.4353 H              1 S1                 0.0000
     22 ****        -3.4404  -4.5289  -4.0400 H              1 S1                 0.0000
     23 ****        -2.5792  -3.5538  -5.2242 H              1 S1                 0.0000
     24 ****        -1.3708  -3.5770  -3.0568 H              1 S1                 0.0000
     25 ****        -3.9086  -2.3359  -1.9077 H              1 S1                 0.0000
     26 ****        -3.2748  -3.9187  -1.5274 H              1 S1                 0.0000
     27 ****        -2.6875  -2.2505   0.2197 H              1 S1                 0.0000
     28 ****        -1.2466  -2.9249  -0.5164 H              1 S1                 0.0000
     29 ****        -1.6398  -0.3600   0.9225 H              1 S1                 0.0000
     30 ****        -0.9044   1.9220   0.6797 H              1 S1                 0.0000
     31 ****        -2.1675   1.6267  -0.4973 H              1 S1                 0.0000
     32 ****        -0.4819   1.6856  -1.0086 H              1 S1                 0.0000
     33 ****         0.4219  -1.7038   0.5507 H              1 S1                 0.0000
     34 ****         1.0649  -0.4819  -0.5113 H              1 S1                 0.0000
     35 ****         0.7278  -0.3568   2.4217 H              1 S1                 0.0000
     36 ****         1.7904   0.9029   3.4958 H              1 S1                 0.0000
     37 ****         2.7534   1.9734   5.2070 H              1 S1                 0.0000
     38 ****         4.2245   3.8014   6.0536 H              1 S1                 0.0000
     39 ****         5.2990   5.3588   4.4018 H              1 S1                 0.0000
     40 ****         4.8417   5.0033   1.9599 H              1 S1                 0.0000
     41 ****        -0.5965   0.0805  -2.6312 H              1 S1                 0.0000
     42 ****         0.0070  -1.5214  -2.2548 H              1 S1                 0.0000
     43 ****        -1.1726  -1.5307  -4.4241 H              1 S1                 0.0000
     44 ****        -2.6092  -0.8601  -3.6894 H              1 S1                 0.0000
     45 ****        -2.5189  -0.4191  -1.2840 H              1 S1                 0.0000
     46 ****         1.8361   1.2965  -0.4294 LP             1 S1                 0.0000
     47 ****         2.7805   2.4190   0.4916 LP             1 S1                 0.0000
     48 ****         3.4469   3.2646   1.2552 LP             1 S1                 0.0000
@<TRIPOS>BOND
    1    1    2 1     
    2    1   21 1     
    3    1   22 1     
    4    1   23 1     
    5    2   20 1     
    6    2    3 1     
    7    2   24 1     
    8    3    4 1     
    9    3   25 1     
   10    3   26 1     
   11    4    5 1     
   12    4   27 1     
   13    4   28 1     
   14    5    6 1     
   15    5   19 1     
   16    5   45 1     
   17    6    7 1     
   18    6    8 1     
   19    6   29 1     
   20    7   30 1     
   21    7   31 1     
   22    7   32 1     
   23    8    9 1     
   24    8   33 1     
   25    8   34 1     
   26    9   10 am    
   27    9   35 1     
   28   10   11 2     
   29   10   12 am    
   30   12   13 1     
   31   12   36 1     
   32   13   18 ar    
   33   13   14 ar    
   34   14   15 ar    
   35   14   37 1     
   36   15   16 ar    
   37   15   38 1     
   38   16   17 ar    
   39   16   39 1     
   40   17   18 ar    
   41   17   40 1     
   42   19   20 1     
   43   19   41 1     
   44   19   42 1     
   45   20   43 1     
   46   20   44 1     
   47   11   46 1     
   48   11   47 1     
   49   18   48 1     
@<TRIPOS>SUBSTRUCTURE
      1 S1             1
@<TRIPOS>SET
LONE_PAIRS      STATIC     ATOMS    <user>   **** ""
3 46 47 48
DONOR_HYDROGENS      STATIC     ATOMS    <user>   **** ""
3 45 35 36
ATOM$BLUE        STATIC     ATOMS    COLORGROUP SYSTEM
3 46 47 48
ATOM$RED        STATIC     ATOMS    COLORGROUP SYSTEM
3 45 35 36
