#       Name:                AV-unprocessed.smi:2766
#       Creating user name   scv26
#       Creation time:       Fri Mar 27 15:09:44 2020


#       File generated by GOLD software.
#

@<TRIPOS>MOLECULE
AV-unprocessed.smi:2766
    37    38     1
SMALL
NO_CHARGES


@<TRIPOS>ATOM
      1 ****        -3.8668   2.3972   1.6869 C.3            1 S1                 0.0000
      2 ****        -2.4521   2.3310   1.7348 O.3            1 S1                 0.0000
      3 ****        -1.9498   1.0945   1.2546 C.3            1 S1                 0.0000
      4 ****        -0.4117   1.1146   1.3013 C.3            1 S1                 0.0000
      5 ****         0.0453   1.8670   0.1911 O.3            1 S1                 0.0000
      6 ****         0.1944  -0.3166   1.3328 C.3            1 S1                 0.0000
      7 ****         1.0958  -0.6298   0.2291 N.pl3          1 S1                 0.0000
      8 ****         2.4490  -0.5243   0.1849 C.2            1 S1                 0.0000
      9 ****         3.2518  -0.0433   1.3610 C.3            1 S1                 0.0000
     10 ****         4.5321   0.1253   1.0274 F              1 S1                 0.0000
     11 ****         2.7909   1.1263   1.8050 F              1 S1                 0.0000
     12 ****         3.2003  -0.9300   2.3548 F              1 S1                 0.0000
     13 ****         3.0167  -0.8959  -0.9653 N.2            1 S1                 0.0000
     14 ****         1.9334  -1.2637  -1.7389 C.ar           1 S1                 0.0000
     15 ****         1.8724  -1.7449  -3.0663 C.ar           1 S1                 0.0000
     16 ****         0.6300  -2.0594  -3.6552 C.ar           1 S1                 0.0000
     17 ****        -0.5666  -1.8971  -2.9271 C.ar           1 S1                 0.0000
     18 ****        -0.5276  -1.4200  -1.6029 C.ar           1 S1                 0.0000
     19 ****         0.7154  -1.1089  -1.0201 C.ar           1 S1                 0.0000
     20 ****        -0.0931   1.6340   2.2059 H              1 S1                 0.0000
     21 ****        -4.2017   3.3605   2.0711 H              1 S1                 0.0000
     22 ****        -4.3209   1.6149   2.2966 H              1 S1                 0.0000
     23 ****        -4.2308   2.2984   0.6634 H              1 S1                 0.0000
     24 ****        -2.3316   0.3066   1.9059 H              1 S1                 0.0000
     25 ****        -2.3076   0.8816   0.2454 H              1 S1                 0.0000
     26 ****         0.9845   1.9507   0.2510 H              1 S1                 0.0000
     27 ****         0.7204  -0.4701   2.2746 H              1 S1                 0.0000
     28 ****        -0.5947  -1.0694   1.3310 H              1 S1                 0.0000
     29 ****         2.7830  -1.8717  -3.6329 H              1 S1                 0.0000
     30 ****         0.5948  -2.4263  -4.6706 H              1 S1                 0.0000
     31 ****        -1.5144  -2.1385  -3.3857 H              1 S1                 0.0000
     32 ****        -1.4416  -1.2920  -1.0425 H              1 S1                 0.0000
     33 ****        -2.1573   2.4504   2.6828 LP             1 S1                 0.0000
     34 ****        -2.0773   3.0690   1.1737 LP             1 S1                 0.0000
     35 ****        -0.3754   2.7741   0.2024 LP             1 S1                 0.0000
     36 ****        -0.1979   1.3973  -0.6576 LP             1 S1                 0.0000
     37 ****         3.9871  -0.9055  -1.2069 LP             1 S1                 0.0000
@<TRIPOS>BOND
    1    1    2 1     
    2    1   21 1     
    3    1   22 1     
    4    1   23 1     
    5    2    3 1     
    6    3    4 1     
    7    3   24 1     
    8    3   25 1     
    9    4   20 1     
   10    4    5 1     
   11    4    6 1     
   12    5   26 1     
   13    6    7 1     
   14    6   27 1     
   15    6   28 1     
   16    7   19 1     
   17    7    8 1     
   18    8    9 1     
   19    8   13 2     
   20    9   10 1     
   21    9   11 1     
   22    9   12 1     
   23   13   14 1     
   24   14   19 ar    
   25   14   15 ar    
   26   15   16 ar    
   27   15   29 1     
   28   16   17 ar    
   29   16   30 1     
   30   17   18 ar    
   31   17   31 1     
   32   18   19 ar    
   33   18   32 1     
   34    2   33 1     
   35    2   34 1     
   36    5   35 1     
   37    5   36 1     
   38   13   37 1     
@<TRIPOS>SUBSTRUCTURE
      1 S1             1
@<TRIPOS>SET
LONE_PAIRS      STATIC     ATOMS    <user>   **** ""
5 33 34 35 36 37
DONOR_HYDROGENS      STATIC     ATOMS    <user>   **** ""
1 26
ATOM$BLUE        STATIC     ATOMS    COLORGROUP SYSTEM
5 33 34 35 36 37
ATOM$RED        STATIC     ATOMS    COLORGROUP SYSTEM
1 26
