#       Name:                AV-unprocessed.smi:3000
#       Creating user name   scv26
#       Creation time:       Fri Mar 27 16:35:42 2020


#       File generated by GOLD software.
#

@<TRIPOS>MOLECULE
AV-unprocessed.smi:3000
    49    50     1
SMALL
NO_CHARGES


@<TRIPOS>ATOM
      1 ****        -5.4471   3.6380   0.4498 C.3            1 S1                 0.0000
      2 ****        -4.8625   2.3268   0.6330 N.pl3          1 S1                 0.0000
      3 ****        -3.5266   1.9787   0.6434 C.2            1 S1                 0.0000
      4 ****        -3.4992   0.6287   0.8526 C.2            1 S1                 0.0000
      5 ****        -2.3860  -0.2445   0.9480 N.am           1 S1                 0.0000
      6 ****        -1.0855   0.0815   0.8707 C.2            1 S1                 0.0000
      7 ****        -0.6579   1.2249   0.7193 O.2            1 S1                 0.0000
      8 ****        -0.3094  -1.0105   0.9769 N.am           1 S1                 0.0000
      9 ****         1.1589  -1.1065   0.9564 C.3            1 S1                 0.0000
     10 ****         1.4414  -2.6222   1.0766 C.3            1 S1                 0.0000
     11 ****         1.7302  -0.4412   2.2453 C.3            1 S1                 0.0000
     12 ****         1.9660   0.9473   2.1246 O.3            1 S1                 0.0000
     13 ****         1.7696  -0.5303  -0.3741 C.3            1 S1                 0.0000
     14 ****         1.1274  -1.0913  -1.6695 C.3            1 S1                 0.0000
     15 ****         1.6778  -0.3912  -2.9229 C.3            1 S1                 0.0000
     16 ****         3.2075  -0.5029  -2.9989 C.3            1 S1                 0.0000
     17 ****         3.8644   0.0381  -1.7207 C.3            1 S1                 0.0000
     18 ****         3.3106  -0.6643  -0.4704 C.3            1 S1                 0.0000
     19 ****        -4.8560   0.2262   0.9596 C.2            1 S1                 0.0000
     20 ****        -5.6745   1.2590   0.8268 N.2            1 S1                 0.0000
     21 ****        -4.6767   4.3533   0.1598 H              1 S1                 0.0000
     22 ****        -5.9065   3.9686   1.3817 H              1 S1                 0.0000
     23 ****        -6.2071   3.6004  -0.3315 H              1 S1                 0.0000
     24 ****        -2.7419   2.7076   0.5033 H              1 S1                 0.0000
     25 ****        -2.6036  -1.2208   1.0835 H              1 S1                 0.0000
     26 ****        -0.7918  -1.8893   1.0939 H              1 S1                 0.0000
     27 ****         2.5080  -2.8416   1.1122 H              1 S1                 0.0000
     28 ****         1.0156  -3.1890   0.2488 H              1 S1                 0.0000
     29 ****         1.0098  -3.0296   1.9921 H              1 S1                 0.0000
     30 ****         1.0784  -0.6203   3.1016 H              1 S1                 0.0000
     31 ****         2.6908  -0.8890   2.5023 H              1 S1                 0.0000
     32 ****         2.3044   1.2683   2.9462 H              1 S1                 0.0000
     33 ****         1.5638   0.5399  -0.3868 H              1 S1                 0.0000
     34 ****         1.3156  -2.1615  -1.7534 H              1 S1                 0.0000
     35 ****         0.0447  -0.9692  -1.6532 H              1 S1                 0.0000
     36 ****         1.2299  -0.8254  -3.8171 H              1 S1                 0.0000
     37 ****         1.3865   0.6599  -2.9116 H              1 S1                 0.0000
     38 ****         3.4907  -1.5466  -3.1409 H              1 S1                 0.0000
     39 ****         3.5785   0.0405  -3.8683 H              1 S1                 0.0000
     40 ****         4.9449  -0.0974  -1.7746 H              1 S1                 0.0000
     41 ****         3.6913   1.1124  -1.6445 H              1 S1                 0.0000
     42 ****         3.7922  -0.2424   0.4110 H              1 S1                 0.0000
     43 ****         3.5991  -1.7145  -0.5064 H              1 S1                 0.0000
     44 ****        -5.2662  -0.7590   1.1262 H              1 S1                 0.0000
     45 ****        -1.2957   1.9915   0.6446 LP             1 S1                 0.0000
     46 ****         0.3276   1.3879   0.6709 LP             1 S1                 0.0000
     47 ****         1.1103   1.4166   1.9063 LP             1 S1                 0.0000
     48 ****         2.6323   1.1139   1.3977 LP             1 S1                 0.0000
     49 ****        -6.6739   1.2524   0.8619 LP             1 S1                 0.0000
@<TRIPOS>BOND
    1    1    2 1     
    2    1   21 1     
    3    1   22 1     
    4    1   23 1     
    5    2   20 1     
    6    2    3 1     
    7    3    4 2     
    8    3   24 1     
    9    4    5 1     
   10    4   19 1     
   11    5    6 am    
   12    5   25 1     
   13    6    7 2     
   14    6    8 am    
   15    8    9 1     
   16    8   26 1     
   17    9   10 1     
   18    9   11 1     
   19    9   13 1     
   20   10   27 1     
   21   10   28 1     
   22   10   29 1     
   23   11   12 1     
   24   11   30 1     
   25   11   31 1     
   26   12   32 1     
   27   13   18 1     
   28   13   14 1     
   29   13   33 1     
   30   14   15 1     
   31   14   34 1     
   32   14   35 1     
   33   15   16 1     
   34   15   36 1     
   35   15   37 1     
   36   16   17 1     
   37   16   38 1     
   38   16   39 1     
   39   17   18 1     
   40   17   40 1     
   41   17   41 1     
   42   18   42 1     
   43   18   43 1     
   44   19   20 2     
   45   19   44 1     
   46    7   45 1     
   47    7   46 1     
   48   12   47 1     
   49   12   48 1     
   50   20   49 1     
@<TRIPOS>SUBSTRUCTURE
      1 S1             1
@<TRIPOS>SET
LONE_PAIRS      STATIC     ATOMS    <user>   **** ""
5 45 46 47 48 49
DONOR_HYDROGENS      STATIC     ATOMS    <user>   **** ""
3 25 26 32
ATOM$BLUE        STATIC     ATOMS    COLORGROUP SYSTEM
5 45 46 47 48 49
ATOM$RED        STATIC     ATOMS    COLORGROUP SYSTEM
3 25 26 32
