#       Name:                AV-unprocessed.smi:862
#       Creating user name   scv26
#       Creation time:       Fri Mar 27 01:45:24 2020


#       File generated by GOLD software.
#

@<TRIPOS>MOLECULE
AV-unprocessed.smi:862
    47    49     1
SMALL
NO_CHARGES


@<TRIPOS>ATOM
      1 ****        -4.4745  -3.4389   0.7005 N.am           1 S1                 0.0000
      2 ****        -4.1269  -2.7219  -0.3726 C.2            1 S1                 0.0000
      3 ****        -4.3118  -3.1533  -1.5091 O.2            1 S1                 0.0000
      4 ****        -3.6121  -1.4948  -0.1070 N.am           1 S1                 0.0000
      5 ****        -3.0997  -1.0328   1.1936 C.3            1 S1                 0.0000
      6 ****        -1.5607  -1.0225   1.1425 C.3            1 S1                 0.0000
      7 ****        -1.0447  -0.1361  -0.0108 C.3            1 S1                 0.0000
      8 ****         0.4269  -0.2547  -0.1151 N.4            1 S1                 1.0000
      9 ****         1.1614   0.9919  -0.4310 C.3            1 S1                 0.0000
     10 ****         0.9787   1.4702  -1.8745 C.3            1 S1                 0.0000
     11 ****         2.1990   2.3545  -2.1626 C.3            1 S1                 0.0000
     12 ****         3.2697   1.9717  -1.1284 C.3            1 S1                 0.0000
     13 ****         2.6792   0.8026  -0.3261 C.3            1 S1                 0.0000
     14 ****         3.1601   0.7398   1.0456 N.pl3          1 S1                 0.0000
     15 ****         3.0437   1.7101   2.0351 C.2            1 S1                 0.0000
     16 ****         3.6394   1.1967   3.1645 C.2            1 S1                 0.0000
     17 ****         4.1234  -0.0811   2.8978 N.2            1 S1                 0.0000
     18 ****         3.8064  -0.2815   1.6257 C.2            1 S1                 0.0000
     19 ****        -1.7368  -0.5151  -1.3401 C.3            1 S1                 0.0000
     20 ****        -3.2673  -0.5523  -1.1781 C.3            1 S1                 0.0000
     21 ****        -4.8748  -4.3580   0.5778 H              1 S1                 0.0000
     22 ****        -4.3470  -3.0584   1.6267 H              1 S1                 0.0000
     23 ****        -3.4736  -0.0266   1.3890 H              1 S1                 0.0000
     24 ****        -3.4352  -1.6343   2.0384 H              1 S1                 0.0000
     25 ****        -1.1619  -0.6671   2.0934 H              1 S1                 0.0000
     26 ****        -1.1985  -2.0443   1.0180 H              1 S1                 0.0000
     27 ****        -1.3020   0.8957   0.2348 H              1 S1                 0.0000
     28 ****         0.7582  -0.5561   0.7902 H              1 S1                 0.0000
     29 ****         0.8464   1.7837   0.2509 H              1 S1                 0.0000
     30 ****         0.9849   0.6171  -2.5548 H              1 S1                 0.0000
     31 ****         0.0414   2.0073  -2.0220 H              1 S1                 0.0000
     32 ****         2.5534   2.2130  -3.1843 H              1 S1                 0.0000
     33 ****         1.9390   3.4080  -2.0527 H              1 S1                 0.0000
     34 ****         4.2131   1.6949  -1.6005 H              1 S1                 0.0000
     35 ****         3.4708   2.8312  -0.4875 H              1 S1                 0.0000
     36 ****         2.9538  -0.1264  -0.8302 H              1 S1                 0.0000
     37 ****         2.5631   2.6618   1.8610 H              1 S1                 0.0000
     38 ****         3.7558   1.6449   4.1403 H              1 S1                 0.0000
     39 ****         4.0476  -1.1969   1.1054 H              1 S1                 0.0000
     40 ****        -1.4771   0.1911  -2.1273 H              1 S1                 0.0000
     41 ****        -1.3867  -1.4926  -1.6754 H              1 S1                 0.0000
     42 ****        -3.7383  -0.8080  -2.1285 H              1 S1                 0.0000
     43 ****        -3.6430   0.4394  -0.9222 H              1 S1                 0.0000
     44 ****         0.6587  -0.9701  -0.7894 H              1 S1                 0.0000
     45 ****        -4.7279  -4.0531  -1.6409 LP             1 S1                 0.0000
     46 ****        -4.0461  -2.6045  -2.3017 LP             1 S1                 0.0000
     47 ****         4.5990  -0.7028   3.5201 LP             1 S1                 0.0000
@<TRIPOS>BOND
    1    1    2 am    
    2    1   21 1     
    3    1   22 1     
    4    2    3 2     
    5    2    4 am    
    6    4   20 1     
    7    4    5 1     
    8    5    6 1     
    9    5   23 1     
   10    5   24 1     
   11    6    7 1     
   12    6   25 1     
   13    6   26 1     
   14    7    8 1     
   15    7   19 1     
   16    7   27 1     
   17    8    9 1     
   18    8   28 1     
   19    8   44 1     
   20    9   13 1     
   21    9   10 1     
   22    9   29 1     
   23   10   11 1     
   24   10   30 1     
   25   10   31 1     
   26   11   12 1     
   27   11   32 1     
   28   11   33 1     
   29   12   13 1     
   30   12   34 1     
   31   12   35 1     
   32   13   14 1     
   33   13   36 1     
   34   14   18 1     
   35   14   15 1     
   36   15   16 2     
   37   15   37 1     
   38   16   17 1     
   39   16   38 1     
   40   17   18 2     
   41   18   39 1     
   42   19   20 1     
   43   19   40 1     
   44   19   41 1     
   45   20   42 1     
   46   20   43 1     
   47    3   45 1     
   48    3   46 1     
   49   17   47 1     
@<TRIPOS>SUBSTRUCTURE
      1 S1             1
@<TRIPOS>SET
LONE_PAIRS      STATIC     ATOMS    <user>   **** ""
3 45 46 47
DONOR_HYDROGENS      STATIC     ATOMS    <user>   **** ""
4 21 22 28 44
ATOM$BLUE        STATIC     ATOMS    COLORGROUP SYSTEM
3 45 46 47
ATOM$RED        STATIC     ATOMS    COLORGROUP SYSTEM
4 21 22 28 44
