AV-unprocessed.smi:2855|AV-procd|sdf|10991|dock6
  -GOLD-   2272015443D 1   1.00000     0.00000
 Structure written by MMmdl.
 46 47  0  0  0  0  0  0  0  0  2 V2000
  150.0803  142.7613  158.2300 C   0  0  0  0  0  0  0  0  0  0  0  0
  150.6959  141.4276  157.7845 C   0  0  2  0  0  0  0  0  0  0  0  0
  151.3475  141.5440  156.3913 C   0  0  0  0  0  0  0  0  0  0  0  0
  151.8976  140.1910  155.9014 C   0  0  0  0  0  0  0  0  0  0  0  0
  150.8015  139.0960  155.8584 C   0  0  2  0  0  0  0  0  0  0  0  0
  149.7284  139.3407  154.7389 C   0  0  0  0  0  0  0  0  0  0  0  0
  148.8870  140.6166  154.9407 C   0  0  0  0  0  0  0  0  0  0  0  0
  148.7582  138.1514  154.5867 C   0  0  0  0  0  0  0  0  0  0  0  0
  150.2730  138.9647  157.3205 C   0  0  2  0  0  0  0  0  0  0  0  0
  149.3587  137.8488  157.5438 N   0  0  0  0  0  0  0  0  0  0  0  0
  149.6060  136.7775  158.3130 C   0  0  0  0  0  0  0  0  0  0  0  0
  150.6595  136.6212  158.9323 O   0  0  0  0  0  0  0  0  0  0  0  0
  148.4910  135.7229  158.3568 C   0  0  0  0  0  0  0  0  0  0  0  0
  148.0360  135.4029  159.7193 N   0  0  0  0  0  0  0  0  0  0  0  0
  148.0008  134.0472  160.0909 C   0  0  0  0  0  0  0  0  0  0  0  0
  147.6030  133.6565  161.3166 C   0  0  0  0  0  0  0  0  0  0  0  0
  147.2014  134.6822  162.2713 C   0  0  0  0  0  0  0  0  0  0  0  0
  146.8284  134.3434  163.3928 O   0  0  0  0  0  0  0  0  0  0  0  0
  147.2601  135.9847  161.8658 N   0  5  0  0  0  0  0  0  0  0  0  0
  147.6708  136.3676  160.6168 C   0  0  0  0  0  0  0  0  0  0  0  0
  147.7210  137.5491  160.2732 O   0  0  0  0  0  0  0  0  0  0  0  0
  149.6593  140.2861  157.8209 C   0  0  0  0  0  0  0  0  0  0  0  0
  149.2854  143.0764  157.5531 H   0  0  0  0  0  0  0  0  0  0  0  0
  150.8307  143.5519  158.2528 H   0  0  0  0  0  0  0  0  0  0  0  0
  149.6539  142.6823  159.2301 H   0  0  0  0  0  0  0  0  0  0  0  0
  151.4843  141.1780  158.4963 H   0  0  0  0  0  0  0  0  0  0  0  0
  150.6254  141.9319  155.6727 H   0  0  0  0  0  0  0  0  0  0  0  0
  152.1584  142.2721  156.4260 H   0  0  0  0  0  0  0  0  0  0  0  0
  152.3930  140.3076  154.9391 H   0  0  0  0  0  0  0  0  0  0  0  0
  152.6911  139.8730  156.5791 H   0  0  0  0  0  0  0  0  0  0  0  0
  151.3085  138.1640  155.6052 H   0  0  0  0  0  0  0  0  0  0  0  0
  150.2344  139.4491  153.7804 H   0  0  0  0  0  0  0  0  0  0  0  0
  148.4834  140.6730  155.9522 H   0  0  0  0  0  0  0  0  0  0  0  0
  148.0445  140.6519  154.2494 H   0  0  0  0  0  0  0  0  0  0  0  0
  149.4633  141.5198  154.7484 H   0  0  0  0  0  0  0  0  0  0  0  0
  148.2868  137.8991  155.5371 H   0  0  0  0  0  0  0  0  0  0  0  0
  149.2583  137.2612  154.2075 H   0  0  0  0  0  0  0  0  0  0  0  0
  147.9640  138.3752  153.8739 H   0  0  0  0  0  0  0  0  0  0  0  0
  151.1329  138.7647  157.9638 H   0  0  0  0  0  0  0  0  0  0  0  0
  148.4665  137.8929  157.0734 H   0  0  0  0  0  0  0  0  0  0  0  0
  147.6543  136.0639  157.7446 H   0  0  0  0  0  0  0  0  0  0  0  0
  148.8550  134.8199  157.8643 H   0  0  0  0  0  0  0  0  0  0  0  0
  148.3210  133.3534  159.3274 H   0  0  0  0  0  0  0  0  0  0  0  0
  147.5854  132.6111  161.5876 H   0  0  0  0  0  0  0  0  0  0  0  0
  149.3021  140.1594  158.8439 H   0  0  0  0  0  0  0  0  0  0  0  0
  148.7844  140.5485  157.2258 H   0  0  0  0  0  0  0  0  0  0  0  0
  1  2  1  0  0  0  0
  1 23  1  0  0  0  0
  1 24  1  0  0  0  0
  1 25  1  0  0  0  0
  2 22  1  0  0  0  0
  2  3  1  0  0  0  0
  2 26  1  0  0  0  0
  3  4  1  0  0  0  0
  3 27  1  0  0  0  0
  3 28  1  0  0  0  0
  4  5  1  0  0  0  0
  4 29  1  0  0  0  0
  4 30  1  0  0  0  0
  5  6  1  0  0  0  0
  5  9  1  0  0  0  0
  5 31  1  0  0  0  0
  6  7  1  0  0  0  0
  6  8  1  0  0  0  0
  6 32  1  0  0  0  0
  7 33  1  0  0  0  0
  7 34  1  0  0  0  0
  7 35  1  0  0  0  0
  8 36  1  0  0  0  0
  8 37  1  0  0  0  0
  8 38  1  0  0  0  0
  9 10  1  0  0  0  0
  9 22  1  0  0  0  0
  9 39  1  0  0  0  0
 10 11  1  0  0  0  0
 10 40  1  0  0  0  0
 11 12  2  0  0  0  0
 11 13  1  0  0  0  0
 13 14  1  0  0  0  0
 13 41  1  0  0  0  0
 13 42  1  0  0  0  0
 14 20  1  0  0  0  0
 14 15  1  0  0  0  0
 15 16  2  0  0  0  0
 15 43  1  0  0  0  0
 16 17  1  0  0  0  0
 16 44  1  0  0  0  0
 17 18  2  0  0  0  0
 17 19  1  0  0  0  0
 19 20  1  0  0  0  0
 20 21  2  0  0  0  0
 22 45  1  0  0  0  0
 22 46  1  0  0  0  0
M  CHG  1  19  -1
M  END
> <s_m_source_file>
AV-unprocessed.smi

> <i_m_source_file_index>
2855

> <i_lp_mmshare_version>
43012

> <i_f3d_flags>
0

> <s_epik_input>
W0NIM11bQ0BASF0xW0NIMl1bQ0gyXVtDQEBIXShbQ0hdKFtDSDNdKVtDSDNdKVtDQEhdKFtDSDJdMSlbTkhdQyg9TylbQ0gyXW4yW2NIXVtjSF1jKD1PKVtuSF1jMj1P

> <s_epik_cmdline>
J2VwaWtfcHl0aG9uJywgJy1waCcsICc3LjAnLCAnLXRuJywgJzgnLCAnLW1hJywgJzIwMCcsICctbWV0YWxfYmluZGluZycsICctaW1hZScsICc8aW5maWxlLm1hZT4nLCAnLW9tYWUnLCAnPG91dGZpbGUubWFlPic=

> <r_lp_tautomer_probability>
0.999537

> <r_epik_Ionization_Penalty>
3.12102

> <r_epik_Ionization_Penalty_Charging>
2.9581e-08

> <r_epik_Ionization_Penalty_Neutral>
3.12102

> <r_epik_State_Penalty>
3.12011

> <r_epik_Charging_Adjusted_Penalty>
3.12011

> <i_epik_Tot_Q>
-1

> <i_epik_Tot_abs_Q>
1

> <r_epik_Metal_State_Penalty>
0.463583

> <b_epik_Metal_Only>
1

> <s_lp_Force_Field>
OPLS_2005

> <r_lp_Energy>
28.6833

> <b_lp_Chiralities_Consistent>
1

> <s_lp_Variant>
AV-unprocessed.smi:2855-15

> <Gold.Version>
5.8.1

> <Gold.Id.Protein>
6NUR|6NUR_protein|mol2

> <Gold.PLP.Fitness>
38.9637

> <Gold.PLP.PLP>
-32.8618

> <Gold.PLP.part.hbond>
-4.0000

> <Gold.PLP.part.metal>
0.0000

> <Gold.PLP.part.buried>
-5.6460

> <Gold.PLP.part.nonpolar>
-24.0577

> <Gold.PLP.part.repulsive>
0.0635

> <Gold.PLP.ligand.clash>
0.0000

> <Gold.PLP.ligand.torsion>
0.1392

> <Gold.PLP.Chemscore.Hbond>
2.1024

> <Gold.PLP.Chemscore.CHOScore>
0.0000

> <Gold.PLP.Chemscore.Metal>
0.0000

> <Gold.Chemscore.Hbonds>
donor molecule, donor type, donor heavy atom, donor atom, acceptor molecule, acceptor atom, score
      P1  H  6896  6908       L1    12  1.00
      P1  H  6931  6943       L1    21  0.29
      P1  H  6934  6947       L1    21  0.82

> <Gold.PLP.Chemscore.Internal.Correction>
0.0731

> <Gold.Rescore>
     Score         DG    S(hbond)    S(metal)    S(lipo)     H(rot)  DE(clash)    DE(int)     intcor
     10.33     -14.80       1.95        0.00      63.65       1.81       0.12       4.35       ----

> <Gold.Chemscore.Fitness>
10.3277

> <Gold.Chemscore.DG>
-14.7957

> <Gold.Chemscore.ZeroCoef>
-5.4800

> <Gold.Chemscore.Hbond>
1.9467

> <Gold.Chemscore.Metal>
0.0000

> <Gold.Chemscore.Lipo>
63.6498

> <Gold.Chemscore.Internal_Hbond>
0.0000

> <Gold.Chemscore.DEClash>
0.1200

> <Gold.Chemscore.DEInternal>
4.3479

> <Gold.Chemscore.Rot>
1.8100

> <Gold.Chemscore.Internal.Correction>
   9.000000E+99

> <Gold.Chemscore.Hbonds>
donor molecule, donor type, donor heavy atom, donor atom, acceptor molecule, acceptor atom, score
      P1  H  6896  6908       L1    12  0.90
      P1  H  6931  6943       L1    21  0.06
      P1  H  6934  6947       L1    21  0.80

> <Gold.Chemscore.Hbond.Weighted>
-6.5021

> <Gold.Chemscore.Metal.Weighted>
-0.0000

> <Gold.Chemscore.Lipo.Weighted>
-7.4470

> <Gold.Chemscore.Internal_Hbond.Weighted>
0.0000

> <Gold.Chemscore.DEClash.Weighted>
0.1200

> <Gold.Chemscore.DEInternal.Weighted>
4.3479

> <Gold.Chemscore.Rot.Weighted>
4.6335

> <Gold.Chemscore.Internal.Correction.Weighted>
   9.000000E+99

> <Gold.Protein.RotatedTorsions>
[ 6907 6896 6895 6894 ] final -162.71 input  -60.11 | X-H torsion
[ 7974 7965 7964 7962 ] final  -51.72 input  175.53 | X-H torsion
[ 8008 7997 7996 7995 ] final  114.90 input   59.86 | X-H torsion
[ 10167 10162 10161 10158 ] final   -3.09 input  -65.29 | X-H torsion
[ 10718 10713 10712 10709 ] final  -19.56 input   66.30 | X-H torsion
[ 10763 10752 10751 10750 ] final  175.59 input  -60.55 | X-H torsion
[ 11005 11000 10999 10996 ] final  139.21 input  -57.11 | X-H torsion

> <Gold.Protein.ActiveResidues>
 VAL166  LYS551  ARG553  GLY616  TRP617  ASP618  TYR619  PRO620  LYS621  CYS622 
 ASP623  PHE694  ASN695  SER759  ASP760  ASP761  ALA762  ILE779  LEU786  VAL792 
 PHE793  MET794  SER795  GLU796  ALA797  LYS798  CYS799  TRP800  GLU811  SER814 

> <Gold.Protein.RotatedAtoms>
  151.3846  133.3809  159.2713 H   0  0  0  0  0  0  0  0  0  0  0  0  # atno 6907 bound_to 6896
  150.9551  134.8948  159.7707 H   0  0  0  0  0  0  0  0  0  0  0  0  # atno 6908 bound_to 6896
  152.5127  134.3803  159.9401 H   0  0  0  0  0  0  0  0  0  0  0  0  # atno 6909 bound_to 6896
  145.9159  140.7875  142.9672 H   0  0  0  0  0  0  0  0  0  0  0  0  # atno 7974 bound_to 7965
  156.2349  140.2949  156.0287 H   0  0  0  0  0  0  0  0  0  0  0  0  # atno 8008 bound_to 7997
  155.2119  140.0413  157.2952 H   0  0  0  0  0  0  0  0  0  0  0  0  # atno 8009 bound_to 7997
  154.6061  140.2440  155.7736 H   0  0  0  0  0  0  0  0  0  0  0  0  # atno 8010 bound_to 7997
  140.6877  143.6580  150.8291 H   0  0  0  0  0  0  0  0  0  0  0  0  # atno 10167 bound_to 10162
  156.5440  130.4685  149.6485 H   0  0  0  0  0  0  0  0  0  0  0  0  # atno 10718 bound_to 10713
  154.4697  135.2770  155.1652 H   0  0  0  0  0  0  0  0  0  0  0  0  # atno 10763 bound_to 10752
  154.3406  135.6171  153.5598 H   0  0  0  0  0  0  0  0  0  0  0  0  # atno 10764 bound_to 10752
  152.9863  135.5787  154.5075 H   0  0  0  0  0  0  0  0  0  0  0  0  # atno 10765 bound_to 10752
  140.0238  134.9384  157.0528 H   0  0  0  0  0  0  0  0  0  0  0  0  # atno 11005 bound_to 11000
  144.6748  140.1899  143.7397 LP  0  0  0  0  0  0  0  0  0  0  0  0  # atno 17320 bound_to 7965
  145.8612  139.2224  143.1715 LP  0  0  0  0  0  0  0  0  0  0  0  0  # atno 17321 bound_to 7965
  140.0289  143.5464  152.2769 LP  0  0  0  0  0  0  0  0  0  0  0  0  # atno 17342 bound_to 10162
  139.6250  144.7635  151.2659 LP  0  0  0  0  0  0  0  0  0  0  0  0  # atno 17343 bound_to 10162
  156.2946  130.7143  151.2000 LP  0  0  0  0  0  0  0  0  0  0  0  0  # atno 17370 bound_to 10713
  157.7400  131.0522  150.5194 LP  0  0  0  0  0  0  0  0  0  0  0  0  # atno 17371 bound_to 10713
  140.4341  134.1750  155.7169 LP  0  0  0  0  0  0  0  0  0  0  0  0  # atno 17394 bound_to 11000
  141.1790  133.8453  157.1322 LP  0  0  0  0  0  0  0  0  0  0  0  0  # atno 17395 bound_to 11000

$$$$
