AV-unprocessed.smi:2752|AV-procd|sdf|10607|dock1
  -GOLD-   2272015 63D 1   1.00000     0.00000
 Structure written by MMmdl.
 34 35  0  0  0  0  0  0  0  0  1 V2000
  143.7266  132.6467  148.8974 C   0  0  0  0  0  0  0  0  0  0  0  0
  143.9685  132.8889  150.2738 O   0  0  0  0  0  0  0  0  0  0  0  0
  145.3508  132.9967  150.6042 C   0  0  2  0  0  0  0  0  0  0  0  0
  146.0961  131.7872  150.0290 C   0  0  0  0  0  0  0  0  0  0  0  0
  145.8500  130.6786  151.0484 C   0  0  0  0  0  0  0  0  0  0  0  0
  145.8702  131.3860  152.4061 C   0  0  0  0  0  0  0  0  0  0  0  0
  145.5426  132.8674  152.1330 C   0  0  2  0  0  0  0  0  0  0  0  0
  144.3740  133.3014  152.8959 N   0  0  0  0  0  0  0  0  0  0  0  0
  143.6683  134.4134  152.6464 C   0  0  0  0  0  0  0  0  0  0  0  0
  143.9485  135.2063  151.7468 O   0  0  0  0  0  0  0  0  0  0  0  0
  142.6322  134.5325  153.4951 N   0  0  0  0  0  0  0  0  0  0  0  0
  141.6532  135.5601  153.5468 C   0  0  0  0  0  0  0  0  0  0  0  0
  142.0994  136.8329  153.1232 C   0  0  0  0  0  0  0  0  0  0  0  0
  141.2046  137.9207  153.1360 C   0  0  0  0  0  0  0  0  0  0  0  0
  139.8856  137.7054  153.5733 C   0  0  0  0  0  0  0  0  0  0  0  0
  138.9896  138.7203  153.6032 F   0  0  0  0  0  0  0  0  0  0  0  0
  139.5212  136.4083  153.9788 C   0  0  0  0  0  0  0  0  0  0  0  0
  140.3778  135.3649  153.9666 N   0  0  0  0  0  0  0  0  0  0  0  0
  142.6539  132.5568  148.7270 H   0  0  0  0  0  0  0  0  0  0  0  0
  144.1981  131.7242  148.5585 H   0  0  0  0  0  0  0  0  0  0  0  0
  144.0936  133.4717  148.2858 H   0  0  0  0  0  0  0  0  0  0  0  0
  145.7606  133.9432  150.2470 H   0  0  0  0  0  0  0  0  0  0  0  0
  145.7751  131.5115  149.0247 H   0  0  0  0  0  0  0  0  0  0  0  0
  147.1636  132.0065  149.9828 H   0  0  0  0  0  0  0  0  0  0  0  0
  144.8660  130.2398  150.8782 H   0  0  0  0  0  0  0  0  0  0  0  0
  146.5863  129.8772  150.9824 H   0  0  0  0  0  0  0  0  0  0  0  0
  145.1738  130.9157  153.1018 H   0  0  0  0  0  0  0  0  0  0  0  0
  146.8639  131.3091  152.8492 H   0  0  0  0  0  0  0  0  0  0  0  0
  146.4075  133.4619  152.4345 H   0  0  0  0  0  0  0  0  0  0  0  0
  144.0733  132.7010  153.6494 H   0  0  0  0  0  0  0  0  0  0  0  0
  142.5290  133.7992  154.1806 H   0  0  0  0  0  0  0  0  0  0  0  0
  143.1169  136.9790  152.7906 H   0  0  0  0  0  0  0  0  0  0  0  0
  141.5258  138.9009  152.8163 H   0  0  0  0  0  0  0  0  0  0  0  0
  138.5181  136.2021  154.3216 H   0  0  0  0  0  0  0  0  0  0  0  0
  1  2  1  0  0  0  0
  1 19  1  0  0  0  0
  1 20  1  0  0  0  0
  1 21  1  0  0  0  0
  2  3  1  0  0  0  0
  3  7  1  0  0  0  0
  3  4  1  0  0  0  0
  3 22  1  0  0  0  0
  4  5  1  0  0  0  0
  4 23  1  0  0  0  0
  4 24  1  0  0  0  0
  5  6  1  0  0  0  0
  5 25  1  0  0  0  0
  5 26  1  0  0  0  0
  6  7  1  0  0  0  0
  6 27  1  0  0  0  0
  6 28  1  0  0  0  0
  7  8  1  0  0  0  0
  7 29  1  0  0  0  0
  8  9  1  0  0  0  0
  8 30  1  0  0  0  0
  9 10  2  0  0  0  0
  9 11  1  0  0  0  0
 11 12  1  0  0  0  0
 11 31  1  0  0  0  0
 12 18  1  0  0  0  0
 12 13  2  0  0  0  0
 13 14  1  0  0  0  0
 13 32  1  0  0  0  0
 14 15  2  0  0  0  0
 14 33  1  0  0  0  0
 15 16  1  0  0  0  0
 15 17  1  0  0  0  0
 17 18  2  0  0  0  0
 17 34  1  0  0  0  0
M  END
> <s_m_source_file>
AV-unprocessed.smi

> <i_m_source_file_index>
2752

> <i_lp_mmshare_version>
43012

> <i_f3d_flags>
0

> <s_epik_input>
W0NIM11PW0NAQEhdMVtDSDJdW0NIMl1bQ0gyXVtDQEhdMVtOSF1DKD1PKVtOSF1jMltjSF1bY0hdYyhGKVtjSF1uMg==

> <s_epik_cmdline>
J2VwaWtfcHl0aG9uJywgJy1waCcsICc3LjAnLCAnLXRuJywgJzgnLCAnLW1hJywgJzIwMCcsICctbWV0YWxfYmluZGluZycsICctaW1hZScsICc8aW5maWxlLm1hZT4nLCAnLW9tYWUnLCAnPG91dGZpbGUubWFlPic=

> <r_lp_tautomer_probability>
1

> <r_epik_Ionization_Penalty>
3.49853e-05

> <r_epik_Ionization_Penalty_Charging>
0

> <r_epik_Ionization_Penalty_Neutral>
3.49853e-05

> <r_epik_State_Penalty>
-0

> <r_epik_Charging_Adjusted_Penalty>
0

> <i_epik_Tot_Q>
0

> <i_epik_Tot_abs_Q>
0

> <r_epik_Metal_State_Penalty>
-0

> <b_epik_Metal_Only>
0

> <s_lp_Force_Field>
OPLS_2005

> <r_lp_Energy>
23.7965

> <b_lp_Chiralities_Consistent>
1

> <s_lp_Variant>
AV-unprocessed.smi:2752-3

> <Gold.Version>
5.8.1

> <Gold.Id.Protein>
6NUR|6NUR_protein|mol2

> <Gold.PLP.Fitness>
44.0268

> <Gold.PLP.PLP>
-36.5396

> <Gold.PLP.part.hbond>
-3.5624

> <Gold.PLP.part.metal>
0.0000

> <Gold.PLP.part.buried>
-6.0219

> <Gold.PLP.part.nonpolar>
-27.7951

> <Gold.PLP.part.repulsive>
0.5312

> <Gold.PLP.ligand.clash>
0.0000

> <Gold.PLP.ligand.torsion>
0.4809

> <Gold.PLP.Chemscore.Hbond>
2.8125

> <Gold.PLP.Chemscore.CHOScore>
0.0000

> <Gold.PLP.Chemscore.Metal>
0.0000

> <Gold.Chemscore.Hbonds>
donor molecule, donor type, donor heavy atom, donor atom, acceptor molecule, acceptor atom, score
      L1  H     8    30       P1 10957  1.00
      L1  H    11    31       P1 10957  0.78
      P1  H 11000 11005       L1    18  0.99

> <Gold.PLP.Chemscore.Internal.Correction>
0.0115

> <Gold.Rescore>
     Score         DG    S(hbond)    S(metal)    S(lipo)     H(rot)  DE(clash)    DE(int)     intcor
     12.99     -18.61       2.21        0.00      77.30       1.28       0.04       5.58       ----

> <Gold.Chemscore.Fitness>
12.9850

> <Gold.Chemscore.DG>
-18.6080

> <Gold.Chemscore.ZeroCoef>
-5.4800

> <Gold.Chemscore.Hbond>
2.2053

> <Gold.Chemscore.Metal>
0.0000

> <Gold.Chemscore.Lipo>
77.3043

> <Gold.Chemscore.Internal_Hbond>
0.0000

> <Gold.Chemscore.DEClash>
0.0380

> <Gold.Chemscore.DEInternal>
5.5850

> <Gold.Chemscore.Rot>
1.2821

> <Gold.Chemscore.Internal.Correction>
   9.000000E+99

> <Gold.Chemscore.Hbonds>
donor molecule, donor type, donor heavy atom, donor atom, acceptor molecule, acceptor atom, score
      L1  H     8    30       P1 10957  0.55
      L1  H    11    31       P1 10957  0.74
      P1  H 11000 11005       L1    18  0.58

> <Gold.Chemscore.Hbond.Weighted>
-7.3656

> <Gold.Chemscore.Metal.Weighted>
-0.0000

> <Gold.Chemscore.Lipo.Weighted>
-9.0446

> <Gold.Chemscore.Internal_Hbond.Weighted>
0.0000

> <Gold.Chemscore.DEClash.Weighted>
0.0380

> <Gold.Chemscore.DEInternal.Weighted>
5.5850

> <Gold.Chemscore.Rot.Weighted>
3.2822

> <Gold.Chemscore.Internal.Correction.Weighted>
   9.000000E+99

> <Gold.Protein.RotatedTorsions>
[ 6907 6896 6895 6894 ] final   -9.50 input  -60.11 | X-H torsion
[ 7974 7965 7964 7962 ] final   82.87 input  175.53 | X-H torsion
[ 8008 7997 7996 7995 ] final   59.76 input   59.86 | X-H torsion
[ 10167 10162 10161 10158 ] final  -39.69 input  -65.29 | X-H torsion
[ 10718 10713 10712 10709 ] final  162.74 input   66.30 | X-H torsion
[ 10763 10752 10751 10750 ] final  -85.08 input  -60.55 | X-H torsion
[ 11005 11000 10999 10996 ] final   32.55 input  -57.11 | X-H torsion

> <Gold.Protein.ActiveResidues>
 VAL166  LYS551  ARG553  GLY616  TRP617  ASP618  TYR619  PRO620  LYS621  CYS622 
 ASP623  PHE694  ASN695  SER759  ASP760  ASP761  ALA762  ILE779  LEU786  VAL792 
 PHE793  MET794  SER795  GLU796  ALA797  LYS798  CYS799  TRP800  GLU811  SER814 

> <Gold.Protein.RotatedAtoms>
  151.4168  135.0992  159.9601 H   0  0  0  0  0  0  0  0  0  0  0  0  # atno 6907 bound_to 6896
  152.5002  133.8745  159.7325 H   0  0  0  0  0  0  0  0  0  0  0  0  # atno 6908 bound_to 6896
  150.9252  133.6775  159.2851 H   0  0  0  0  0  0  0  0  0  0  0  0  # atno 6909 bound_to 6896
  145.6193  139.2383  143.2147 H   0  0  0  0  0  0  0  0  0  0  0  0  # atno 7974 bound_to 7965
  155.5714  140.3490  155.4516 H   0  0  0  0  0  0  0  0  0  0  0  0  # atno 8008 bound_to 7997
  156.0441  140.1302  157.0148 H   0  0  0  0  0  0  0  0  0  0  0  0  # atno 8009 bound_to 7997
  154.4405  140.1018  156.6266 H   0  0  0  0  0  0  0  0  0  0  0  0  # atno 8010 bound_to 7997
  140.7056  143.3198  151.2819 H   0  0  0  0  0  0  0  0  0  0  0  0  # atno 10167 bound_to 10162
  157.1183  131.0485  151.2426 H   0  0  0  0  0  0  0  0  0  0  0  0  # atno 10718 bound_to 10713
  154.6070  135.5497  153.7433 H   0  0  0  0  0  0  0  0  0  0  0  0  # atno 10763 bound_to 10752
  153.0179  135.6380  154.1633 H   0  0  0  0  0  0  0  0  0  0  0  0  # atno 10764 bound_to 10752
  154.1571  135.2899  155.3099 H   0  0  0  0  0  0  0  0  0  0  0  0  # atno 10765 bound_to 10752
  140.2723  134.3068  155.7824 H   0  0  0  0  0  0  0  0  0  0  0  0  # atno 11005 bound_to 11000
  146.1443  140.7014  142.9352 LP  0  0  0  0  0  0  0  0  0  0  0  0  # atno 17320 bound_to 7965
  144.7237  140.4458  143.6989 LP  0  0  0  0  0  0  0  0  0  0  0  0  # atno 17321 bound_to 7965
  139.6649  144.0123  152.2716 LP  0  0  0  0  0  0  0  0  0  0  0  0  # atno 17342 bound_to 10162
  139.9703  144.6498  150.7996 LP  0  0  0  0  0  0  0  0  0  0  0  0  # atno 17343 bound_to 10162
  157.4499  130.7592  149.7142 LP  0  0  0  0  0  0  0  0  0  0  0  0  # atno 17370 bound_to 10713
  155.9834  130.4000  150.3364 LP  0  0  0  0  0  0  0  0  0  0  0  0  # atno 17371 bound_to 10713
  141.2175  133.7474  156.9353 LP  0  0  0  0  0  0  0  0  0  0  0  0  # atno 17394 bound_to 11000
  140.1362  134.9324  157.2404 LP  0  0  0  0  0  0  0  0  0  0  0  0  # atno 17395 bound_to 11000

$$$$
