#       Name:                AV-unprocessed.smi:2886
#       Creating user name   scv26
#       Creation time:       Fri Mar 27 15:56:35 2020


#       File generated by GOLD software.
#

@<TRIPOS>MOLECULE
AV-unprocessed.smi:2886
    33    35     1
SMALL
NO_CHARGES


@<TRIPOS>ATOM
      1 ****        -4.2636  -3.6141   0.9394 O.2            1 S1                 0.0000
      2 ****        -3.7824  -2.4827   0.9073 C.2            1 S1                 0.0000
      3 ****        -4.4830  -1.3820   1.3169 N.pl3          1 S1                -1.0000
      4 ****        -3.8780  -0.0703   1.2511 N.2            1 S1                 0.0000
      5 ****        -2.6879   0.0835   0.8221 C.2            1 S1                 0.0000
      6 ****        -1.8513  -1.0565   0.3725 C.2            1 S1                 0.0000
      7 ****        -0.5536  -0.8905  -0.0955 N.pl3          1 S1                 0.0000
      8 ****         0.2144   0.3381  -0.2384 C.3            1 S1                 0.0000
      9 ****         0.3702   0.7658  -1.6997 C.3            1 S1                 0.0000
     10 ****         1.8953   0.8518  -1.8401 C.3            1 S1                 0.0000
     11 ****         2.4893   2.0189  -1.0395 C.3            1 S1                 0.0000
     12 ****         2.3696   1.5066   0.3959 C.3            1 S1                 0.0000
     13 ****         1.6789   0.1515   0.1910 C.3            1 S1                 0.0000
     14 ****         2.2818  -0.2450  -1.0306 O.3            1 S1                 0.0000
     15 ****        -2.4118  -2.2921   0.4176 C.2            1 S1                 0.0000
     16 ****        -1.5191  -3.6868  -0.0967 Cl             1 S1                 0.0000
     17 ****        -2.2335   1.0749   0.7631 H              1 S1                 0.0000
     18 ****        -0.0195  -1.7358  -0.2382 H              1 S1                 0.0000
     19 ****        -0.2331   1.1303   0.3611 H              1 S1                 0.0000
     20 ****        -0.0295   0.0134  -2.3812 H              1 S1                 0.0000
     21 ****        -0.1240   1.7137  -1.9153 H              1 S1                 0.0000
     22 ****         2.2479   0.7955  -2.8701 H              1 S1                 0.0000
     23 ****         3.5355   2.1805  -1.3016 H              1 S1                 0.0000
     24 ****         1.9470   2.9506  -1.2044 H              1 S1                 0.0000
     25 ****         3.3581   1.3722   0.8364 H              1 S1                 0.0000
     26 ****         1.7971   2.1754   1.0396 H              1 S1                 0.0000
     27 ****         1.8239  -0.5436   1.0190 H              1 S1                 0.0000
     28 ****        -3.7218  -4.3968   0.6331 LP             1 S1                 0.0000
     29 ****        -5.1967  -3.7514   1.2718 LP             1 S1                 0.0000
     30 ****        -5.4157  -1.4845   1.6627 LP             1 S1                 0.0000
     31 ****        -4.4017   0.7286   1.5469 LP             1 S1                 0.0000
     32 ****         3.2758  -0.3191  -0.9506 LP             1 S1                 0.0000
     33 ****         1.9093  -1.1092  -1.3687 LP             1 S1                 0.0000
@<TRIPOS>BOND
    1    1    2 2     
    2    2   15 1     
    3    2    3 1     
    4    3    4 1     
    5    4    5 2     
    6    5    6 1     
    7    5   17 1     
    8    6    7 1     
    9    6   15 2     
   10    7    8 1     
   11    7   18 1     
   12    8   13 1     
   13    8    9 1     
   14    8   19 1     
   15    9   10 1     
   16    9   20 1     
   17    9   21 1     
   18   10   14 1     
   19   10   11 1     
   20   10   22 1     
   21   11   12 1     
   22   11   23 1     
   23   11   24 1     
   24   12   13 1     
   25   12   25 1     
   26   12   26 1     
   27   13   14 1     
   28   13   27 1     
   29   15   16 1     
   30    1   28 1     
   31    1   29 1     
   32    3   30 1     
   33    4   31 1     
   34   14   32 1     
   35   14   33 1     
@<TRIPOS>SUBSTRUCTURE
      1 S1             1
@<TRIPOS>SET
LONE_PAIRS      STATIC     ATOMS    <user>   **** ""
6 28 29 30 31 32 33
DONOR_HYDROGENS      STATIC     ATOMS    <user>   **** ""
1 18
ATOM$BLUE        STATIC     ATOMS    COLORGROUP SYSTEM
6 28 29 30 31 32 33
ATOM$RED        STATIC     ATOMS    COLORGROUP SYSTEM
1 18
