AV-unprocessed.smi:1330|AV-procd|sdf|5486|dock10
  -GOLD-   22720 5 63D 1   1.00000     0.00000
 Structure written by MMmdl.
 42 43  0  0  0  0  0  0  0  0  1 V2000
  146.9806  137.2420  162.9723 C   0  0  0  0  0  0  0  0  0  0  0  0
  147.5058  136.4692  161.7927 C   0  0  0  0  0  0  0  0  0  0  0  0
  148.3871  137.0618  161.0556 N   0  0  0  0  0  0  0  0  0  0  0  0
  148.9315  136.4431  159.9478 N   0  0  0  0  0  0  0  0  0  0  0  0
  149.9009  137.2712  159.2195 C   0  0  0  0  0  0  0  0  0  0  0  0
  149.5164  137.4370  157.7322 C   0  0  1  0  0  0  0  0  0  0  0  0
  148.3661  138.2577  157.6730 O   0  0  0  0  0  0  0  0  0  0  0  0
  150.6206  138.1413  156.9262 C   0  0  0  0  0  0  0  0  0  0  0  0
  151.0736  139.2685  157.6577 O   0  0  0  0  0  0  0  0  0  0  0  0
  151.2474  140.4192  156.8492 C   0  0  0  0  0  0  0  0  0  0  0  0
  151.4907  141.6504  157.6977 C   0  0  0  0  0  0  0  0  0  0  0  0
  151.0044  142.9078  157.2824 C   0  0  0  0  0  0  0  0  0  0  0  0
  151.2244  144.0490  158.0784 C   0  0  0  0  0  0  0  0  0  0  0  0
  151.9305  143.9366  159.2922 C   0  0  0  0  0  0  0  0  0  0  0  0
  152.1985  145.3345  160.2674 Cl  0  0  0  0  0  0  0  0  0  0  0  0
  152.4162  142.6819  159.7098 C   0  0  0  0  0  0  0  0  0  0  0  0
  152.1962  141.5405  158.9140 C   0  0  0  0  0  0  0  0  0  0  0  0
  148.6150  135.1851  159.5266 C   0  0  0  0  0  0  0  0  0  0  0  0
  149.1235  134.6732  158.5282 O   0  0  0  0  0  0  0  0  0  0  0  0
  147.6175  134.5185  160.3667 C   0  0  0  0  0  0  0  0  0  0  0  0
  147.2550  133.1994  159.9592 C   0  0  0  0  0  0  0  0  0  0  0  0
  146.9791  132.1224  159.6366 N   0  0  0  0  0  0  0  0  0  0  0  0
  147.0730  135.1168  161.4558 C   0  0  0  0  0  0  0  0  0  0  0  0
  146.0319  134.4698  162.3588 C   0  0  0  0  0  0  0  0  0  0  0  0
  147.2037  136.7235  163.9048 H   0  0  0  0  0  0  0  0  0  0  0  0
  145.8999  137.3659  162.9038 H   0  0  0  0  0  0  0  0  0  0  0  0
  147.4217  138.2379  163.0360 H   0  0  0  0  0  0  0  0  0  0  0  0
  150.0192  138.2468  159.6961 H   0  0  0  0  0  0  0  0  0  0  0  0
  150.8837  136.8035  159.3007 H   0  0  0  0  0  0  0  0  0  0  0  0
  149.3043  136.4664  157.2818 H   0  0  0  0  0  0  0  0  0  0  0  0
  147.8300  137.9687  156.9504 H   0  0  0  0  0  0  0  0  0  0  0  0
  151.4402  137.4589  156.6930 H   0  0  0  0  0  0  0  0  0  0  0  0
  150.2163  138.4968  155.9770 H   0  0  0  0  0  0  0  0  0  0  0  0
  152.0948  140.2785  156.1762 H   0  0  0  0  0  0  0  0  0  0  0  0
  150.3657  140.5763  156.2256 H   0  0  0  0  0  0  0  0  0  0  0  0
  150.4586  143.0002  156.3549 H   0  0  0  0  0  0  0  0  0  0  0  0
  150.8494  145.0096  157.7569 H   0  0  0  0  0  0  0  0  0  0  0  0
  152.9567  142.5929  160.6407 H   0  0  0  0  0  0  0  0  0  0  0  0
  152.5673  140.5800  159.2409 H   0  0  0  0  0  0  0  0  0  0  0  0
  145.7835  133.4569  162.0432 H   0  0  0  0  0  0  0  0  0  0  0  0
  145.1087  135.0502  162.3546 H   0  0  0  0  0  0  0  0  0  0  0  0
  146.3973  134.4117  163.3845 H   0  0  0  0  0  0  0  0  0  0  0  0
  1  2  1  0  0  0  0
  1 25  1  0  0  0  0
  1 26  1  0  0  0  0
  1 27  1  0  0  0  0
  2 23  1  0  0  0  0
  2  3  2  0  0  0  0
  3  4  1  0  0  0  0
  4  5  1  0  0  0  0
  4 18  1  0  0  0  0
  5  6  1  0  0  0  0
  5 28  1  0  0  0  0
  5 29  1  0  0  0  0
  6  7  1  0  0  0  0
  6  8  1  0  0  0  0
  6 30  1  0  0  0  0
  7 31  1  0  0  0  0
  8  9  1  0  0  0  0
  8 32  1  0  0  0  0
  8 33  1  0  0  0  0
  9 10  1  0  0  0  0
 10 11  1  0  0  0  0
 10 34  1  0  0  0  0
 10 35  1  0  0  0  0
 11 17  1  0  0  0  0
 11 12  2  0  0  0  0
 12 13  1  0  0  0  0
 12 36  1  0  0  0  0
 13 14  2  0  0  0  0
 13 37  1  0  0  0  0
 14 15  1  0  0  0  0
 14 16  1  0  0  0  0
 16 17  2  0  0  0  0
 16 38  1  0  0  0  0
 17 39  1  0  0  0  0
 18 19  2  0  0  0  0
 18 20  1  0  0  0  0
 20 21  1  0  0  0  0
 20 23  2  0  0  0  0
 21 22  3  0  0  0  0
 23 24  1  0  0  0  0
 24 40  1  0  0  0  0
 24 41  1  0  0  0  0
 24 42  1  0  0  0  0
M  END
> <s_m_source_file>
AV-unprocessed.smi

> <i_m_source_file_index>
1330

> <i_lp_mmshare_version>
43012

> <i_f3d_flags>
0

> <s_epik_input>
TiNDYyhjMVtDSDNdKWMoPU8pbihuYzFbQ0gzXSlbQ0gyXVtDQEhdKFtPSF0pW0NIMl1PW0NIMl1jMltjSF1bY0hdYyhDbClbY0hdW2NIXTI=

> <s_epik_cmdline>
J2VwaWtfcHl0aG9uJywgJy1waCcsICc3LjAnLCAnLXRuJywgJzgnLCAnLW1hJywgJzIwMCcsICctbWV0YWxfYmluZGluZycsICctaW1hZScsICc8aW5maWxlLm1hZT4nLCAnLW9tYWUnLCAnPG91dGZpbGUubWFlPic=

> <r_lp_tautomer_probability>
1

> <r_epik_Ionization_Penalty>
6.27695e-08

> <r_epik_Ionization_Penalty_Charging>
2.19172e-10

> <r_epik_Ionization_Penalty_Neutral>
6.25504e-08

> <r_epik_State_Penalty>
-0

> <r_epik_Charging_Adjusted_Penalty>
2.19172e-10

> <i_epik_Tot_Q>
0

> <i_epik_Tot_abs_Q>
0

> <r_epik_Metal_State_Penalty>
-0

> <b_epik_Metal_Only>
0

> <s_lp_Force_Field>
OPLS_2005

> <r_lp_Energy>
31.5646

> <b_lp_Chiralities_Consistent>
1

> <s_lp_Variant>
AV-unprocessed.smi:1330-2

> <Gold.Version>
5.8.1

> <Gold.Id.Protein>
6NUR|6NUR_protein|mol2

> <Gold.PLP.Fitness>
48.8531

> <Gold.PLP.PLP>
-43.5492

> <Gold.PLP.part.hbond>
-2.9360

> <Gold.PLP.part.metal>
0.0000

> <Gold.PLP.part.buried>
-2.2239

> <Gold.PLP.part.nonpolar>
-38.3496

> <Gold.PLP.part.repulsive>
0.0000

> <Gold.PLP.ligand.clash>
0.0000

> <Gold.PLP.ligand.torsion>
0.8400

> <Gold.PLP.Chemscore.Hbond>
2.2974

> <Gold.PLP.Chemscore.CHOScore>
0.0000

> <Gold.PLP.Chemscore.Metal>
0.0000

> <Gold.Chemscore.Hbonds>
donor molecule, donor type, donor heavy atom, donor atom, acceptor molecule, acceptor atom, score
      P1  H  6896  6907       L1    19  0.75
      P1  H  6931  6943       L1     3  1.00
      P1  H  6934  6947       L1     3  0.14

> <Gold.PLP.Chemscore.Internal.Correction>
0.0918

> <Gold.Rescore>
     Score         DG    S(hbond)    S(metal)    S(lipo)     H(rot)  DE(clash)    DE(int)     intcor
     17.18     -19.46       1.73        0.00     124.41       2.48       0.20       2.08       ----

> <Gold.Chemscore.Fitness>
17.1829

> <Gold.Chemscore.DG>
-19.4554

> <Gold.Chemscore.ZeroCoef>
-5.4800

> <Gold.Chemscore.Hbond>
1.7252

> <Gold.Chemscore.Metal>
0.0000

> <Gold.Chemscore.Lipo>
124.4108

> <Gold.Chemscore.Internal_Hbond>
0.0000

> <Gold.Chemscore.DEClash>
0.1971

> <Gold.Chemscore.DEInternal>
2.0754

> <Gold.Chemscore.Rot>
2.4777

> <Gold.Chemscore.Internal.Correction>
   9.000000E+99

> <Gold.Chemscore.Hbonds>
donor molecule, donor type, donor heavy atom, donor atom, acceptor molecule, acceptor atom, score
      P1  H  6896  6907       L1    19  0.09
      P1  H  6931  6943       L1     3  0.67
      P1  H  6934  6947       L1     3  0.01

> <Gold.Chemscore.Hbond.Weighted>
-5.7622

> <Gold.Chemscore.Metal.Weighted>
-0.0000

> <Gold.Chemscore.Lipo.Weighted>
-14.5561

> <Gold.Chemscore.Internal_Hbond.Weighted>
0.0000

> <Gold.Chemscore.DEClash.Weighted>
0.1971

> <Gold.Chemscore.DEInternal.Weighted>
2.0754

> <Gold.Chemscore.Rot.Weighted>
6.3428

> <Gold.Chemscore.Internal.Correction.Weighted>
   9.000000E+99

> <Gold.Protein.RotatedTorsions>
[ 6907 6896 6895 6894 ] final  -96.36 input  -60.11 | X-H torsion
[ 7974 7965 7964 7962 ] final  159.05 input  175.53 | X-H torsion
[ 8008 7997 7996 7995 ] final   63.35 input   59.86 | X-H torsion
[ 10167 10162 10161 10158 ] final -134.00 input  -65.29 | X-H torsion
[ 10718 10713 10712 10709 ] final  -42.27 input   66.30 | X-H torsion
[ 10763 10752 10751 10750 ] final  139.23 input  -60.55 | X-H torsion
[ 11005 11000 10999 10996 ] final  -82.47 input  -57.11 | X-H torsion

> <Gold.Protein.ActiveResidues>
 VAL166  LYS551  ARG553  GLY616  TRP617  ASP618  TYR619  PRO620  LYS621  CYS622 
 ASP623  PHE694  ASN695  SER759  ASP760  ASP761  ALA762  ILE779  LEU786  VAL792 
 PHE793  MET794  SER795  GLU796  ALA797  LYS798  CYS799  TRP800  GLU811  SER814 

> <Gold.Protein.RotatedAtoms>
  150.6987  134.1515  159.4142 H   0  0  0  0  0  0  0  0  0  0  0  0  # atno 6907 bound_to 6896
  151.9498  135.0172  160.0550 H   0  0  0  0  0  0  0  0  0  0  0  0  # atno 6908 bound_to 6896
  152.2021  133.4813  159.5101 H   0  0  0  0  0  0  0  0  0  0  0  0  # atno 6909 bound_to 6896
  144.7811  139.7564  143.6259 H   0  0  0  0  0  0  0  0  0  0  0  0  # atno 7974 bound_to 7965
  155.6289  140.3496  155.4676 H   0  0  0  0  0  0  0  0  0  0  0  0  # atno 8008 bound_to 7997
  156.0019  140.1215  157.0562 H   0  0  0  0  0  0  0  0  0  0  0  0  # atno 8009 bound_to 7997
  154.4252  140.1099  156.5695 H   0  0  0  0  0  0  0  0  0  0  0  0  # atno 8010 bound_to 7997
  139.8925  143.6705  152.2609 H   0  0  0  0  0  0  0  0  0  0  0  0  # atno 10167 bound_to 10162
  156.2614  130.4197  149.8539 H   0  0  0  0  0  0  0  0  0  0  0  0  # atno 10718 bound_to 10713
  153.9027  135.3020  155.3448 H   0  0  0  0  0  0  0  0  0  0  0  0  # atno 10763 bound_to 10752
  154.7662  135.4909  153.9563 H   0  0  0  0  0  0  0  0  0  0  0  0  # atno 10764 bound_to 10752
  153.1236  135.6788  153.9395 H   0  0  0  0  0  0  0  0  0  0  0  0  # atno 10765 bound_to 10752
  141.1663  133.7246  156.8576 H   0  0  0  0  0  0  0  0  0  0  0  0  # atno 11005 bound_to 11000
  146.2020  139.5320  142.9737 LP  0  0  0  0  0  0  0  0  0  0  0  0  # atno 17320 bound_to 7965
  145.6047  141.0349  143.1999 LP  0  0  0  0  0  0  0  0  0  0  0  0  # atno 17321 bound_to 7965
  139.7097  144.7622  151.1133 LP  0  0  0  0  0  0  0  0  0  0  0  0  # atno 17342 bound_to 10162
  140.7723  143.5347  150.9381 LP  0  0  0  0  0  0  0  0  0  0  0  0  # atno 17343 bound_to 10162
  156.6053  130.8563  151.3441 LP  0  0  0  0  0  0  0  0  0  0  0  0  # atno 17370 bound_to 10713
  157.7252  130.9612  150.1603 LP  0  0  0  0  0  0  0  0  0  0  0  0  # atno 17371 bound_to 10713
  140.1871  134.8992  157.3017 LP  0  0  0  0  0  0  0  0  0  0  0  0  # atno 17394 bound_to 11000
  140.2331  134.3885  155.7513 LP  0  0  0  0  0  0  0  0  0  0  0  0  # atno 17395 bound_to 11000

$$$$
