AV-unprocessed.smi:285|AV-procd|sdf|2171|dock4
  -GOLD-   2262021533D 1   1.00000     0.00000
 Structure written by MMmdl.
 31 33  0  0  0  0  0  0  0  0  1 V2000
  153.7017  135.6912  160.9497 N   0  0  0  0  0  0  0  0  0  0  0  0
  153.7889  136.9163  160.4123 C   0  0  0  0  0  0  0  0  0  0  0  0
  154.9158  137.6342  160.6282 N   0  0  0  0  0  0  0  0  0  0  0  0
  155.0291  138.8581  160.1020 C   0  0  0  0  0  0  0  0  0  0  0  0
  154.1529  139.5288  159.3492 N   0  0  0  0  0  0  0  0  0  0  0  0
  153.0152  138.8051  159.1325 C   0  0  0  0  0  0  0  0  0  0  0  0
  152.7577  137.4932  159.6289 C   0  0  0  0  0  0  0  0  0  0  0  0
  151.5046  137.0601  159.2139 N   0  0  0  0  0  0  0  0  0  0  0  0
  151.0686  138.0707  158.5151 C   0  0  0  0  0  0  0  0  0  0  0  0
  149.3583  137.9971  157.6800 Br  0  0  0  0  0  0  0  0  0  0  0  0
  151.8971  139.1648  158.4060 N   0  0  0  0  0  0  0  0  0  0  0  0
  151.6675  140.4505  157.6793 C   0  0  2  0  0  0  0  0  0  0  0  0
  150.3642  141.1057  158.1097 C   0  0  0  0  0  0  0  0  0  0  0  0
  150.1050  141.9748  156.8990 C   0  0  2  0  0  0  0  0  0  0  0  0
  148.7493  142.3693  156.8257 O   0  0  0  0  0  0  0  0  0  0  0  0
  150.5985  141.0898  155.7331 C   0  0  2  0  0  0  0  0  0  0  0  0
  149.5244  140.2308  155.0365 C   0  0  0  0  0  0  0  0  0  0  0  0
  150.0410  139.6354  153.8640 O   0  0  0  0  0  0  0  0  0  0  0  0
  151.5427  140.1876  156.3176 O   0  0  0  0  0  0  0  0  0  0  0  0
  152.8714  135.1351  160.8025 H   0  0  0  0  0  0  0  0  0  0  0  0
  154.4656  135.3264  161.5000 H   0  0  0  0  0  0  0  0  0  0  0  0
  155.9538  139.3741  160.3141 H   0  0  0  0  0  0  0  0  0  0  0  0
  152.5452  141.0704  157.8611 H   0  0  0  0  0  0  0  0  0  0  0  0
  149.5866  140.3494  158.2290 H   0  0  0  0  0  0  0  0  0  0  0  0
  150.4831  141.6590  159.0415 H   0  0  0  0  0  0  0  0  0  0  0  0
  150.7276  142.8686  156.9605 H   0  0  0  0  0  0  0  0  0  0  0  0
  148.7112  143.2461  156.4741 H   0  0  0  0  0  0  0  0  0  0  0  0
  151.1190  141.6977  154.9917 H   0  0  0  0  0  0  0  0  0  0  0  0
  149.2077  139.4251  155.6991 H   0  0  0  0  0  0  0  0  0  0  0  0
  148.6353  140.8171  154.8015 H   0  0  0  0  0  0  0  0  0  0  0  0
  149.5191  139.9193  153.1291 H   0  0  0  0  0  0  0  0  0  0  0  0
  1  2  1  0  0  0  0
  1 20  1  0  0  0  0
  1 21  1  0  0  0  0
  2  7  1  0  0  0  0
  2  3  2  0  0  0  0
  3  4  1  0  0  0  0
  4  5  2  0  0  0  0
  4 22  1  0  0  0  0
  5  6  1  0  0  0  0
  6 11  1  0  0  0  0
  6  7  2  0  0  0  0
  7  8  1  0  0  0  0
  8  9  2  0  0  0  0
  9 10  1  0  0  0  0
  9 11  1  0  0  0  0
 11 12  1  0  0  0  0
 12 19  1  0  0  0  0
 12 13  1  0  0  0  0
 12 23  1  0  0  0  0
 13 14  1  0  0  0  0
 13 24  1  0  0  0  0
 13 25  1  0  0  0  0
 14 15  1  0  0  0  0
 14 16  1  0  0  0  0
 14 26  1  0  0  0  0
 15 27  1  0  0  0  0
 16 17  1  0  0  0  0
 16 19  1  0  0  0  0
 16 28  1  0  0  0  0
 17 18  1  0  0  0  0
 17 29  1  0  0  0  0
 17 30  1  0  0  0  0
 18 31  1  0  0  0  0
M  END
> <s_m_source_file>
AV-unprocessed.smi

> <i_m_source_file_index>
285

> <i_lp_mmshare_version>
43012

> <i_f3d_flags>
0

> <s_epik_input>
bjFbY0hdbmMoW05IMl0pYyhjMTIpbmMoQnIpbjJbQ0BASF0zW0NIMl1bQ0BASF0oW09IXSlbQ0BIXShPMylbQ0gyXVtPSF0=

> <s_epik_cmdline>
J2VwaWtfcHl0aG9uJywgJy1waCcsICc3LjAnLCAnLXRuJywgJzgnLCAnLW1hJywgJzIwMCcsICctbWV0YWxfYmluZGluZycsICctaW1hZScsICc8aW5maWxlLm1hZT4nLCAnLW9tYWUnLCAnPG91dGZpbGUubWFlPic=

> <r_lp_tautomer_probability>
1

> <r_epik_Ionization_Penalty>
0.000103242

> <r_epik_Ionization_Penalty_Charging>
0

> <r_epik_Ionization_Penalty_Neutral>
0.000103242

> <r_epik_State_Penalty>
-0

> <r_epik_Charging_Adjusted_Penalty>
0

> <i_epik_Tot_Q>
0

> <i_epik_Tot_abs_Q>
0

> <r_epik_Metal_State_Penalty>
-0

> <b_epik_Metal_Only>
0

> <s_epik_Chemistry_Notes>
This compound contains an acetal/aminal-like group ( X-CH(R)-Y where X, Y are N, S, or O) that may be acid/base labile, releasing an aldehyde.

> <s_lp_Force_Field>
OPLS_2005

> <r_lp_Energy>
36.2712

> <b_lp_Chiralities_Consistent>
1

> <s_lp_Variant>
AV-unprocessed.smi:285-7

> <Gold.Version>
5.8.1

> <Gold.Id.Protein>
6NUR|6NUR_protein|mol2

> <Gold.PLP.Fitness>
37.7335

> <Gold.PLP.PLP>
-24.9114

> <Gold.PLP.part.hbond>
-4.8146

> <Gold.PLP.part.metal>
0.0000

> <Gold.PLP.part.buried>
-4.4377

> <Gold.PLP.part.nonpolar>
-15.8034

> <Gold.PLP.part.repulsive>
0.0886

> <Gold.PLP.ligand.clash>
0.0000

> <Gold.PLP.ligand.torsion>
0.1057

> <Gold.PLP.Chemscore.Hbond>
4.3409

> <Gold.PLP.Chemscore.CHOScore>
0.0000

> <Gold.PLP.Chemscore.Metal>
0.0000

> <Gold.Chemscore.Hbonds>
donor molecule, donor type, donor heavy atom, donor atom, acceptor molecule, acceptor atom, score
      L1  H    15    27       P1  8028  1.00
      L1  H    18    31       P1  7957  0.80
      P1  H  6896  6908       L1     8  0.88
      P1  H  7989  7998       L1    18  0.70
      P1  H  7997  8009       L1     5  0.42

> <Gold.PLP.Chemscore.Internal.Correction>
0.0110

> <Gold.Rescore>
     Score         DG    S(hbond)    S(metal)    S(lipo)     H(rot)  DE(clash)    DE(int)     intcor
     11.98     -12.09       3.26        0.00      30.33       3.06       0.01       0.09       ----

> <Gold.Chemscore.Fitness>
11.9793

> <Gold.Chemscore.DG>
-12.0857

> <Gold.Chemscore.ZeroCoef>
-5.4800

> <Gold.Chemscore.Hbond>
3.2612

> <Gold.Chemscore.Metal>
0.0000

> <Gold.Chemscore.Lipo>
30.3298

> <Gold.Chemscore.Internal_Hbond>
0.0000

> <Gold.Chemscore.DEClash>
0.0126

> <Gold.Chemscore.DEInternal>
0.0938

> <Gold.Chemscore.Rot>
3.0607

> <Gold.Chemscore.Internal.Correction>
   9.000000E+99

> <Gold.Chemscore.Hbonds>
donor molecule, donor type, donor heavy atom, donor atom, acceptor molecule, acceptor atom, score
      L1  H    15    27       P1  8028  0.88
      L1  H    18    31       P1  7957  0.78
      P1  H  6896  6908       L1     8  0.16
      P1  H  7989  7998       L1    18  0.02
      P1  H  7997  8009       L1     5  0.19

> <Gold.Chemscore.Hbond.Weighted>
-10.8924

> <Gold.Chemscore.Metal.Weighted>
-0.0000

> <Gold.Chemscore.Lipo.Weighted>
-3.5486

> <Gold.Chemscore.Internal_Hbond.Weighted>
0.0000

> <Gold.Chemscore.DEClash.Weighted>
0.0126

> <Gold.Chemscore.DEInternal.Weighted>
0.0938

> <Gold.Chemscore.Rot.Weighted>
7.8354

> <Gold.Chemscore.Internal.Correction.Weighted>
   9.000000E+99

> <Gold.Protein.RotatedTorsions>
[ 6907 6896 6895 6894 ] final -119.22 input  -60.11 | X-H torsion
[ 7974 7965 7964 7962 ] final  -37.86 input  175.53 | X-H torsion
[ 8008 7997 7996 7995 ] final  127.14 input   59.86 | X-H torsion
[ 10167 10162 10161 10158 ] final -109.22 input  -65.29 | X-H torsion
[ 10718 10713 10712 10709 ] final -116.60 input   66.30 | X-H torsion
[ 10763 10752 10751 10750 ] final -104.42 input  -60.55 | X-H torsion
[ 11005 11000 10999 10996 ] final  -37.40 input  -57.11 | X-H torsion

> <Gold.Protein.ActiveResidues>
 VAL166  LYS551  ARG553  GLY616  TRP617  ASP618  TYR619  PRO620  LYS621  CYS622 
 ASP623  PHE694  ASN695  SER759  ASP760  ASP761  ALA762  ILE779  LEU786  VAL792 
 PHE793  MET794  SER795  GLU796  ALA797  LYS798  CYS799  TRP800  GLU811  SER814 

> <Gold.Protein.RotatedAtoms>
  150.8286  133.8129  159.3107 H   0  0  0  0  0  0  0  0  0  0  0  0  # atno 6907 bound_to 6896
  151.5866  135.1054  160.0039 H   0  0  0  0  0  0  0  0  0  0  0  0  # atno 6908 bound_to 6896
  152.4368  133.7334  159.6657 H   0  0  0  0  0  0  0  0  0  0  0  0  # atno 6909 bound_to 6896
  146.0538  140.6445  142.9029 H   0  0  0  0  0  0  0  0  0  0  0  0  # atno 7974 bound_to 7965
  156.2883  140.2676  156.2226 H   0  0  0  0  0  0  0  0  0  0  0  0  # atno 8008 bound_to 7997
  155.0153  140.0387  157.2434 H   0  0  0  0  0  0  0  0  0  0  0  0  # atno 8009 bound_to 7997
  154.7482  140.2738  155.6320 H   0  0  0  0  0  0  0  0  0  0  0  0  # atno 8010 bound_to 7997
  140.1577  143.4146  152.1449 H   0  0  0  0  0  0  0  0  0  0  0  0  # atno 10167 bound_to 10162
  156.0975  130.6144  150.9056 H   0  0  0  0  0  0  0  0  0  0  0  0  # atno 10718 bound_to 10713
  154.7877  135.4787  153.9982 H   0  0  0  0  0  0  0  0  0  0  0  0  # atno 10763 bound_to 10752
  153.1584  135.6804  153.8786 H   0  0  0  0  0  0  0  0  0  0  0  0  # atno 10764 bound_to 10752
  153.8407  135.3179  155.3404 H   0  0  0  0  0  0  0  0  0  0  0  0  # atno 10765 bound_to 10752
  140.9949  133.6985  156.1917 H   0  0  0  0  0  0  0  0  0  0  0  0  # atno 11005 bound_to 11000
  144.7137  140.4131  143.7061 LP  0  0  0  0  0  0  0  0  0  0  0  0  # atno 17320 bound_to 7965
  145.6679  139.1593  143.2771 LP  0  0  0  0  0  0  0  0  0  0  0  0  # atno 17321 bound_to 7965
  139.5396  144.7243  151.4778 LP  0  0  0  0  0  0  0  0  0  0  0  0  # atno 17342 bound_to 10162
  140.6663  143.8391  150.6946 LP  0  0  0  0  0  0  0  0  0  0  0  0  # atno 17343 bound_to 10162
  157.6138  131.0934  150.8747 LP  0  0  0  0  0  0  0  0  0  0  0  0  # atno 17370 bound_to 10713
  156.8881  130.5203  149.5287 LP  0  0  0  0  0  0  0  0  0  0  0  0  # atno 17371 bound_to 10713
  140.6981  134.4593  157.5587 LP  0  0  0  0  0  0  0  0  0  0  0  0  # atno 17394 bound_to 11000
  139.9010  134.8556  156.1897 LP  0  0  0  0  0  0  0  0  0  0  0  0  # atno 17395 bound_to 11000

$$$$
