AV-unprocessed.smi:2345|AV-procd|sdf|9363|dock10
  -GOLD-   2272012583D 1   1.00000     0.00000
 Structure written by MMmdl.
 37 38  0  0  0  0  0  0  0  0  1 V2000
  149.2009  132.4218  153.8146 C   0  0  0  0  0  0  0  0  0  0  0  0
  148.0537  133.1035  153.0646 C   0  0  0  0  0  0  0  0  0  0  0  0
  146.8516  133.8298  154.2122 S   0  0  0  0  0  0  0  0  0  0  0  0
  145.5416  134.3378  153.0499 C   0  0  2  0  0  0  0  0  0  0  0  0
  145.7019  133.7479  151.6491 C   0  0  0  0  0  0  0  0  0  0  0  0
  144.7785  134.6060  150.7867 C   0  0  0  0  0  0  0  0  0  0  0  0
  144.8248  136.0102  151.4038 C   0  0  0  0  0  0  0  0  0  0  0  0
  145.4282  135.8594  152.8179 C   0  0  2  0  0  0  0  0  0  0  0  0
  146.7282  136.5256  152.9028 N   0  0  0  0  0  0  0  0  0  0  0  0
  146.9942  137.6101  153.6435 C   0  0  0  0  0  0  0  0  0  0  0  0
  146.1498  138.1991  154.3184 O   0  0  0  0  0  0  0  0  0  0  0  0
  148.2821  137.9741  153.5310 N   0  0  0  0  0  0  0  0  0  0  0  0
  148.9125  139.0835  154.1502 C   0  0  0  0  0  0  0  0  0  0  0  0
  148.1938  140.2934  154.2393 C   0  0  0  0  0  0  0  0  0  0  0  0
  148.8177  141.4089  154.8325 C   0  0  0  0  0  0  0  0  0  0  0  0
  150.0800  141.3867  155.3099 N   0  0  0  0  0  0  0  0  0  0  0  0
  150.7748  140.2340  155.1996 C   0  0  0  0  0  0  0  0  0  0  0  0
  150.2478  139.0607  154.6229 C   0  0  0  0  0  0  0  0  0  0  0  0
  151.0288  137.9601  154.5059 F   0  0  0  0  0  0  0  0  0  0  0  0
  149.9180  131.9888  153.1170 H   0  0  0  0  0  0  0  0  0  0  0  0
  148.8311  131.6193  154.4533 H   0  0  0  0  0  0  0  0  0  0  0  0
  149.7365  133.1330  154.4441 H   0  0  0  0  0  0  0  0  0  0  0  0
  148.4484  133.8855  152.4161 H   0  0  0  0  0  0  0  0  0  0  0  0
  147.5440  132.3809  152.4270 H   0  0  0  0  0  0  0  0  0  0  0  0
  144.5903  133.9924  153.4579 H   0  0  0  0  0  0  0  0  0  0  0  0
  146.7333  133.8582  151.3112 H   0  0  0  0  0  0  0  0  0  0  0  0
  145.4435  132.6899  151.6020 H   0  0  0  0  0  0  0  0  0  0  0  0
  145.0706  134.6024  149.7363 H   0  0  0  0  0  0  0  0  0  0  0  0
  143.7615  134.2160  150.8457 H   0  0  0  0  0  0  0  0  0  0  0  0
  145.4244  136.6747  150.7799 H   0  0  0  0  0  0  0  0  0  0  0  0
  143.8237  136.4399  151.4487 H   0  0  0  0  0  0  0  0  0  0  0  0
  144.7632  136.2898  153.5691 H   0  0  0  0  0  0  0  0  0  0  0  0
  147.4834  136.1091  152.3780 H   0  0  0  0  0  0  0  0  0  0  0  0
  148.8334  137.4767  152.8476 H   0  0  0  0  0  0  0  0  0  0  0  0
  147.1807  140.3667  153.8714 H   0  0  0  0  0  0  0  0  0  0  0  0
  148.2885  142.3459  154.9231 H   0  0  0  0  0  0  0  0  0  0  0  0
  151.7886  140.2508  155.5715 H   0  0  0  0  0  0  0  0  0  0  0  0
  1  2  1  0  0  0  0
  1 20  1  0  0  0  0
  1 21  1  0  0  0  0
  1 22  1  0  0  0  0
  2  3  1  0  0  0  0
  2 23  1  0  0  0  0
  2 24  1  0  0  0  0
  3  4  1  0  0  0  0
  4  8  1  0  0  0  0
  4  5  1  0  0  0  0
  4 25  1  0  0  0  0
  5  6  1  0  0  0  0
  5 26  1  0  0  0  0
  5 27  1  0  0  0  0
  6  7  1  0  0  0  0
  6 28  1  0  0  0  0
  6 29  1  0  0  0  0
  7  8  1  0  0  0  0
  7 30  1  0  0  0  0
  7 31  1  0  0  0  0
  8  9  1  0  0  0  0
  8 32  1  0  0  0  0
  9 10  1  0  0  0  0
  9 33  1  0  0  0  0
 10 11  2  0  0  0  0
 10 12  1  0  0  0  0
 12 13  1  0  0  0  0
 12 34  1  0  0  0  0
 13 18  1  0  0  0  0
 13 14  2  0  0  0  0
 14 15  1  0  0  0  0
 14 35  1  0  0  0  0
 15 16  2  0  0  0  0
 15 36  1  0  0  0  0
 16 17  1  0  0  0  0
 17 18  2  0  0  0  0
 17 37  1  0  0  0  0
 18 19  1  0  0  0  0
M  END
> <s_m_source_file>
AV-unprocessed.smi

> <i_m_source_file_index>
2345

> <i_lp_mmshare_version>
43012

> <i_f3d_flags>
0

> <s_epik_input>
W0NIM11bQ0gyXVNbQ0BASF0xW0NIMl1bQ0gyXVtDSDJdW0NASF0xW05IXUMoPU8pW05IXWMyW2NIXVtjSF1uW2NIXWMyRg==

> <s_epik_cmdline>
J2VwaWtfcHl0aG9uJywgJy1waCcsICc3LjAnLCAnLXRuJywgJzgnLCAnLW1hJywgJzIwMCcsICctbWV0YWxfYmluZGluZycsICctaW1hZScsICc8aW5maWxlLm1hZT4nLCAnLW9tYWUnLCAnPG91dGZpbGUubWFlPic=

> <r_epik_Ionization_Penalty>
0.00333745

> <r_epik_Ionization_Penalty_Charging>
0

> <r_epik_Ionization_Penalty_Neutral>
0.00333745

> <r_epik_State_Penalty>
0.00233401

> <r_epik_Charging_Adjusted_Penalty>
0.00233401

> <i_epik_Tot_Q>
0

> <i_epik_Tot_abs_Q>
0

> <r_epik_Metal_State_Penalty>
-0

> <b_epik_Metal_Only>
0

> <s_lp_Force_Field>
OPLS_2005

> <r_lp_Energy>
24.389

> <b_lp_Chiralities_Consistent>
1

> <s_lp_Variant>
AV-unprocessed.smi:2345-3

> <Gold.Version>
5.8.1

> <Gold.Id.Protein>
6NUR|6NUR_protein|mol2

> <Gold.PLP.Fitness>
38.8200

> <Gold.PLP.PLP>
-31.8558

> <Gold.PLP.part.hbond>
-2.3923

> <Gold.PLP.part.metal>
0.0000

> <Gold.PLP.part.buried>
0.0705

> <Gold.PLP.part.nonpolar>
-29.6119

> <Gold.PLP.part.repulsive>
0.2622

> <Gold.PLP.ligand.clash>
0.0000

> <Gold.PLP.ligand.torsion>
1.0325

> <Gold.PLP.Chemscore.Hbond>
1.9680

> <Gold.PLP.Chemscore.CHOScore>
1.0000

> <Gold.PLP.Chemscore.Metal>
0.0000

> <Gold.Chemscore.Hbonds>
donor molecule, donor type, donor heavy atom, donor atom, acceptor molecule, acceptor atom, score
      L1  H     9    33       P1  7948  0.98
      L1  H    12    34       P1  7948  0.99
      L1  C    15    36       P1  8028  0.98

> <Gold.PLP.Chemscore.Internal.Correction>
0.1252

> <Gold.Rescore>
     Score         DG    S(hbond)    S(metal)    S(lipo)     H(rot)  DE(clash)    DE(int)     intcor
     13.98     -16.27       1.93        0.00      66.73       1.35       0.09       2.20       ----

> <Gold.Chemscore.Fitness>
13.9842

> <Gold.Chemscore.DG>
-16.2702

> <Gold.Chemscore.ZeroCoef>
-5.4800

> <Gold.Chemscore.Hbond>
1.9260

> <Gold.Chemscore.Metal>
0.0000

> <Gold.Chemscore.Lipo>
66.7264

> <Gold.Chemscore.Internal_Hbond>
0.0000

> <Gold.Chemscore.DEClash>
0.0859

> <Gold.Chemscore.DEInternal>
2.2001

> <Gold.Chemscore.Rot>
1.3475

> <Gold.Chemscore.Internal.Correction>
   9.000000E+99

> <Gold.Chemscore.Hbonds>
donor molecule, donor type, donor heavy atom, donor atom, acceptor molecule, acceptor atom, score
      L1  H     9    33       P1  7948  0.89
      L1  H    12    34       P1  7948  0.90

> <Gold.Chemscore.Hbond.Weighted>
-6.4328

> <Gold.Chemscore.Metal.Weighted>
-0.0000

> <Gold.Chemscore.Lipo.Weighted>
-7.8070

> <Gold.Chemscore.Internal_Hbond.Weighted>
0.0000

> <Gold.Chemscore.DEClash.Weighted>
0.0859

> <Gold.Chemscore.DEInternal.Weighted>
2.2001

> <Gold.Chemscore.Rot.Weighted>
3.4496

> <Gold.Chemscore.Internal.Correction.Weighted>
   9.000000E+99

> <Gold.Protein.RotatedTorsions>
[ 6907 6896 6895 6894 ] final  164.48 input  -60.11 | X-H torsion
[ 7974 7965 7964 7962 ] final -111.97 input  175.53 | X-H torsion
[ 8008 7997 7996 7995 ] final -143.67 input   59.86 | X-H torsion
[ 10167 10162 10161 10158 ] final  -50.99 input  -65.29 | X-H torsion
[ 10718 10713 10712 10709 ] final  133.71 input   66.30 | X-H torsion
[ 10763 10752 10751 10750 ] final -102.94 input  -60.55 | X-H torsion
[ 11005 11000 10999 10996 ] final   99.45 input  -57.11 | X-H torsion

> <Gold.Protein.ActiveResidues>
 VAL166  LYS551  ARG553  GLY616  TRP617  ASP618  TYR619  PRO620  LYS621  CYS622 
 ASP623  PHE694  ASN695  SER759  ASP760  ASP761  ALA762  ILE779  LEU786  VAL792 
 PHE793  MET794  SER795  GLU796  ALA797  LYS798  CYS799  TRP800  GLU811  SER814 

> <Gold.Protein.RotatedAtoms>
  151.9091  133.3557  159.3857 H   0  0  0  0  0  0  0  0  0  0  0  0  # atno 6907 bound_to 6896
  150.7062  134.4750  159.5452 H   0  0  0  0  0  0  0  0  0  0  0  0  # atno 6908 bound_to 6896
  152.2353  134.8282  160.0519 H   0  0  0  0  0  0  0  0  0  0  0  0  # atno 6909 bound_to 6896
  145.1496  140.8822  143.3654 H   0  0  0  0  0  0  0  0  0  0  0  0  # atno 7974 bound_to 7965
  155.5144  140.0586  157.2918 H   0  0  0  0  0  0  0  0  0  0  0  0  # atno 8008 bound_to 7997
  154.4540  140.1963  156.0382 H   0  0  0  0  0  0  0  0  0  0  0  0  # atno 8009 bound_to 7997
  156.0762  140.3253  155.7640 H   0  0  0  0  0  0  0  0  0  0  0  0  # atno 8010 bound_to 7997
  140.6610  143.2636  151.4439 H   0  0  0  0  0  0  0  0  0  0  0  0  # atno 10167 bound_to 10162
  157.4746  131.1082  150.9760 H   0  0  0  0  0  0  0  0  0  0  0  0  # atno 10718 bound_to 10713
  154.7771  135.4842  153.9767 H   0  0  0  0  0  0  0  0  0  0  0  0  # atno 10763 bound_to 10752
  153.1443  135.6779  153.8986 H   0  0  0  0  0  0  0  0  0  0  0  0  # atno 10764 bound_to 10752
  153.8650  135.3150  155.3418 H   0  0  0  0  0  0  0  0  0  0  0  0  # atno 10765 bound_to 10752
  139.8771  134.9096  156.4607 H   0  0  0  0  0  0  0  0  0  0  0  0  # atno 11005 bound_to 11000
  145.0445  139.3232  143.5960 LP  0  0  0  0  0  0  0  0  0  0  0  0  # atno 17320 bound_to 7965
  146.3496  139.9831  142.8693 LP  0  0  0  0  0  0  0  0  0  0  0  0  # atno 17321 bound_to 7965
  139.5844  144.1636  152.2010 LP  0  0  0  0  0  0  0  0  0  0  0  0  # atno 17342 bound_to 10162
  140.0971  144.5571  150.7014 LP  0  0  0  0  0  0  0  0  0  0  0  0  # atno 17343 bound_to 10162
  157.0513  130.5788  149.5371 LP  0  0  0  0  0  0  0  0  0  0  0  0  # atno 17370 bound_to 10713
  156.0090  130.5180  150.7927 LP  0  0  0  0  0  0  0  0  0  0  0  0  # atno 17371 bound_to 10713
  140.8866  133.7879  155.9525 LP  0  0  0  0  0  0  0  0  0  0  0  0  # atno 17394 bound_to 11000
  140.8798  134.2625  157.5149 LP  0  0  0  0  0  0  0  0  0  0  0  0  # atno 17395 bound_to 11000

$$$$
