AV-unprocessed.smi:72|AV-procd|sdf|717|dock3
  -GOLD-   2262017 43D 1   1.00000     0.00000
 Structure written by MMmdl.
 28 29  0  0  0  0  0  0  0  0  2 V2000
  154.5314  138.1080  154.4447 N   0  0  0  0  0  0  0  0  0  0  0  0
  153.3269  138.3922  154.6839 C   0  0  0  0  0  0  0  0  0  0  0  0
  152.2642  137.6033  154.1008 N   0  0  0  0  0  0  0  0  0  0  0  0
  151.0409  137.9628  154.3427 C   0  0  0  0  0  0  0  0  0  0  0  0
  150.7265  139.1351  155.1532 N   0  0  0  0  0  0  0  0  0  0  0  0
  149.2981  139.5694  155.4502 C   0  0  2  0  0  0  0  0  0  0  0  0
  148.3869  138.7437  154.7866 O   0  0  0  0  0  0  0  0  0  0  0  0
  148.0129  139.3393  153.5505 C   0  0  1  0  0  0  0  0  0  0  0  0
  146.6904  138.7337  153.0575 C   0  0  0  0  0  0  0  0  0  0  0  0
  146.7965  137.3273  152.9932 O   0  0  0  0  0  0  0  0  0  0  0  0
  147.9095  140.8179  153.9273 C   0  0  2  0  0  0  0  0  0  0  0  0
  148.1214  141.6312  152.7906 O   0  0  0  0  0  0  0  0  0  0  0  0
  149.0348  141.0049  154.9424 C   0  0  1  0  0  0  0  0  0  0  0  0
  148.6130  141.8577  155.9869 O   0  0  0  0  0  0  0  0  0  0  0  0
  151.7932  139.8502  155.7632 C   0  0  0  0  0  0  0  0  0  0  0  0
  151.5106  140.7940  156.5019 O   0  0  0  0  0  0  0  0  0  0  0  0
  153.0748  139.4638  155.5105 N   0  5  0  0  0  0  0  0  0  0  0  0
  149.1878  139.4412  156.5286 H   0  0  0  0  0  0  0  0  0  0  0  0
  148.8068  139.2021  152.8135 H   0  0  0  0  0  0  0  0  0  0  0  0
  146.9365  141.0278  154.3751 H   0  0  0  0  0  0  0  0  0  0  0  0
  149.9329  141.4072  154.4701 H   0  0  0  0  0  0  0  0  0  0  0  0
  154.6218  137.3109  153.8316 H   0  0  0  0  0  0  0  0  0  0  0  0
  150.1863  137.4083  153.9560 H   0  0  0  0  0  0  0  0  0  0  0  0
  145.8572  139.0244  153.6977 H   0  0  0  0  0  0  0  0  0  0  0  0
  146.4669  139.0909  152.0518 H   0  0  0  0  0  0  0  0  0  0  0  0
  147.6029  137.1065  152.5532 H   0  0  0  0  0  0  0  0  0  0  0  0
  148.5549  141.1118  152.1307 H   0  0  0  0  0  0  0  0  0  0  0  0
  148.4650  142.7175  155.6221 H   0  0  0  0  0  0  0  0  0  0  0  0
  1  2  2  0  0  0  0
  1 22  1  0  0  0  0
  2 17  1  0  0  0  0
  2  3  1  0  0  0  0
  3  4  2  0  0  0  0
  4  5  1  0  0  0  0
  4 23  1  0  0  0  0
  5  6  1  0  0  0  0
  5 15  1  0  0  0  0
  6 18  1  0  0  0  0
  6 13  1  0  0  0  0
  6  7  1  0  0  0  0
  7  8  1  0  0  0  0
  8 19  1  0  0  0  0
  8  9  1  0  0  0  0
  8 11  1  0  0  0  0
  9 10  1  0  0  0  0
  9 24  1  0  0  0  0
  9 25  1  0  0  0  0
 10 26  1  0  0  0  0
 11 20  1  0  0  0  0
 11 12  1  0  0  0  0
 11 13  1  0  0  0  0
 12 27  1  0  0  0  0
 13 21  1  0  0  0  0
 13 14  1  0  0  0  0
 14 28  1  0  0  0  0
 15 16  2  0  0  0  0
 15 17  1  0  0  0  0
M  CHG  1  17  -1
M  END
> <s_m_source_file>
AV-unprocessed.smi

> <i_m_source_file_index>
72

> <i_lp_mmshare_version>
43012

> <i_f3d_flags>
0

> <s_epik_input>
W05IMl1jMW5bY0hdbihjKD1PKW4xKVtDQEBIXTJPW0NASF0oW0NIMl1bT0hdKVtDQEBIXShbT0hdKVtDQEhdMltPSF0=

> <s_epik_cmdline>
J2VwaWtfcHl0aG9uJywgJy1waCcsICc3LjAnLCAnLXRuJywgJzgnLCAnLW1hJywgJzIwMCcsICctbWV0YWxfYmluZGluZycsICctaW1hZScsICc8aW5maWxlLm1hZT4nLCAnLW9tYWUnLCAnPG91dGZpbGUubWFlPic=

> <r_lp_tautomer_probability>
7.17554e-07

> <r_epik_Ionization_Penalty>
12.8705

> <r_epik_Ionization_Penalty_Charging>
5.64144

> <r_epik_Ionization_Penalty_Neutral>
7.22905

> <r_epik_State_Penalty>
3.30104

> <r_epik_Charging_Adjusted_Penalty>
8.94249

> <i_epik_Tot_Q>
-1

> <i_epik_Tot_abs_Q>
1

> <r_epik_Metal_State_Penalty>
0.529074

> <b_epik_Metal_Only>
1

> <s_epik_Chemistry_Notes>
This compound contains an acetal/aminal-like group ( X-CH(R)-Y where X, Y are N, S, or O) that may be acid/base labile, releasing an aldehyde.

> <s_lp_Force_Field>
OPLS_2005

> <r_lp_Energy>
29.2038

> <b_lp_Chiralities_Consistent>
1

> <s_lp_Variant>
AV-unprocessed.smi:72-55

> <Gold.Version>
5.8.1

> <Gold.Id.Protein>
6NUR|6NUR_protein|mol2

> <Gold.PLP.Fitness>
44.0442

> <Gold.PLP.PLP>
-24.7369

> <Gold.PLP.part.hbond>
-7.5974

> <Gold.PLP.part.metal>
0.0000

> <Gold.PLP.part.buried>
2.9894

> <Gold.PLP.part.nonpolar>
-20.8037

> <Gold.PLP.part.repulsive>
0.2688

> <Gold.PLP.ligand.clash>
0.0000

> <Gold.PLP.ligand.torsion>
0.0541

> <Gold.PLP.Chemscore.Hbond>
5.7833

> <Gold.PLP.Chemscore.CHOScore>
0.6774

> <Gold.PLP.Chemscore.Metal>
0.0000

> <Gold.Chemscore.Hbonds>
donor molecule, donor type, donor heavy atom, donor atom, acceptor molecule, acceptor atom, score
      L1  H    10    26       P1  7948  1.00
      L1  H    12    27       P1  7957  1.00
      L1  H    14    28       P1  8028  0.98
      P1  H  7997  8009       L1    17  2.00
      P1  H 10752 10765       L1     3  0.80
      L1  C     4    23       P1  7948  0.68

> <Gold.PLP.Chemscore.Internal.Correction>
0.0333

> <Gold.Rescore>
     Score         DG    S(hbond)    S(metal)    S(lipo)     H(rot)  DE(clash)    DE(int)     intcor
      9.06     -12.22       4.23        0.00      25.34       4.04       1.75       1.42       ----

> <Gold.Chemscore.Fitness>
9.0582

> <Gold.Chemscore.DG>
-12.2214

> <Gold.Chemscore.ZeroCoef>
-5.4800

> <Gold.Chemscore.Hbond>
4.2273

> <Gold.Chemscore.Metal>
0.0000

> <Gold.Chemscore.Lipo>
25.3433

> <Gold.Chemscore.Internal_Hbond>
0.0000

> <Gold.Chemscore.DEClash>
1.7477

> <Gold.Chemscore.DEInternal>
1.4155

> <Gold.Chemscore.Rot>
4.0403

> <Gold.Chemscore.Internal.Correction>
   9.000000E+99

> <Gold.Chemscore.Hbonds>
donor molecule, donor type, donor heavy atom, donor atom, acceptor molecule, acceptor atom, score
      L1  H    10    26       P1  7948  1.00
      L1  H    12    27       P1  7957  1.00
      L1  H    14    28       P1  8028  0.86
      P1  H  7997  8009       L1    17  0.91
      P1  H 10752 10765       L1     3  0.33

> <Gold.Chemscore.Hbond.Weighted>
-14.1193

> <Gold.Chemscore.Metal.Weighted>
-0.0000

> <Gold.Chemscore.Lipo.Weighted>
-2.9652

> <Gold.Chemscore.Internal_Hbond.Weighted>
0.0000

> <Gold.Chemscore.DEClash.Weighted>
1.7477

> <Gold.Chemscore.DEInternal.Weighted>
1.4155

> <Gold.Chemscore.Rot.Weighted>
10.3431

> <Gold.Chemscore.Internal.Correction.Weighted>
   9.000000E+99

> <Gold.Protein.RotatedTorsions>
[ 6907 6896 6895 6894 ] final -121.58 input  -60.11 | X-H torsion
[ 7974 7965 7964 7962 ] final   -1.72 input  175.53 | X-H torsion
[ 8008 7997 7996 7995 ] final -161.16 input   59.86 | X-H torsion
[ 10167 10162 10161 10158 ] final  -99.16 input  -65.29 | X-H torsion
[ 10718 10713 10712 10709 ] final  -41.03 input   66.30 | X-H torsion
[ 10763 10752 10751 10750 ] final  146.57 input  -60.55 | X-H torsion
[ 11005 11000 10999 10996 ] final  -74.28 input  -57.11 | X-H torsion

> <Gold.Protein.ActiveResidues>
 VAL166  LYS551  ARG553  GLY616  TRP617  ASP618  TYR619  PRO620  LYS621  CYS622 
 ASP623  PHE694  ASN695  SER759  ASP760  ASP761  ALA762  ILE779  LEU786  VAL792 
 PHE793  MET794  SER795  GLU796  ALA797  LYS798  CYS799  TRP800  GLU811  SER814 

> <Gold.Protein.RotatedAtoms>
  150.8497  133.7806  159.3029 H   0  0  0  0  0  0  0  0  0  0  0  0  # atno 6907 bound_to 6896
  151.5482  135.1066  159.9953 H   0  0  0  0  0  0  0  0  0  0  0  0  # atno 6908 bound_to 6896
  152.4542  133.7647  159.6822 H   0  0  0  0  0  0  0  0  0  0  0  0  # atno 6909 bound_to 6896
  146.2413  140.1463  142.8334 H   0  0  0  0  0  0  0  0  0  0  0  0  # atno 7974 bound_to 7965
  155.7881  140.0874  157.2024 H   0  0  0  0  0  0  0  0  0  0  0  0  # atno 8008 bound_to 7997
  154.3986  140.1495  156.3188 H   0  0  0  0  0  0  0  0  0  0  0  0  # atno 8009 bound_to 7997
  155.8587  140.3431  155.5744 H   0  0  0  0  0  0  0  0  0  0  0  0  # atno 8010 bound_to 7997
  140.2654  143.3379  152.0586 H   0  0  0  0  0  0  0  0  0  0  0  0  # atno 10167 bound_to 10162
  156.2748  130.4210  149.8399 H   0  0  0  0  0  0  0  0  0  0  0  0  # atno 10718 bound_to 10713
  154.0240  135.2903  155.3377 H   0  0  0  0  0  0  0  0  0  0  0  0  # atno 10763 bound_to 10752
  154.7028  135.5181  153.8555 H   0  0  0  0  0  0  0  0  0  0  0  0  # atno 10764 bound_to 10752
  153.0668  135.6634  154.0459 H   0  0  0  0  0  0  0  0  0  0  0  0  # atno 10765 bound_to 10752
  141.1633  133.6906  156.7340 H   0  0  0  0  0  0  0  0  0  0  0  0  # atno 11005 bound_to 11000
  145.0204  140.8789  143.5170 LP  0  0  0  0  0  0  0  0  0  0  0  0  # atno 17320 bound_to 7965
  145.1511  139.2514  143.5440 LP  0  0  0  0  0  0  0  0  0  0  0  0  # atno 17321 bound_to 7965
  139.5004  144.6691  151.6285 LP  0  0  0  0  0  0  0  0  0  0  0  0  # atno 17342 bound_to 10162
  140.5932  143.9742  150.6338 LP  0  0  0  0  0  0  0  0  0  0  0  0  # atno 17343 bound_to 10162
  156.5868  130.8489  151.3397 LP  0  0  0  0  0  0  0  0  0  0  0  0  # atno 17370 bound_to 10713
  157.7296  130.9673  150.1793 LP  0  0  0  0  0  0  0  0  0  0  0  0  # atno 17371 bound_to 10713
  140.2724  134.8381  157.3859 LP  0  0  0  0  0  0  0  0  0  0  0  0  # atno 17394 bound_to 11000
  140.1509  134.4851  155.7962 LP  0  0  0  0  0  0  0  0  0  0  0  0  # atno 17395 bound_to 11000

$$$$
