AV-unprocessed.smi:2894|AV-procd|sdf|11127|dock4
  -GOLD-   2272016 03D 1   1.00000     0.00000
 Structure written by MMmdl.
 35 36  0  0  0  0  0  0  0  0  1 V2000
  153.3313  142.2659  162.0622 C   0  0  0  0  0  0  0  0  0  0  0  0
  152.8403  142.4459  160.6562 C   0  0  0  0  0  0  0  0  0  0  0  0
  152.3903  141.4434  159.7487 C   0  0  0  0  0  0  0  0  0  0  0  0
  152.0696  142.1686  158.6338 C   0  0  0  0  0  0  0  0  0  0  0  0
  151.5861  141.7335  157.4399 N   0  0  0  0  0  0  0  0  0  0  0  0
  150.3376  141.3411  157.1317 C   0  0  0  0  0  0  0  0  0  0  0  0
  149.3847  141.3124  157.9108 O   0  0  0  0  0  0  0  0  0  0  0  0
  150.2501  140.9788  155.8437 N   0  0  0  0  0  0  0  0  0  0  0  0
  149.0469  140.4760  155.1834 C   0  0  1  0  0  0  0  0  0  0  0  0
  148.3510  141.5913  154.3802 C   0  0  0  0  0  0  0  0  0  0  0  0
  147.2133  141.0092  153.5371 C   0  0  0  0  0  0  0  0  0  0  0  0
  147.7470  139.9225  152.5898 C   0  0  0  0  0  0  0  0  0  0  0  0
  148.6560  138.9806  153.2445 N   0  0  0  0  0  0  0  0  0  0  0  0
  149.3388  139.1939  154.3832 C   0  0  0  0  0  0  0  0  0  0  0  0
  150.1509  138.3718  154.8054 O   0  0  0  0  0  0  0  0  0  0  0  0
  152.3192  143.5001  158.8821 N   0  0  0  0  0  0  0  0  0  0  0  0
  152.1425  144.6477  158.0138 C   0  0  0  0  0  0  0  0  0  0  0  0
  152.7956  143.6669  160.1348 N   0  0  0  0  0  0  0  0  0  0  0  0
  153.3591  141.2116  162.3380 H   0  0  0  0  0  0  0  0  0  0  0  0
  152.6818  142.7775  162.7728 H   0  0  0  0  0  0  0  0  0  0  0  0
  154.3384  142.6662  162.1810 H   0  0  0  0  0  0  0  0  0  0  0  0
  152.3236  140.3780  159.9096 H   0  0  0  0  0  0  0  0  0  0  0  0
  152.2591  141.7059  156.6884 H   0  0  0  0  0  0  0  0  0  0  0  0
  151.0847  141.0288  155.2779 H   0  0  0  0  0  0  0  0  0  0  0  0
  148.3498  140.1525  155.9589 H   0  0  0  0  0  0  0  0  0  0  0  0
  147.9603  142.3559  155.0526 H   0  0  0  0  0  0  0  0  0  0  0  0
  149.0704  142.0881  153.7272 H   0  0  0  0  0  0  0  0  0  0  0  0
  146.4563  140.5820  154.1963 H   0  0  0  0  0  0  0  0  0  0  0  0
  146.7199  141.7968  152.9666 H   0  0  0  0  0  0  0  0  0  0  0  0
  146.9189  139.3704  152.1450 H   0  0  0  0  0  0  0  0  0  0  0  0
  148.2897  140.3892  151.7670 H   0  0  0  0  0  0  0  0  0  0  0  0
  148.8316  138.1142  152.7561 H   0  0  0  0  0  0  0  0  0  0  0  0
  151.1231  144.6619  157.6273 H   0  0  0  0  0  0  0  0  0  0  0  0
  152.8402  144.5842  157.1784 H   0  0  0  0  0  0  0  0  0  0  0  0
  152.3257  145.5745  158.5592 H   0  0  0  0  0  0  0  0  0  0  0  0
  1  2  1  0  0  0  0
  1 19  1  0  0  0  0
  1 20  1  0  0  0  0
  1 21  1  0  0  0  0
  2 18  2  0  0  0  0
  2  3  1  0  0  0  0
  3  4  2  0  0  0  0
  3 22  1  0  0  0  0
  4  5  1  0  0  0  0
  4 16  1  0  0  0  0
  5  6  1  0  0  0  0
  5 23  1  0  0  0  0
  6  7  2  0  0  0  0
  6  8  1  0  0  0  0
  8  9  1  0  0  0  0
  8 24  1  0  0  0  0
  9 14  1  0  0  0  0
  9 10  1  0  0  0  0
  9 25  1  0  0  0  0
 10 11  1  0  0  0  0
 10 26  1  0  0  0  0
 10 27  1  0  0  0  0
 11 12  1  0  0  0  0
 11 28  1  0  0  0  0
 11 29  1  0  0  0  0
 12 13  1  0  0  0  0
 12 30  1  0  0  0  0
 12 31  1  0  0  0  0
 13 14  1  0  0  0  0
 13 32  1  0  0  0  0
 14 15  2  0  0  0  0
 16 17  1  0  0  0  0
 16 18  1  0  0  0  0
 17 33  1  0  0  0  0
 17 34  1  0  0  0  0
 17 35  1  0  0  0  0
M  END
> <s_m_source_file>
AV-unprocessed.smi

> <i_m_source_file_index>
2894

> <i_lp_mmshare_version>
43012

> <i_f3d_flags>
0

> <s_epik_input>
W0NIM11jMVtjSF1jKG4objEpW0NIM10pW05IXUMoPU8pW05IXVtDQEBIXTJbQ0gyXVtDSDJdW0NIMl1bTkhdQzI9Tw==

> <s_epik_cmdline>
J2VwaWtfcHl0aG9uJywgJy1waCcsICc3LjAnLCAnLXRuJywgJzgnLCAnLW1hJywgJzIwMCcsICctbWV0YWxfYmluZGluZycsICctaW1hZScsICc8aW5maWxlLm1hZT4nLCAnLW9tYWUnLCAnPG91dGZpbGUubWFlPic=

> <r_lp_tautomer_probability>
1

> <r_epik_Ionization_Penalty>
8.17286e-05

> <r_epik_Ionization_Penalty_Charging>
0

> <r_epik_Ionization_Penalty_Neutral>
8.17286e-05

> <r_epik_State_Penalty>
-0

> <r_epik_Charging_Adjusted_Penalty>
0

> <i_epik_Tot_Q>
0

> <i_epik_Tot_abs_Q>
0

> <r_epik_Metal_State_Penalty>
-0

> <b_epik_Metal_Only>
0

> <s_lp_Force_Field>
OPLS_2005

> <r_lp_Energy>
10.37

> <b_lp_Chiralities_Consistent>
1

> <s_lp_Variant>
AV-unprocessed.smi:2894-2

> <Gold.Version>
5.8.1

> <Gold.Id.Protein>
6NUR|6NUR_protein|mol2

> <Gold.PLP.Fitness>
37.7595

> <Gold.PLP.PLP>
-36.5660

> <Gold.PLP.part.hbond>
-1.9565

> <Gold.PLP.part.metal>
0.0000

> <Gold.PLP.part.buried>
-0.8340

> <Gold.PLP.part.nonpolar>
-34.0680

> <Gold.PLP.part.repulsive>
0.4641

> <Gold.PLP.ligand.clash>
0.0000

> <Gold.PLP.ligand.torsion>
0.9112

> <Gold.PLP.Chemscore.Hbond>
0.9913

> <Gold.PLP.Chemscore.CHOScore>
0.0000

> <Gold.PLP.Chemscore.Metal>
0.0000

> <Gold.Chemscore.Hbonds>
donor molecule, donor type, donor heavy atom, donor atom, acceptor molecule, acceptor atom, score
      L1  H    13    32       P1  7948  0.93

> <Gold.PLP.Chemscore.Internal.Correction>
0.0423

> <Gold.Rescore>
     Score         DG    S(hbond)    S(metal)    S(lipo)     H(rot)  DE(clash)    DE(int)     intcor
     12.73     -15.33       0.99        0.00      77.67       1.00       1.77       0.83       ----

> <Gold.Chemscore.Fitness>
12.7295

> <Gold.Chemscore.DG>
-15.3259

> <Gold.Chemscore.ZeroCoef>
-5.4800

> <Gold.Chemscore.Hbond>
0.9937

> <Gold.Chemscore.Metal>
0.0000

> <Gold.Chemscore.Lipo>
77.6650

> <Gold.Chemscore.Internal_Hbond>
0.0000

> <Gold.Chemscore.DEClash>
1.7701

> <Gold.Chemscore.DEInternal>
0.8263

> <Gold.Chemscore.Rot>
1.0000

> <Gold.Chemscore.Internal.Correction>
   9.000000E+99

> <Gold.Chemscore.Hbonds>
donor molecule, donor type, donor heavy atom, donor atom, acceptor molecule, acceptor atom, score
      L1  H    13    32       P1  7948  0.89

> <Gold.Chemscore.Hbond.Weighted>
-3.3191

> <Gold.Chemscore.Metal.Weighted>
-0.0000

> <Gold.Chemscore.Lipo.Weighted>
-9.0868

> <Gold.Chemscore.Internal_Hbond.Weighted>
0.0000

> <Gold.Chemscore.DEClash.Weighted>
1.7701

> <Gold.Chemscore.DEInternal.Weighted>
0.8263

> <Gold.Chemscore.Rot.Weighted>
2.5600

> <Gold.Chemscore.Internal.Correction.Weighted>
   9.000000E+99

> <Gold.Protein.RotatedTorsions>
[ 6907 6896 6895 6894 ] final  104.73 input  -60.11 | X-H torsion
[ 7974 7965 7964 7962 ] final  165.83 input  175.53 | X-H torsion
[ 8008 7997 7996 7995 ] final   57.91 input   59.86 | X-H torsion
[ 10167 10162 10161 10158 ] final -125.99 input  -65.29 | X-H torsion
[ 10718 10713 10712 10709 ] final   75.58 input   66.30 | X-H torsion
[ 10763 10752 10751 10750 ] final  -92.40 input  -60.55 | X-H torsion
[ 11005 11000 10999 10996 ] final   31.96 input  -57.11 | X-H torsion

> <Gold.Protein.ActiveResidues>
 VAL166  LYS551  ARG553  GLY616  TRP617  ASP618  TYR619  PRO620  LYS621  CYS622 
 ASP623  PHE694  ASN695  SER759  ASP760  ASP761  ALA762  ILE779  LEU786  VAL792 
 PHE793  MET794  SER795  GLU796  ALA797  LYS798  CYS799  TRP800  GLU811  SER814 

> <Gold.Protein.RotatedAtoms>
  152.5254  133.9633  159.7727 H   0  0  0  0  0  0  0  0  0  0  0  0  # atno 6907 bound_to 6896
  150.9919  133.6133  159.2714 H   0  0  0  0  0  0  0  0  0  0  0  0  # atno 6908 bound_to 6896
  151.3273  135.0839  159.9379 H   0  0  0  0  0  0  0  0  0  0  0  0  # atno 6909 bound_to 6896
  144.7486  139.8527  143.6373 H   0  0  0  0  0  0  0  0  0  0  0  0  # atno 7974 bound_to 7965
  155.5415  140.3484  155.4448 H   0  0  0  0  0  0  0  0  0  0  0  0  # atno 8008 bound_to 7997
  156.0648  140.1349  156.9925 H   0  0  0  0  0  0  0  0  0  0  0  0  # atno 8009 bound_to 7997
  154.4498  140.0978  156.6555 H   0  0  0  0  0  0  0  0  0  0  0  0  # atno 8010 bound_to 7997
  139.9762  143.5791  152.2395 H   0  0  0  0  0  0  0  0  0  0  0  0  # atno 10167 bound_to 10162
  157.6640  130.9733  150.1374 H   0  0  0  0  0  0  0  0  0  0  0  0  # atno 10718 bound_to 10713
  154.6857  135.5232  153.8323 H   0  0  0  0  0  0  0  0  0  0  0  0  # atno 10763 bound_to 10752
  153.0596  135.6563  154.0504 H   0  0  0  0  0  0  0  0  0  0  0  0  # atno 10764 bound_to 10752
  154.0385  135.2979  155.3338 H   0  0  0  0  0  0  0  0  0  0  0  0  # atno 10765 bound_to 10752
  140.2785  134.3000  155.7807 H   0  0  0  0  0  0  0  0  0  0  0  0  # atno 11005 bound_to 11000
  146.1404  139.4460  143.0112 LP  0  0  0  0  0  0  0  0  0  0  0  0  # atno 17320 bound_to 7965
  145.7027  141.0131  143.1496 LP  0  0  0  0  0  0  0  0  0  0  0  0  # atno 17321 bound_to 7965
  139.6444  144.7657  151.2274 LP  0  0  0  0  0  0  0  0  0  0  0  0  # atno 17342 bound_to 10162
  140.7505  143.6264  150.8464 LP  0  0  0  0  0  0  0  0  0  0  0  0  # atno 17343 bound_to 10162
  156.2205  130.3673  149.8561 LP  0  0  0  0  0  0  0  0  0  0  0  0  # atno 17370 bound_to 10713
  156.6415  130.8707  151.3515 LP  0  0  0  0  0  0  0  0  0  0  0  0  # atno 17371 bound_to 10713
  141.2166  133.7510  156.9444 LP  0  0  0  0  0  0  0  0  0  0  0  0  # atno 17394 bound_to 11000
  140.1306  134.9358  157.2331 LP  0  0  0  0  0  0  0  0  0  0  0  0  # atno 17395 bound_to 11000

$$$$
