AV-unprocessed.smi:1816|AV-procd|sdf|7366|dock10
  -GOLD-   22720 9 33D 1   1.00000     0.00000
 Structure written by MMmdl.
 35 36  0  0  0  0  0  0  0  0  3 V2000
  146.9171  142.5740  153.9803 C   0  0  0  0  0  0  0  0  0  0  0  0
  147.0330  141.1141  154.4725 C   0  0  2  0  0  0  0  0  0  0  0  0
  148.5129  140.7627  154.7635 C   0  0  0  0  0  0  0  0  0  0  0  0
  149.2153  141.8378  155.4629 N   0  0  0  0  0  0  0  0  0  0  0  0
  150.3353  141.7251  156.1906 C   0  0  0  0  0  0  0  0  0  0  0  0
  150.8475  140.6187  156.3692 O   0  0  0  0  0  0  0  0  0  0  0  0
  150.8018  142.9062  156.6513 N   0  5  0  0  0  0  0  0  0  0  0  0
  151.4677  142.9556  157.8165 C   0  0  0  0  0  0  0  0  0  0  0  0
  151.5769  141.9049  158.6376 N   0  0  0  0  0  0  0  0  0  0  0  0
  152.3165  142.1763  159.7902 C   0  0  0  0  0  0  0  0  0  0  0  0
  152.7856  143.4619  159.8451 C   0  0  0  0  0  0  0  0  0  0  0  0
  152.3123  144.3750  158.4408 S   0  0  0  0  0  0  0  0  0  0  0  0
  146.4223  140.1420  153.5190 N   0  3  0  0  0  0  0  0  0  0  0  0
  147.1319  140.0042  152.2304 C   0  0  0  0  0  0  0  0  0  0  0  0
  146.5358  138.7545  151.5880 C   0  0  0  0  0  0  0  0  0  0  0  0
  146.1426  137.8631  152.7692 C   0  0  0  0  0  0  0  0  0  0  0  0
  146.2454  138.7579  154.0119 C   0  0  0  0  0  0  0  0  0  0  0  0
  147.4449  143.2527  154.6508 H   0  0  0  0  0  0  0  0  0  0  0  0
  145.8822  142.9135  153.9442 H   0  0  0  0  0  0  0  0  0  0  0  0
  147.3434  142.6987  152.9842 H   0  0  0  0  0  0  0  0  0  0  0  0
  146.4808  141.0493  155.4113 H   0  0  0  0  0  0  0  0  0  0  0  0
  148.5542  139.8807  155.4030 H   0  0  0  0  0  0  0  0  0  0  0  0
  149.0423  140.4827  153.8521 H   0  0  0  0  0  0  0  0  0  0  0  0
  148.8323  142.7668  155.3603 H   0  0  0  0  0  0  0  0  0  0  0  0
  152.4598  141.3934  160.5200 H   0  0  0  0  0  0  0  0  0  0  0  0
  153.3785  143.9247  160.6194 H   0  0  0  0  0  0  0  0  0  0  0  0
  147.0277  140.8794  151.5907 H   0  0  0  0  0  0  0  0  0  0  0  0
  148.1966  139.8499  152.4133 H   0  0  0  0  0  0  0  0  0  0  0  0
  145.6441  139.0252  151.0208 H   0  0  0  0  0  0  0  0  0  0  0  0
  147.2299  138.2667  150.9027 H   0  0  0  0  0  0  0  0  0  0  0  0
  145.1298  137.4791  152.6395 H   0  0  0  0  0  0  0  0  0  0  0  0
  146.8108  137.0057  152.8582 H   0  0  0  0  0  0  0  0  0  0  0  0
  147.1193  138.4609  154.5939 H   0  0  0  0  0  0  0  0  0  0  0  0
  145.3662  138.6726  154.6515 H   0  0  0  0  0  0  0  0  0  0  0  0
  145.4960  140.4838  153.3019 H   0  0  0  0  0  0  0  0  0  0  0  0
  1  2  1  0  0  0  0
  1 18  1  0  0  0  0
  1 19  1  0  0  0  0
  1 20  1  0  0  0  0
  2  3  1  0  0  0  0
  2 13  1  0  0  0  0
  2 21  1  0  0  0  0
  3  4  1  0  0  0  0
  3 22  1  0  0  0  0
  3 23  1  0  0  0  0
  4  5  1  0  0  0  0
  4 24  1  0  0  0  0
  5  6  2  0  0  0  0
  5  7  1  0  0  0  0
  7  8  1  0  0  0  0
  8 12  1  0  0  0  0
  8  9  2  0  0  0  0
  9 10  1  0  0  0  0
 10 11  2  0  0  0  0
 10 25  1  0  0  0  0
 11 12  1  0  0  0  0
 11 26  1  0  0  0  0
 13 17  1  0  0  0  0
 13 14  1  0  0  0  0
 13 35  1  0  0  0  0
 14 15  1  0  0  0  0
 14 27  1  0  0  0  0
 14 28  1  0  0  0  0
 15 16  1  0  0  0  0
 15 29  1  0  0  0  0
 15 30  1  0  0  0  0
 16 17  1  0  0  0  0
 16 31  1  0  0  0  0
 16 32  1  0  0  0  0
 17 33  1  0  0  0  0
 17 34  1  0  0  0  0
M  CHG  1   7  -1
M  CHG  1  13   1
M  END
> <s_m_source_file>
AV-unprocessed.smi

> <i_m_source_file_index>
1816

> <i_lp_mmshare_version>
43012

> <i_f3d_flags>
0

> <s_epik_input>
W0NIMl0xW0NIMl1bQ0gyXVtDSDJdTjFbQ0BIXShbQ0gzXSlbQ0gyXVtOSF1DKD1PKVtOSF1jMm5bY0hdW2NIXXMy

> <s_epik_cmdline>
J2VwaWtfcHl0aG9uJywgJy1waCcsICc3LjAnLCAnLXRuJywgJzgnLCAnLW1hJywgJzIwMCcsICctbWV0YWxfYmluZGluZycsICctaW1hZScsICc8aW5maWxlLm1hZT4nLCAnLW9tYWUnLCAnPG91dGZpbGUubWFlPic=

> <r_lp_tautomer_probability>
0.999

> <r_epik_Ionization_Penalty>
6.21769

> <r_epik_Ionization_Penalty_Charging>
5.38662

> <r_epik_Ionization_Penalty_Neutral>
0.831074

> <r_epik_State_Penalty>
5.38626

> <r_epik_Charging_Adjusted_Penalty>
10.7729

> <i_epik_Tot_Q>
0

> <i_epik_Tot_abs_Q>
2

> <r_epik_Metal_State_Penalty>
1.41347

> <b_epik_Metal_Only>
1

> <s_lp_Force_Field>
OPLS_2005

> <r_lp_Energy>
25.8125

> <b_lp_Chiralities_Consistent>
1

> <s_lp_Variant>
AV-unprocessed.smi:1816-3

> <Gold.Version>
5.8.1

> <Gold.Id.Protein>
6NUR|6NUR_protein|mol2

> <Gold.PLP.Fitness>
42.3883

> <Gold.PLP.PLP>
-34.4029

> <Gold.PLP.part.hbond>
-2.0000

> <Gold.PLP.part.metal>
0.0000

> <Gold.PLP.part.buried>
-1.9829

> <Gold.PLP.part.nonpolar>
-33.4903

> <Gold.PLP.part.repulsive>
2.0389

> <Gold.PLP.ligand.clash>
0.0000

> <Gold.PLP.ligand.torsion>
0.5389

> <Gold.PLP.Chemscore.Hbond>
3.0000

> <Gold.PLP.Chemscore.CHOScore>
0.0000

> <Gold.PLP.Chemscore.Metal>
0.0000

> <Gold.Chemscore.Hbonds>
donor molecule, donor type, donor heavy atom, donor atom, acceptor molecule, acceptor atom, score
      L1  H     4    24       P1  8028  1.00
      L1  H    13    35       P1 10175  2.00

> <Gold.PLP.Chemscore.Internal.Correction>
0.0631

> <Gold.Rescore>
     Score         DG    S(hbond)    S(metal)    S(lipo)     H(rot)  DE(clash)    DE(int)     intcor
     13.38     -17.37       1.87        0.00      82.64       1.57       1.92       2.07       ----

> <Gold.Chemscore.Fitness>
13.3818

> <Gold.Chemscore.DG>
-17.3663

> <Gold.Chemscore.ZeroCoef>
-5.4800

> <Gold.Chemscore.Hbond>
1.8679

> <Gold.Chemscore.Metal>
0.0000

> <Gold.Chemscore.Lipo>
82.6434

> <Gold.Chemscore.Internal_Hbond>
0.0000

> <Gold.Chemscore.DEClash>
1.9182

> <Gold.Chemscore.DEInternal>
2.0663

> <Gold.Chemscore.Rot>
1.5710

> <Gold.Chemscore.Internal.Correction>
   9.000000E+99

> <Gold.Chemscore.Hbonds>
donor molecule, donor type, donor heavy atom, donor atom, acceptor molecule, acceptor atom, score
      L1  H     4    24       P1  8028  0.95
      L1  H    13    35       P1 10175  0.92

> <Gold.Chemscore.Hbond.Weighted>
-6.2389

> <Gold.Chemscore.Metal.Weighted>
-0.0000

> <Gold.Chemscore.Lipo.Weighted>
-9.6693

> <Gold.Chemscore.Internal_Hbond.Weighted>
0.0000

> <Gold.Chemscore.DEClash.Weighted>
1.9182

> <Gold.Chemscore.DEInternal.Weighted>
2.0663

> <Gold.Chemscore.Rot.Weighted>
4.0219

> <Gold.Chemscore.Internal.Correction.Weighted>
   9.000000E+99

> <Gold.Protein.RotatedTorsions>
[ 6907 6896 6895 6894 ] final  -50.62 input  -60.11 | X-H torsion
[ 7974 7965 7964 7962 ] final -161.15 input  175.53 | X-H torsion
[ 8008 7997 7996 7995 ] final   56.69 input   59.86 | X-H torsion
[ 10167 10162 10161 10158 ] final   45.19 input  -65.29 | X-H torsion
[ 10718 10713 10712 10709 ] final  -33.82 input   66.30 | X-H torsion
[ 10763 10752 10751 10750 ] final  -16.85 input  -60.55 | X-H torsion
[ 11005 11000 10999 10996 ] final  126.07 input  -57.11 | X-H torsion

> <Gold.Protein.ActiveResidues>
 VAL166  LYS551  ARG553  GLY616  TRP617  ASP618  TYR619  PRO620  LYS621  CYS622 
 ASP623  PHE694  ASN695  SER759  ASP760  ASP761  ALA762  ILE779  LEU786  VAL792 
 PHE793  MET794  SER795  GLU796  ALA797  LYS798  CYS799  TRP800  GLU811  SER814 

> <Gold.Protein.RotatedAtoms>
  150.8690  134.8059  159.7139 H   0  0  0  0  0  0  0  0  0  0  0  0  # atno 6907 bound_to 6896
  152.4701  134.4978  159.9725 H   0  0  0  0  0  0  0  0  0  0  0  0  # atno 6908 bound_to 6896
  151.5069  133.3454  159.2914 H   0  0  0  0  0  0  0  0  0  0  0  0  # atno 6909 bound_to 6896
  144.7401  140.3439  143.6129 H   0  0  0  0  0  0  0  0  0  0  0  0  # atno 7974 bound_to 7965
  155.5215  140.3480  155.4408 H   0  0  0  0  0  0  0  0  0  0  0  0  # atno 8008 bound_to 7997
  156.0781  140.1379  156.9774 H   0  0  0  0  0  0  0  0  0  0  0  0  # atno 8009 bound_to 7997
  154.4564  140.0952  156.6746 H   0  0  0  0  0  0  0  0  0  0  0  0  # atno 8010 bound_to 7997
  140.3266  144.2640  150.6174 H   0  0  0  0  0  0  0  0  0  0  0  0  # atno 10167 bound_to 10162
  156.3581  130.4319  149.7647 H   0  0  0  0  0  0  0  0  0  0  0  0  # atno 10718 bound_to 10713
  153.5649  135.7009  153.5531 H   0  0  0  0  0  0  0  0  0  0  0  0  # atno 10763 bound_to 10752
  153.3396  135.4024  155.1561 H   0  0  0  0  0  0  0  0  0  0  0  0  # atno 10764 bound_to 10752
  154.8642  135.3739  154.5168 H   0  0  0  0  0  0  0  0  0  0  0  0  # atno 10765 bound_to 10752
  139.9437  134.9632  156.8652 H   0  0  0  0  0  0  0  0  0  0  0  0  # atno 11005 bound_to 11000
  145.7346  139.1746  143.2411 LP  0  0  0  0  0  0  0  0  0  0  0  0  # atno 17320 bound_to 7965
  146.1181  140.7344  142.9471 LP  0  0  0  0  0  0  0  0  0  0  0  0  # atno 17321 bound_to 7965
  140.5435  143.2219  151.8046 LP  0  0  0  0  0  0  0  0  0  0  0  0  # atno 17342 bound_to 10162
  139.4864  144.4570  151.9587 LP  0  0  0  0  0  0  0  0  0  0  0  0  # atno 17343 bound_to 10162
  156.4822  130.8046  151.3060 LP  0  0  0  0  0  0  0  0  0  0  0  0  # atno 17370 bound_to 10713
  157.7470  131.0002  150.2918 LP  0  0  0  0  0  0  0  0  0  0  0  0  # atno 17371 bound_to 10713
  140.5886  134.0283  155.7491 LP  0  0  0  0  0  0  0  0  0  0  0  0  # atno 17394 bound_to 11000
  141.1081  133.9661  157.2960 LP  0  0  0  0  0  0  0  0  0  0  0  0  # atno 17395 bound_to 11000

$$$$
