AV-unprocessed.smi:1723|AV-procd|sdf|6945|dock9
  -GOLD-   22720 8153D 1   1.00000     0.00000
 Structure written by MMmdl.
 38 38  0  0  0  0  0  0  0  0  1 V2000
  152.1016  139.6126  155.3150 C   0  0  0  0  0  0  0  0  0  0  0  0
  152.3540  138.2045  154.7648 C   0  0  0  0  0  0  0  0  0  0  0  0
  151.0580  137.4909  154.3554 C   0  0  0  0  0  0  0  0  0  0  0  0
  150.1012  137.2828  155.5347 C   0  0  0  0  0  0  0  0  0  0  0  0
  148.8001  137.0252  155.0199 O   0  0  0  0  0  0  0  0  0  0  0  0
  148.2615  135.7425  155.3287 C   0  0  2  0  0  0  0  0  0  0  0  0
  149.3340  134.6963  154.9894 C   0  0  0  0  0  0  0  0  0  0  0  0
  146.9705  135.5009  154.5295 C   0  0  0  0  0  0  0  0  0  0  0  0
  145.9003  135.4000  155.1286 O   0  0  0  0  0  0  0  0  0  0  0  0
  147.1302  135.3840  153.1961 N   0  0  0  0  0  0  0  0  0  0  0  0
  146.1720  135.1589  152.1928 C   0  0  0  0  0  0  0  0  0  0  0  0
  145.8425  133.9418  151.6860 C   0  0  0  0  0  0  0  0  0  0  0  0
  144.8319  133.7832  150.6535 C   0  0  0  0  0  0  0  0  0  0  0  0
  144.5340  132.4269  150.0330 C   0  0  0  0  0  0  0  0  0  0  0  0
  144.0157  131.5873  150.9303 F   0  0  0  0  0  0  0  0  0  0  0  0
  143.6730  132.5422  149.0216 F   0  0  0  0  0  0  0  0  0  0  0  0
  145.6579  131.8884  149.5618 F   0  0  0  0  0  0  0  0  0  0  0  0
  144.2375  134.9088  150.2172 C   0  0  0  0  0  0  0  0  0  0  0  0
  144.5527  136.1609  150.7491 N   0  0  0  0  0  0  0  0  0  0  0  0
  145.4826  136.3667  151.7086 C   0  0  0  0  0  0  0  0  0  0  0  0
  145.7065  137.5039  152.1220 O   0  0  0  0  0  0  0  0  0  0  0  0
  144.0488  136.9553  150.3818 H   0  0  0  0  0  0  0  0  0  0  0  0
  153.0390  140.0948  155.5930 H   0  0  0  0  0  0  0  0  0  0  0  0
  151.4682  139.5809  156.2019 H   0  0  0  0  0  0  0  0  0  0  0  0
  151.6101  140.2434  154.5739 H   0  0  0  0  0  0  0  0  0  0  0  0
  153.0229  138.2681  153.9058 H   0  0  0  0  0  0  0  0  0  0  0  0
  152.8746  137.6137  155.5192 H   0  0  0  0  0  0  0  0  0  0  0  0
  150.5524  138.0694  153.5813 H   0  0  0  0  0  0  0  0  0  0  0  0
  151.2988  136.5242  153.9117 H   0  0  0  0  0  0  0  0  0  0  0  0
  150.4335  136.4401  156.1427 H   0  0  0  0  0  0  0  0  0  0  0  0
  150.1046  138.1695  156.1696 H   0  0  0  0  0  0  0  0  0  0  0  0
  148.0547  135.6844  156.3993 H   0  0  0  0  0  0  0  0  0  0  0  0
  148.9766  133.6841  155.1822 H   0  0  0  0  0  0  0  0  0  0  0  0
  150.2273  134.8499  155.5950 H   0  0  0  0  0  0  0  0  0  0  0  0
  149.6340  134.7528  153.9421 H   0  0  0  0  0  0  0  0  0  0  0  0
  148.0816  135.4315  152.8599 H   0  0  0  0  0  0  0  0  0  0  0  0
  146.3096  133.0411  152.0480 H   0  0  0  0  0  0  0  0  0  0  0  0
  143.4922  134.9396  149.4361 H   0  0  0  0  0  0  0  0  0  0  0  0
  1  2  1  0  0  0  0
  1 23  1  0  0  0  0
  1 24  1  0  0  0  0
  1 25  1  0  0  0  0
  2  3  1  0  0  0  0
  2 26  1  0  0  0  0
  2 27  1  0  0  0  0
  3  4  1  0  0  0  0
  3 28  1  0  0  0  0
  3 29  1  0  0  0  0
  4  5  1  0  0  0  0
  4 30  1  0  0  0  0
  4 31  1  0  0  0  0
  5  6  1  0  0  0  0
  6  7  1  0  0  0  0
  6  8  1  0  0  0  0
  6 32  1  0  0  0  0
  7 33  1  0  0  0  0
  7 34  1  0  0  0  0
  7 35  1  0  0  0  0
  8  9  2  0  0  0  0
  8 10  1  0  0  0  0
 10 11  1  0  0  0  0
 10 36  1  0  0  0  0
 11 20  1  0  0  0  0
 11 12  2  0  0  0  0
 12 13  1  0  0  0  0
 12 37  1  0  0  0  0
 13 14  1  0  0  0  0
 13 18  2  0  0  0  0
 14 15  1  0  0  0  0
 14 16  1  0  0  0  0
 14 17  1  0  0  0  0
 18 19  1  0  0  0  0
 18 38  1  0  0  0  0
 19 22  1  0  0  0  0
 19 20  1  0  0  0  0
 20 21  2  0  0  0  0
M  END
> <s_m_source_file>
AV-unprocessed.smi

> <i_m_source_file_index>
1723

> <i_lp_mmshare_version>
43012

> <i_f3d_flags>
0

> <s_epik_input>
W0NIM11bQ0gyXVtDSDJdW0NIMl1PW0NASF0oW0NIM10pQyg9TylbTkhdYzFbY0hdYyhDKEYpKEYpRilbY0hdW25IXWMxPU8=

> <s_epik_cmdline>
J2VwaWtfcHl0aG9uJywgJy1waCcsICc3LjAnLCAnLXRuJywgJzgnLCAnLW1hJywgJzIwMCcsICctbWV0YWxfYmluZGluZycsICctaW1hZScsICc8aW5maWxlLm1hZT4nLCAnLW9tYWUnLCAnPG91dGZpbGUubWFlPic=

> <r_lp_tautomer_probability>
0.999

> <r_epik_Ionization_Penalty>
0.00763408

> <r_epik_Ionization_Penalty_Charging>
0.00763398

> <r_epik_Ionization_Penalty_Neutral>
9.29819e-08

> <r_epik_State_Penalty>
0.00571302

> <r_epik_Charging_Adjusted_Penalty>
0.013347

> <i_epik_Tot_Q>
0

> <i_epik_Tot_abs_Q>
0

> <r_epik_Metal_State_Penalty>
0.392814

> <b_epik_Metal_Only>
0

> <s_lp_Force_Field>
OPLS_2005

> <r_lp_Energy>
19.1413

> <b_lp_Chiralities_Consistent>
1

> <s_lp_Variant>
AV-unprocessed.smi:1723-1

> <Gold.Version>
5.8.1

> <Gold.Id.Protein>
6NUR|6NUR_protein|mol2

> <Gold.PLP.Fitness>
43.8531

> <Gold.PLP.PLP>
-39.1759

> <Gold.PLP.part.hbond>
-1.6386

> <Gold.PLP.part.metal>
0.0000

> <Gold.PLP.part.buried>
-3.9213

> <Gold.PLP.part.nonpolar>
-34.5330

> <Gold.PLP.part.repulsive>
0.4427

> <Gold.PLP.ligand.clash>
1.4113

> <Gold.PLP.ligand.torsion>
1.3933

> <Gold.PLP.Chemscore.Hbond>
1.8968

> <Gold.PLP.Chemscore.CHOScore>
1.0000

> <Gold.PLP.Chemscore.Metal>
0.0000

> <Gold.Chemscore.Hbonds>
donor molecule, donor type, donor heavy atom, donor atom, acceptor molecule, acceptor atom, score
      L1  H    10    36       P1  7948  0.82
      L1  H    19    22       P1 10171  1.00
      L1  C    18    38       P1 10186  1.00

> <Gold.PLP.Chemscore.Internal.Correction>
0.1847

> <Gold.Rescore>
     Score         DG    S(hbond)    S(metal)    S(lipo)     H(rot)  DE(clash)    DE(int)     intcor
     12.69     -14.20       1.82        0.00      66.11       1.99       0.08       1.43       ----

> <Gold.Chemscore.Fitness>
12.6905

> <Gold.Chemscore.DG>
-14.1978

> <Gold.Chemscore.ZeroCoef>
-5.4800

> <Gold.Chemscore.Hbond>
1.8232

> <Gold.Chemscore.Metal>
0.0000

> <Gold.Chemscore.Lipo>
66.1056

> <Gold.Chemscore.Internal_Hbond>
0.0000

> <Gold.Chemscore.DEClash>
0.0808

> <Gold.Chemscore.DEInternal>
1.4265

> <Gold.Chemscore.Rot>
1.9946

> <Gold.Chemscore.Internal.Correction>
   9.000000E+99

> <Gold.Chemscore.Hbonds>
donor molecule, donor type, donor heavy atom, donor atom, acceptor molecule, acceptor atom, score
      L1  H    10    36       P1  7948  0.75
      L1  H    19    22       P1 10171  0.99

> <Gold.Chemscore.Hbond.Weighted>
-6.0896

> <Gold.Chemscore.Metal.Weighted>
-0.0000

> <Gold.Chemscore.Lipo.Weighted>
-7.7344

> <Gold.Chemscore.Internal_Hbond.Weighted>
0.0000

> <Gold.Chemscore.DEClash.Weighted>
0.0808

> <Gold.Chemscore.DEInternal.Weighted>
1.4265

> <Gold.Chemscore.Rot.Weighted>
5.1062

> <Gold.Chemscore.Internal.Correction.Weighted>
   9.000000E+99

> <Gold.Protein.RotatedTorsions>
[ 6907 6896 6895 6894 ] final -108.33 input  -60.11 | X-H torsion
[ 7974 7965 7964 7962 ] final  -45.82 input  175.53 | X-H torsion
[ 8008 7997 7996 7995 ] final  132.58 input   59.86 | X-H torsion
[ 10167 10162 10161 10158 ] final  164.12 input  -65.29 | X-H torsion
[ 10718 10713 10712 10709 ] final -148.30 input   66.30 | X-H torsion
[ 10763 10752 10751 10750 ] final -103.13 input  -60.55 | X-H torsion
[ 11005 11000 10999 10996 ] final   40.93 input  -57.11 | X-H torsion

> <Gold.Protein.ActiveResidues>
 VAL166  LYS551  ARG553  GLY616  TRP617  ASP618  TYR619  PRO620  LYS621  CYS622 
 ASP623  PHE694  ASN695  SER759  ASP760  ASP761  ALA762  ILE779  LEU786  VAL792 
 PHE793  MET794  SER795  GLU796  ALA797  LYS798  CYS799  TRP800  GLU811  SER814 

> <Gold.Protein.RotatedAtoms>
  150.7496  133.9693  159.3540 H   0  0  0  0  0  0  0  0  0  0  0  0  # atno 6907 bound_to 6896
  151.7625  135.0804  160.0357 H   0  0  0  0  0  0  0  0  0  0  0  0  # atno 6908 bound_to 6896
  152.3393  133.6012  159.5901 H   0  0  0  0  0  0  0  0  0  0  0  0  # atno 6909 bound_to 6896
  145.9781  140.7312  142.9377 H   0  0  0  0  0  0  0  0  0  0  0  0  # atno 7974 bound_to 7965
  156.2984  140.2543  156.3113 H   0  0  0  0  0  0  0  0  0  0  0  0  # atno 8008 bound_to 7997
  154.9323  140.0398  157.2073 H   0  0  0  0  0  0  0  0  0  0  0  0  # atno 8009 bound_to 7997
  154.8206  140.2859  155.5794 H   0  0  0  0  0  0  0  0  0  0  0  0  # atno 8010 bound_to 7997
  139.4884  144.4268  151.9120 H   0  0  0  0  0  0  0  0  0  0  0  0  # atno 10167 bound_to 10162
  156.4185  130.8017  151.2238 H   0  0  0  0  0  0  0  0  0  0  0  0  # atno 10718 bound_to 10713
  154.7785  135.4835  153.9794 H   0  0  0  0  0  0  0  0  0  0  0  0  # atno 10763 bound_to 10752
  153.1461  135.6782  153.8960 H   0  0  0  0  0  0  0  0  0  0  0  0  # atno 10764 bound_to 10752
  153.8619  135.3154  155.3416 H   0  0  0  0  0  0  0  0  0  0  0  0  # atno 10765 bound_to 10752
  140.1883  134.4018  155.8161 H   0  0  0  0  0  0  0  0  0  0  0  0  # atno 11005 bound_to 11000
  144.6854  140.2862  143.7285 LP  0  0  0  0  0  0  0  0  0  0  0  0  # atno 17320 bound_to 7965
  145.7809  139.1891  143.2158 LP  0  0  0  0  0  0  0  0  0  0  0  0  # atno 17321 bound_to 7965
  140.3714  144.2851  150.5919 LP  0  0  0  0  0  0  0  0  0  0  0  0  # atno 17342 bound_to 10162
  140.5315  143.2242  151.8230 LP  0  0  0  0  0  0  0  0  0  0  0  0  # atno 17343 bound_to 10162
  157.7508  131.0235  150.3839 LP  0  0  0  0  0  0  0  0  0  0  0  0  # atno 17370 bound_to 10713
  156.4151  130.3942  149.6864 LP  0  0  0  0  0  0  0  0  0  0  0  0  # atno 17371 bound_to 10713
  141.2225  133.7034  156.8050 LP  0  0  0  0  0  0  0  0  0  0  0  0  # atno 17394 bound_to 11000
  140.2189  134.8772  157.3355 LP  0  0  0  0  0  0  0  0  0  0  0  0  # atno 17395 bound_to 11000

$$$$
