#       Name:                AV-unprocessed.smi:1412
#       Creating user name   scv26
#       Creation time:       Fri Mar 27 05:38:21 2020


#       File generated by GOLD software.
#

@<TRIPOS>MOLECULE
AV-unprocessed.smi:1412
    48    49     1
SMALL
NO_CHARGES


@<TRIPOS>ATOM
      1 ****        -1.8752   0.2430   3.7647 C.3            1 S1                 0.0000
      2 ****        -1.5372  -0.5393   2.4833 C.3            1 S1                 0.0000
      3 ****        -1.0061   0.2995   1.2810 C.3            1 S1                 0.0000
      4 ****        -1.9982   1.4559   0.9838 C.3            1 S1                 0.0000
      5 ****         0.3614   0.9559   1.6402 C.3            1 S1                 0.0000
      6 ****         0.9496   1.6677   0.5038 N.am           1 S1                 0.0000
      7 ****         1.9262   1.2258  -0.3013 C.2            1 S1                 0.0000
      8 ****         2.5059   0.1678  -0.0497 O.2            1 S1                 0.0000
      9 ****         2.1476   2.0227  -1.3691 N.pl3          1 S1                -1.0000
     10 ****         3.0276   1.6464  -2.3114 C.2            1 S1                 0.0000
     11 ****         2.6572   0.9557  -3.4020 N.2            1 S1                 0.0000
     12 ****         3.7177   0.6635  -4.2484 N.2            1 S1                 0.0000
     13 ****         4.8647   1.1513  -3.7764 C.2            1 S1                 0.0000
     14 ****         4.7535   2.0116  -2.2551 S.3            1 S1                 0.0000
     15 ****        -0.8236  -0.5695   0.0597 N.4            1 S1                 1.0000
     16 ****        -0.0555  -1.8270   0.2741 C.3            1 S1                 0.0000
     17 ****         0.3135  -2.4539  -1.0778 C.3            1 S1                 0.0000
     18 ****        -0.8814  -2.7436  -1.7911 O.3            1 S1                 0.0000
     19 ****        -1.6309  -1.5672  -2.0658 C.3            1 S1                 0.0000
     20 ****        -2.0348  -0.8703  -0.7531 C.3            1 S1                 0.0000
     21 ****        -2.2008  -0.4400   4.5495 H              1 S1                 0.0000
     22 ****        -2.6844   0.9553   3.6071 H              1 S1                 0.0000
     23 ****        -1.0128   0.7863   4.1498 H              1 S1                 0.0000
     24 ****        -0.8038  -1.2964   2.7610 H              1 S1                 0.0000
     25 ****        -2.4301  -1.0859   2.1785 H              1 S1                 0.0000
     26 ****        -1.9848   2.2117   1.7693 H              1 S1                 0.0000
     27 ****        -3.0273   1.1026   0.9101 H              1 S1                 0.0000
     28 ****        -1.7534   1.9710   0.0541 H              1 S1                 0.0000
     29 ****         0.2337   1.6886   2.4368 H              1 S1                 0.0000
     30 ****         1.0602   0.2226   2.0433 H              1 S1                 0.0000
     31 ****         0.5264   2.5519   0.2608 H              1 S1                 0.0000
     32 ****         5.7813   1.0048  -4.3278 H              1 S1                 0.0000
     33 ****         0.8529  -1.6479   0.8457 H              1 S1                 0.0000
     34 ****        -0.6511  -2.5407   0.8445 H              1 S1                 0.0000
     35 ****         0.9559  -1.7894  -1.6586 H              1 S1                 0.0000
     36 ****         0.8663  -3.3807  -0.9245 H              1 S1                 0.0000
     37 ****        -1.0476  -0.8939  -2.6964 H              1 S1                 0.0000
     38 ****        -2.5201  -1.8415  -2.6336 H              1 S1                 0.0000
     39 ****        -2.7188  -1.5005  -0.1836 H              1 S1                 0.0000
     40 ****        -2.5783   0.0318  -1.0274 H              1 S1                 0.0000
     41 ****        -0.2446  -0.0066  -0.5487 H              1 S1                 0.0000
     42 ****         2.2482  -0.3639   0.7571 LP             1 S1                 0.0000
     43 ****         3.2339  -0.1590  -0.6523 LP             1 S1                 0.0000
     44 ****         1.6579   2.8901  -1.4578 LP             1 S1                 0.0000
     45 ****         1.7136   0.6801  -3.5855 LP             1 S1                 0.0000
     46 ****         3.6321   0.1521  -5.1035 LP             1 S1                 0.0000
     47 ****        -1.4426  -3.3645  -1.2438 LP             1 S1                 0.0000
     48 ****        -0.6430  -3.1848  -2.6562 LP             1 S1                 0.0000
@<TRIPOS>BOND
    1    1    2 1     
    2    1   21 1     
    3    1   22 1     
    4    1   23 1     
    5    2    3 1     
    6    2   24 1     
    7    2   25 1     
    8    3    4 1     
    9    3    5 1     
   10    3   15 1     
   11    4   26 1     
   12    4   27 1     
   13    4   28 1     
   14    5    6 1     
   15    5   29 1     
   16    5   30 1     
   17    6    7 am    
   18    6   31 1     
   19    7    8 2     
   20    7    9 1     
   21    9   10 1     
   22   10   14 1     
   23   10   11 2     
   24   11   12 1     
   25   12   13 2     
   26   13   14 1     
   27   13   32 1     
   28   15   20 1     
   29   15   16 1     
   30   15   41 1     
   31   16   17 1     
   32   16   33 1     
   33   16   34 1     
   34   17   18 1     
   35   17   35 1     
   36   17   36 1     
   37   18   19 1     
   38   19   20 1     
   39   19   37 1     
   40   19   38 1     
   41   20   39 1     
   42   20   40 1     
   43    8   42 1     
   44    8   43 1     
   45    9   44 1     
   46   11   45 1     
   47   12   46 1     
   48   18   47 1     
   49   18   48 1     
@<TRIPOS>SUBSTRUCTURE
      1 S1             1
@<TRIPOS>SET
LONE_PAIRS      STATIC     ATOMS    <user>   **** ""
7 42 43 44 45 46 47 48
DONOR_HYDROGENS      STATIC     ATOMS    <user>   **** ""
2 31 41
ATOM$BLUE        STATIC     ATOMS    COLORGROUP SYSTEM
7 42 43 44 45 46 47 48
ATOM$RED        STATIC     ATOMS    COLORGROUP SYSTEM
2 31 41
