AV-unprocessed.smi:276|AV-procd|sdf|2078|dock10
  -GOLD-   2262021343D 1   1.00000     0.00000
 Structure written by MMmdl.
 57 61  0  0  0  0  0  0  0  0  1 V2000
  152.4623  142.9486  160.9505 C   0  0  0  0  0  0  0  0  0  0  0  0
  153.0029  142.0691  159.9796 O   0  0  0  0  0  0  0  0  0  0  0  0
  152.0035  141.4459  159.1881 C   0  0  2  0  0  0  0  0  0  0  0  0
  152.5697  140.7051  157.9659 C   0  0  0  0  0  0  0  0  0  0  0  0
  151.6719  141.5465  157.0470 C   0  0  1  0  0  0  0  0  0  0  0  0
  150.5757  140.7856  156.4245 N   0  0  0  0  0  0  0  0  0  0  0  0
  149.3588  141.4318  155.9327 C   0  0  0  0  0  0  0  0  0  0  0  0
  150.8560  139.5539  155.9146 C   0  0  0  0  0  0  0  0  0  0  0  0
  151.6599  139.4543  154.8211 N   0  0  0  0  0  0  0  0  0  0  0  0
  151.9430  138.2635  154.2872 C   0  0  0  0  0  0  0  0  0  0  0  0
  151.5396  137.0559  154.6829 N   0  0  0  0  0  0  0  0  0  0  0  0
  150.7429  137.1406  155.7859 C   0  0  0  0  0  0  0  0  0  0  0  0
  150.3534  138.3342  156.4598 C   0  0  0  0  0  0  0  0  0  0  0  0
  149.5484  138.0121  157.5484 N   0  0  0  0  0  0  0  0  0  0  0  0
  149.4633  136.7105  157.5153 C   0  0  0  0  0  0  0  0  0  0  0  0
  150.1516  136.1066  156.4893 N   0  0  0  0  0  0  0  0  0  0  0  0
  150.2343  134.6817  156.2202 C   0  0  0  0  0  0  0  0  0  0  0  0
  149.8061  134.3251  154.7826 C   0  0  2  0  0  0  0  0  0  0  0  0
  148.5089  134.8350  154.5380 O   0  0  0  0  0  0  0  0  0  0  0  0
  149.7985  132.8044  154.5389 C   0  0  1  0  0  0  0  0  0  0  0  0
  149.2133  131.9815  155.6879 C   0  0  0  0  0  0  0  0  0  0  0  0
  148.7977  130.7152  154.9759 C   0  0  0  0  0  0  0  0  0  0  0  0
  148.2752  131.2599  153.6500 C   0  0  0  0  0  0  0  0  0  0  0  0
  148.9723  132.4826  153.4219 O   0  0  0  0  0  0  0  0  0  0  0  0
  151.2657  142.4234  158.2486 C   0  0  0  0  0  0  0  0  0  0  0  0
  151.6107  143.9240  158.2448 C   0  0  0  0  0  0  0  0  0  0  0  0
  150.3508  144.1686  159.0776 C   0  0  0  0  0  0  0  0  0  0  0  0
  149.8118  142.8412  158.5398 C   0  0  0  0  0  0  0  0  0  0  0  0
  153.2704  143.3953  161.5298 H   0  0  0  0  0  0  0  0  0  0  0  0
  151.8039  142.4225  161.6427 H   0  0  0  0  0  0  0  0  0  0  0  0
  151.9003  143.7560  160.4792 H   0  0  0  0  0  0  0  0  0  0  0  0
  151.3099  140.8391  159.7723 H   0  0  0  0  0  0  0  0  0  0  0  0
  153.6288  140.9070  157.8007 H   0  0  0  0  0  0  0  0  0  0  0  0
  152.3739  139.6324  157.9642 H   0  0  0  0  0  0  0  0  0  0  0  0
  152.2866  142.0936  156.3305 H   0  0  0  0  0  0  0  0  0  0  0  0
  149.1278  141.1191  154.9135 H   0  0  0  0  0  0  0  0  0  0  0  0
  149.4460  142.5162  155.9193 H   0  0  0  0  0  0  0  0  0  0  0  0
  148.5140  141.1753  156.5721 H   0  0  0  0  0  0  0  0  0  0  0  0
  152.5840  138.2813  153.4183 H   0  0  0  0  0  0  0  0  0  0  0  0
  148.8953  136.1512  158.2448 H   0  0  0  0  0  0  0  0  0  0  0  0
  151.2622  134.3634  156.3984 H   0  0  0  0  0  0  0  0  0  0  0  0
  149.6166  134.1516  156.9462 H   0  0  0  0  0  0  0  0  0  0  0  0
  150.4896  134.7989  154.0765 H   0  0  0  0  0  0  0  0  0  0  0  0
  148.5378  135.3677  153.7578 H   0  0  0  0  0  0  0  0  0  0  0  0
  150.8073  132.4492  154.3209 H   0  0  0  0  0  0  0  0  0  0  0  0
  149.9282  131.8027  156.4917 H   0  0  0  0  0  0  0  0  0  0  0  0
  148.3381  132.4764  156.1115 H   0  0  0  0  0  0  0  0  0  0  0  0
  149.6683  130.0804  154.8052 H   0  0  0  0  0  0  0  0  0  0  0  0
  148.0535  130.1365  155.5237 H   0  0  0  0  0  0  0  0  0  0  0  0
  148.4235  130.5584  152.8289 H   0  0  0  0  0  0  0  0  0  0  0  0
  147.2092  131.4789  153.7203 H   0  0  0  0  0  0  0  0  0  0  0  0
  152.5439  144.2015  158.7348 H   0  0  0  0  0  0  0  0  0  0  0  0
  151.5412  144.3658  157.2492 H   0  0  0  0  0  0  0  0  0  0  0  0
  150.5430  144.1430  160.1514 H   0  0  0  0  0  0  0  0  0  0  0  0
  149.7749  145.0478  158.7877 H   0  0  0  0  0  0  0  0  0  0  0  0
  149.2107  142.9751  157.6396 H   0  0  0  0  0  0  0  0  0  0  0  0
  149.2947  142.2288  159.2789 H   0  0  0  0  0  0  0  0  0  0  0  0
  1  2  1  0  0  0  0
  1 29  1  0  0  0  0
  1 30  1  0  0  0  0
  1 31  1  0  0  0  0
  2  3  1  0  0  0  0
  3 25  1  0  0  0  0
  3  4  1  0  0  0  0
  3 32  1  0  0  0  0
  4  5  1  0  0  0  0
  4 33  1  0  0  0  0
  4 34  1  0  0  0  0
  5  6  1  0  0  0  0
  5 25  1  0  0  0  0
  5 35  1  0  0  0  0
  6  7  1  0  0  0  0
  6  8  1  0  0  0  0
  7 36  1  0  0  0  0
  7 37  1  0  0  0  0
  7 38  1  0  0  0  0
  8 13  1  0  0  0  0
  8  9  2  0  0  0  0
  9 10  1  0  0  0  0
 10 11  2  0  0  0  0
 10 39  1  0  0  0  0
 11 12  1  0  0  0  0
 12 16  1  0  0  0  0
 12 13  2  0  0  0  0
 13 14  1  0  0  0  0
 14 15  2  0  0  0  0
 15 16  1  0  0  0  0
 15 40  1  0  0  0  0
 16 17  1  0  0  0  0
 17 18  1  0  0  0  0
 17 41  1  0  0  0  0
 17 42  1  0  0  0  0
 18 19  1  0  0  0  0
 18 20  1  0  0  0  0
 18 43  1  0  0  0  0
 19 44  1  0  0  0  0
 20 24  1  0  0  0  0
 20 21  1  0  0  0  0
 20 45  1  0  0  0  0
 21 22  1  0  0  0  0
 21 46  1  0  0  0  0
 21 47  1  0  0  0  0
 22 23  1  0  0  0  0
 22 48  1  0  0  0  0
 22 49  1  0  0  0  0
 23 24  1  0  0  0  0
 23 50  1  0  0  0  0
 23 51  1  0  0  0  0
 25 28  1  0  0  0  0
 25 26  1  0  0  0  0
 26 27  1  0  0  0  0
 26 52  1  0  0  0  0
 26 53  1  0  0  0  0
 27 28  1  0  0  0  0
 27 54  1  0  0  0  0
 27 55  1  0  0  0  0
 28 56  1  0  0  0  0
 28 57  1  0  0  0  0
M  END
> <s_m_source_file>
AV-unprocessed.smi

> <i_m_source_file_index>
276

> <i_lp_mmshare_version>
43012

> <i_f3d_flags>
0

> <s_epik_input>
W0NIMl0xW0NIMl1bQ0gyXUMxMltDQEhdKE9bQ0gzXSlbQ0gyXVtDQEhdMk4oW0NIM10pYyhuW2NIXW4zKWMoYzM0KW5bY0hdbjRbQ0gyXVtDQEhdKFtPSF0pW0NAQEhdNVtDSDJdW0NIMl1bQ0gyXU81

> <s_epik_cmdline>
J2VwaWtfcHl0aG9uJywgJy1waCcsICc3LjAnLCAnLXRuJywgJzgnLCAnLW1hJywgJzIwMCcsICctbWV0YWxfYmluZGluZycsICctaW1hZScsICc8aW5maWxlLm1hZT4nLCAnLW9tYWUnLCAnPG91dGZpbGUubWFlPic=

> <r_lp_tautomer_probability>
1

> <r_epik_Ionization_Penalty>
0.00204117

> <r_epik_Ionization_Penalty_Charging>
0

> <r_epik_Ionization_Penalty_Neutral>
0.00204117

> <r_epik_State_Penalty>
0.00127401

> <r_epik_Charging_Adjusted_Penalty>
0.00127401

> <i_epik_Tot_Q>
0

> <i_epik_Tot_abs_Q>
0

> <r_epik_Metal_State_Penalty>
-0

> <b_epik_Metal_Only>
0

> <s_lp_Force_Field>
OPLS_2005

> <r_lp_Energy>
56.66

> <b_lp_Chiralities_Consistent>
1

> <s_lp_Variant>
AV-unprocessed.smi:276-9

> <Gold.Version>
5.8.1

> <Gold.Id.Protein>
6NUR|6NUR_protein|mol2

> <Gold.PLP.Fitness>
47.5213

> <Gold.PLP.PLP>
-42.3734

> <Gold.PLP.part.hbond>
-3.0000

> <Gold.PLP.part.metal>
0.0000

> <Gold.PLP.part.buried>
-8.1131

> <Gold.PLP.part.nonpolar>
-31.5113

> <Gold.PLP.part.repulsive>
0.3662

> <Gold.PLP.ligand.clash>
0.0762

> <Gold.PLP.ligand.torsion>
2.3087

> <Gold.PLP.Chemscore.Hbond>
3.0000

> <Gold.PLP.Chemscore.CHOScore>
0.0000

> <Gold.PLP.Chemscore.Metal>
0.0000

> <Gold.Chemscore.Hbonds>
donor molecule, donor type, donor heavy atom, donor atom, acceptor molecule, acceptor atom, score
      L1  H    19    44       P1  7948  0.81
      P1  H  7989  7998       L1     9  1.00
      P1  H 10752 10763       L1    11  1.00

> <Gold.PLP.Chemscore.Internal.Correction>
0.8416

> <Gold.Rescore>
     Score         DG    S(hbond)    S(metal)    S(lipo)     H(rot)  DE(clash)    DE(int)     intcor
     15.99     -19.65       2.43        0.00     105.43       2.46       0.25       3.41       ----

> <Gold.Chemscore.Fitness>
15.9926

> <Gold.Chemscore.DG>
-19.6510

> <Gold.Chemscore.ZeroCoef>
-5.4800

> <Gold.Chemscore.Hbond>
2.4336

> <Gold.Chemscore.Metal>
0.0000

> <Gold.Chemscore.Lipo>
105.4295

> <Gold.Chemscore.Internal_Hbond>
0.0000

> <Gold.Chemscore.DEClash>
0.2459

> <Gold.Chemscore.DEInternal>
3.4125

> <Gold.Chemscore.Rot>
2.4581

> <Gold.Chemscore.Internal.Correction>
   9.000000E+99

> <Gold.Chemscore.Hbonds>
donor molecule, donor type, donor heavy atom, donor atom, acceptor molecule, acceptor atom, score
      L1  H    19    44       P1  7948  0.78
      P1  H  7989  7998       L1     9  0.79
      P1  H 10752 10763       L1    11  0.77

> <Gold.Chemscore.Hbond.Weighted>
-8.1284

> <Gold.Chemscore.Metal.Weighted>
-0.0000

> <Gold.Chemscore.Lipo.Weighted>
-12.3353

> <Gold.Chemscore.Internal_Hbond.Weighted>
0.0000

> <Gold.Chemscore.DEClash.Weighted>
0.2459

> <Gold.Chemscore.DEInternal.Weighted>
3.4125

> <Gold.Chemscore.Rot.Weighted>
6.2927

> <Gold.Chemscore.Internal.Correction.Weighted>
   9.000000E+99

> <Gold.Protein.RotatedTorsions>
[ 6907 6896 6895 6894 ] final  117.83 input  -60.11 | X-H torsion
[ 7974 7965 7964 7962 ] final  -36.20 input  175.53 | X-H torsion
[ 8008 7997 7996 7995 ] final   40.81 input   59.86 | X-H torsion
[ 10167 10162 10161 10158 ] final  -61.36 input  -65.29 | X-H torsion
[ 10718 10713 10712 10709 ] final -126.70 input   66.30 | X-H torsion
[ 10763 10752 10751 10750 ] final   44.98 input  -60.55 | X-H torsion
[ 11005 11000 10999 10996 ] final  -93.79 input  -57.11 | X-H torsion

> <Gold.Protein.ActiveResidues>
 VAL166  LYS551  ARG553  GLY616  TRP617  ASP618  TYR619  PRO620  LYS621  CYS622 
 ASP623  PHE694  ASN695  SER759  ASP760  ASP761  ALA762  ILE779  LEU786  VAL792 
 PHE793  MET794  SER795  GLU796  ALA797  LYS798  CYS799  TRP800  GLU811  SER814 

> <Gold.Protein.RotatedAtoms>
  152.4585  133.7772  159.6830 H   0  0  0  0  0  0  0  0  0  0  0  0  # atno 6907 bound_to 6896
  150.8520  133.7763  159.3028 H   0  0  0  0  0  0  0  0  0  0  0  0  # atno 6908 bound_to 6896
  151.5355  135.1071  159.9965 H   0  0  0  0  0  0  0  0  0  0  0  0  # atno 6909 bound_to 6896
  146.0682  140.6250  142.8965 H   0  0  0  0  0  0  0  0  0  0  0  0  # atno 7974 bound_to 7965
  155.2593  140.3358  155.4274 H   0  0  0  0  0  0  0  0  0  0  0  0  # atno 8008 bound_to 7997
  156.2181  140.1797  156.7583 H   0  0  0  0  0  0  0  0  0  0  0  0  # atno 8009 bound_to 7997
  154.5784  140.0658  156.9053 H   0  0  0  0  0  0  0  0  0  0  0  0  # atno 8010 bound_to 7997
  140.6011  143.2361  151.5927 H   0  0  0  0  0  0  0  0  0  0  0  0  # atno 10167 bound_to 10162
  156.1789  130.6718  151.0278 H   0  0  0  0  0  0  0  0  0  0  0  0  # atno 10718 bound_to 10713
  152.9832  135.6054  154.3362 H   0  0  0  0  0  0  0  0  0  0  0  0  # atno 10763 bound_to 10752
  154.3062  135.2772  155.2589 H   0  0  0  0  0  0  0  0  0  0  0  0  # atno 10764 bound_to 10752
  154.4819  135.5915  153.6452 H   0  0  0  0  0  0  0  0  0  0  0  0  # atno 10765 bound_to 10752
  141.1488  133.7911  157.0208 H   0  0  0  0  0  0  0  0  0  0  0  0  # atno 11005 bound_to 11000
  144.7215  140.4388  143.7004 LP  0  0  0  0  0  0  0  0  0  0  0  0  # atno 17320 bound_to 7965
  145.6440  139.1554  143.2899 LP  0  0  0  0  0  0  0  0  0  0  0  0  # atno 17321 bound_to 7965
  139.5291  144.2968  152.1106 LP  0  0  0  0  0  0  0  0  0  0  0  0  # atno 17342 bound_to 10162
  140.2149  144.4525  150.6368 LP  0  0  0  0  0  0  0  0  0  0  0  0  # atno 17343 bound_to 10162
  157.6854  131.0826  150.7256 LP  0  0  0  0  0  0  0  0  0  0  0  0  # atno 17370 bound_to 10713
  156.7313  130.4710  149.5499 LP  0  0  0  0  0  0  0  0  0  0  0  0  # atno 17371 bound_to 10713
  140.0817  134.9644  157.1635 LP  0  0  0  0  0  0  0  0  0  0  0  0  # atno 17394 bound_to 11000
  140.3568  134.2538  155.7192 LP  0  0  0  0  0  0  0  0  0  0  0  0  # atno 17395 bound_to 11000

$$$$
