AV-unprocessed.smi:1072|AV-procd|sdf|4688|dock1
  -GOLD-   22720 3203D 1   1.00000     0.00000
 Structure written by MMmdl.
 45 46  0  0  0  0  0  0  0  0  2 V2000
  151.6820  131.4890  159.6537 C   0  0  0  0  0  0  0  0  0  0  0  0
  151.1756  131.9159  158.2925 C   0  0  0  0  0  0  0  0  0  0  0  0
  150.7891  131.0239  157.4622 N   0  0  0  0  0  0  0  0  0  0  0  0
  150.3180  131.4146  156.1973 C   0  0  0  0  0  0  0  0  0  0  0  0
  149.8821  130.2891  155.2751 C   0  0  0  0  0  0  0  0  0  0  0  0
  150.2636  132.7297  155.8394 C   0  0  0  0  0  0  0  0  0  0  0  0
  149.7632  133.2025  154.4746 C   0  0  0  0  0  0  0  0  0  0  0  0
  148.2680  133.0130  154.2070 C   0  0  0  0  0  0  0  0  0  0  0  0
  147.5206  132.6388  155.1106 O   0  0  0  0  0  0  0  0  0  0  0  0
  147.8621  133.2730  152.9508 N   0  0  0  0  0  0  0  0  0  0  0  0
  146.5198  133.1655  152.3616 C   0  0  1  0  0  0  0  0  0  0  0  0
  145.5811  133.8885  153.3513 C   0  0  0  0  0  0  0  0  0  0  0  0
  146.4807  133.8682  150.9761 C   0  0  0  0  0  0  0  0  0  0  0  0
  145.1534  133.6560  150.2261 C   0  0  0  0  0  0  0  0  0  0  0  0
  144.8139  132.1616  150.0812 C   0  0  2  0  0  0  0  0  0  0  0  0
  143.4953  131.9574  149.3222 C   0  0  0  0  0  0  0  0  0  0  0  0
  144.7807  131.4822  151.4620 C   0  0  0  0  0  0  0  0  0  0  0  0
  146.1054  131.6745  152.2222 C   0  0  0  0  0  0  0  0  0  0  0  0
  150.7149  133.7268  156.8269 C   0  0  0  0  0  0  0  0  0  0  0  0
  150.6760  134.9274  156.5604 O   0  0  0  0  0  0  0  0  0  0  0  0
  151.1666  133.2672  158.0288 N   0  5  0  0  0  0  0  0  0  0  0  0
  151.4238  130.4495  159.8601 H   0  0  0  0  0  0  0  0  0  0  0  0
  151.2438  132.1090  160.4366 H   0  0  0  0  0  0  0  0  0  0  0  0
  152.7667  131.5892  159.6987 H   0  0  0  0  0  0  0  0  0  0  0  0
  150.5090  130.2610  154.3839 H   0  0  0  0  0  0  0  0  0  0  0  0
  148.8451  130.4232  154.9677 H   0  0  0  0  0  0  0  0  0  0  0  0
  149.9604  129.3206  155.7703 H   0  0  0  0  0  0  0  0  0  0  0  0
  150.0066  134.2529  154.3133 H   0  0  0  0  0  0  0  0  0  0  0  0
  150.3258  132.6695  153.7073 H   0  0  0  0  0  0  0  0  0  0  0  0
  148.5829  133.5763  152.3122 H   0  0  0  0  0  0  0  0  0  0  0  0
  144.5417  133.8781  153.0264 H   0  0  0  0  0  0  0  0  0  0  0  0
  145.8673  134.9337  153.4754 H   0  0  0  0  0  0  0  0  0  0  0  0
  145.6134  133.4235  154.3374 H   0  0  0  0  0  0  0  0  0  0  0  0
  146.6718  134.9360  151.0902 H   0  0  0  0  0  0  0  0  0  0  0  0
  147.2776  133.4931  150.3346 H   0  0  0  0  0  0  0  0  0  0  0  0
  144.3444  134.1742  150.7413 H   0  0  0  0  0  0  0  0  0  0  0  0
  145.2226  134.1146  149.2392 H   0  0  0  0  0  0  0  0  0  0  0  0
  145.6061  131.6924  149.4958 H   0  0  0  0  0  0  0  0  0  0  0  0
  142.6566  132.4060  149.8558 H   0  0  0  0  0  0  0  0  0  0  0  0
  143.2779  130.8972  149.1907 H   0  0  0  0  0  0  0  0  0  0  0  0
  143.5396  132.4092  148.3309 H   0  0  0  0  0  0  0  0  0  0  0  0
  143.9498  131.8720  152.0503 H   0  0  0  0  0  0  0  0  0  0  0  0
  144.5883  130.4153  151.3426 H   0  0  0  0  0  0  0  0  0  0  0  0
  146.8695  131.1145  151.6842 H   0  0  0  0  0  0  0  0  0  0  0  0
  146.0359  131.2091  153.2061 H   0  0  0  0  0  0  0  0  0  0  0  0
  1  2  1  0  0  0  0
  1 22  1  0  0  0  0
  1 23  1  0  0  0  0
  1 24  1  0  0  0  0
  2 21  1  0  0  0  0
  2  3  2  0  0  0  0
  3  4  1  0  0  0  0
  4  5  1  0  0  0  0
  4  6  2  0  0  0  0
  5 25  1  0  0  0  0
  5 26  1  0  0  0  0
  5 27  1  0  0  0  0
  6  7  1  0  0  0  0
  6 19  1  0  0  0  0
  7  8  1  0  0  0  0
  7 28  1  0  0  0  0
  7 29  1  0  0  0  0
  8  9  2  0  0  0  0
  8 10  1  0  0  0  0
 10 11  1  0  0  0  0
 10 30  1  0  0  0  0
 11 18  1  0  0  0  0
 11 12  1  0  0  0  0
 11 13  1  0  0  0  0
 12 31  1  0  0  0  0
 12 32  1  0  0  0  0
 12 33  1  0  0  0  0
 13 14  1  0  0  0  0
 13 34  1  0  0  0  0
 13 35  1  0  0  0  0
 14 15  1  0  0  0  0
 14 36  1  0  0  0  0
 14 37  1  0  0  0  0
 15 16  1  0  0  0  0
 15 17  1  0  0  0  0
 15 38  1  0  0  0  0
 16 39  1  0  0  0  0
 16 40  1  0  0  0  0
 16 41  1  0  0  0  0
 17 18  1  0  0  0  0
 17 42  1  0  0  0  0
 17 43  1  0  0  0  0
 18 44  1  0  0  0  0
 18 45  1  0  0  0  0
 19 20  2  0  0  0  0
 19 21  1  0  0  0  0
M  CHG  1  21  -1
M  END
> <s_m_source_file>
AV-unprocessed.smi

> <i_m_source_file_index>
1072

> <i_lp_mmshare_version>
43012

> <i_f3d_flags>
0

> <s_epik_input>
W0NIM11jMW5jKFtDSDNdKWMoYyg9TylbbkhdMSlbQ0gyXUMoPU8pW05IXVtDQEBdMihbQ0gzXSlbQ0gyXVtDSDJdW0NAQEhdKFtDSDNdKVtDSDJdW0NIMl0y

> <s_epik_cmdline>
J2VwaWtfcHl0aG9uJywgJy1waCcsICc3LjAnLCAnLXRuJywgJzgnLCAnLW1hJywgJzIwMCcsICctbWV0YWxfYmluZGluZycsICctaW1hZScsICc8aW5maWxlLm1hZT4nLCAnLW9tYWUnLCAnPG91dGZpbGUubWFlPic=

> <r_lp_tautomer_probability>
0.839158

> <r_epik_Ionization_Penalty>
6.73882

> <r_epik_Ionization_Penalty_Charging>
8.02239e-08

> <r_epik_Ionization_Penalty_Neutral>
6.73882

> <r_epik_State_Penalty>
4.55873

> <r_epik_Charging_Adjusted_Penalty>
4.55873

> <i_epik_Tot_Q>
-1

> <i_epik_Tot_abs_Q>
1

> <r_epik_Metal_State_Penalty>
0.872514

> <b_epik_Metal_Only>
1

> <s_lp_Force_Field>
OPLS_2005

> <r_lp_Energy>
18.4266

> <b_lp_Chiralities_Consistent>
1

> <s_lp_Variant>
AV-unprocessed.smi:1072-6

> <Gold.Version>
5.8.1

> <Gold.Id.Protein>
6NUR|6NUR_protein|mol2

> <Gold.PLP.Fitness>
39.1179

> <Gold.PLP.PLP>
-33.7381

> <Gold.PLP.part.hbond>
-1.5972

> <Gold.PLP.part.metal>
0.0000

> <Gold.PLP.part.buried>
-3.4820

> <Gold.PLP.part.nonpolar>
-29.3740

> <Gold.PLP.part.repulsive>
0.0025

> <Gold.PLP.ligand.clash>
0.0000

> <Gold.PLP.ligand.torsion>
0.3137

> <Gold.PLP.Chemscore.Hbond>
2.0000

> <Gold.PLP.Chemscore.CHOScore>
0.0000

> <Gold.PLP.Chemscore.Metal>
0.0000

> <Gold.Chemscore.Hbonds>
donor molecule, donor type, donor heavy atom, donor atom, acceptor molecule, acceptor atom, score
      P1  H  6896  6908       L1    21  0.06

> <Gold.PLP.Chemscore.Internal.Correction>
0.0072

> <Gold.Rescore>
     Score         DG    S(hbond)    S(metal)    S(lipo)     H(rot)  DE(clash)    DE(int)     intcor
     14.04     -14.31       0.93        0.00      80.40       1.43       0.20       0.07       ----

> <Gold.Chemscore.Fitness>
14.0419

> <Gold.Chemscore.DG>
-14.3114

> <Gold.Chemscore.ZeroCoef>
-5.4800

> <Gold.Chemscore.Hbond>
0.9268

> <Gold.Chemscore.Metal>
0.0000

> <Gold.Chemscore.Lipo>
80.3977

> <Gold.Chemscore.Internal_Hbond>
0.0000

> <Gold.Chemscore.DEClash>
0.1964

> <Gold.Chemscore.DEInternal>
0.0731

> <Gold.Chemscore.Rot>
1.4339

> <Gold.Chemscore.Internal.Correction>
   9.000000E+99

> <Gold.Chemscore.Hbond.Weighted>
-3.0956

> <Gold.Chemscore.Metal.Weighted>
-0.0000

> <Gold.Chemscore.Lipo.Weighted>
-9.4065

> <Gold.Chemscore.Internal_Hbond.Weighted>
0.0000

> <Gold.Chemscore.DEClash.Weighted>
0.1964

> <Gold.Chemscore.DEInternal.Weighted>
0.0731

> <Gold.Chemscore.Rot.Weighted>
3.6708

> <Gold.Chemscore.Internal.Correction.Weighted>
   9.000000E+99

> <Gold.Protein.RotatedTorsions>
[ 6907 6896 6895 6894 ] final   68.36 input  -60.11 | X-H torsion
[ 7974 7965 7964 7962 ] final  -81.71 input  175.53 | X-H torsion
[ 8008 7997 7996 7995 ] final -101.50 input   59.86 | X-H torsion
[ 10167 10162 10161 10158 ] final  -57.61 input  -65.29 | X-H torsion
[ 10718 10713 10712 10709 ] final -149.72 input   66.30 | X-H torsion
[ 10763 10752 10751 10750 ] final  132.35 input  -60.55 | X-H torsion
[ 11005 11000 10999 10996 ] final  142.84 input  -57.11 | X-H torsion

> <Gold.Protein.ActiveResidues>
 VAL166  LYS551  ARG553  GLY616  TRP617  ASP618  TYR619  PRO620  LYS621  CYS622 
 ASP623  PHE694  ASN695  SER759  ASP760  ASP761  ALA762  ILE779  LEU786  VAL792 
 PHE793  MET794  SER795  GLU796  ALA797  LYS798  CYS799  TRP800  GLU811  SER814 

> <Gold.Protein.RotatedAtoms>
  152.4615  134.5174  159.9771 H   0  0  0  0  0  0  0  0  0  0  0  0  # atno 6907 bound_to 6896
  151.5222  133.3458  159.2911 H   0  0  0  0  0  0  0  0  0  0  0  0  # atno 6908 bound_to 6896
  150.8579  134.7953  159.7122 H   0  0  0  0  0  0  0  0  0  0  0  0  # atno 6909 bound_to 6896
  145.5430  140.9507  143.1541 H   0  0  0  0  0  0  0  0  0  0  0  0  # atno 7974 bound_to 7965
  154.8434  140.0434  157.1556 H   0  0  0  0  0  0  0  0  0  0  0  0  # atno 8008 bound_to 7997
  154.9022  140.3002  155.5291 H   0  0  0  0  0  0  0  0  0  0  0  0  # atno 8009 bound_to 7997
  156.2993  140.2374  156.4051 H   0  0  0  0  0  0  0  0  0  0  0  0  # atno 8010 bound_to 7997
  140.6247  143.2433  151.5392 H   0  0  0  0  0  0  0  0  0  0  0  0  # atno 10167 bound_to 10162
  156.4369  130.8103  151.2331 H   0  0  0  0  0  0  0  0  0  0  0  0  # atno 10718 bound_to 10713
  153.7892  135.3157  155.3376 H   0  0  0  0  0  0  0  0  0  0  0  0  # atno 10763 bound_to 10752
  154.8132  135.4653  154.0575 H   0  0  0  0  0  0  0  0  0  0  0  0  # atno 10764 bound_to 10752
  153.1888  135.6905  153.8466 H   0  0  0  0  0  0  0  0  0  0  0  0  # atno 10765 bound_to 10752
  140.0508  134.9257  157.1012 H   0  0  0  0  0  0  0  0  0  0  0  0  # atno 11005 bound_to 11000
  144.7567  139.7056  143.7251 LP  0  0  0  0  0  0  0  0  0  0  0  0  # atno 17320 bound_to 7965
  146.1968  139.5240  142.9769 LP  0  0  0  0  0  0  0  0  0  0  0  0  # atno 17321 bound_to 7965
  139.5470  144.2496  152.1460 LP  0  0  0  0  0  0  0  0  0  0  0  0  # atno 17342 bound_to 10162
  140.1724  144.4922  150.6572 LP  0  0  0  0  0  0  0  0  0  0  0  0  # atno 17343 bound_to 10162
  157.7507  131.0181  150.3611 LP  0  0  0  0  0  0  0  0  0  0  0  0  # atno 17370 bound_to 10713
  156.3960  130.3907  149.6995 LP  0  0  0  0  0  0  0  0  0  0  0  0  # atno 17371 bound_to 10713
  140.3921  134.2173  155.7166 LP  0  0  0  0  0  0  0  0  0  0  0  0  # atno 17394 bound_to 11000
  141.1929  133.8163  157.0820 LP  0  0  0  0  0  0  0  0  0  0  0  0  # atno 17395 bound_to 11000

$$$$
