AV-unprocessed.smi:804|AV-procd|sdf|3794|dock7
  -GOLD-   22720 1233D 1   1.00000     0.00000
 Structure written by MMmdl.
 39 40  0  0  0  0  0  0  0  0  1 V2000
  147.0505  139.4282  152.8477 C   0  0  0  0  0  0  0  0  0  0  0  0
  146.9095  140.0546  154.2462 C   0  0  0  0  0  0  0  0  0  0  0  0
  146.5028  141.5354  154.0932 C   0  0  0  0  0  0  0  0  0  0  0  0
  145.8404  139.2758  155.0406 C   0  0  0  0  0  0  0  0  0  0  0  0
  148.2200  139.9435  154.8960 N   0  0  0  0  0  0  0  0  0  0  0  0
  149.3762  140.5452  154.5613 C   0  0  0  0  0  0  0  0  0  0  0  0
  149.4980  141.3493  153.6369 O   0  0  0  0  0  0  0  0  0  0  0  0
  150.5399  140.2327  155.4564 C   0  0  0  0  0  0  0  0  0  0  0  0
  150.8131  141.1371  156.4244 N   0  0  0  0  0  0  0  0  0  0  0  0
  151.8413  140.9040  157.2496 C   0  0  0  0  0  0  0  0  0  0  0  0
  152.0960  141.8499  158.2515 N   0  0  0  0  0  0  0  0  0  0  0  0
  151.4954  143.1862  158.2159 C   0  0  0  0  0  0  0  0  0  0  0  0
  152.3914  144.2139  158.9281 C   0  0  0  0  0  0  0  0  0  0  0  0
  152.6721  143.7761  160.2512 O   0  0  0  0  0  0  0  0  0  0  0  0
  153.3800  142.5432  160.2510 C   0  0  0  0  0  0  0  0  0  0  0  0
  152.5200  141.4497  159.5959 C   0  0  0  0  0  0  0  0  0  0  0  0
  152.6405  139.8318  157.1880 N   0  0  0  0  0  0  0  0  0  0  0  0
  152.3982  138.9215  156.2223 C   0  0  0  0  0  0  0  0  0  0  0  0
  151.3412  139.0711  155.3040 C   0  0  0  0  0  0  0  0  0  0  0  0
  151.1063  137.8886  154.0617 Cl  0  0  0  0  0  0  0  0  0  0  0  0
  146.1108  139.4723  152.2958 H   0  0  0  0  0  0  0  0  0  0  0  0
  147.3451  138.3797  152.9084 H   0  0  0  0  0  0  0  0  0  0  0  0
  147.8037  139.9468  152.2529 H   0  0  0  0  0  0  0  0  0  0  0  0
  147.2680  142.1046  153.5640 H   0  0  0  0  0  0  0  0  0  0  0  0
  146.3401  142.0184  155.0567 H   0  0  0  0  0  0  0  0  0  0  0  0
  145.5746  141.6304  153.5288 H   0  0  0  0  0  0  0  0  0  0  0  0
  144.8850  139.2750  154.5150 H   0  0  0  0  0  0  0  0  0  0  0  0
  145.6619  139.7098  156.0244 H   0  0  0  0  0  0  0  0  0  0  0  0
  146.1340  138.2357  155.1875 H   0  0  0  0  0  0  0  0  0  0  0  0
  148.2567  139.3243  155.6926 H   0  0  0  0  0  0  0  0  0  0  0  0
  151.3300  143.5326  157.1959 H   0  0  0  0  0  0  0  0  0  0  0  0
  150.5184  143.1423  158.6979 H   0  0  0  0  0  0  0  0  0  0  0  0
  153.3208  144.3676  158.3775 H   0  0  0  0  0  0  0  0  0  0  0  0
  151.8874  145.1793  158.9748 H   0  0  0  0  0  0  0  0  0  0  0  0
  154.3313  142.6552  159.7281 H   0  0  0  0  0  0  0  0  0  0  0  0
  153.6136  142.2692  161.2799 H   0  0  0  0  0  0  0  0  0  0  0  0
  151.6324  141.2594  160.2003 H   0  0  0  0  0  0  0  0  0  0  0  0
  153.0991  140.5268  159.5832 H   0  0  0  0  0  0  0  0  0  0  0  0
  153.0598  138.0692  156.1783 H   0  0  0  0  0  0  0  0  0  0  0  0
  1  2  1  0  0  0  0
  1 21  1  0  0  0  0
  1 22  1  0  0  0  0
  1 23  1  0  0  0  0
  2  3  1  0  0  0  0
  2  4  1  0  0  0  0
  2  5  1  0  0  0  0
  3 24  1  0  0  0  0
  3 25  1  0  0  0  0
  3 26  1  0  0  0  0
  4 27  1  0  0  0  0
  4 28  1  0  0  0  0
  4 29  1  0  0  0  0
  5  6  1  0  0  0  0
  5 30  1  0  0  0  0
  6  7  2  0  0  0  0
  6  8  1  0  0  0  0
  8 19  1  0  0  0  0
  8  9  2  0  0  0  0
  9 10  1  0  0  0  0
 10 11  1  0  0  0  0
 10 17  2  0  0  0  0
 11 16  1  0  0  0  0
 11 12  1  0  0  0  0
 12 13  1  0  0  0  0
 12 31  1  0  0  0  0
 12 32  1  0  0  0  0
 13 14  1  0  0  0  0
 13 33  1  0  0  0  0
 13 34  1  0  0  0  0
 14 15  1  0  0  0  0
 15 16  1  0  0  0  0
 15 35  1  0  0  0  0
 15 36  1  0  0  0  0
 16 37  1  0  0  0  0
 16 38  1  0  0  0  0
 17 18  1  0  0  0  0
 18 19  2  0  0  0  0
 18 39  1  0  0  0  0
 19 20  1  0  0  0  0
M  END
> <s_m_source_file>
AV-unprocessed.smi

> <i_m_source_file_index>
804

> <i_lp_mmshare_version>
43012

> <i_f3d_flags>
0

> <s_epik_input>
W0NIM11DKFtDSDNdKShbQ0gzXSlbTkhdQyg9TyljMW5jKG5bY0hdYzFDbClOMltDSDJdW0NIMl1PW0NIMl1bQ0gyXTI=

> <s_epik_cmdline>
J2VwaWtfcHl0aG9uJywgJy1waCcsICc3LjAnLCAnLXRuJywgJzgnLCAnLW1hJywgJzIwMCcsICctbWV0YWxfYmluZGluZycsICctaW1hZScsICc8aW5maWxlLm1hZT4nLCAnLW9tYWUnLCAnPG91dGZpbGUubWFlPic=

> <r_lp_tautomer_probability>
1

> <r_epik_Ionization_Penalty>
1.02082e-05

> <r_epik_Ionization_Penalty_Charging>
0

> <r_epik_Ionization_Penalty_Neutral>
1.02082e-05

> <r_epik_State_Penalty>
-0

> <r_epik_Charging_Adjusted_Penalty>
0

> <i_epik_Tot_Q>
0

> <i_epik_Tot_abs_Q>
0

> <r_epik_Metal_State_Penalty>
0.00994437

> <b_epik_Metal_Only>
0

> <s_lp_Force_Field>
OPLS_2005

> <r_lp_Energy>
15.0003

> <b_lp_Chiralities_Consistent>
1

> <s_lp_Variant>
AV-unprocessed.smi:804-1

> <Gold.Version>
5.8.1

> <Gold.Id.Protein>
6NUR|6NUR_protein|mol2

> <Gold.PLP.Fitness>
39.9177

> <Gold.PLP.PLP>
-37.7036

> <Gold.PLP.part.hbond>
-3.0000

> <Gold.PLP.part.metal>
0.0000

> <Gold.PLP.part.buried>
-2.8575

> <Gold.PLP.part.nonpolar>
-33.3098

> <Gold.PLP.part.repulsive>
2.2247

> <Gold.PLP.ligand.clash>
0.0000

> <Gold.PLP.ligand.torsion>
1.8584

> <Gold.PLP.Chemscore.Hbond>
1.9322

> <Gold.PLP.Chemscore.CHOScore>
0.0000

> <Gold.PLP.Chemscore.Metal>
0.0000

> <Gold.Chemscore.Hbonds>
donor molecule, donor type, donor heavy atom, donor atom, acceptor molecule, acceptor atom, score
      P1  H  7989  7998       L1     7  0.07
      P1  H  7997  8010       L1    17  0.93
      P1  H  8011  8017       L1     7  0.88

> <Gold.PLP.Chemscore.Internal.Correction>
0.1342

> <Gold.Rescore>
     Score         DG    S(hbond)    S(metal)    S(lipo)     H(rot)  DE(clash)    DE(int)     intcor
     16.06     -18.00       1.25        0.00      93.33       1.00       0.29       1.65       ----

> <Gold.Chemscore.Fitness>
16.0571

> <Gold.Chemscore.DG>
-18.0003

> <Gold.Chemscore.ZeroCoef>
-5.4800

> <Gold.Chemscore.Hbond>
1.2456

> <Gold.Chemscore.Metal>
0.0000

> <Gold.Chemscore.Lipo>
93.3321

> <Gold.Chemscore.Internal_Hbond>
0.0000

> <Gold.Chemscore.DEClash>
0.2893

> <Gold.Chemscore.DEInternal>
1.6539

> <Gold.Chemscore.Rot>
1.0000

> <Gold.Chemscore.Internal.Correction>
   9.000000E+99

> <Gold.Chemscore.Hbonds>
donor molecule, donor type, donor heavy atom, donor atom, acceptor molecule, acceptor atom, score
      P1  H  7989  7998       L1     7  0.01
      P1  H  7997  8010       L1    17  0.20
      P1  H  8011  8017       L1     7  0.86

> <Gold.Chemscore.Hbond.Weighted>
-4.1604

> <Gold.Chemscore.Metal.Weighted>
-0.0000

> <Gold.Chemscore.Lipo.Weighted>
-10.9199

> <Gold.Chemscore.Internal_Hbond.Weighted>
0.0000

> <Gold.Chemscore.DEClash.Weighted>
0.2893

> <Gold.Chemscore.DEInternal.Weighted>
1.6539

> <Gold.Chemscore.Rot.Weighted>
2.5600

> <Gold.Chemscore.Internal.Correction.Weighted>
   9.000000E+99

> <Gold.Protein.RotatedTorsions>
[ 6907 6896 6895 6894 ] final  -95.68 input  -60.11 | X-H torsion
[ 7974 7965 7964 7962 ] final  117.47 input  175.53 | X-H torsion
[ 8008 7997 7996 7995 ] final   40.56 input   59.86 | X-H torsion
[ 10167 10162 10161 10158 ] final -140.25 input  -65.29 | X-H torsion
[ 10718 10713 10712 10709 ] final  169.45 input   66.30 | X-H torsion
[ 10763 10752 10751 10750 ] final  101.98 input  -60.55 | X-H torsion
[ 11005 11000 10999 10996 ] final -173.84 input  -57.11 | X-H torsion

> <Gold.Protein.ActiveResidues>
 VAL166  LYS551  ARG553  GLY616  TRP617  ASP618  TYR619  PRO620  LYS621  CYS622 
 ASP623  PHE694  ASN695  SER759  ASP760  ASP761  ALA762  ILE779  LEU786  VAL792 
 PHE793  MET794  SER795  GLU796  ALA797  LYS798  CYS799  TRP800  GLU811  SER814 

> <Gold.Protein.RotatedAtoms>
  150.6970  134.1620  159.4179 H   0  0  0  0  0  0  0  0  0  0  0  0  # atno 6907 bound_to 6896
  151.9600  135.0125  160.0556 H   0  0  0  0  0  0  0  0  0  0  0  0  # atno 6908 bound_to 6896
  152.1935  133.4755  159.5057 H   0  0  0  0  0  0  0  0  0  0  0  0  # atno 6909 bound_to 6896
  145.1669  139.3123  143.4488 H   0  0  0  0  0  0  0  0  0  0  0  0  # atno 7974 bound_to 7965
  155.2552  140.3355  155.4278 H   0  0  0  0  0  0  0  0  0  0  0  0  # atno 8008 bound_to 7997
  156.2199  140.1804  156.7546 H   0  0  0  0  0  0  0  0  0  0  0  0  # atno 8009 bound_to 7997
  154.5809  140.0654  156.9087 H   0  0  0  0  0  0  0  0  0  0  0  0  # atno 8010 bound_to 7997
  139.8300  143.7460  152.2666 H   0  0  0  0  0  0  0  0  0  0  0  0  # atno 10167 bound_to 10162
  157.0224  131.0236  151.2770 H   0  0  0  0  0  0  0  0  0  0  0  0  # atno 10718 bound_to 10713
  153.3336  135.4026  155.1515 H   0  0  0  0  0  0  0  0  0  0  0  0  # atno 10763 bound_to 10752
  154.8628  135.3616  154.5438 H   0  0  0  0  0  0  0  0  0  0  0  0  # atno 10764 bound_to 10752
  153.5878  135.7075  153.5495 H   0  0  0  0  0  0  0  0  0  0  0  0  # atno 10765 bound_to 10752
  140.4813  134.6073  157.4920 H   0  0  0  0  0  0  0  0  0  0  0  0  # atno 11005 bound_to 11000
  146.3474  140.1801  142.8589 LP  0  0  0  0  0  0  0  0  0  0  0  0  # atno 17320 bound_to 7965
  145.0272  140.8842  143.5131 LP  0  0  0  0  0  0  0  0  0  0  0  0  # atno 17321 bound_to 7965
  139.7665  144.7490  151.0287 LP  0  0  0  0  0  0  0  0  0  0  0  0  # atno 17342 bound_to 10162
  140.7807  143.4693  151.0169 LP  0  0  0  0  0  0  0  0  0  0  0  0  # atno 17343 bound_to 10162
  157.5239  130.8015  149.7840 LP  0  0  0  0  0  0  0  0  0  0  0  0  # atno 17370 bound_to 10713
  156.0097  130.3839  150.2306 LP  0  0  0  0  0  0  0  0  0  0  0  0  # atno 17371 bound_to 10713
  139.9825  134.7114  155.9834 LP  0  0  0  0  0  0  0  0  0  0  0  0  # atno 17394 bound_to 11000
  141.1530  133.6546  156.4072 LP  0  0  0  0  0  0  0  0  0  0  0  0  # atno 17395 bound_to 11000

$$$$
