AV-unprocessed.smi:2967|AV-procd|sdf|11326|dock2
  -GOLD-   2272016233D 1   1.00000     0.00000
 Structure written by MMmdl.
 38 39  0  0  0  0  0  0  0  0  1 V2000
  152.5187  139.8726  156.9772 O   0  0  0  0  0  0  0  0  0  0  0  0
  151.5086  140.4739  156.6082 C   0  0  0  0  0  0  0  0  0  0  0  0
  150.5273  139.8331  155.6158 C   0  0  0  0  0  0  0  0  0  0  0  0
  149.2259  140.5155  155.5615 N   0  0  0  0  0  0  0  0  0  0  0  0
  148.7905  141.0979  154.3796 C   0  0  0  0  0  0  0  0  0  0  0  0
  147.6083  141.7470  154.2593 C   0  0  0  0  0  0  0  0  0  0  0  0
  146.7117  141.8668  155.4040 C   0  0  0  0  0  0  0  0  0  0  0  0
  145.6203  142.4315  155.3937 O   0  0  0  0  0  0  0  0  0  0  0  0
  147.1867  141.2718  156.5758 N   0  0  0  0  0  0  0  0  0  0  0  0
  148.4050  140.6032  156.7072 C   0  0  0  0  0  0  0  0  0  0  0  0
  148.7303  140.1177  157.7902 O   0  0  0  0  0  0  0  0  0  0  0  0
  151.1834  141.7015  157.0424 N   0  0  0  0  0  0  0  0  0  0  0  0
  151.9590  142.5063  157.9835 C   0  0  0  0  0  0  0  0  0  0  0  0
  151.8386  141.8784  159.3878 C   0  0  0  0  0  0  0  0  0  0  0  0
  152.8693  142.4275  160.3889 C   0  0  0  0  0  0  0  0  0  0  0  0
  152.4525  143.7028  161.1426 C   0  0  0  0  0  0  0  0  0  0  0  0
  151.6996  144.7684  160.3272 C   0  0  0  0  0  0  0  0  0  0  0  0
  152.1751  144.9422  158.8761 C   0  0  0  0  0  0  0  0  0  0  0  0
  151.4841  143.9718  157.9026 C   0  0  0  0  0  0  0  0  0  0  0  0
  146.6013  141.3328  157.3962 H   0  0  0  0  0  0  0  0  0  0  0  0
  150.9939  139.8326  154.6297 H   0  0  0  0  0  0  0  0  0  0  0  0
  150.3886  138.7799  155.8689 H   0  0  0  0  0  0  0  0  0  0  0  0
  149.4243  141.0377  153.5061 H   0  0  0  0  0  0  0  0  0  0  0  0
  147.3249  142.1808  153.3114 H   0  0  0  0  0  0  0  0  0  0  0  0
  150.3333  142.1155  156.6881 H   0  0  0  0  0  0  0  0  0  0  0  0
  153.0093  142.4648  157.6884 H   0  0  0  0  0  0  0  0  0  0  0  0
  150.8256  141.9775  159.7797 H   0  0  0  0  0  0  0  0  0  0  0  0
  152.0169  140.8059  159.2944 H   0  0  0  0  0  0  0  0  0  0  0  0
  153.0826  141.6583  161.1319 H   0  0  0  0  0  0  0  0  0  0  0  0
  153.8174  142.5977  159.8771 H   0  0  0  0  0  0  0  0  0  0  0  0
  151.8322  143.4279  161.9966 H   0  0  0  0  0  0  0  0  0  0  0  0
  153.3515  144.1505  161.5681 H   0  0  0  0  0  0  0  0  0  0  0  0
  150.6316  144.5474  160.3349 H   0  0  0  0  0  0  0  0  0  0  0  0
  151.7971  145.7208  160.8497 H   0  0  0  0  0  0  0  0  0  0  0  0
  151.9252  145.9562  158.5618 H   0  0  0  0  0  0  0  0  0  0  0  0
  153.2608  144.8684  158.8045 H   0  0  0  0  0  0  0  0  0  0  0  0
  151.6579  144.3335  156.8882 H   0  0  0  0  0  0  0  0  0  0  0  0
  150.4040  144.0203  158.0484 H   0  0  0  0  0  0  0  0  0  0  0  0
  1  2  2  0  0  0  0
  2  3  1  0  0  0  0
  2 12  1  0  0  0  0
  3  4  1  0  0  0  0
  3 21  1  0  0  0  0
  3 22  1  0  0  0  0
  4 10  1  0  0  0  0
  4  5  1  0  0  0  0
  5  6  2  0  0  0  0
  5 23  1  0  0  0  0
  6  7  1  0  0  0  0
  6 24  1  0  0  0  0
  7  8  2  0  0  0  0
  7  9  1  0  0  0  0
  9 20  1  0  0  0  0
  9 10  1  0  0  0  0
 10 11  2  0  0  0  0
 12 13  1  0  0  0  0
 12 25  1  0  0  0  0
 13 19  1  0  0  0  0
 13 14  1  0  0  0  0
 13 26  1  0  0  0  0
 14 15  1  0  0  0  0
 14 27  1  0  0  0  0
 14 28  1  0  0  0  0
 15 16  1  0  0  0  0
 15 29  1  0  0  0  0
 15 30  1  0  0  0  0
 16 17  1  0  0  0  0
 16 31  1  0  0  0  0
 16 32  1  0  0  0  0
 17 18  1  0  0  0  0
 17 33  1  0  0  0  0
 17 34  1  0  0  0  0
 18 19  1  0  0  0  0
 18 35  1  0  0  0  0
 18 36  1  0  0  0  0
 19 37  1  0  0  0  0
 19 38  1  0  0  0  0
M  END
> <s_m_source_file>
AV-unprocessed.smi

> <i_m_source_file_index>
2967

> <i_lp_mmshare_version>
43012

> <i_f3d_flags>
0

> <s_epik_input>
W0NIMl0xW0NIMl1bQ0gyXVtDSDJdW0NIMl1bQ0gyXVtDSF0xW05IXUMoPU8pW0NIMl1uMltjSF1bY0hdYyg9TylbbkhdYzI9Tw==

> <s_epik_cmdline>
J2VwaWtfcHl0aG9uJywgJy1waCcsICc3LjAnLCAnLXRuJywgJzgnLCAnLW1hJywgJzIwMCcsICctbWV0YWxfYmluZGluZycsICctaW1hZScsICc8aW5maWxlLm1hZT4nLCAnLW9tYWUnLCAnPG91dGZpbGUubWFlPic=

> <r_lp_tautomer_probability>
0.999537

> <r_epik_Ionization_Penalty>
0.00321433

> <r_epik_Ionization_Penalty_Charging>
0.00321431

> <r_epik_Ionization_Penalty_Neutral>
2.02148e-08

> <r_epik_State_Penalty>
0.00226744

> <r_epik_Charging_Adjusted_Penalty>
0.00548175

> <i_epik_Tot_Q>
0

> <i_epik_Tot_abs_Q>
0

> <r_epik_Metal_State_Penalty>
0.364272

> <b_epik_Metal_Only>
0

> <s_lp_Force_Field>
OPLS_2005

> <r_lp_Energy>
14.3008

> <b_lp_Chiralities_Consistent>
1

> <s_lp_Variant>
AV-unprocessed.smi:2967-1

> <Gold.Version>
5.8.1

> <Gold.Id.Protein>
6NUR|6NUR_protein|mol2

> <Gold.PLP.Fitness>
46.4460

> <Gold.PLP.PLP>
-41.1443

> <Gold.PLP.part.hbond>
-1.0000

> <Gold.PLP.part.metal>
0.0000

> <Gold.PLP.part.buried>
-4.7465

> <Gold.PLP.part.nonpolar>
-35.6885

> <Gold.PLP.part.repulsive>
0.2717

> <Gold.PLP.ligand.clash>
0.0000

> <Gold.PLP.ligand.torsion>
0.3576

> <Gold.PLP.Chemscore.Hbond>
1.0000

> <Gold.PLP.Chemscore.CHOScore>
1.0000

> <Gold.PLP.Chemscore.Metal>
0.0000

> <Gold.Chemscore.Hbonds>
donor molecule, donor type, donor heavy atom, donor atom, acceptor molecule, acceptor atom, score
      P1  H  7997  8010       L1     1  1.00
      L1  C     5    23       P1  7957  0.95

> <Gold.PLP.Chemscore.Internal.Correction>
0.0169

> <Gold.Rescore>
     Score         DG    S(hbond)    S(metal)    S(lipo)     H(rot)  DE(clash)    DE(int)     intcor
     15.91     -16.55       1.00        0.00     103.08       1.69       0.26       0.37       ----

> <Gold.Chemscore.Fitness>
15.9129

> <Gold.Chemscore.DG>
-16.5452

> <Gold.Chemscore.ZeroCoef>
-5.4800

> <Gold.Chemscore.Hbond>
0.9955

> <Gold.Chemscore.Metal>
0.0000

> <Gold.Chemscore.Lipo>
103.0773

> <Gold.Chemscore.Internal_Hbond>
0.0000

> <Gold.Chemscore.DEClash>
0.2604

> <Gold.Chemscore.DEInternal>
0.3719

> <Gold.Chemscore.Rot>
1.6874

> <Gold.Chemscore.Internal.Correction>
   9.000000E+99

> <Gold.Chemscore.Hbonds>
donor molecule, donor type, donor heavy atom, donor atom, acceptor molecule, acceptor atom, score
      P1  H  7997  8010       L1     1  0.95

> <Gold.Chemscore.Hbond.Weighted>
-3.3249

> <Gold.Chemscore.Metal.Weighted>
-0.0000

> <Gold.Chemscore.Lipo.Weighted>
-12.0600

> <Gold.Chemscore.Internal_Hbond.Weighted>
0.0000

> <Gold.Chemscore.DEClash.Weighted>
0.2604

> <Gold.Chemscore.DEInternal.Weighted>
0.3719

> <Gold.Chemscore.Rot.Weighted>
4.3198

> <Gold.Chemscore.Internal.Correction.Weighted>
   9.000000E+99

> <Gold.Protein.RotatedTorsions>
[ 6907 6896 6895 6894 ] final   12.11 input  -60.11 | X-H torsion
[ 7974 7965 7964 7962 ] final   58.82 input  175.53 | X-H torsion
[ 8008 7997 7996 7995 ] final   78.63 input   59.86 | X-H torsion
[ 10167 10162 10161 10158 ] final  -90.55 input  -65.29 | X-H torsion
[ 10718 10713 10712 10709 ] final -173.01 input   66.30 | X-H torsion
[ 10763 10752 10751 10750 ] final  -63.12 input  -60.55 | X-H torsion
[ 11005 11000 10999 10996 ] final -102.44 input  -57.11 | X-H torsion

> <Gold.Protein.ActiveResidues>
 VAL166  LYS551  ARG553  GLY616  TRP617  ASP618  TYR619  PRO620  LYS621  CYS622 
 ASP623  PHE694  ASN695  SER759  ASP760  ASP761  ALA762  ILE779  LEU786  VAL792 
 PHE793  MET794  SER795  GLU796  ALA797  LYS798  CYS799  TRP800  GLU811  SER814 

> <Gold.Protein.RotatedAtoms>
  151.7651  135.0800  160.0351 H   0  0  0  0  0  0  0  0  0  0  0  0  # atno 6907 bound_to 6896
  152.3326  133.5972  159.5829 H   0  0  0  0  0  0  0  0  0  0  0  0  # atno 6908 bound_to 6896
  150.7432  133.9760  159.3603 H   0  0  0  0  0  0  0  0  0  0  0  0  # atno 6909 bound_to 6896
  145.9139  139.3676  143.0519 H   0  0  0  0  0  0  0  0  0  0  0  0  # atno 7974 bound_to 7965
  155.8584  140.3455  155.5740 H   0  0  0  0  0  0  0  0  0  0  0  0  # atno 8008 bound_to 7997
  155.7961  140.0878  157.2002 H   0  0  0  0  0  0  0  0  0  0  0  0  # atno 8009 bound_to 7997
  154.4010  140.1474  156.3206 H   0  0  0  0  0  0  0  0  0  0  0  0  # atno 8010 bound_to 7997
  140.3537  143.2877  151.9695 H   0  0  0  0  0  0  0  0  0  0  0  0  # atno 10167 bound_to 10162
  156.7640  130.9424  151.3118 H   0  0  0  0  0  0  0  0  0  0  0  0  # atno 10718 bound_to 10713
  154.3102  135.6217  153.5462 H   0  0  0  0  0  0  0  0  0  0  0  0  # atno 10763 bound_to 10752
  152.9830  135.5699  154.5186 H   0  0  0  0  0  0  0  0  0  0  0  0  # atno 10764 bound_to 10752
  154.4834  135.2864  155.1529 H   0  0  0  0  0  0  0  0  0  0  0  0  # atno 10765 bound_to 10752
  141.1189  133.8558  157.1360 H   0  0  0  0  0  0  0  0  0  0  0  0  # atno 11005 bound_to 11000
  145.8636  140.9461  143.0687 LP  0  0  0  0  0  0  0  0  0  0  0  0  # atno 17320 bound_to 7965
  144.6746  140.0563  143.7477 LP  0  0  0  0  0  0  0  0  0  0  0  0  # atno 17321 bound_to 7965
  139.4823  144.6053  151.7532 LP  0  0  0  0  0  0  0  0  0  0  0  0  # atno 17342 bound_to 10162
  140.5194  144.0903  150.6018 LP  0  0  0  0  0  0  0  0  0  0  0  0  # atno 17343 bound_to 10162
  157.6721  130.9061  150.0065 LP  0  0  0  0  0  0  0  0  0  0  0  0  # atno 17370 bound_to 10713
  156.1320  130.3643  149.9716 LP  0  0  0  0  0  0  0  0  0  0  0  0  # atno 17371 bound_to 10713
  140.0131  134.9979  157.0437 LP  0  0  0  0  0  0  0  0  0  0  0  0  # atno 17394 bound_to 11000
  140.4565  134.1528  155.7187 LP  0  0  0  0  0  0  0  0  0  0  0  0  # atno 17395 bound_to 11000

$$$$
