AV-unprocessed.smi:3227|AV-procd|sdf|12318|dock4
  -GOLD-   2272018163D 1   1.00000     0.00000
 Structure written by MMmdl.
 38 39  0  0  0  0  0  0  0  0  2 V2000
  146.0827  142.7696  155.9579 C   0  0  0  0  0  0  0  0  0  0  0  0
  146.5222  142.6351  154.5739 N   0  0  0  0  0  0  0  0  0  0  0  0
  145.7783  143.3745  153.5612 C   0  0  0  0  0  0  0  0  0  0  0  0
  147.0979  141.3982  154.2038 C   0  0  0  0  0  0  0  0  0  0  0  0
  146.3510  140.5504  153.4524 N   0  3  0  0  0  0  0  0  0  0  0  0
  146.7716  139.3365  153.0401 C   0  0  0  0  0  0  0  0  0  0  0  0
  148.0606  138.8926  153.3818 C   0  0  0  0  0  0  0  0  0  0  0  0
  148.8886  139.7305  154.1527 C   0  0  0  0  0  0  0  0  0  0  0  0
  148.4108  140.9947  154.5831 C   0  0  0  0  0  0  0  0  0  0  0  0
  149.2402  141.8924  155.3116 N   0  0  0  0  0  0  0  0  0  0  0  0
  150.5078  141.7083  155.7233 C   0  0  0  0  0  0  0  0  0  0  0  0
  151.1896  140.7171  155.4659 O   0  0  0  0  0  0  0  0  0  0  0  0
  151.0997  142.8337  156.5697 C   0  0  0  0  0  0  0  0  0  0  0  0
  151.4315  142.3165  157.8488 O   0  0  0  0  0  0  0  0  0  0  0  0
  150.9967  143.1475  158.9095 C   0  0  0  0  0  0  0  0  0  0  0  0
  152.1265  144.0818  159.2844 C   0  0  0  0  0  0  0  0  0  0  0  0
  152.2026  144.6696  160.6747 C   0  0  0  0  0  0  0  0  0  0  0  0
  151.8721  145.5560  159.5002 C   0  0  0  0  0  0  0  0  0  0  0  0
  146.7846  143.3897  156.5157 H   0  0  0  0  0  0  0  0  0  0  0  0
  146.0061  141.8013  156.4542 H   0  0  0  0  0  0  0  0  0  0  0  0
  145.1027  143.2454  156.0102 H   0  0  0  0  0  0  0  0  0  0  0  0
  146.3320  143.4182  152.6225 H   0  0  0  0  0  0  0  0  0  0  0  0
  145.6048  144.3990  153.8921 H   0  0  0  0  0  0  0  0  0  0  0  0
  144.8099  142.9088  153.3753 H   0  0  0  0  0  0  0  0  0  0  0  0
  146.0704  138.7647  152.4498 H   0  0  0  0  0  0  0  0  0  0  0  0
  148.4146  137.9276  153.0493 H   0  0  0  0  0  0  0  0  0  0  0  0
  149.8887  139.3969  154.3844 H   0  0  0  0  0  0  0  0  0  0  0  0
  148.7811  142.7172  155.6710 H   0  0  0  0  0  0  0  0  0  0  0  0
  151.9885  143.2384  156.0826 H   0  0  0  0  0  0  0  0  0  0  0  0
  150.3674  143.6376  156.6569 H   0  0  0  0  0  0  0  0  0  0  0  0
  150.1302  143.7369  158.6065 H   0  0  0  0  0  0  0  0  0  0  0  0
  150.7111  142.5453  159.7733 H   0  0  0  0  0  0  0  0  0  0  0  0
  153.0798  143.8220  158.8278 H   0  0  0  0  0  0  0  0  0  0  0  0
  151.3981  144.4345  161.3688 H   0  0  0  0  0  0  0  0  0  0  0  0
  153.1889  144.7728  161.1219 H   0  0  0  0  0  0  0  0  0  0  0  0
  152.6379  146.2518  159.1633 H   0  0  0  0  0  0  0  0  0  0  0  0
  150.8480  145.9136  159.4147 H   0  0  0  0  0  0  0  0  0  0  0  0
  145.4113  140.8453  153.1871 H   0  0  0  0  0  0  0  0  0  0  0  0
  1  2  1  0  0  0  0
  1 19  1  0  0  0  0
  1 20  1  0  0  0  0
  1 21  1  0  0  0  0
  2  3  1  0  0  0  0
  2  4  1  0  0  0  0
  3 22  1  0  0  0  0
  3 23  1  0  0  0  0
  3 24  1  0  0  0  0
  4  9  1  0  0  0  0
  4  5  2  0  0  0  0
  5  6  1  0  0  0  0
  5 38  1  0  0  0  0
  6  7  2  0  0  0  0
  6 25  1  0  0  0  0
  7  8  1  0  0  0  0
  7 26  1  0  0  0  0
  8  9  2  0  0  0  0
  8 27  1  0  0  0  0
  9 10  1  0  0  0  0
 10 11  1  0  0  0  0
 10 28  1  0  0  0  0
 11 12  2  0  0  0  0
 11 13  1  0  0  0  0
 13 14  1  0  0  0  0
 13 29  1  0  0  0  0
 13 30  1  0  0  0  0
 14 15  1  0  0  0  0
 15 16  1  0  0  0  0
 15 31  1  0  0  0  0
 15 32  1  0  0  0  0
 16 18  1  0  0  0  0
 16 17  1  0  0  0  0
 16 33  1  0  0  0  0
 17 18  1  0  0  0  0
 17 34  1  0  0  0  0
 17 35  1  0  0  0  0
 18 36  1  0  0  0  0
 18 37  1  0  0  0  0
M  CHG  1   5   1
M  END
> <s_m_source_file>
AV-unprocessed.smi

> <i_m_source_file_index>
3227

> <i_lp_mmshare_version>
43012

> <i_f3d_flags>
0

> <s_epik_input>
W0NIM11OKFtDSDNdKWMxbltjSF1bY0hdW2NIXWMxW05IXUMoPU8pW0NIMl1PW0NIMl1bQ0hdMltDSDJdW0NIMl0y

> <s_epik_cmdline>
J2VwaWtfcHl0aG9uJywgJy1waCcsICc3LjAnLCAnLXRuJywgJzgnLCAnLW1hJywgJzIwMCcsICctbWV0YWxfYmluZGluZycsICctaW1hZScsICc8aW5maWxlLm1hZT4nLCAnLW9tYWUnLCAnPG91dGZpbGUubWFlPic=

> <r_lp_tautomer_probability>
0.999994

> <r_epik_Ionization_Penalty>
0.625506

> <r_epik_Ionization_Penalty_Charging>
0.625505

> <r_epik_Ionization_Penalty_Neutral>
1.06265e-06

> <r_epik_State_Penalty>
0.641902

> <r_epik_Charging_Adjusted_Penalty>
1.26741

> <i_epik_Tot_Q>
1

> <i_epik_Tot_abs_Q>
1

> <r_epik_Metal_State_Penalty>
0.821585

> <b_epik_Metal_Only>
0

> <s_lp_Force_Field>
OPLS_2005

> <r_lp_Energy>
27.1321

> <b_lp_Chiralities_Consistent>
1

> <s_lp_Variant>
AV-unprocessed.smi:3227-2

> <Gold.Version>
5.8.1

> <Gold.Id.Protein>
6NUR|6NUR_protein|mol2

> <Gold.PLP.Fitness>
47.8494

> <Gold.PLP.PLP>
-38.9643

> <Gold.PLP.part.hbond>
-3.0000

> <Gold.PLP.part.metal>
0.0000

> <Gold.PLP.part.buried>
-0.5343

> <Gold.PLP.part.nonpolar>
-33.2709

> <Gold.PLP.part.repulsive>
0.2533

> <Gold.PLP.ligand.clash>
0.0000

> <Gold.PLP.ligand.torsion>
2.0616

> <Gold.PLP.Chemscore.Hbond>
3.6556

> <Gold.PLP.Chemscore.CHOScore>
0.0000

> <Gold.PLP.Chemscore.Metal>
0.0000

> <Gold.Chemscore.Hbonds>
donor molecule, donor type, donor heavy atom, donor atom, acceptor molecule, acceptor atom, score
      L1  H     5    38       P1 10175  2.00
      L1  H    10    28       P1  8028  0.85
      P1  H  7989  7998       L1    12  0.80

> <Gold.PLP.Chemscore.Internal.Correction>
2.0414

> <Gold.Rescore>
     Score         DG    S(hbond)    S(metal)    S(lipo)     H(rot)  DE(clash)    DE(int)     intcor
     14.72     -18.70       1.93        0.00      91.57       1.54       0.53       3.45       ----

> <Gold.Chemscore.Fitness>
14.7241

> <Gold.Chemscore.DG>
-18.6993

> <Gold.Chemscore.ZeroCoef>
-5.4800

> <Gold.Chemscore.Hbond>
1.9301

> <Gold.Chemscore.Metal>
0.0000

> <Gold.Chemscore.Lipo>
91.5724

> <Gold.Chemscore.Internal_Hbond>
0.0000

> <Gold.Chemscore.DEClash>
0.5276

> <Gold.Chemscore.DEInternal>
3.4476

> <Gold.Chemscore.Rot>
1.5396

> <Gold.Chemscore.Internal.Correction>
   9.000000E+99

> <Gold.Chemscore.Hbonds>
donor molecule, donor type, donor heavy atom, donor atom, acceptor molecule, acceptor atom, score
      L1  H     5    38       P1 10175  0.63
      L1  H    10    28       P1  8028  0.80
      P1  H  7989  7998       L1    12  0.38

> <Gold.Chemscore.Hbond.Weighted>
-6.4466

> <Gold.Chemscore.Metal.Weighted>
-0.0000

> <Gold.Chemscore.Lipo.Weighted>
-10.7140

> <Gold.Chemscore.Internal_Hbond.Weighted>
0.0000

> <Gold.Chemscore.DEClash.Weighted>
0.5276

> <Gold.Chemscore.DEInternal.Weighted>
3.4476

> <Gold.Chemscore.Rot.Weighted>
3.9413

> <Gold.Chemscore.Internal.Correction.Weighted>
   9.000000E+99

> <Gold.Protein.RotatedTorsions>
[ 6907 6896 6895 6894 ] final -176.18 input  -60.11 | X-H torsion
[ 7974 7965 7964 7962 ] final   57.28 input  175.53 | X-H torsion
[ 8008 7997 7996 7995 ] final   65.71 input   59.86 | X-H torsion
[ 10167 10162 10161 10158 ] final -160.78 input  -65.29 | X-H torsion
[ 10718 10713 10712 10709 ] final   98.88 input   66.30 | X-H torsion
[ 10763 10752 10751 10750 ] final  -87.33 input  -60.55 | X-H torsion
[ 11005 11000 10999 10996 ] final  -63.81 input  -57.11 | X-H torsion

> <Gold.Protein.ActiveResidues>
 VAL166  LYS551  ARG553  GLY616  TRP617  ASP618  TYR619  PRO620  LYS621  CYS622 
 ASP623  PHE694  ASN695  SER759  ASP760  ASP761  ALA762  ILE779  LEU786  VAL792 
 PHE793  MET794  SER795  GLU796  ALA797  LYS798  CYS799  TRP800  GLU811  SER814 

> <Gold.Protein.RotatedAtoms>
  151.6006  133.3357  159.3046 H   0  0  0  0  0  0  0  0  0  0  0  0  # atno 6907 bound_to 6896
  150.8210  134.7421  159.6783 H   0  0  0  0  0  0  0  0  0  0  0  0  # atno 6908 bound_to 6896
  152.4303  134.5795  159.9995 H   0  0  0  0  0  0  0  0  0  0  0  0  # atno 6909 bound_to 6896
  145.9308  139.3806  143.0422 H   0  0  0  0  0  0  0  0  0  0  0  0  # atno 7974 bound_to 7965
  155.6660  140.3497  155.4800 H   0  0  0  0  0  0  0  0  0  0  0  0  # atno 8008 bound_to 7997
  155.9728  140.1159  157.0820 H   0  0  0  0  0  0  0  0  0  0  0  0  # atno 8009 bound_to 7997
  154.4171  140.1153  156.5316 H   0  0  0  0  0  0  0  0  0  0  0  0  # atno 8010 bound_to 7997
  139.6513  144.0078  152.2164 H   0  0  0  0  0  0  0  0  0  0  0  0  # atno 10167 bound_to 10162
  157.6887  131.0653  150.4864 H   0  0  0  0  0  0  0  0  0  0  0  0  # atno 10718 bound_to 10713
  154.6324  135.5417  153.7695 H   0  0  0  0  0  0  0  0  0  0  0  0  # atno 10763 bound_to 10752
  153.0291  135.6439  154.1281 H   0  0  0  0  0  0  0  0  0  0  0  0  # atno 10764 bound_to 10752
  154.1211  135.2920  155.3188 H   0  0  0  0  0  0  0  0  0  0  0  0  # atno 10765 bound_to 10752
  141.1405  133.6657  156.5737 H   0  0  0  0  0  0  0  0  0  0  0  0  # atno 11005 bound_to 11000
  145.8428  140.9571  143.0790 LP  0  0  0  0  0  0  0  0  0  0  0  0  # atno 17320 bound_to 7965
  144.6764  140.0307  143.7482 LP  0  0  0  0  0  0  0  0  0  0  0  0  # atno 17321 bound_to 7965
  139.9793  144.6439  150.7915 LP  0  0  0  0  0  0  0  0  0  0  0  0  # atno 17342 bound_to 10162
  140.7539  143.3017  151.3064 LP  0  0  0  0  0  0  0  0  0  0  0  0  # atno 17343 bound_to 10162
  156.5193  130.4158  149.6259 LP  0  0  0  0  0  0  0  0  0  0  0  0  # atno 17370 bound_to 10713
  156.3169  130.7259  151.2163 LP  0  0  0  0  0  0  0  0  0  0  0  0  # atno 17371 bound_to 10713
  140.3892  134.7455  157.4711 LP  0  0  0  0  0  0  0  0  0  0  0  0  # atno 17394 bound_to 11000
  140.0579  134.6038  155.8784 LP  0  0  0  0  0  0  0  0  0  0  0  0  # atno 17395 bound_to 11000

$$$$
