#       Name:                AV-unprocessed.smi:757
#       Creating user name   scv26
#       Creation time:       Fri Mar 27 01:01:20 2020


#       File generated by GOLD software.
#

@<TRIPOS>MOLECULE
AV-unprocessed.smi:757
    50    51     1
SMALL
NO_CHARGES


@<TRIPOS>ATOM
      1 ****        -4.4941  -5.3438   1.4757 C.1            1 S1                 0.0000
      2 ****        -4.9672  -4.4671   0.7696 C.1            1 S1                 0.0000
      3 ****        -5.5204  -3.4014  -0.0849 C.3            1 S1                 0.0000
      4 ****        -5.1087  -1.9735   0.3333 C.3            1 S1                 0.0000
      5 ****        -3.6667  -1.7302   0.2442 N.3            1 S1                 0.0000
      6 ****        -3.3511  -0.4913   0.9593 C.3            1 S1                 0.0000
      7 ****        -1.8317  -0.2503   0.9786 C.3            1 S1                 0.0000
      8 ****        -1.2684  -0.1739  -0.4499 C.3            1 S1                 0.0000
      9 ****         0.1890  -0.0913  -0.4341 N.am           1 S1                 0.0000
     10 ****         0.8978   1.0346  -0.2708 C.2            1 S1                 0.0000
     11 ****         0.3854   2.1393  -0.0924 O.2            1 S1                 0.0000
     12 ****         2.2178   0.7851  -0.3101 N.am           1 S1                 0.0000
     13 ****         3.2993   1.7033  -0.2236 C.ar           1 S1                 0.0000
     14 ****         3.1900   3.0935  -0.4670 C.ar           1 S1                 0.0000
     15 ****         4.3438   3.8944  -0.3689 C.ar           1 S1                 0.0000
     16 ****         5.5709   3.2855  -0.0392 C.ar           1 S1                 0.0000
     17 ****         6.6968   4.0777   0.0539 O.3            1 S1                 0.0000
     18 ****         7.9335   3.4578   0.3886 C.3            1 S1                 0.0000
     19 ****         5.6855   1.9530   0.1839 N.ar           1 S1                 0.0000
     20 ****         4.5757   1.1911   0.0880 C.ar           1 S1                 0.0000
     21 ****        -1.7114  -1.4202  -1.2295 C.3            1 S1                 0.0000
     22 ****        -3.2362  -1.6103  -1.1528 C.3            1 S1                 0.0000
     23 ****        -4.0776  -6.1079   2.0930 H              1 S1                 0.0000
     24 ****        -5.2523  -3.6187  -1.1179 H              1 S1                 0.0000
     25 ****        -6.6056  -3.4895  -0.0305 H              1 S1                 0.0000
     26 ****        -5.6432  -1.2370  -0.2686 H              1 S1                 0.0000
     27 ****        -5.4347  -1.8189   1.3633 H              1 S1                 0.0000
     28 ****        -3.8637   0.3530   0.4952 H              1 S1                 0.0000
     29 ****        -3.7115  -0.5584   1.9866 H              1 S1                 0.0000
     30 ****        -1.6141   0.6715   1.5191 H              1 S1                 0.0000
     31 ****        -1.3446  -1.0554   1.5312 H              1 S1                 0.0000
     32 ****        -1.6776   0.7069  -0.9490 H              1 S1                 0.0000
     33 ****         0.6929  -0.9561  -0.5653 H              1 S1                 0.0000
     34 ****         2.4824  -0.1869  -0.3767 H              1 S1                 0.0000
     35 ****         2.2561   3.5591  -0.7400 H              1 S1                 0.0000
     36 ****         4.2887   4.9578  -0.5492 H              1 S1                 0.0000
     37 ****         8.7175   4.2140   0.4244 H              1 S1                 0.0000
     38 ****         8.2234   2.7163  -0.3571 H              1 S1                 0.0000
     39 ****         7.8887   2.9816   1.3692 H              1 S1                 0.0000
     40 ****         4.7132   0.1349   0.2690 H              1 S1                 0.0000
     41 ****        -1.4034  -1.3367  -2.2723 H              1 S1                 0.0000
     42 ****        -1.2171  -2.3077  -0.8307 H              1 S1                 0.0000
     43 ****        -3.4987  -2.5080  -1.7105 H              1 S1                 0.0000
     44 ****        -3.7470  -0.7748  -1.6341 H              1 S1                 0.0000
     45 ****        -3.1838  -2.5040   0.6542 LP             1 S1                 0.0000
     46 ****        -0.6101   2.2299  -0.0634 LP             1 S1                 0.0000
     47 ****         0.9645   2.9462   0.0235 LP             1 S1                 0.0000
     48 ****         6.5144   4.7701   0.7519 LP             1 S1                 0.0000
     49 ****         6.8195   4.5228  -0.8331 LP             1 S1                 0.0000
     50 ****         6.5693   1.5454   0.4135 LP             1 S1                 0.0000
@<TRIPOS>BOND
    1    1    2 3     
    2    1   23 1     
    3    2    3 1     
    4    3    4 1     
    5    3   24 1     
    6    3   25 1     
    7    4    5 1     
    8    4   26 1     
    9    4   27 1     
   10    5   22 1     
   11    5    6 1     
   12    6    7 1     
   13    6   28 1     
   14    6   29 1     
   15    7    8 1     
   16    7   30 1     
   17    7   31 1     
   18    8    9 1     
   19    8   21 1     
   20    8   32 1     
   21    9   10 am    
   22    9   33 1     
   23   10   11 2     
   24   10   12 am    
   25   12   13 1     
   26   12   34 1     
   27   13   20 ar    
   28   13   14 ar    
   29   14   15 ar    
   30   14   35 1     
   31   15   16 ar    
   32   15   36 1     
   33   16   17 1     
   34   16   19 ar    
   35   17   18 1     
   36   18   37 1     
   37   18   38 1     
   38   18   39 1     
   39   19   20 ar    
   40   20   40 1     
   41   21   22 1     
   42   21   41 1     
   43   21   42 1     
   44   22   43 1     
   45   22   44 1     
   46    5   45 1     
   47   11   46 1     
   48   11   47 1     
   49   17   48 1     
   50   17   49 1     
   51   19   50 1     
@<TRIPOS>SUBSTRUCTURE
      1 S1             1
@<TRIPOS>SET
LONE_PAIRS      STATIC     ATOMS    <user>   **** ""
6 45 46 47 48 49 50
DONOR_HYDROGENS      STATIC     ATOMS    <user>   **** ""
2 33 34
ATOM$BLUE        STATIC     ATOMS    COLORGROUP SYSTEM
6 45 46 47 48 49 50
ATOM$RED        STATIC     ATOMS    COLORGROUP SYSTEM
2 33 34
