AV-unprocessed.smi:2999|AV-procd|sdf|11418|dock10
  -GOLD-   2272016343D 1   1.00000     0.00000
 Structure written by MMmdl.
 37 39  0  0  0  0  0  0  0  0  1 V2000
  144.3799  136.5972  152.0296 O   0  0  0  0  0  0  0  0  0  0  0  0
  145.6073  136.5792  151.9312 C   0  0  0  0  0  0  0  0  0  0  0  0
  146.3932  137.6091  152.2763 N   0  0  0  0  0  0  0  0  0  0  0  0
  145.9321  138.8776  152.8331 C   0  0  0  0  0  0  0  0  0  0  0  0
  146.9297  139.4640  153.8474 C   0  0  1  0  0  0  0  0  0  0  0  0
  148.3725  138.9429  153.6676 C   0  0  0  0  0  0  0  0  0  0  0  0
  149.3028  139.5830  154.5899 N   0  0  0  0  0  0  0  0  0  0  0  0
  150.6581  139.0933  154.3873 C   0  0  0  0  0  0  0  0  0  0  0  0
  151.0864  137.8079  155.0467 C   0  0  0  0  0  0  0  0  0  0  0  0
  151.6391  139.1361  155.5302 C   0  0  0  0  0  0  0  0  0  0  0  0
  149.2336  141.0260  154.4009 C   0  0  0  0  0  0  0  0  0  0  0  0
  147.8013  141.5531  154.5848 C   0  0  0  0  0  0  0  0  0  0  0  0
  146.9297  140.8804  153.6817 O   0  0  0  0  0  0  0  0  0  0  0  0
  146.3354  135.5482  151.4683 N   0  0  0  0  0  0  0  0  0  0  0  0
  145.8810  134.2727  151.0424 C   0  0  0  0  0  0  0  0  0  0  0  0
  146.6855  133.2581  150.7044 N   0  0  0  0  0  0  0  0  0  0  0  0
  145.9658  132.1250  150.3169 C   0  0  0  0  0  0  0  0  0  0  0  0
  144.6044  132.2957  150.3663 C   0  0  0  0  0  0  0  0  0  0  0  0
  144.1699  133.8950  150.9072 S   0  0  0  0  0  0  0  0  0  0  0  0
  147.3902  137.5054  152.1559 H   0  0  0  0  0  0  0  0  0  0  0  0
  145.7173  139.6022  152.0459 H   0  0  0  0  0  0  0  0  0  0  0  0
  144.9826  138.6842  153.3327 H   0  0  0  0  0  0  0  0  0  0  0  0
  146.5825  139.2350  154.8568 H   0  0  0  0  0  0  0  0  0  0  0  0
  148.3959  137.8643  153.8252 H   0  0  0  0  0  0  0  0  0  0  0  0
  148.6940  139.1131  152.6387 H   0  0  0  0  0  0  0  0  0  0  0  0
  151.0301  139.3032  153.3855 H   0  0  0  0  0  0  0  0  0  0  0  0
  150.3677  137.3002  155.6874 H   0  0  0  0  0  0  0  0  0  0  0  0
  151.7569  137.1571  154.4894 H   0  0  0  0  0  0  0  0  0  0  0  0
  152.6754  139.3673  155.2927 H   0  0  0  0  0  0  0  0  0  0  0  0
  151.2856  139.5066  156.4907 H   0  0  0  0  0  0  0  0  0  0  0  0
  149.8975  141.5234  155.1091 H   0  0  0  0  0  0  0  0  0  0  0  0
  149.5887  141.2884  153.4031 H   0  0  0  0  0  0  0  0  0  0  0  0
  147.4615  141.4028  155.6107 H   0  0  0  0  0  0  0  0  0  0  0  0
  147.7625  142.6242  154.3871 H   0  0  0  0  0  0  0  0  0  0  0  0
  147.3349  135.6850  151.4340 H   0  0  0  0  0  0  0  0  0  0  0  0
  146.5041  131.2376  150.0188 H   0  0  0  0  0  0  0  0  0  0  0  0
  143.8341  131.5803  150.1185 H   0  0  0  0  0  0  0  0  0  0  0  0
  1  2  2  0  0  0  0
  2  3  1  0  0  0  0
  2 14  1  0  0  0  0
  3  4  1  0  0  0  0
  3 20  1  0  0  0  0
  4  5  1  0  0  0  0
  4 21  1  0  0  0  0
  4 22  1  0  0  0  0
  5 13  1  0  0  0  0
  5  6  1  0  0  0  0
  5 23  1  0  0  0  0
  6  7  1  0  0  0  0
  6 24  1  0  0  0  0
  6 25  1  0  0  0  0
  7  8  1  0  0  0  0
  7 11  1  0  0  0  0
  8 10  1  0  0  0  0
  8  9  1  0  0  0  0
  8 26  1  0  0  0  0
  9 10  1  0  0  0  0
  9 27  1  0  0  0  0
  9 28  1  0  0  0  0
 10 29  1  0  0  0  0
 10 30  1  0  0  0  0
 11 12  1  0  0  0  0
 11 31  1  0  0  0  0
 11 32  1  0  0  0  0
 12 13  1  0  0  0  0
 12 33  1  0  0  0  0
 12 34  1  0  0  0  0
 14 15  1  0  0  0  0
 14 35  1  0  0  0  0
 15 19  1  0  0  0  0
 15 16  2  0  0  0  0
 16 17  1  0  0  0  0
 17 18  2  0  0  0  0
 17 36  1  0  0  0  0
 18 19  1  0  0  0  0
 18 37  1  0  0  0  0
M  END
> <s_m_source_file>
AV-unprocessed.smi

> <i_m_source_file_index>
2999

> <i_lp_mmshare_version>
43012

> <i_f3d_flags>
0

> <s_epik_input>
czFbY0hdW2NIXW5jMVtOSF1DKD1PKVtOSF1bQ0gyXVtDQEBIXTJbQ0gyXU4oW0NIMl1bQ0gyXU8yKVtDSF0zW0NIMl1bQ0gyXTM=

> <s_epik_cmdline>
J2VwaWtfcHl0aG9uJywgJy1waCcsICc3LjAnLCAnLXRuJywgJzgnLCAnLW1hJywgJzIwMCcsICctbWV0YWxfYmluZGluZycsICctaW1hZScsICc8aW5maWxlLm1hZT4nLCAnLW9tYWUnLCAnPG91dGZpbGUubWFlPic=

> <r_lp_tautomer_probability>
0.999

> <r_epik_Ionization_Penalty>
0.0449352

> <r_epik_Ionization_Penalty_Charging>
0

> <r_epik_Ionization_Penalty_Neutral>
0.0449352

> <r_epik_State_Penalty>
0.0379856

> <r_epik_Charging_Adjusted_Penalty>
0.0379856

> <i_epik_Tot_Q>
0

> <i_epik_Tot_abs_Q>
0

> <r_epik_Metal_State_Penalty>
0.0775629

> <b_epik_Metal_Only>
0

> <s_lp_Force_Field>
OPLS_2005

> <r_lp_Energy>
30.84

> <b_lp_Chiralities_Consistent>
1

> <s_lp_Variant>
AV-unprocessed.smi:2999-2

> <Gold.Version>
5.8.1

> <Gold.Id.Protein>
6NUR|6NUR_protein|mol2

> <Gold.PLP.Fitness>
38.2068

> <Gold.PLP.PLP>
-30.9447

> <Gold.PLP.part.hbond>
-2.0000

> <Gold.PLP.part.metal>
0.0000

> <Gold.PLP.part.buried>
-1.6033

> <Gold.PLP.part.nonpolar>
-29.1505

> <Gold.PLP.part.repulsive>
1.5788

> <Gold.PLP.ligand.clash>
0.0000

> <Gold.PLP.ligand.torsion>
1.2453

> <Gold.PLP.Chemscore.Hbond>
1.9600

> <Gold.PLP.Chemscore.CHOScore>
0.9279

> <Gold.PLP.Chemscore.Metal>
0.0000

> <Gold.Chemscore.Hbonds>
donor molecule, donor type, donor heavy atom, donor atom, acceptor molecule, acceptor atom, score
      L1  H     3    20       P1  7948  0.94
      L1  H    14    35       P1  7948  1.00
      L1  C    17    36       P1 10747  0.93

> <Gold.PLP.Chemscore.Internal.Correction>
1.0890

> <Gold.Rescore>
     Score         DG    S(hbond)    S(metal)    S(lipo)     H(rot)  DE(clash)    DE(int)     intcor
     13.98     -17.02       1.93        0.00      77.28       1.55       0.59       2.45       ----

> <Gold.Chemscore.Fitness>
13.9840

> <Gold.Chemscore.DG>
-17.0243

> <Gold.Chemscore.ZeroCoef>
-5.4800

> <Gold.Chemscore.Hbond>
1.9343

> <Gold.Chemscore.Metal>
0.0000

> <Gold.Chemscore.Lipo>
77.2831

> <Gold.Chemscore.Internal_Hbond>
0.0000

> <Gold.Chemscore.DEClash>
0.5948

> <Gold.Chemscore.DEInternal>
2.4455

> <Gold.Chemscore.Rot>
1.5463

> <Gold.Chemscore.Internal.Correction>
   9.000000E+99

> <Gold.Chemscore.Hbonds>
donor molecule, donor type, donor heavy atom, donor atom, acceptor molecule, acceptor atom, score
      L1  H     3    20       P1  7948  0.86
      L1  H    14    35       P1  7948  0.98

> <Gold.Chemscore.Hbond.Weighted>
-6.4606

> <Gold.Chemscore.Metal.Weighted>
-0.0000

> <Gold.Chemscore.Lipo.Weighted>
-9.0421

> <Gold.Chemscore.Internal_Hbond.Weighted>
0.0000

> <Gold.Chemscore.DEClash.Weighted>
0.5948

> <Gold.Chemscore.DEInternal.Weighted>
2.4455

> <Gold.Chemscore.Rot.Weighted>
3.9584

> <Gold.Chemscore.Internal.Correction.Weighted>
   9.000000E+99

> <Gold.Protein.RotatedTorsions>
[ 6907 6896 6895 6894 ] final   52.02 input  -60.11 | X-H torsion
[ 7974 7965 7964 7962 ] final   36.67 input  175.53 | X-H torsion
[ 8008 7997 7996 7995 ] final -124.10 input   59.86 | X-H torsion
[ 10167 10162 10161 10158 ] final   93.74 input  -65.29 | X-H torsion
[ 10718 10713 10712 10709 ] final   45.16 input   66.30 | X-H torsion
[ 10763 10752 10751 10750 ] final -168.15 input  -60.55 | X-H torsion
[ 11005 11000 10999 10996 ] final  163.46 input  -57.11 | X-H torsion

> <Gold.Protein.ActiveResidues>
 VAL166  LYS551  ARG553  GLY616  TRP617  ASP618  TYR619  PRO620  LYS621  CYS622 
 ASP623  PHE694  ASN695  SER759  ASP760  ASP761  ALA762  ILE779  LEU786  VAL792 
 PHE793  MET794  SER795  GLU796  ALA797  LYS798  CYS799  TRP800  GLU811  SER814 

> <Gold.Protein.RotatedAtoms>
  152.3189  134.7405  160.0318 H   0  0  0  0  0  0  0  0  0  0  0  0  # atno 6907 bound_to 6896
  151.7861  133.3349  159.3493 H   0  0  0  0  0  0  0  0  0  0  0  0  # atno 6908 bound_to 6896
  150.7359  134.5817  159.5986 H   0  0  0  0  0  0  0  0  0  0  0  0  # atno 6909 bound_to 6896
  146.1194  139.5989  142.9300 H   0  0  0  0  0  0  0  0  0  0  0  0  # atno 7974 bound_to 7965
  155.1913  140.0413  157.2901 H   0  0  0  0  0  0  0  0  0  0  0  0  # atno 8008 bound_to 7997
  154.6136  140.2483  155.7609 H   0  0  0  0  0  0  0  0  0  0  0  0  # atno 8009 bound_to 7997
  156.2394  140.2909  156.0411 H   0  0  0  0  0  0  0  0  0  0  0  0  # atno 8010 bound_to 7997
  139.8150  144.6756  150.9591 H   0  0  0  0  0  0  0  0  0  0  0  0  # atno 10167 bound_to 10162
  157.4346  130.8045  149.7636 H   0  0  0  0  0  0  0  0  0  0  0  0  # atno 10718 bound_to 10713
  154.6659  135.2932  154.9806 H   0  0  0  0  0  0  0  0  0  0  0  0  # atno 10763 bound_to 10752
  154.0850  135.6599  153.4847 H   0  0  0  0  0  0  0  0  0  0  0  0  # atno 10764 bound_to 10752
  153.0457  135.5206  154.7632 H   0  0  0  0  0  0  0  0  0  0  0  0  # atno 10765 bound_to 10752
  140.2360  134.8087  157.3364 H   0  0  0  0  0  0  0  0  0  0  0  0  # atno 11005 bound_to 11000
  145.5498  141.0414  143.2285 LP  0  0  0  0  0  0  0  0  0  0  0  0  # atno 17320 bound_to 7965
  144.7583  139.7019  143.7245 LP  0  0  0  0  0  0  0  0  0  0  0  0  # atno 17321 bound_to 7965
  140.7816  143.4147  151.0936 LP  0  0  0  0  0  0  0  0  0  0  0  0  # atno 17342 bound_to 10162
  139.7811  143.8354  152.3138 LP  0  0  0  0  0  0  0  0  0  0  0  0  # atno 17343 bound_to 10162
  155.9926  130.3930  150.2936 LP  0  0  0  0  0  0  0  0  0  0  0  0  # atno 17370 bound_to 10713
  157.1096  131.0218  151.3053 LP  0  0  0  0  0  0  0  0  0  0  0  0  # atno 17371 bound_to 10713
  140.1702  134.4618  155.7837 LP  0  0  0  0  0  0  0  0  0  0  0  0  # atno 17394 bound_to 11000
  141.2214  133.6938  156.7694 LP  0  0  0  0  0  0  0  0  0  0  0  0  # atno 17395 bound_to 11000

$$$$
