AV-unprocessed.smi:2098|AV-procd|sdf|8568|dock2
  -GOLD-   2272011293D 1   1.00000     0.00000
 Structure written by MMmdl.
 37 39  0  0  0  0  0  0  0  0  2 V2000
  145.2984  139.5650  154.4140 O   0  0  0  0  0  0  0  0  0  0  0  0
  146.1842  138.6059  153.8711 C   0  0  1  0  0  0  0  0  0  0  0  0
  145.3843  137.6491  152.9757 C   0  0  0  0  0  0  0  0  0  0  0  0
  146.0441  136.3902  152.9445 O   0  0  0  0  0  0  0  0  0  0  0  0
  145.5466  135.4134  152.1092 C   0  0  0  0  0  0  0  0  0  0  0  0
  146.0846  134.1170  152.2490 C   0  0  0  0  0  0  0  0  0  0  0  0
  145.6377  133.0591  151.4340 C   0  0  0  0  0  0  0  0  0  0  0  0
  144.6412  133.2886  150.4677 C   0  0  0  0  0  0  0  0  0  0  0  0
  144.2109  132.2731  149.6823 F   0  0  0  0  0  0  0  0  0  0  0  0
  144.0928  134.5759  150.3196 C   0  0  0  0  0  0  0  0  0  0  0  0
  144.5408  135.6344  151.1339 C   0  0  0  0  0  0  0  0  0  0  0  0
  147.3177  139.3199  153.1069 C   0  0  0  0  0  0  0  0  0  0  0  0
  147.9314  140.4053  153.8824 N   0  0  0  0  0  0  0  0  0  0  0  0
  147.4615  141.6482  154.1748 C   0  0  0  0  0  0  0  0  0  0  0  0
  148.4055  142.2777  154.9286 N   0  3  0  0  0  0  0  0  0  0  0  0
  149.4955  141.4249  155.1181 C   0  0  0  0  0  0  0  0  0  0  0  0
  150.6895  141.6099  155.8082 C   0  0  0  0  0  0  0  0  0  0  0  0
  151.5952  140.5284  155.8067 C   0  0  0  0  0  0  0  0  0  0  0  0
  151.2999  139.3231  155.1368 C   0  0  0  0  0  0  0  0  0  0  0  0
  150.0868  139.1469  154.4392 C   0  0  0  0  0  0  0  0  0  0  0  0
  149.1972  140.2204  154.4470 C   0  0  0  0  0  0  0  0  0  0  0  0
  144.8472  139.9938  153.7029 H   0  0  0  0  0  0  0  0  0  0  0  0
  146.6013  138.0403  154.7050 H   0  0  0  0  0  0  0  0  0  0  0  0
  144.3790  137.5213  153.3812 H   0  0  0  0  0  0  0  0  0  0  0  0
  145.2945  138.0642  151.9702 H   0  0  0  0  0  0  0  0  0  0  0  0
  146.8505  133.9321  152.9879 H   0  0  0  0  0  0  0  0  0  0  0  0
  146.0600  132.0718  151.5502 H   0  0  0  0  0  0  0  0  0  0  0  0
  143.3266  134.7535  149.5795 H   0  0  0  0  0  0  0  0  0  0  0  0
  144.0951  136.6068  150.9908 H   0  0  0  0  0  0  0  0  0  0  0  0
  148.1029  138.6183  152.8227 H   0  0  0  0  0  0  0  0  0  0  0  0
  146.9389  139.7520  152.1795 H   0  0  0  0  0  0  0  0  0  0  0  0
  146.5108  142.0596  153.8678 H   0  0  0  0  0  0  0  0  0  0  0  0
  150.9186  142.5319  156.3223 H   0  0  0  0  0  0  0  0  0  0  0  0
  152.5353  140.6252  156.3302 H   0  0  0  0  0  0  0  0  0  0  0  0
  152.0185  138.5166  155.1584 H   0  0  0  0  0  0  0  0  0  0  0  0
  149.8681  138.2197  153.9299 H   0  0  0  0  0  0  0  0  0  0  0  0
  148.3097  143.2193  155.2865 H   0  0  0  0  0  0  0  0  0  0  0  0
  1  2  1  0  0  0  0
  1 22  1  0  0  0  0
  2  3  1  0  0  0  0
  2 12  1  0  0  0  0
  2 23  1  0  0  0  0
  3  4  1  0  0  0  0
  3 24  1  0  0  0  0
  3 25  1  0  0  0  0
  4  5  1  0  0  0  0
  5 11  1  0  0  0  0
  5  6  2  0  0  0  0
  6  7  1  0  0  0  0
  6 26  1  0  0  0  0
  7  8  2  0  0  0  0
  7 27  1  0  0  0  0
  8  9  1  0  0  0  0
  8 10  1  0  0  0  0
 10 11  2  0  0  0  0
 10 28  1  0  0  0  0
 11 29  1  0  0  0  0
 12 13  1  0  0  0  0
 12 30  1  0  0  0  0
 12 31  1  0  0  0  0
 13 21  1  0  0  0  0
 13 14  1  0  0  0  0
 14 15  2  0  0  0  0
 14 32  1  0  0  0  0
 15 16  1  0  0  0  0
 15 37  1  0  0  0  0
 16 21  2  0  0  0  0
 16 17  1  0  0  0  0
 17 18  2  0  0  0  0
 17 33  1  0  0  0  0
 18 19  1  0  0  0  0
 18 34  1  0  0  0  0
 19 20  2  0  0  0  0
 19 35  1  0  0  0  0
 20 21  1  0  0  0  0
 20 36  1  0  0  0  0
M  CHG  1  15   1
M  END
> <s_m_source_file>
AV-unprocessed.smi

> <i_m_source_file_index>
2098

> <i_lp_mmshare_version>
43012

> <i_f3d_flags>
0

> <s_epik_input>
W2NIXTFbY0hdW2NIXVtjSF1jKGMxMiluKFtjSF1uMilbQ0gyXVtDQEhdKFtPSF0pW0NIMl1PYzNbY0hdW2NIXWMoRilbY0hdW2NIXTM=

> <s_epik_cmdline>
J2VwaWtfcHl0aG9uJywgJy1waCcsICc3LjAnLCAnLXRuJywgJzgnLCAnLW1hJywgJzIwMCcsICctbWV0YWxfYmluZGluZycsICctaW1hZScsICc8aW5maWxlLm1hZT4nLCAnLW9tYWUnLCAnPG91dGZpbGUubWFlPic=

> <r_lp_tautomer_probability>
1

> <r_epik_Ionization_Penalty>
1.3832

> <r_epik_Ionization_Penalty_Charging>
1.38319

> <r_epik_Ionization_Penalty_Neutral>
2.3993e-06

> <r_epik_State_Penalty>
1.46389

> <r_epik_Charging_Adjusted_Penalty>
2.84709

> <i_epik_Tot_Q>
1

> <i_epik_Tot_abs_Q>
1

> <r_epik_Metal_State_Penalty>
5.50438

> <b_epik_Metal_Only>
0

> <s_lp_Force_Field>
OPLS_2005

> <r_lp_Energy>
18.1934

> <b_lp_Chiralities_Consistent>
1

> <s_lp_Variant>
AV-unprocessed.smi:2098-4

> <Gold.Version>
5.8.1

> <Gold.Id.Protein>
6NUR|6NUR_protein|mol2

> <Gold.PLP.Fitness>
51.8684

> <Gold.PLP.PLP>
-44.1060

> <Gold.PLP.part.hbond>
-2.0000

> <Gold.PLP.part.metal>
0.0000

> <Gold.PLP.part.buried>
-3.2481

> <Gold.PLP.part.nonpolar>
-39.5552

> <Gold.PLP.part.repulsive>
1.0974

> <Gold.PLP.ligand.clash>
0.0000

> <Gold.PLP.ligand.torsion>
0.6397

> <Gold.PLP.Chemscore.Hbond>
3.0000

> <Gold.PLP.Chemscore.CHOScore>
0.0000

> <Gold.PLP.Chemscore.Metal>
0.0000

> <Gold.Chemscore.Hbonds>
donor molecule, donor type, donor heavy atom, donor atom, acceptor molecule, acceptor atom, score
      L1  H     1    22       P1 10175  1.00
      L1  H    15    37       P1  8028  2.00

> <Gold.PLP.Chemscore.Internal.Correction>
0.0418

> <Gold.Rescore>
     Score         DG    S(hbond)    S(metal)    S(lipo)     H(rot)  DE(clash)    DE(int)     intcor
     15.05     -16.49       1.99        0.00      91.11       2.46       0.09       1.34       ----

> <Gold.Chemscore.Fitness>
15.0520

> <Gold.Chemscore.DG>
-16.4864

> <Gold.Chemscore.ZeroCoef>
-5.4800

> <Gold.Chemscore.Hbond>
1.9880

> <Gold.Chemscore.Metal>
0.0000

> <Gold.Chemscore.Lipo>
91.1113

> <Gold.Chemscore.Internal_Hbond>
0.0000

> <Gold.Chemscore.DEClash>
0.0905

> <Gold.Chemscore.DEInternal>
1.3439

> <Gold.Chemscore.Rot>
2.4584

> <Gold.Chemscore.Internal.Correction>
   9.000000E+99

> <Gold.Chemscore.Hbonds>
donor molecule, donor type, donor heavy atom, donor atom, acceptor molecule, acceptor atom, score
      L1  H     1    22       P1 10175  1.00
      L1  H    15    37       P1  8028  0.95

> <Gold.Chemscore.Hbond.Weighted>
-6.6400

> <Gold.Chemscore.Metal.Weighted>
-0.0000

> <Gold.Chemscore.Lipo.Weighted>
-10.6600

> <Gold.Chemscore.Internal_Hbond.Weighted>
0.0000

> <Gold.Chemscore.DEClash.Weighted>
0.0905

> <Gold.Chemscore.DEInternal.Weighted>
1.3439

> <Gold.Chemscore.Rot.Weighted>
6.2936

> <Gold.Chemscore.Internal.Correction.Weighted>
   9.000000E+99

> <Gold.Protein.RotatedTorsions>
[ 6907 6896 6895 6894 ] final  -26.72 input  -60.11 | X-H torsion
[ 7974 7965 7964 7962 ] final -158.81 input  175.53 | X-H torsion
[ 8008 7997 7996 7995 ] final -104.04 input   59.86 | X-H torsion
[ 10167 10162 10161 10158 ] final -171.27 input  -65.29 | X-H torsion
[ 10718 10713 10712 10709 ] final  131.78 input   66.30 | X-H torsion
[ 10763 10752 10751 10750 ] final  142.26 input  -60.55 | X-H torsion
[ 11005 11000 10999 10996 ] final  -36.35 input  -57.11 | X-H torsion

> <Gold.Protein.ActiveResidues>
 VAL166  LYS551  ARG553  GLY616  TRP617  ASP618  TYR619  PRO620  LYS621  CYS622 
 ASP623  PHE694  ASN695  SER759  ASP760  ASP761  ALA762  ILE779  LEU786  VAL792 
 PHE793  MET794  SER795  GLU796  ALA797  LYS798  CYS799  TRP800  GLU811  SER814 

> <Gold.Protein.RotatedAtoms>
  151.1570  135.0255  159.8693 H   0  0  0  0  0  0  0  0  0  0  0  0  # atno 6907 bound_to 6896
  152.5452  134.1322  159.8454 H   0  0  0  0  0  0  0  0  0  0  0  0  # atno 6908 bound_to 6896
  151.1414  133.4923  159.2629 H   0  0  0  0  0  0  0  0  0  0  0  0  # atno 6909 bound_to 6896
  144.7490  140.3775  143.6062 H   0  0  0  0  0  0  0  0  0  0  0  0  # atno 7974 bound_to 7965
  154.8796  140.0420  157.1774 H   0  0  0  0  0  0  0  0  0  0  0  0  # atno 8008 bound_to 7997
  154.8653  140.2950  155.5493 H   0  0  0  0  0  0  0  0  0  0  0  0  # atno 8009 bound_to 7997
  156.2999  140.2439  156.3634 H   0  0  0  0  0  0  0  0  0  0  0  0  # atno 8010 bound_to 7997
  139.5812  144.1419  152.1517 H   0  0  0  0  0  0  0  0  0  0  0  0  # atno 10167 bound_to 10162
  157.4934  131.1091  150.9525 H   0  0  0  0  0  0  0  0  0  0  0  0  # atno 10718 bound_to 10713
  153.9528  135.2968  155.3437 H   0  0  0  0  0  0  0  0  0  0  0  0  # atno 10763 bound_to 10752
  154.7417  135.5022  153.9137 H   0  0  0  0  0  0  0  0  0  0  0  0  # atno 10764 bound_to 10752
  153.0985  135.6728  153.9826 H   0  0  0  0  0  0  0  0  0  0  0  0  # atno 10765 bound_to 10752
  140.9868  133.7026  156.1779 H   0  0  0  0  0  0  0  0  0  0  0  0  # atno 11005 bound_to 11000
  145.7013  139.1662  143.2591 LP  0  0  0  0  0  0  0  0  0  0  0  0  # atno 17320 bound_to 7965
  146.1414  140.7053  142.9365 LP  0  0  0  0  0  0  0  0  0  0  0  0  # atno 17321 bound_to 7965
  140.0973  144.5570  150.7013 LP  0  0  0  0  0  0  0  0  0  0  0  0  # atno 17342 bound_to 10162
  140.7090  143.2490  151.4639 LP  0  0  0  0  0  0  0  0  0  0  0  0  # atno 17343 bound_to 10162
  157.0219  130.5677  149.5332 LP  0  0  0  0  0  0  0  0  0  0  0  0  # atno 17370 bound_to 10713
  156.0186  130.5281  150.8210 LP  0  0  0  0  0  0  0  0  0  0  0  0  # atno 17371 bound_to 10713
  140.7102  134.4470  157.5582 LP  0  0  0  0  0  0  0  0  0  0  0  0  # atno 17394 bound_to 11000
  139.8974  134.8637  156.2046 LP  0  0  0  0  0  0  0  0  0  0  0  0  # atno 17395 bound_to 11000

$$$$
