AV-unprocessed.smi:11|AV-procd|sdf|59|dock3
  -GOLD-   2262015173D 1   1.00000     0.00000
 Structure written by MMmdl.
 33 35  0  0  0  0  0  0  0  0  1 V2000
  148.6475  141.2782  157.7230 C   0  0  0  0  0  0  0  0  0  0  0  0
  149.3582  142.5971  158.0715 C   0  0  0  0  0  0  0  0  0  0  0  0
  150.8010  142.7352  157.5243 C   0  0  1  0  0  0  0  0  0  0  0  0
  151.1227  144.1098  157.4362 O   0  0  0  0  0  0  0  0  0  0  0  0
  151.8173  142.0240  158.4272 C   0  0  0  0  0  0  0  0  0  0  0  0
  151.8115  140.5922  157.8976 C   0  0  0  0  0  0  0  0  0  0  0  0
  151.5766  140.7228  156.4656 N   0  0  0  0  0  0  0  0  0  0  0  0
  151.2122  139.5980  155.6949 C   0  0  0  0  0  0  0  0  0  0  0  0
  150.4973  139.8015  154.5585 N   0  0  0  0  0  0  0  0  0  0  0  0
  150.1565  138.7152  153.8201 C   0  0  0  0  0  0  0  0  0  0  0  0
  150.4360  137.4135  154.0744 N   0  0  0  0  0  0  0  0  0  0  0  0
  151.1404  137.1818  155.2214 C   0  0  0  0  0  0  0  0  0  0  0  0
  151.5291  136.0108  155.7150 N   0  0  0  0  0  0  0  0  0  0  0  0
  152.1690  136.2807  156.8650 C   0  0  0  0  0  0  0  0  0  0  0  0
  152.2208  137.6938  157.1730 C   0  0  0  0  0  0  0  0  0  0  0  0
  151.5390  138.2589  156.0506 C   0  0  0  0  0  0  0  0  0  0  0  0
  151.0125  142.0341  156.1686 C   0  0  0  0  0  0  0  0  0  0  0  0
  147.6326  141.2765  158.1207 H   0  0  0  0  0  0  0  0  0  0  0  0
  149.1606  140.4137  158.1424 H   0  0  0  0  0  0  0  0  0  0  0  0
  148.5742  141.1353  156.6448 H   0  0  0  0  0  0  0  0  0  0  0  0
  148.7528  143.4209  157.6912 H   0  0  0  0  0  0  0  0  0  0  0  0
  149.3646  142.7104  159.1563 H   0  0  0  0  0  0  0  0  0  0  0  0
  150.4377  144.5473  156.9540 H   0  0  0  0  0  0  0  0  0  0  0  0
  152.8128  142.4492  158.2877 H   0  0  0  0  0  0  0  0  0  0  0  0
  151.5784  142.0852  159.4896 H   0  0  0  0  0  0  0  0  0  0  0  0
  152.7526  140.0815  158.1030 H   0  0  0  0  0  0  0  0  0  0  0  0
  151.0045  140.0248  158.3631 H   0  0  0  0  0  0  0  0  0  0  0  0
  149.5931  138.9126  152.9202 H   0  0  0  0  0  0  0  0  0  0  0  0
  152.5853  135.4880  157.4744 H   0  0  0  0  0  0  0  0  0  0  0  0
  152.6624  138.1799  158.0332 H   0  0  0  0  0  0  0  0  0  0  0  0
  150.0903  141.9634  155.5933 H   0  0  0  0  0  0  0  0  0  0  0  0
  151.7404  142.5795  155.5668 H   0  0  0  0  0  0  0  0  0  0  0  0
  150.1159  136.7013  153.4338 H   0  0  0  0  0  0  0  0  0  0  0  0
  1  2  1  0  0  0  0
  1 18  1  0  0  0  0
  1 19  1  0  0  0  0
  1 20  1  0  0  0  0
  2  3  1  0  0  0  0
  2 21  1  0  0  0  0
  2 22  1  0  0  0  0
  3 17  1  0  0  0  0
  3  4  1  0  0  0  0
  3  5  1  0  0  0  0
  4 23  1  0  0  0  0
  5  6  1  0  0  0  0
  5 24  1  0  0  0  0
  5 25  1  0  0  0  0
  6  7  1  0  0  0  0
  6 26  1  0  0  0  0
  6 27  1  0  0  0  0
  7  8  1  0  0  0  0
  7 17  1  0  0  0  0
  8 16  2  0  0  0  0
  8  9  1  0  0  0  0
  9 10  2  0  0  0  0
 10 11  1  0  0  0  0
 10 28  1  0  0  0  0
 11 12  1  0  0  0  0
 11 33  1  0  0  0  0
 12 16  1  0  0  0  0
 12 13  2  0  0  0  0
 13 14  1  0  0  0  0
 14 15  2  0  0  0  0
 14 29  1  0  0  0  0
 15 16  1  0  0  0  0
 15 30  1  0  0  0  0
 17 31  1  0  0  0  0
 17 32  1  0  0  0  0
M  END
> <s_m_source_file>
AV-unprocessed.smi

> <i_m_source_file_index>
11

> <i_lp_mmshare_version>
43012

> <i_f3d_flags>
0

> <s_epik_input>
W0NIM11bQ0gyXVtDQEBdMShbT0hdKVtDSDJdW0NIMl1OKFtDSDJdMSljKG5bY0hdbjIpYyhjMjMpW2NIXVtjSF1bbkhdMw==

> <s_epik_cmdline>
J2VwaWtfcHl0aG9uJywgJy1waCcsICc3LjAnLCAnLXRuJywgJzgnLCAnLW1hJywgJzIwMCcsICctbWV0YWxfYmluZGluZycsICctaW1hZScsICc8aW5maWxlLm1hZT4nLCAnLW9tYWUnLCAnPG91dGZpbGUubWFlPic=

> <r_lp_tautomer_probability>
1.75997e-05

> <r_epik_Ionization_Penalty>
5.31594

> <r_epik_Ionization_Penalty_Charging>
0

> <r_epik_Ionization_Penalty_Neutral>
5.31594

> <r_epik_State_Penalty>
7.79803

> <r_epik_Charging_Adjusted_Penalty>
7.79803

> <i_epik_Tot_Q>
0

> <i_epik_Tot_abs_Q>
0

> <r_epik_Metal_State_Penalty>
4.83511

> <b_epik_Metal_Only>
1

> <s_lp_Force_Field>
OPLS_2005

> <r_lp_Energy>
41.5281

> <b_lp_Chiralities_Consistent>
1

> <s_lp_Variant>
AV-unprocessed.smi:11-5

> <Gold.Version>
5.8.1

> <Gold.Id.Protein>
6NUR|6NUR_protein|mol2

> <Gold.PLP.Fitness>
40.0587

> <Gold.PLP.PLP>
-26.4700

> <Gold.PLP.part.hbond>
-4.7691

> <Gold.PLP.part.metal>
0.0000

> <Gold.PLP.part.buried>
-4.3497

> <Gold.PLP.part.nonpolar>
-17.4879

> <Gold.PLP.part.repulsive>
0.2020

> <Gold.PLP.ligand.clash>
0.0000

> <Gold.PLP.ligand.torsion>
0.5587

> <Gold.PLP.Chemscore.Hbond>
3.7424

> <Gold.PLP.Chemscore.CHOScore>
1.0553

> <Gold.PLP.Chemscore.Metal>
0.0000

> <Gold.Chemscore.Hbonds>
donor molecule, donor type, donor heavy atom, donor atom, acceptor molecule, acceptor atom, score
      L1  H     4    23       P1  8028  1.00
      L1  H    11    33       P1  7948  0.67
      P1  H  7989  7998       L1     9  1.00
      P1  H 10752 10763       L1    13  0.90
      L1  C    10    28       P1  7948  0.03
      L1  C    10    28       P1  7957  1.00

> <Gold.PLP.Chemscore.Internal.Correction>
0.3132

> <Gold.Rescore>
     Score         DG    S(hbond)    S(metal)    S(lipo)     H(rot)  DE(clash)    DE(int)     intcor
     11.64     -13.62       1.69        0.00      52.68       1.43       0.06       1.93       ----

> <Gold.Chemscore.Fitness>
11.6370

> <Gold.Chemscore.DG>
-13.6192

> <Gold.Chemscore.ZeroCoef>
-5.4800

> <Gold.Chemscore.Hbond>
1.6862

> <Gold.Chemscore.Metal>
0.0000

> <Gold.Chemscore.Lipo>
52.6819

> <Gold.Chemscore.Internal_Hbond>
0.0000

> <Gold.Chemscore.DEClash>
0.0553

> <Gold.Chemscore.DEInternal>
1.9269

> <Gold.Chemscore.Rot>
1.4283

> <Gold.Chemscore.Internal.Correction>
   9.000000E+99

> <Gold.Chemscore.Hbonds>
donor molecule, donor type, donor heavy atom, donor atom, acceptor molecule, acceptor atom, score
      L1  H     4    23       P1  8028  0.79
      L1  H    11    33       P1  7948  0.07
      P1  H  7989  7998       L1     9  0.27
      P1  H 10752 10763       L1    13  0.09

> <Gold.Chemscore.Hbond.Weighted>
-5.6320

> <Gold.Chemscore.Metal.Weighted>
-0.0000

> <Gold.Chemscore.Lipo.Weighted>
-6.1638

> <Gold.Chemscore.Internal_Hbond.Weighted>
0.0000

> <Gold.Chemscore.DEClash.Weighted>
0.0553

> <Gold.Chemscore.DEInternal.Weighted>
1.9269

> <Gold.Chemscore.Rot.Weighted>
3.6566

> <Gold.Chemscore.Internal.Correction.Weighted>
   9.000000E+99

> <Gold.Protein.RotatedTorsions>
[ 6907 6896 6895 6894 ] final -159.77 input  -60.11 | X-H torsion
[ 7974 7965 7964 7962 ] final    4.08 input  175.53 | X-H torsion
[ 8008 7997 7996 7995 ] final  -72.19 input   59.86 | X-H torsion
[ 10167 10162 10161 10158 ] final   53.03 input  -65.29 | X-H torsion
[ 10718 10713 10712 10709 ] final  156.06 input   66.30 | X-H torsion
[ 10763 10752 10751 10750 ] final   67.86 input  -60.55 | X-H torsion
[ 11005 11000 10999 10996 ] final   47.61 input  -57.11 | X-H torsion

> <Gold.Protein.ActiveResidues>
 VAL166  LYS551  ARG553  GLY616  TRP617  ASP618  TYR619  PRO620  LYS621  CYS622 
 ASP623  PHE694  ASN695  SER759  ASP760  ASP761  ALA762  ILE779  LEU786  VAL792 
 PHE793  MET794  SER795  GLU796  ALA797  LYS798  CYS799  TRP800  GLU811  SER814 

> <Gold.Protein.RotatedAtoms>
  151.3387  133.3971  159.2668 H   0  0  0  0  0  0  0  0  0  0  0  0  # atno 6907 bound_to 6896
  150.9896  134.9234  159.7902 H   0  0  0  0  0  0  0  0  0  0  0  0  # atno 6908 bound_to 6896
  152.5243  134.3352  159.9249 H   0  0  0  0  0  0  0  0  0  0  0  0  # atno 6909 bound_to 6896
  146.2444  140.0588  142.8370 H   0  0  0  0  0  0  0  0  0  0  0  0  # atno 7974 bound_to 7965
  154.5147  140.0802  156.8057 H   0  0  0  0  0  0  0  0  0  0  0  0  # atno 8008 bound_to 7997
  155.3708  140.3423  155.4225 H   0  0  0  0  0  0  0  0  0  0  0  0  # atno 8009 bound_to 7997
  156.1613  140.1589  156.8594 H   0  0  0  0  0  0  0  0  0  0  0  0  # atno 8010 bound_to 7997
  140.2451  144.3541  150.6367 H   0  0  0  0  0  0  0  0  0  0  0  0  # atno 10167 bound_to 10162
  157.2100  131.0695  151.1975 H   0  0  0  0  0  0  0  0  0  0  0  0  # atno 10718 bound_to 10713
  153.0206  135.5268  154.7044 H   0  0  0  0  0  0  0  0  0  0  0  0  # atno 10763 bound_to 10752
  154.6144  135.2882  155.0398 H   0  0  0  0  0  0  0  0  0  0  0  0  # atno 10764 bound_to 10752
  154.1408  135.6578  153.4994 H   0  0  0  0  0  0  0  0  0  0  0  0  # atno 10765 bound_to 10752
  140.1263  134.4763  155.8556 H   0  0  0  0  0  0  0  0  0  0  0  0  # atno 11005 bound_to 11000
  145.0918  140.9289  143.4764 LP  0  0  0  0  0  0  0  0  0  0  0  0  # atno 17320 bound_to 7965
  145.0762  139.2994  143.5806 LP  0  0  0  0  0  0  0  0  0  0  0  0  # atno 17321 bound_to 7965
  140.6084  143.2168  151.6936 LP  0  0  0  0  0  0  0  0  0  0  0  0  # atno 17342 bound_to 10162
  139.5064  144.3682  152.0496 LP  0  0  0  0  0  0  0  0  0  0  0  0  # atno 17343 bound_to 10162
  157.3681  130.7167  149.6546 LP  0  0  0  0  0  0  0  0  0  0  0  0  # atno 17370 bound_to 10713
  155.9691  130.4206  150.4432 LP  0  0  0  0  0  0  0  0  0  0  0  0  # atno 17371 bound_to 10713
  141.2162  133.6779  156.6985 LP  0  0  0  0  0  0  0  0  0  0  0  0  # atno 17394 bound_to 11000
  140.2899  134.8249  157.4008 LP  0  0  0  0  0  0  0  0  0  0  0  0  # atno 17395 bound_to 11000

$$$$
