AV-unprocessed.smi:2849|AV-procd|sdf|10957|dock1
  -GOLD-   2272015413D 1   1.00000     0.00000
 Structure written by MMmdl.
 55 58  0  0  0  0  0  0  0  0  2 V2000
  143.4971  132.9926  151.4703 C   0  0  0  0  0  0  0  0  0  0  0  0
  144.0794  134.3508  151.5877 N   0  3  2  0  0  0  0  0  0  0  0  0
  145.3076  134.5729  150.7878 C   0  0  2  0  0  0  0  0  0  0  0  0
  146.5104  133.7861  151.3661 C   0  0  0  0  0  0  0  0  0  0  0  0
  146.7454  134.0142  152.8698 C   0  0  0  0  0  0  0  0  0  0  0  0
  145.4338  134.0496  153.6743 C   0  0  0  0  0  0  0  0  0  0  0  0
  144.2855  134.8219  152.9782 C   0  0  1  0  0  0  0  0  0  0  0  0
  144.4377  136.3607  152.9732 C   0  0  0  0  0  0  0  0  0  0  0  0
  145.4184  136.9393  151.9164 C   0  0  1  0  0  0  0  0  0  0  0  0
  146.7320  137.2594  152.4718 N   0  0  0  0  0  0  0  0  0  0  0  0
  146.9998  138.2612  153.3225 C   0  0  0  0  0  0  0  0  0  0  0  0
  146.1419  139.0275  153.7598 O   0  0  0  0  0  0  0  0  0  0  0  0
  148.3052  138.2916  153.6401 N   0  0  0  0  0  0  0  0  0  0  0  0
  148.9991  139.2368  154.4431 C   0  0  0  0  0  0  0  0  0  0  0  0
  148.7227  140.6236  154.4624 C   0  0  0  0  0  0  0  0  0  0  0  0
  149.5024  141.4638  155.2802 C   0  0  0  0  0  0  0  0  0  0  0  0
  150.5467  140.9014  156.0519 C   0  0  0  0  0  0  0  0  0  0  0  0
  151.3498  141.7091  156.8818 N   0  0  0  0  0  0  0  0  0  0  0  0
  151.0393  143.1114  157.1143 C   0  0  0  0  0  0  0  0  0  0  0  0
  152.0356  143.5568  158.1832 C   0  0  0  0  0  0  0  0  0  0  0  0
  152.2342  142.2918  159.0176 C   0  0  0  0  0  0  0  0  0  0  0  0
  152.0883  141.1491  158.0058 C   0  0  0  0  0  0  0  0  0  0  0  0
  150.8104  139.5732  156.0305 N   0  0  0  0  0  0  0  0  0  0  0  0
  150.0617  138.7726  155.2439 C   0  0  0  0  0  0  0  0  0  0  0  0
  145.5344  136.0939  150.6219 C   0  0  0  0  0  0  0  0  0  0  0  0
  144.1563  132.2230  151.8711 H   0  0  0  0  0  0  0  0  0  0  0  0
  143.2968  132.7541  150.4254 H   0  0  0  0  0  0  0  0  0  0  0  0
  142.5498  132.9385  152.0072 H   0  0  0  0  0  0  0  0  0  0  0  0
  145.1256  134.1817  149.7856 H   0  0  0  0  0  0  0  0  0  0  0  0
  146.3425  132.7212  151.2031 H   0  0  0  0  0  0  0  0  0  0  0  0
  147.4179  134.0236  150.8102 H   0  0  0  0  0  0  0  0  0  0  0  0
  147.3893  133.2254  153.2600 H   0  0  0  0  0  0  0  0  0  0  0  0
  147.3096  134.9267  153.0297 H   0  0  0  0  0  0  0  0  0  0  0  0
  145.1105  133.0229  153.8483 H   0  0  0  0  0  0  0  0  0  0  0  0
  145.6200  134.4655  154.6649 H   0  0  0  0  0  0  0  0  0  0  0  0
  143.3742  134.6083  153.5390 H   0  0  0  0  0  0  0  0  0  0  0  0
  143.4528  136.7749  152.7526 H   0  0  0  0  0  0  0  0  0  0  0  0
  144.6744  136.7225  153.9746 H   0  0  0  0  0  0  0  0  0  0  0  0
  145.0072  137.9010  151.6022 H   0  0  0  0  0  0  0  0  0  0  0  0
  147.5023  136.6785  152.1746 H   0  0  0  0  0  0  0  0  0  0  0  0
  148.8691  137.5345  153.2829 H   0  0  0  0  0  0  0  0  0  0  0  0
  147.9437  141.0626  153.8589 H   0  0  0  0  0  0  0  0  0  0  0  0
  149.2889  142.5221  155.3038 H   0  0  0  0  0  0  0  0  0  0  0  0
  151.1350  143.7020  156.2026 H   0  0  0  0  0  0  0  0  0  0  0  0
  150.0160  143.2025  157.4813 H   0  0  0  0  0  0  0  0  0  0  0  0
  152.9789  143.8411  157.7151 H   0  0  0  0  0  0  0  0  0  0  0  0
  151.6790  144.4048  158.7686 H   0  0  0  0  0  0  0  0  0  0  0  0
  153.1899  142.2733  159.5420 H   0  0  0  0  0  0  0  0  0  0  0  0
  151.4417  142.2216  159.7641 H   0  0  0  0  0  0  0  0  0  0  0  0
  151.5758  140.2971  158.4543 H   0  0  0  0  0  0  0  0  0  0  0  0
  153.0653  140.8165  157.6537 H   0  0  0  0  0  0  0  0  0  0  0  0
  150.3206  137.7240  155.2571 H   0  0  0  0  0  0  0  0  0  0  0  0
  146.4792  136.2872  150.1120 H   0  0  0  0  0  0  0  0  0  0  0  0
  144.7666  136.4540  149.9354 H   0  0  0  0  0  0  0  0  0  0  0  0
  143.3802  134.9627  151.1919 H   0  0  0  0  0  0  0  0  0  0  0  0
  1  2  1  0  0  0  0
  1 26  1  0  0  0  0
  1 27  1  0  0  0  0
  1 28  1  0  0  0  0
  2  7  1  0  0  0  0
  2  3  1  0  0  0  0
  2 55  1  0  0  0  0
  3 25  1  0  0  0  0
  3  4  1  0  0  0  0
  3 29  1  0  0  0  0
  4  5  1  0  0  0  0
  4 30  1  0  0  0  0
  4 31  1  0  0  0  0
  5  6  1  0  0  0  0
  5 32  1  0  0  0  0
  5 33  1  0  0  0  0
  6  7  1  0  0  0  0
  6 34  1  0  0  0  0
  6 35  1  0  0  0  0
  7  8  1  0  0  0  0
  7 36  1  0  0  0  0
  8  9  1  0  0  0  0
  8 37  1  0  0  0  0
  8 38  1  0  0  0  0
  9 10  1  0  0  0  0
  9 25  1  0  0  0  0
  9 39  1  0  0  0  0
 10 11  1  0  0  0  0
 10 40  1  0  0  0  0
 11 12  2  0  0  0  0
 11 13  1  0  0  0  0
 13 14  1  0  0  0  0
 13 41  1  0  0  0  0
 14 24  1  0  0  0  0
 14 15  2  0  0  0  0
 15 16  1  0  0  0  0
 15 42  1  0  0  0  0
 16 17  2  0  0  0  0
 16 43  1  0  0  0  0
 17 18  1  0  0  0  0
 17 23  1  0  0  0  0
 18 22  1  0  0  0  0
 18 19  1  0  0  0  0
 19 20  1  0  0  0  0
 19 44  1  0  0  0  0
 19 45  1  0  0  0  0
 20 21  1  0  0  0  0
 20 46  1  0  0  0  0
 20 47  1  0  0  0  0
 21 22  1  0  0  0  0
 21 48  1  0  0  0  0
 21 49  1  0  0  0  0
 22 50  1  0  0  0  0
 22 51  1  0  0  0  0
 23 24  2  0  0  0  0
 24 52  1  0  0  0  0
 25 53  1  0  0  0  0
 25 54  1  0  0  0  0
M  CHG  1   2   1
M  END
> <s_m_source_file>
AV-unprocessed.smi

> <i_m_source_file_index>
2849

> <i_lp_mmshare_version>
43012

> <i_f3d_flags>
0

> <s_epik_input>
W0NIMl0xW0NIMl1bQ0gyXVtDQEhdKE4oW0NIM10pW0NIXTEyKVtDSDJdW0NASF0oW0NIMl0yKVtOSF1DKD1PKVtOSF1jM1tjSF1bY0hdYyhuW2NIXTMpTjRbQ0gyXVtDSDJdW0NIMl1bQ0gyXTQ=

> <s_epik_cmdline>
J2VwaWtfcHl0aG9uJywgJy1waCcsICc3LjAnLCAnLXRuJywgJzgnLCAnLW1hJywgJzIwMCcsICctbWV0YWxfYmluZGluZycsICctaW1hZScsICc8aW5maWxlLm1hZT4nLCAnLW9tYWUnLCAnPG91dGZpbGUubWFlPic=

> <r_lp_tautomer_probability>
1

> <r_epik_Ionization_Penalty>
0.07954

> <r_epik_Ionization_Penalty_Charging>
0.00089841

> <r_epik_Ionization_Penalty_Neutral>
0.0786416

> <r_epik_State_Penalty>
0.0689917

> <r_epik_Charging_Adjusted_Penalty>
0.0698901

> <i_epik_Tot_Q>
1

> <i_epik_Tot_abs_Q>
1

> <r_epik_Metal_State_Penalty>
0.060891

> <b_epik_Metal_Only>
0

> <s_lp_Force_Field>
OPLS_2005

> <r_lp_Energy>
63.0915

> <b_lp_Chiralities_Consistent>
1

> <s_lp_Variant>
AV-unprocessed.smi:2849-1

> <Gold.Version>
5.8.1

> <Gold.Id.Protein>
6NUR|6NUR_protein|mol2

> <Gold.PLP.Fitness>
45.6427

> <Gold.PLP.PLP>
-40.9237

> <Gold.PLP.part.hbond>
-2.0424

> <Gold.PLP.part.metal>
0.0000

> <Gold.PLP.part.buried>
-2.3982

> <Gold.PLP.part.nonpolar>
-37.5776

> <Gold.PLP.part.repulsive>
0.2497

> <Gold.PLP.ligand.clash>
0.0000

> <Gold.PLP.ligand.torsion>
0.5669

> <Gold.PLP.Chemscore.Hbond>
1.8640

> <Gold.PLP.Chemscore.CHOScore>
0.0000

> <Gold.PLP.Chemscore.Metal>
0.0000

> <Gold.Chemscore.Hbonds>
donor molecule, donor type, donor heavy atom, donor atom, acceptor molecule, acceptor atom, score
      L1  H    10    40       P1  7948  1.00
      L1  H    13    41       P1  7948  0.86

> <Gold.PLP.Chemscore.Internal.Correction>
0.2607

> <Gold.Rescore>
     Score         DG    S(hbond)    S(metal)    S(lipo)     H(rot)  DE(clash)    DE(int)     intcor
     20.97     -21.74       1.79        0.00     109.86       1.00       0.23       0.54       ----

> <Gold.Chemscore.Fitness>
20.9656

> <Gold.Chemscore.DG>
-21.7370

> <Gold.Chemscore.ZeroCoef>
-5.4800

> <Gold.Chemscore.Hbond>
1.7856

> <Gold.Chemscore.Metal>
0.0000

> <Gold.Chemscore.Lipo>
109.8556

> <Gold.Chemscore.Internal_Hbond>
0.0000

> <Gold.Chemscore.DEClash>
0.2330

> <Gold.Chemscore.DEInternal>
0.5385

> <Gold.Chemscore.Rot>
1.0000

> <Gold.Chemscore.Internal.Correction>
   9.000000E+99

> <Gold.Chemscore.Hbonds>
donor molecule, donor type, donor heavy atom, donor atom, acceptor molecule, acceptor atom, score
      L1  H    10    40       P1  7948  0.93
      L1  H    13    41       P1  7948  0.85

> <Gold.Chemscore.Hbond.Weighted>
-5.9639

> <Gold.Chemscore.Metal.Weighted>
-0.0000

> <Gold.Chemscore.Lipo.Weighted>
-12.8531

> <Gold.Chemscore.Internal_Hbond.Weighted>
0.0000

> <Gold.Chemscore.DEClash.Weighted>
0.2330

> <Gold.Chemscore.DEInternal.Weighted>
0.5385

> <Gold.Chemscore.Rot.Weighted>
2.5600

> <Gold.Chemscore.Internal.Correction.Weighted>
   9.000000E+99

> <Gold.Protein.RotatedTorsions>
[ 6907 6896 6895 6894 ] final -132.38 input  -60.11 | X-H torsion
[ 7974 7965 7964 7962 ] final  -31.44 input  175.53 | X-H torsion
[ 8008 7997 7996 7995 ] final  -34.77 input   59.86 | X-H torsion
[ 10167 10162 10161 10158 ] final  176.14 input  -65.29 | X-H torsion
[ 10718 10713 10712 10709 ] final   -6.79 input   66.30 | X-H torsion
[ 10763 10752 10751 10750 ] final   20.84 input  -60.55 | X-H torsion
[ 11005 11000 10999 10996 ] final   51.04 input  -57.11 | X-H torsion

> <Gold.Protein.ActiveResidues>
 VAL166  LYS551  ARG553  GLY616  TRP617  ASP618  TYR619  PRO620  LYS621  CYS622 
 ASP623  PHE694  ASN695  SER759  ASP760  ASP761  ALA762  ILE779  LEU786  VAL792 
 PHE793  MET794  SER795  GLU796  ALA797  LYS798  CYS799  TRP800  GLU811  SER814 

> <Gold.Protein.RotatedAtoms>
  150.9617  133.6438  159.2752 H   0  0  0  0  0  0  0  0  0  0  0  0  # atno 6907 bound_to 6896
  151.3758  135.0930  159.9490 H   0  0  0  0  0  0  0  0  0  0  0  0  # atno 6908 bound_to 6896
  152.5150  133.9162  159.7567 H   0  0  0  0  0  0  0  0  0  0  0  0  # atno 6909 bound_to 6896
  146.1067  140.5667  142.8796 H   0  0  0  0  0  0  0  0  0  0  0  0  # atno 7974 bound_to 7965
  154.4112  140.1675  156.2104 H   0  0  0  0  0  0  0  0  0  0  0  0  # atno 8008 bound_to 7997
  155.9449  140.3405  155.6335 H   0  0  0  0  0  0  0  0  0  0  0  0  # atno 8009 bound_to 7997
  155.6943  140.0737  157.2426 H   0  0  0  0  0  0  0  0  0  0  0  0  # atno 8010 bound_to 7997
  139.5203  144.2950  152.0430 H   0  0  0  0  0  0  0  0  0  0  0  0  # atno 10167 bound_to 10162
  156.7267  130.5167  149.5855 H   0  0  0  0  0  0  0  0  0  0  0  0  # atno 10718 bound_to 10713
  153.1044  135.6681  153.9613 H   0  0  0  0  0  0  0  0  0  0  0  0  # atno 10763 bound_to 10752
  153.9174  135.3018  155.3449 H   0  0  0  0  0  0  0  0  0  0  0  0  # atno 10764 bound_to 10752
  154.7465  135.5055  153.9290 H   0  0  0  0  0  0  0  0  0  0  0  0  # atno 10765 bound_to 10752
  140.0966  134.5137  155.8801 H   0  0  0  0  0  0  0  0  0  0  0  0  # atno 11005 bound_to 11000
  144.7477  140.5110  143.6824 LP  0  0  0  0  0  0  0  0  0  0  0  0  # atno 17320 bound_to 7965
  145.5746  139.1485  143.3269 LP  0  0  0  0  0  0  0  0  0  0  0  0  # atno 17321 bound_to 7965
  140.2400  144.4280  150.6264 LP  0  0  0  0  0  0  0  0  0  0  0  0  # atno 17342 bound_to 10162
  140.6297  143.2186  151.6521 LP  0  0  0  0  0  0  0  0  0  0  0  0  # atno 17343 bound_to 10162
  156.1557  130.6340  151.0654 LP  0  0  0  0  0  0  0  0  0  0  0  0  # atno 17370 bound_to 10713
  157.6876  131.0820  150.7200 LP  0  0  0  0  0  0  0  0  0  0  0  0  # atno 17371 bound_to 10713
  141.2094  133.6683  156.6434 LP  0  0  0  0  0  0  0  0  0  0  0  0  # atno 17394 bound_to 11000
  140.3278  134.7954  157.4303 LP  0  0  0  0  0  0  0  0  0  0  0  0  # atno 17395 bound_to 11000

$$$$
