AV-unprocessed.smi:2217|AV-procd|sdf|8974|dock10
  -GOLD-   2272012193D 1   1.00000     0.00000
 Structure written by MMmdl.
 45 48  0  0  0  0  0  0  0  0  1 V2000
  151.0050  142.2456  156.3645 C   0  0  0  0  0  0  0  0  0  0  0  0
  150.2497  141.1809  155.5970 C   0  0  0  0  0  0  0  0  0  0  0  0
  150.8384  139.9364  155.3034 C   0  0  0  0  0  0  0  0  0  0  0  0
  150.0902  138.9845  154.5843 C   0  0  0  0  0  0  0  0  0  0  0  0
  148.7728  139.2934  154.1762 C   0  0  0  0  0  0  0  0  0  0  0  0
  148.1207  138.2549  153.4471 N   0  0  0  0  0  0  0  0  0  0  0  0
  146.8383  138.1165  153.0469 C   0  0  0  0  0  0  0  0  0  0  0  0
  145.9954  138.9763  153.2970 O   0  0  0  0  0  0  0  0  0  0  0  0
  146.5504  136.9974  152.3664 N   0  0  0  0  0  0  0  0  0  0  0  0
  145.2236  136.6283  151.8651 C   0  0  2  0  0  0  0  0  0  0  0  0
  144.1500  136.5498  152.9547 C   0  0  2  0  0  0  0  0  0  0  0  0
  143.9870  137.1011  154.3253 C   0  0  0  0  0  0  0  0  0  0  0  0
  143.4133  135.8200  154.9864 C   0  0  0  0  0  0  0  0  0  0  0  0
  143.5696  134.7619  154.0069 O   0  0  0  0  0  0  0  0  0  0  0  0
  144.6888  135.1632  153.2403 C   0  0  1  0  0  0  0  0  0  0  0  0
  144.9948  135.0736  151.7259 C   0  0  0  0  0  0  0  0  0  0  0  0
  143.8522  134.5893  150.8103 C   0  0  0  0  0  0  0  0  0  0  0  0
  144.4281  133.5796  149.8169 C   0  0  0  0  0  0  0  0  0  0  0  0
  145.6570  133.0209  150.5184 C   0  0  0  0  0  0  0  0  0  0  0  0
  146.1938  134.2115  151.3079 C   0  0  0  0  0  0  0  0  0  0  0  0
  148.2181  140.4993  154.4621 N   0  0  0  0  0  0  0  0  0  0  0  0
  148.9346  141.4118  155.1512 C   0  0  0  0  0  0  0  0  0  0  0  0
  151.9201  141.8441  156.8010 H   0  0  0  0  0  0  0  0  0  0  0  0
  150.3886  142.6413  157.1723 H   0  0  0  0  0  0  0  0  0  0  0  0
  151.2736  143.0687  155.7021 H   0  0  0  0  0  0  0  0  0  0  0  0
  151.8460  139.7108  155.6209 H   0  0  0  0  0  0  0  0  0  0  0  0
  150.5287  138.0250  154.3507 H   0  0  0  0  0  0  0  0  0  0  0  0
  148.7335  137.5116  153.1451 H   0  0  0  0  0  0  0  0  0  0  0  0
  147.3009  136.3414  152.2008 H   0  0  0  0  0  0  0  0  0  0  0  0
  144.9133  137.1908  150.9830 H   0  0  0  0  0  0  0  0  0  0  0  0
  143.1714  136.5202  152.4649 H   0  0  0  0  0  0  0  0  0  0  0  0
  144.9390  137.3969  154.7681 H   0  0  0  0  0  0  0  0  0  0  0  0
  143.2947  137.9422  154.3655 H   0  0  0  0  0  0  0  0  0  0  0  0
  143.9599  135.5774  155.8986 H   0  0  0  0  0  0  0  0  0  0  0  0
  142.3591  135.9294  155.2421 H   0  0  0  0  0  0  0  0  0  0  0  0
  145.5953  135.1479  153.8545 H   0  0  0  0  0  0  0  0  0  0  0  0
  143.0778  134.1011  151.4035 H   0  0  0  0  0  0  0  0  0  0  0  0
  143.3672  135.4109  150.2820 H   0  0  0  0  0  0  0  0  0  0  0  0
  143.7124  132.8059  149.5375 H   0  0  0  0  0  0  0  0  0  0  0  0
  144.7327  134.0970  148.9061 H   0  0  0  0  0  0  0  0  0  0  0  0
  145.3595  132.2276  151.2055 H   0  0  0  0  0  0  0  0  0  0  0  0
  146.3898  132.6077  149.8249 H   0  0  0  0  0  0  0  0  0  0  0  0
  146.8613  134.7881  150.6662 H   0  0  0  0  0  0  0  0  0  0  0  0
  146.7878  133.8809  152.1607 H   0  0  0  0  0  0  0  0  0  0  0  0
  148.4422  142.3523  155.3504 H   0  0  0  0  0  0  0  0  0  0  0  0
  1  2  1  0  0  0  0
  1 23  1  0  0  0  0
  1 24  1  0  0  0  0
  1 25  1  0  0  0  0
  2 22  1  0  0  0  0
  2  3  2  0  0  0  0
  3  4  1  0  0  0  0
  3 26  1  0  0  0  0
  4  5  2  0  0  0  0
  4 27  1  0  0  0  0
  5  6  1  0  0  0  0
  5 21  1  0  0  0  0
  6  7  1  0  0  0  0
  6 28  1  0  0  0  0
  7  8  2  0  0  0  0
  7  9  1  0  0  0  0
  9 10  1  0  0  0  0
  9 29  1  0  0  0  0
 10 16  1  0  0  0  0
 10 11  1  0  0  0  0
 10 30  1  0  0  0  0
 11 15  1  0  0  0  0
 11 12  1  0  0  0  0
 11 31  1  0  0  0  0
 12 13  1  0  0  0  0
 12 32  1  0  0  0  0
 12 33  1  0  0  0  0
 13 14  1  0  0  0  0
 13 34  1  0  0  0  0
 13 35  1  0  0  0  0
 14 15  1  0  0  0  0
 15 16  1  0  0  0  0
 15 36  1  0  0  0  0
 16 20  1  0  0  0  0
 16 17  1  0  0  0  0
 17 18  1  0  0  0  0
 17 37  1  0  0  0  0
 17 38  1  0  0  0  0
 18 19  1  0  0  0  0
 18 39  1  0  0  0  0
 18 40  1  0  0  0  0
 19 20  1  0  0  0  0
 19 41  1  0  0  0  0
 19 42  1  0  0  0  0
 20 43  1  0  0  0  0
 20 44  1  0  0  0  0
 21 22  2  0  0  0  0
 22 45  1  0  0  0  0
M  END
> <s_m_source_file>
AV-unprocessed.smi

> <i_m_source_file_index>
2217

> <i_lp_mmshare_version>
43012

> <i_f3d_flags>
0

> <s_epik_input>
W0NIM11jMVtjSF1bY0hdYyhuW2NIXTEpW05IXUMoPU8pW05IXVtDQEBIXTJbQ0BASF0oW0NIMl1bQ0gyXU8zKVtDQEhdM0MyNFtDSDJdW0NIMl1bQ0gyXVtDSDJdNA==

> <s_epik_cmdline>
J2VwaWtfcHl0aG9uJywgJy1waCcsICc3LjAnLCAnLXRuJywgJzgnLCAnLW1hJywgJzIwMCcsICctbWV0YWxfYmluZGluZycsICctaW1hZScsICc8aW5maWxlLm1hZT4nLCAnLW9tYWUnLCAnPG91dGZpbGUubWFlPic=

> <r_lp_tautomer_probability>
1

> <r_epik_Ionization_Penalty>
6.14796e-05

> <r_epik_Ionization_Penalty_Charging>
0

> <r_epik_Ionization_Penalty_Neutral>
6.14796e-05

> <r_epik_State_Penalty>
-0

> <r_epik_Charging_Adjusted_Penalty>
0

> <i_epik_Tot_Q>
0

> <i_epik_Tot_abs_Q>
0

> <r_epik_Metal_State_Penalty>
-0

> <b_epik_Metal_Only>
0

> <s_lp_Force_Field>
OPLS_2005

> <r_lp_Energy>
82.2768

> <b_lp_Chiralities_Consistent>
1

> <s_lp_Variant>
AV-unprocessed.smi:2217-7

> <Gold.Version>
5.8.1

> <Gold.Id.Protein>
6NUR|6NUR_protein|mol2

> <Gold.PLP.Fitness>
38.2194

> <Gold.PLP.PLP>
-30.0820

> <Gold.PLP.part.hbond>
-2.2811

> <Gold.PLP.part.metal>
0.0000

> <Gold.PLP.part.buried>
-0.7057

> <Gold.PLP.part.nonpolar>
-28.7611

> <Gold.PLP.part.repulsive>
2.0761

> <Gold.PLP.ligand.clash>
0.0000

> <Gold.PLP.ligand.torsion>
0.2081

> <Gold.PLP.Chemscore.Hbond>
1.7600

> <Gold.PLP.Chemscore.CHOScore>
1.0000

> <Gold.PLP.Chemscore.Metal>
0.0000

> <Gold.Chemscore.Hbonds>
donor molecule, donor type, donor heavy atom, donor atom, acceptor molecule, acceptor atom, score
      L1  H     6    28       P1  7948  0.88
      L1  H     9    29       P1  7948  0.88
      L1  C    22    45       P1  8028  1.00

> <Gold.PLP.Chemscore.Internal.Correction>
0.2736

> <Gold.Rescore>
     Score         DG    S(hbond)    S(metal)    S(lipo)     H(rot)  DE(clash)    DE(int)     intcor
     14.39     -18.71       1.81        0.00      83.19       1.00       2.23       2.09       ----

> <Gold.Chemscore.Fitness>
14.3880

> <Gold.Chemscore.DG>
-18.7073

> <Gold.Chemscore.ZeroCoef>
-5.4800

> <Gold.Chemscore.Hbond>
1.8126

> <Gold.Chemscore.Metal>
0.0000

> <Gold.Chemscore.Lipo>
83.1888

> <Gold.Chemscore.Internal_Hbond>
0.0000

> <Gold.Chemscore.DEClash>
2.2263

> <Gold.Chemscore.DEInternal>
2.0931

> <Gold.Chemscore.Rot>
1.0000

> <Gold.Chemscore.Internal.Correction>
   9.000000E+99

> <Gold.Chemscore.Hbonds>
donor molecule, donor type, donor heavy atom, donor atom, acceptor molecule, acceptor atom, score
      L1  H     6    28       P1  7948  0.87
      L1  H     9    29       P1  7948  0.86

> <Gold.Chemscore.Hbond.Weighted>
-6.0542

> <Gold.Chemscore.Metal.Weighted>
-0.0000

> <Gold.Chemscore.Lipo.Weighted>
-9.7331

> <Gold.Chemscore.Internal_Hbond.Weighted>
0.0000

> <Gold.Chemscore.DEClash.Weighted>
2.2263

> <Gold.Chemscore.DEInternal.Weighted>
2.0931

> <Gold.Chemscore.Rot.Weighted>
2.5600

> <Gold.Chemscore.Internal.Correction.Weighted>
   9.000000E+99

> <Gold.Protein.RotatedTorsions>
[ 6907 6896 6895 6894 ] final  -93.37 input  -60.11 | X-H torsion
[ 7974 7965 7964 7962 ] final   32.77 input  175.53 | X-H torsion
[ 8008 7997 7996 7995 ] final  -19.95 input   59.86 | X-H torsion
[ 10167 10162 10161 10158 ] final  -13.55 input  -65.29 | X-H torsion
[ 10718 10713 10712 10709 ] final   44.01 input   66.30 | X-H torsion
[ 10763 10752 10751 10750 ] final  177.79 input  -60.55 | X-H torsion
[ 11005 11000 10999 10996 ] final -126.90 input  -57.11 | X-H torsion

> <Gold.Protein.ActiveResidues>
 VAL166  LYS551  ARG553  GLY616  TRP617  ASP618  TYR619  PRO620  LYS621  CYS622 
 ASP623  PHE694  ASN695  SER759  ASP760  ASP761  ALA762  ILE779  LEU786  VAL792 
 PHE793  MET794  SER795  GLU796  ALA797  LYS798  CYS799  TRP800  GLU811  SER814 

> <Gold.Protein.RotatedAtoms>
  150.6921  134.1978  159.4310 H   0  0  0  0  0  0  0  0  0  0  0  0  # atno 6907 bound_to 6896
  151.9946  134.9958  160.0572 H   0  0  0  0  0  0  0  0  0  0  0  0  # atno 6908 bound_to 6896
  152.1635  133.4562  159.4910 H   0  0  0  0  0  0  0  0  0  0  0  0  # atno 6909 bound_to 6896
  146.1465  139.6484  142.9128 H   0  0  0  0  0  0  0  0  0  0  0  0  # atno 7974 bound_to 7965
  154.4802  140.2075  155.9782 H   0  0  0  0  0  0  0  0  0  0  0  0  # atno 8008 bound_to 7997
  156.1153  140.3222  155.8100 H   0  0  0  0  0  0  0  0  0  0  0  0  # atno 8009 bound_to 7997
  155.4563  140.0521  157.2986 H   0  0  0  0  0  0  0  0  0  0  0  0  # atno 8010 bound_to 7997
  140.7184  143.5414  150.9405 H   0  0  0  0  0  0  0  0  0  0  0  0  # atno 10167 bound_to 10162
  157.4222  130.7976  149.7525 H   0  0  0  0  0  0  0  0  0  0  0  0  # atno 10718 bound_to 10713
  154.4991  135.2782  155.1435 H   0  0  0  0  0  0  0  0  0  0  0  0  # atno 10763 bound_to 10752
  154.3075  135.6235  153.5455 H   0  0  0  0  0  0  0  0  0  0  0  0  # atno 10764 bound_to 10752
  152.9899  135.5712  154.5430 H   0  0  0  0  0  0  0  0  0  0  0  0  # atno 10765 bound_to 10752
  140.9644  134.0892  157.3935 H   0  0  0  0  0  0  0  0  0  0  0  0  # atno 11005 bound_to 11000
  145.4925  141.0438  143.2585 LP  0  0  0  0  0  0  0  0  0  0  0  0  # atno 17320 bound_to 7965
  144.7852  139.6441  143.7137 LP  0  0  0  0  0  0  0  0  0  0  0  0  # atno 17321 bound_to 7965
  139.9136  143.6690  152.3110 LP  0  0  0  0  0  0  0  0  0  0  0  0  # atno 17342 bound_to 10162
  139.7082  144.7624  151.1157 LP  0  0  0  0  0  0  0  0  0  0  0  0  # atno 17343 bound_to 10162
  155.9884  130.3959  150.3119 LP  0  0  0  0  0  0  0  0  0  0  0  0  # atno 17370 bound_to 10713
  157.1268  131.0261  151.2986 LP  0  0  0  0  0  0  0  0  0  0  0  0  # atno 17371 bound_to 10713
  139.8889  135.0101  156.6648 LP  0  0  0  0  0  0  0  0  0  0  0  0  # atno 17394 bound_to 11000
  140.7421  133.8969  155.8285 LP  0  0  0  0  0  0  0  0  0  0  0  0  # atno 17395 bound_to 11000

$$$$
