AV-unprocessed.smi:3308|AV-procd|sdf|12711|dock10
  -GOLD-   2272019 43D 1   1.00000     0.00000
 Structure written by MMmdl.
 41 42  0  0  0  0  0  0  0  0  2 V2000
  147.8659  141.7894  155.0220 C   0  0  0  0  0  0  0  0  0  0  0  0
  149.3308  141.3099  155.0240 C   0  0  1  0  0  0  0  0  0  0  0  0
  150.1223  142.0294  156.0501 N   0  3  0  0  0  0  0  0  0  0  0  0
  149.9159  141.5875  157.4466 C   0  0  0  0  0  0  0  0  0  0  0  0
  149.4105  142.7237  158.3469 C   0  0  0  0  0  0  0  0  0  0  0  0
  148.2072  142.8169  158.5941 O   0  0  0  0  0  0  0  0  0  0  0  0
  150.3144  143.5951  158.8406 N   0  0  0  0  0  0  0  0  0  0  0  0
  149.9643  144.7172  159.7096 C   0  0  0  0  0  0  0  0  0  0  0  0
  151.2917  145.2655  160.2336 C   0  0  0  0  0  0  0  0  0  0  0  0
  152.3057  144.8655  159.1709 C   0  0  0  0  0  0  0  0  0  0  0  0
  151.7569  143.5574  158.5999 C   0  0  0  0  0  0  0  0  0  0  0  0
  149.4399  139.7737  155.2123 C   0  0  1  0  0  0  0  0  0  0  0  0
  148.3619  138.9922  154.4375 C   0  0  0  0  0  0  0  0  0  0  0  0
  150.7797  139.2575  154.9470 N   0  0  0  0  0  0  0  0  0  0  0  0
  151.9732  139.6585  155.5131 C   0  0  0  0  0  0  0  0  0  0  0  0
  152.9665  138.9092  154.9509 C   0  0  0  0  0  0  0  0  0  0  0  0
  152.2774  138.0665  154.0355 C   0  0  0  0  0  0  0  0  0  0  0  0
  150.9718  138.2804  154.0313 N   0  0  0  0  0  0  0  0  0  0  0  0
  147.2700  141.2163  154.3111 H   0  0  0  0  0  0  0  0  0  0  0  0
  147.7837  142.8369  154.7328 H   0  0  0  0  0  0  0  0  0  0  0  0
  147.4046  141.6808  156.0041 H   0  0  0  0  0  0  0  0  0  0  0  0
  149.7633  141.5441  154.0501 H   0  0  0  0  0  0  0  0  0  0  0  0
  151.1031  141.9547  155.8186 H   0  0  0  0  0  0  0  0  0  0  0  0
  149.1938  140.7702  157.4585 H   0  0  0  0  0  0  0  0  0  0  0  0
  150.8539  141.2114  157.8544 H   0  0  0  0  0  0  0  0  0  0  0  0
  149.4438  145.4734  159.1201 H   0  0  0  0  0  0  0  0  0  0  0  0
  149.3094  144.4159  160.5288 H   0  0  0  0  0  0  0  0  0  0  0  0
  151.2650  146.3413  160.4096 H   0  0  0  0  0  0  0  0  0  0  0  0
  151.5410  144.7791  161.1777 H   0  0  0  0  0  0  0  0  0  0  0  0
  152.3298  145.6244  158.3875 H   0  0  0  0  0  0  0  0  0  0  0  0
  153.3164  144.7632  159.5675 H   0  0  0  0  0  0  0  0  0  0  0  0
  152.1846  142.7036  159.1276 H   0  0  0  0  0  0  0  0  0  0  0  0
  152.0013  143.4629  157.5412 H   0  0  0  0  0  0  0  0  0  0  0  0
  149.2470  139.5772  156.2682 H   0  0  0  0  0  0  0  0  0  0  0  0
  147.3618  139.3270  154.7140 H   0  0  0  0  0  0  0  0  0  0  0  0
  148.4215  137.9257  154.6572 H   0  0  0  0  0  0  0  0  0  0  0  0
  148.4638  139.1116  153.3586 H   0  0  0  0  0  0  0  0  0  0  0  0
  152.0171  140.4364  156.2612 H   0  0  0  0  0  0  0  0  0  0  0  0
  154.0249  138.9559  155.1614 H   0  0  0  0  0  0  0  0  0  0  0  0
  152.6843  137.3134  153.3768 H   0  0  0  0  0  0  0  0  0  0  0  0
  149.8663  143.0057  156.0057 H   0  0  0  0  0  0  0  0  0  0  0  0
  1  2  1  0  0  0  0
  1 19  1  0  0  0  0
  1 20  1  0  0  0  0
  1 21  1  0  0  0  0
  2  3  1  0  0  0  0
  2 12  1  0  0  0  0
  2 22  1  0  0  0  0
  3  4  1  0  0  0  0
  3 23  1  0  0  0  0
  3 41  1  0  0  0  0
  4  5  1  0  0  0  0
  4 24  1  0  0  0  0
  4 25  1  0  0  0  0
  5  6  2  0  0  0  0
  5  7  1  0  0  0  0
  7 11  1  0  0  0  0
  7  8  1  0  0  0  0
  8  9  1  0  0  0  0
  8 26  1  0  0  0  0
  8 27  1  0  0  0  0
  9 10  1  0  0  0  0
  9 28  1  0  0  0  0
  9 29  1  0  0  0  0
 10 11  1  0  0  0  0
 10 30  1  0  0  0  0
 10 31  1  0  0  0  0
 11 32  1  0  0  0  0
 11 33  1  0  0  0  0
 12 13  1  0  0  0  0
 12 14  1  0  0  0  0
 12 34  1  0  0  0  0
 13 35  1  0  0  0  0
 13 36  1  0  0  0  0
 13 37  1  0  0  0  0
 14 18  1  0  0  0  0
 14 15  1  0  0  0  0
 15 16  2  0  0  0  0
 15 38  1  0  0  0  0
 16 17  1  0  0  0  0
 16 39  1  0  0  0  0
 17 18  2  0  0  0  0
 17 40  1  0  0  0  0
M  CHG  1   3   1
M  END
> <s_m_source_file>
AV-unprocessed.smi

> <i_m_source_file_index>
3308

> <i_lp_mmshare_version>
43012

> <i_f3d_flags>
0

> <s_epik_input>
bjFbY0hdW2NIXVtjSF1uMVtDQEBIXShbQ0gzXSlbQ0BIXShbQ0gzXSlbTkhdW0NIMl1DKD1PKU4yW0NIMl1bQ0gyXVtDSDJdW0NIMl0y

> <s_epik_cmdline>
J2VwaWtfcHl0aG9uJywgJy1waCcsICc3LjAnLCAnLXRuJywgJzgnLCAnLW1hJywgJzIwMCcsICctbWV0YWxfYmluZGluZycsICctaW1hZScsICc8aW5maWxlLm1hZT4nLCAnLW9tYWUnLCAnPG91dGZpbGUubWFlPic=

> <r_lp_tautomer_probability>
1

> <r_epik_Ionization_Penalty>
0.141739

> <r_epik_Ionization_Penalty_Charging>
0.141731

> <r_epik_Ionization_Penalty_Neutral>
8.82171e-06

> <r_epik_State_Penalty>
0.131043

> <r_epik_Charging_Adjusted_Penalty>
0.272773

> <i_epik_Tot_Q>
1

> <i_epik_Tot_abs_Q>
1

> <r_epik_Metal_State_Penalty>
0.131385

> <b_epik_Metal_Only>
0

> <s_lp_Force_Field>
OPLS_2005

> <r_lp_Energy>
32.7398

> <b_lp_Chiralities_Consistent>
1

> <s_lp_Variant>
AV-unprocessed.smi:3308-4

> <Gold.Version>
5.8.1

> <Gold.Id.Protein>
6NUR|6NUR_protein|mol2

> <Gold.PLP.Fitness>
45.5099

> <Gold.PLP.PLP>
-38.3914

> <Gold.PLP.part.hbond>
-1.0000

> <Gold.PLP.part.metal>
0.0000

> <Gold.PLP.part.buried>
-5.8660

> <Gold.PLP.part.nonpolar>
-32.5538

> <Gold.PLP.part.repulsive>
0.5082

> <Gold.PLP.ligand.clash>
0.0000

> <Gold.PLP.ligand.torsion>
1.0296

> <Gold.PLP.Chemscore.Hbond>
2.0000

> <Gold.PLP.Chemscore.CHOScore>
1.0000

> <Gold.PLP.Chemscore.Metal>
0.0000

> <Gold.Chemscore.Hbonds>
donor molecule, donor type, donor heavy atom, donor atom, acceptor molecule, acceptor atom, score
      L1  H     3    41       P1  8028  2.00
      L1  C    17    40       P1  7949  0.40

> <Gold.PLP.Chemscore.Internal.Correction>
0.1776

> <Gold.Rescore>
     Score         DG    S(hbond)    S(metal)    S(lipo)     H(rot)  DE(clash)    DE(int)     intcor
     13.63     -14.97       1.00        0.00      91.55       1.78       0.18       1.15       ----

> <Gold.Chemscore.Fitness>
13.6343

> <Gold.Chemscore.DG>
-14.9653

> <Gold.Chemscore.ZeroCoef>
-5.4800

> <Gold.Chemscore.Hbond>
1.0000

> <Gold.Chemscore.Metal>
0.0000

> <Gold.Chemscore.Lipo>
91.5491

> <Gold.Chemscore.Internal_Hbond>
0.0000

> <Gold.Chemscore.DEClash>
0.1789

> <Gold.Chemscore.DEInternal>
1.1520

> <Gold.Chemscore.Rot>
1.7836

> <Gold.Chemscore.Internal.Correction>
   9.000000E+99

> <Gold.Chemscore.Hbonds>
donor molecule, donor type, donor heavy atom, donor atom, acceptor molecule, acceptor atom, score
      L1  H     3    41       P1  8028  0.96

> <Gold.Chemscore.Hbond.Weighted>
-3.3400

> <Gold.Chemscore.Metal.Weighted>
-0.0000

> <Gold.Chemscore.Lipo.Weighted>
-10.7112

> <Gold.Chemscore.Internal_Hbond.Weighted>
0.0000

> <Gold.Chemscore.DEClash.Weighted>
0.1789

> <Gold.Chemscore.DEInternal.Weighted>
1.1520

> <Gold.Chemscore.Rot.Weighted>
4.5660

> <Gold.Chemscore.Internal.Correction.Weighted>
   9.000000E+99

> <Gold.Protein.RotatedTorsions>
[ 6907 6896 6895 6894 ] final  -44.36 input  -60.11 | X-H torsion
[ 7974 7965 7964 7962 ] final -178.00 input  175.53 | X-H torsion
[ 8008 7997 7996 7995 ] final  129.50 input   59.86 | X-H torsion
[ 10167 10162 10161 10158 ] final  168.88 input  -65.29 | X-H torsion
[ 10718 10713 10712 10709 ] final   62.45 input   66.30 | X-H torsion
[ 10763 10752 10751 10750 ] final   98.71 input  -60.55 | X-H torsion
[ 11005 11000 10999 10996 ] final  174.73 input  -57.11 | X-H torsion

> <Gold.Protein.ActiveResidues>
 VAL166  LYS551  ARG553  GLY616  TRP617  ASP618  TYR619  PRO620  LYS621  CYS622 
 ASP623  PHE694  ASN695  SER759  ASP760  ASP761  ALA762  ILE779  LEU786  VAL792 
 PHE793  MET794  SER795  GLU796  ALA797  LYS798  CYS799  TRP800  GLU811  SER814 

> <Gold.Protein.RotatedAtoms>
  150.9337  134.8751  159.7567 H   0  0  0  0  0  0  0  0  0  0  0  0  # atno 6907 bound_to 6896
  152.5049  134.4042  159.9436 H   0  0  0  0  0  0  0  0  0  0  0  0  # atno 6908 bound_to 6896
  151.4067  133.3700  159.2774 H   0  0  0  0  0  0  0  0  0  0  0  0  # atno 6909 bound_to 6896
  144.7129  140.0934  143.6420 H   0  0  0  0  0  0  0  0  0  0  0  0  # atno 7974 bound_to 7965
  156.2937  140.2619  156.2608 H   0  0  0  0  0  0  0  0  0  0  0  0  # atno 8008 bound_to 7997
  154.9790  140.0390  157.2287 H   0  0  0  0  0  0  0  0  0  0  0  0  # atno 8009 bound_to 7997
  154.7789  140.2791  155.6084 H   0  0  0  0  0  0  0  0  0  0  0  0  # atno 8010 bound_to 7997
  139.4978  144.3767  151.9666 H   0  0  0  0  0  0  0  0  0  0  0  0  # atno 10167 bound_to 10162
  157.5901  130.9051  149.9589 H   0  0  0  0  0  0  0  0  0  0  0  0  # atno 10718 bound_to 10713
  153.2924  135.4139  155.1179 H   0  0  0  0  0  0  0  0  0  0  0  0  # atno 10763 bound_to 10752
  154.8524  135.3521  154.5963 H   0  0  0  0  0  0  0  0  0  0  0  0  # atno 10764 bound_to 10752
  153.6386  135.7058  153.5307 H   0  0  0  0  0  0  0  0  0  0  0  0  # atno 10765 bound_to 10752
  140.3545  134.7166  157.4290 H   0  0  0  0  0  0  0  0  0  0  0  0  # atno 11005 bound_to 11000
  145.9600  139.2794  143.1161 LP  0  0  0  0  0  0  0  0  0  0  0  0  # atno 17320 bound_to 7965
  145.9231  140.9101  143.0395 LP  0  0  0  0  0  0  0  0  0  0  0  0  # atno 17321 bound_to 7965
  140.3203  144.3435  150.6011 LP  0  0  0  0  0  0  0  0  0  0  0  0  # atno 17342 bound_to 10162
  140.5728  143.2179  151.7569 LP  0  0  0  0  0  0  0  0  0  0  0  0  # atno 17343 bound_to 10162
  156.0955  130.3660  150.0314 LP  0  0  0  0  0  0  0  0  0  0  0  0  # atno 17370 bound_to 10713
  156.8438  130.9435  151.3630 LP  0  0  0  0  0  0  0  0  0  0  0  0  # atno 17371 bound_to 10713
  140.0676  134.5907  155.8678 LP  0  0  0  0  0  0  0  0  0  0  0  0  # atno 17394 bound_to 11000
  141.2002  133.6611  156.5886 LP  0  0  0  0  0  0  0  0  0  0  0  0  # atno 17395 bound_to 11000

$$$$
