#       Name:                AV-unprocessed.smi:1401
#       Creating user name   scv26
#       Creation time:       Fri Mar 27 05:32:31 2020


#       File generated by GOLD software.
#

@<TRIPOS>MOLECULE
AV-unprocessed.smi:1401
    54    56     1
SMALL
NO_CHARGES


@<TRIPOS>ATOM
      1 ****        -3.2950   3.8395   3.0112 C.3            1 S1                 0.0000
      2 ****        -2.8203   2.4488   2.6867 C.2            1 S1                 0.0000
      3 ****        -1.5415   2.2619   2.6683 N.2            1 S1                 0.0000
      4 ****        -0.9997   1.0263   2.3718 N.am           1 S1                 0.0000
      5 ****         0.4701   1.0015   2.3526 C.3            1 S1                 0.0000
      6 ****         1.0300   0.9977   0.9243 C.2            1 S1                 0.0000
      7 ****         0.5686   1.7621   0.0762 O.2            1 S1                 0.0000
      8 ****         2.0230   0.1284   0.6796 N.am           1 S1                 0.0000
      9 ****         2.6532  -0.1157  -0.6167 C.3            1 S1                 0.0000
     10 ****         4.1784  -0.0664  -0.4404 C.3            1 S1                 0.0000
     11 ****         2.1666  -1.4736  -1.1824 C.3            1 S1                 0.0000
     12 ****         0.6454  -1.5727  -1.4484 C.3            1 S1                 0.0000
     13 ****         0.5781  -2.1425  -2.8769 C.3            1 S1                 0.0000
     14 ****         0.9619  -1.0353  -3.8751 C.3            1 S1                 0.0000
     15 ****         2.4804  -0.9006  -3.6609 C.3            1 S1                 0.0000
     16 ****         2.7615  -1.9231  -2.5403 C.3            1 S1                 0.0000
     17 ****         1.8037  -3.0474  -2.9224 C.3            1 S1                 0.0000
     18 ****        -1.7273  -0.0949   2.0954 C.2            1 S1                 0.0000
     19 ****        -1.2018  -1.1817   1.8472 O.2            1 S1                 0.0000
     20 ****        -3.1747   0.1246   2.1177 C.2            1 S1                 0.0000
     21 ****        -3.9728  -1.0198   1.8175 C.1            1 S1                 0.0000
     22 ****        -4.6369  -1.9356   1.5715 N.1            1 S1                 0.0000
     23 ****        -3.7186   1.3347   2.3997 C.2            1 S1                 0.0000
     24 ****        -5.2149   1.6138   2.4314 C.3            1 S1                 0.0000
     25 ****        -3.8396   3.8510   3.9554 H              1 S1                 0.0000
     26 ****        -3.9585   4.2152   2.2322 H              1 S1                 0.0000
     27 ****        -2.4649   4.5418   3.0997 H              1 S1                 0.0000
     28 ****         0.8753   1.8719   2.8718 H              1 S1                 0.0000
     29 ****         0.8339   0.1331   2.9054 H              1 S1                 0.0000
     30 ****         2.3369  -0.4486   1.4465 H              1 S1                 0.0000
     31 ****         2.3767   0.6826  -1.3055 H              1 S1                 0.0000
     32 ****         4.6921  -0.1770  -1.3954 H              1 S1                 0.0000
     33 ****         4.5290  -0.8597   0.2207 H              1 S1                 0.0000
     34 ****         4.4925   0.8868  -0.0137 H              1 S1                 0.0000
     35 ****         2.4240  -2.2416  -0.4501 H              1 S1                 0.0000
     36 ****         0.1748  -2.2472  -0.7320 H              1 S1                 0.0000
     37 ****         0.1318  -0.6133  -1.3818 H              1 S1                 0.0000
     38 ****        -0.3683  -2.6316  -3.1091 H              1 S1                 0.0000
     39 ****         0.7445  -1.3405  -4.8993 H              1 S1                 0.0000
     40 ****         0.4304  -0.1024  -3.6842 H              1 S1                 0.0000
     41 ****         3.0139  -1.1803  -4.5701 H              1 S1                 0.0000
     42 ****         2.7845   0.1146  -3.4102 H              1 S1                 0.0000
     43 ****         3.8068  -2.2272  -2.4805 H              1 S1                 0.0000
     44 ****         1.7699  -3.8584  -2.1925 H              1 S1                 0.0000
     45 ****         1.9967  -3.4653  -3.9121 H              1 S1                 0.0000
     46 ****        -5.8060   0.7048   2.3240 H              1 S1                 0.0000
     47 ****        -5.4913   2.2862   1.6185 H              1 S1                 0.0000
     48 ****        -5.5033   2.0770   3.3756 H              1 S1                 0.0000
     49 ****        -0.9317   3.0276   2.8729 LP             1 S1                 0.0000
     50 ****        -0.1732   2.3877   0.3176 LP             1 S1                 0.0000
     51 ****         0.9358   1.7572  -0.8540 LP             1 S1                 0.0000
     52 ****        -0.2054  -1.2660   1.8432 LP             1 S1                 0.0000
     53 ****        -1.7718  -1.9793   1.6497 LP             1 S1                 0.0000
     54 ****        -5.2105  -2.7267   1.3590 LP             1 S1                 0.0000
@<TRIPOS>BOND
    1    1    2 1     
    2    1   25 1     
    3    1   26 1     
    4    1   27 1     
    5    2   23 1     
    6    2    3 2     
    7    3    4 1     
    8    4    5 1     
    9    4   18 am    
   10    5    6 1     
   11    5   28 1     
   12    5   29 1     
   13    6    7 2     
   14    6    8 am    
   15    8    9 1     
   16    8   30 1     
   17    9   10 1     
   18    9   11 1     
   19    9   31 1     
   20   10   32 1     
   21   10   33 1     
   22   10   34 1     
   23   11   16 1     
   24   11   12 1     
   25   11   35 1     
   26   12   13 1     
   27   12   36 1     
   28   12   37 1     
   29   13   17 1     
   30   13   14 1     
   31   13   38 1     
   32   14   15 1     
   33   14   39 1     
   34   14   40 1     
   35   15   16 1     
   36   15   41 1     
   37   15   42 1     
   38   16   17 1     
   39   16   43 1     
   40   17   44 1     
   41   17   45 1     
   42   18   19 2     
   43   18   20 1     
   44   20   21 1     
   45   20   23 2     
   46   21   22 3     
   47   23   24 1     
   48   24   46 1     
   49   24   47 1     
   50   24   48 1     
   51    3   49 1     
   52    7   50 1     
   53    7   51 1     
   54   19   52 1     
   55   19   53 1     
   56   22   54 1     
@<TRIPOS>SUBSTRUCTURE
      1 S1             1
@<TRIPOS>SET
LONE_PAIRS      STATIC     ATOMS    <user>   **** ""
6 49 50 51 52 53 54
DONOR_HYDROGENS      STATIC     ATOMS    <user>   **** ""
1 30
ATOM$BLUE        STATIC     ATOMS    COLORGROUP SYSTEM
6 49 50 51 52 53 54
ATOM$RED        STATIC     ATOMS    COLORGROUP SYSTEM
1 30
