#       Name:                AV-unprocessed.smi:826
#       Creating user name   scv26
#       Creation time:       Fri Mar 27 01:30:32 2020


#       File generated by GOLD software.
#

@<TRIPOS>MOLECULE
AV-unprocessed.smi:826
    45    46     1
SMALL
NO_CHARGES


@<TRIPOS>ATOM
      1 ****        -6.8210   2.9424   1.5708 C.3            1 S1                 0.0000
      2 ****        -5.8895   1.8552   1.1575 C.2            1 S1                 0.0000
      3 ****        -5.7890   1.4265  -0.1031 N.2            1 S1                 0.0000
      4 ****        -4.8515   0.4125  -0.2373 N.2            1 S1                 0.0000
      5 ****        -4.2489   0.0974   0.9181 C.2            1 S1                 0.0000
      6 ****        -3.3078  -0.8572   1.0028 N.pl3          1 S1                -1.0000
      7 ****        -1.9998  -0.5138   1.0310 C.2            1 S1                 0.0000
      8 ****        -1.5447   0.6316   0.9806 O.2            1 S1                 0.0000
      9 ****        -1.1661  -1.5605   1.1302 N.am           1 S1                 0.0000
     10 ****         0.2931  -1.4903   1.1962 C.3            1 S1                 0.0000
     11 ****         0.8058  -2.8030   1.8127 C.3            1 S1                 0.0000
     12 ****         0.8866  -1.3562  -0.2149 C.2            1 S1                 0.0000
     13 ****         0.5711  -2.1450  -1.1073 O.2            1 S1                 0.0000
     14 ****         1.7652  -0.3583  -0.3927 N.am           1 S1                 0.0000
     15 ****         2.4598  -0.0623  -1.6421 C.3            1 S1                 0.0000
     16 ****         3.7082  -0.9521  -1.8201 C.3            1 S1                 0.0000
     17 ****         4.8707  -0.0030  -2.1202 C.3            1 S1                 0.0000
     18 ****         4.4791   1.3063  -1.4421 C.3            1 S1                 0.0000
     19 ****         2.9666   1.3908  -1.6455 C.3            1 S1                 0.0000
     20 ****        -4.8293   1.0380   2.2925 S.3            1 S1                 0.0000
     21 ****        -6.2962   3.8978   1.5773 H              1 S1                 0.0000
     22 ****        -7.2059   2.7465   2.5716 H              1 S1                 0.0000
     23 ****        -7.6627   3.0079   0.8805 H              1 S1                 0.0000
     24 ****        -1.5793  -2.4809   1.1580 H              1 S1                 0.0000
     25 ****         0.6013  -0.6514   1.8237 H              1 S1                 0.0000
     26 ****         1.8940  -2.8077   1.8853 H              1 S1                 0.0000
     27 ****         0.5064  -3.6741   1.2279 H              1 S1                 0.0000
     28 ****         0.4138  -2.9358   2.8214 H              1 S1                 0.0000
     29 ****         1.9608   0.2438   0.3935 H              1 S1                 0.0000
     30 ****         1.7741  -0.1973  -2.4808 H              1 S1                 0.0000
     31 ****         3.9243  -1.5014  -0.9022 H              1 S1                 0.0000
     32 ****         3.5744  -1.6909  -2.6108 H              1 S1                 0.0000
     33 ****         5.8282  -0.3884  -1.7690 H              1 S1                 0.0000
     34 ****         4.9493   0.1525  -3.1970 H              1 S1                 0.0000
     35 ****         4.7048   1.2515  -0.3764 H              1 S1                 0.0000
     36 ****         5.0067   2.1677  -1.8527 H              1 S1                 0.0000
     37 ****         2.7624   1.8384  -2.6191 H              1 S1                 0.0000
     38 ****         2.4837   2.0213  -0.8975 H              1 S1                 0.0000
     39 ****        -6.3268   1.7936  -0.8621 LP             1 S1                 0.0000
     40 ****        -4.6463  -0.0371  -1.1067 LP             1 S1                 0.0000
     41 ****        -3.5737  -1.8202   1.0449 LP             1 S1                 0.0000
     42 ****        -2.1645   1.4134   0.9118 LP             1 S1                 0.0000
     43 ****        -0.5559   0.7785   1.0085 LP             1 S1                 0.0000
     44 ****        -0.0774  -2.8819  -0.9170 LP             1 S1                 0.0000
     45 ****         0.9636  -2.0482  -2.0220 LP             1 S1                 0.0000
@<TRIPOS>BOND
    1    1    2 1     
    2    1   21 1     
    3    1   22 1     
    4    1   23 1     
    5    2   20 1     
    6    2    3 2     
    7    3    4 1     
    8    4    5 2     
    9    5    6 1     
   10    5   20 1     
   11    6    7 1     
   12    7    8 2     
   13    7    9 am    
   14    9   10 1     
   15    9   24 1     
   16   10   11 1     
   17   10   12 1     
   18   10   25 1     
   19   11   26 1     
   20   11   27 1     
   21   11   28 1     
   22   12   13 2     
   23   12   14 am    
   24   14   15 1     
   25   14   29 1     
   26   15   19 1     
   27   15   16 1     
   28   15   30 1     
   29   16   17 1     
   30   16   31 1     
   31   16   32 1     
   32   17   18 1     
   33   17   33 1     
   34   17   34 1     
   35   18   19 1     
   36   18   35 1     
   37   18   36 1     
   38   19   37 1     
   39   19   38 1     
   40    3   39 1     
   41    4   40 1     
   42    6   41 1     
   43    8   42 1     
   44    8   43 1     
   45   13   44 1     
   46   13   45 1     
@<TRIPOS>SUBSTRUCTURE
      1 S1             1
@<TRIPOS>SET
LONE_PAIRS      STATIC     ATOMS    <user>   **** ""
7 39 40 41 42 43 44 45
DONOR_HYDROGENS      STATIC     ATOMS    <user>   **** ""
2 24 29
ATOM$BLUE        STATIC     ATOMS    COLORGROUP SYSTEM
7 39 40 41 42 43 44 45
ATOM$RED        STATIC     ATOMS    COLORGROUP SYSTEM
2 24 29
