AV-unprocessed.smi:1455|AV-procd|sdf|5916|dock2
  -GOLD-   22720 6 03D 1   1.00000     0.00000
 Structure written by MMmdl.
 31 32  0  0  0  0  0  0  0  0  2 V2000
  152.7947  140.3865  157.8478 O   0  0  0  0  0  0  0  0  0  0  0  0
  151.7955  141.1037  157.8876 C   0  0  0  0  0  0  0  0  0  0  0  0
  150.5533  140.7031  157.0727 C   0  0  0  0  0  0  0  0  0  0  0  0
  150.6842  139.4368  156.3286 N   0  0  0  0  0  0  0  0  0  0  0  0
  150.8713  138.2610  157.0767 C   0  0  0  0  0  0  0  0  0  0  0  0
  150.9882  137.0553  156.4885 C   0  0  0  0  0  0  0  0  0  0  0  0
  150.9176  136.9874  155.0341 C   0  0  0  0  0  0  0  0  0  0  0  0
  151.0249  135.8955  154.4796 O   0  0  0  0  0  0  0  0  0  0  0  0
  150.7316  138.1556  154.3527 N   0  5  0  0  0  0  0  0  0  0  0  0
  150.6106  139.3744  154.9646 C   0  0  0  0  0  0  0  0  0  0  0  0
  150.4309  140.4145  154.3311 O   0  0  0  0  0  0  0  0  0  0  0  0
  151.7347  142.2249  158.6253 N   0  0  0  0  0  0  0  0  0  0  0  0
  152.8071  142.7478  159.4649 C   0  0  0  0  0  0  0  0  0  0  0  0
  153.1473  141.7814  160.6188 C   0  0  0  0  0  0  0  0  0  0  0  0
  153.1070  142.6162  161.9005 C   0  0  0  0  0  0  0  0  0  0  0  0
  152.1129  143.7324  161.5953 C   0  0  0  0  0  0  0  0  0  0  0  0
  152.3718  144.0674  160.1267 C   0  0  0  0  0  0  0  0  0  0  0  0
  149.6954  140.6629  157.7458 H   0  0  0  0  0  0  0  0  0  0  0  0
  150.3287  141.5161  156.3809 H   0  0  0  0  0  0  0  0  0  0  0  0
  150.9051  138.3986  158.1475 H   0  0  0  0  0  0  0  0  0  0  0  0
  151.1276  136.1610  157.0778 H   0  0  0  0  0  0  0  0  0  0  0  0
  150.8773  142.7583  158.5952 H   0  0  0  0  0  0  0  0  0  0  0  0
  153.6898  142.9346  158.8506 H   0  0  0  0  0  0  0  0  0  0  0  0
  152.4025  140.9868  160.6893 H   0  0  0  0  0  0  0  0  0  0  0  0
  154.1157  141.3003  160.4779 H   0  0  0  0  0  0  0  0  0  0  0  0
  152.8249  142.0293  162.7750 H   0  0  0  0  0  0  0  0  0  0  0  0
  154.0916  143.0451  162.0906 H   0  0  0  0  0  0  0  0  0  0  0  0
  151.0940  143.3611  161.7138 H   0  0  0  0  0  0  0  0  0  0  0  0
  152.2336  144.5951  162.2507 H   0  0  0  0  0  0  0  0  0  0  0  0
  153.1895  144.7866  160.0636 H   0  0  0  0  0  0  0  0  0  0  0  0
  151.5047  144.5273  159.6499 H   0  0  0  0  0  0  0  0  0  0  0  0
  1  2  2  0  0  0  0
  2  3  1  0  0  0  0
  2 12  1  0  0  0  0
  3  4  1  0  0  0  0
  3 18  1  0  0  0  0
  3 19  1  0  0  0  0
  4 10  1  0  0  0  0
  4  5  1  0  0  0  0
  5  6  2  0  0  0  0
  5 20  1  0  0  0  0
  6  7  1  0  0  0  0
  6 21  1  0  0  0  0
  7  8  2  0  0  0  0
  7  9  1  0  0  0  0
  9 10  1  0  0  0  0
 10 11  2  0  0  0  0
 12 13  1  0  0  0  0
 12 22  1  0  0  0  0
 13 17  1  0  0  0  0
 13 14  1  0  0  0  0
 13 23  1  0  0  0  0
 14 15  1  0  0  0  0
 14 24  1  0  0  0  0
 14 25  1  0  0  0  0
 15 16  1  0  0  0  0
 15 26  1  0  0  0  0
 15 27  1  0  0  0  0
 16 17  1  0  0  0  0
 16 28  1  0  0  0  0
 16 29  1  0  0  0  0
 17 30  1  0  0  0  0
 17 31  1  0  0  0  0
M  CHG  1   9  -1
M  END
> <s_m_source_file>
AV-unprocessed.smi

> <i_m_source_file_index>
1455

> <i_lp_mmshare_version>
43012

> <i_f3d_flags>
0

> <s_epik_input>
W0NIMl0xW0NIMl1bQ0gyXVtDSDJdW0NIXTFbTkhdQyg9TylbQ0gyXW4yW2NIXVtjSF1jKD1PKVtuSF1jMj1P

> <s_epik_cmdline>
J2VwaWtfcHl0aG9uJywgJy1waCcsICc3LjAnLCAnLXRuJywgJzgnLCAnLW1hJywgJzIwMCcsICctbWV0YWxfYmluZGluZycsICctaW1hZScsICc8aW5maWxlLm1hZT4nLCAnLW9tYWUnLCAnPG91dGZpbGUubWFlPic=

> <r_lp_tautomer_probability>
0.999537

> <r_epik_Ionization_Penalty>
3.09122

> <r_epik_Ionization_Penalty_Charging>
2.83991e-08

> <r_epik_Ionization_Penalty_Neutral>
3.09122

> <r_epik_State_Penalty>
3.09028

> <r_epik_Charging_Adjusted_Penalty>
3.09028

> <i_epik_Tot_Q>
-1

> <i_epik_Tot_abs_Q>
1

> <r_epik_Metal_State_Penalty>
0.460928

> <b_epik_Metal_Only>
1

> <s_lp_Force_Field>
OPLS_2005

> <r_lp_Energy>
25.8803

> <b_lp_Chiralities_Consistent>
1

> <s_lp_Variant>
AV-unprocessed.smi:1455-2

> <Gold.Version>
5.8.1

> <Gold.Id.Protein>
6NUR|6NUR_protein|mol2

> <Gold.PLP.Fitness>
42.1010

> <Gold.PLP.PLP>
-33.3476

> <Gold.PLP.part.hbond>
-3.0000

> <Gold.PLP.part.metal>
0.0000

> <Gold.PLP.part.buried>
-5.1536

> <Gold.PLP.part.nonpolar>
-25.8411

> <Gold.PLP.part.repulsive>
0.5499

> <Gold.PLP.ligand.clash>
0.0000

> <Gold.PLP.ligand.torsion>
0.0179

> <Gold.PLP.Chemscore.Hbond>
2.9280

> <Gold.PLP.Chemscore.CHOScore>
0.0000

> <Gold.PLP.Chemscore.Metal>
0.0000

> <Gold.Chemscore.Hbonds>
donor molecule, donor type, donor heavy atom, donor atom, acceptor molecule, acceptor atom, score
      P1  H  7989  7998       L1    11  0.99
      P1  H  7997  8008       L1     1  0.90
      P1  H 10752 10763       L1     8  1.00

> <Gold.PLP.Chemscore.Internal.Correction>
0.0052

> <Gold.Rescore>
     Score         DG    S(hbond)    S(metal)    S(lipo)     H(rot)  DE(clash)    DE(int)     intcor
     16.34     -16.51       2.14        0.00      70.13       1.69       0.05       0.13       ----

> <Gold.Chemscore.Fitness>
16.3405

> <Gold.Chemscore.DG>
-16.5141

> <Gold.Chemscore.ZeroCoef>
-5.4800

> <Gold.Chemscore.Hbond>
2.1403

> <Gold.Chemscore.Metal>
0.0000

> <Gold.Chemscore.Lipo>
70.1313

> <Gold.Chemscore.Internal_Hbond>
0.0000

> <Gold.Chemscore.DEClash>
0.0480

> <Gold.Chemscore.DEInternal>
0.1257

> <Gold.Chemscore.Rot>
1.6875

> <Gold.Chemscore.Internal.Correction>
   9.000000E+99

> <Gold.Chemscore.Hbonds>
donor molecule, donor type, donor heavy atom, donor atom, acceptor molecule, acceptor atom, score
      P1  H  7989  7998       L1    11  0.81
      P1  H  7997  8008       L1     1  0.87
      P1  H 10752 10763       L1     8  0.39

> <Gold.Chemscore.Hbond.Weighted>
-7.1487

> <Gold.Chemscore.Metal.Weighted>
-0.0000

> <Gold.Chemscore.Lipo.Weighted>
-8.2054

> <Gold.Chemscore.Internal_Hbond.Weighted>
0.0000

> <Gold.Chemscore.DEClash.Weighted>
0.0480

> <Gold.Chemscore.DEInternal.Weighted>
0.1257

> <Gold.Chemscore.Rot.Weighted>
4.3200

> <Gold.Chemscore.Internal.Correction.Weighted>
   9.000000E+99

> <Gold.Protein.RotatedTorsions>
[ 6907 6896 6895 6894 ] final  -59.03 input  -60.11 | X-H torsion
[ 7974 7965 7964 7962 ] final   34.84 input  175.53 | X-H torsion
[ 8008 7997 7996 7995 ] final  -71.59 input   59.86 | X-H torsion
[ 10167 10162 10161 10158 ] final  -50.35 input  -65.29 | X-H torsion
[ 10718 10713 10712 10709 ] final  169.26 input   66.30 | X-H torsion
[ 10763 10752 10751 10750 ] final   57.28 input  -60.55 | X-H torsion
[ 11005 11000 10999 10996 ] final   95.18 input  -57.11 | X-H torsion

> <Gold.Protein.ActiveResidues>
 VAL166  LYS551  ARG553  GLY616  TRP617  ASP618  TYR619  PRO620  LYS621  CYS622 
 ASP623  PHE694  ASN695  SER759  ASP760  ASP761  ALA762  ILE779  LEU786  VAL792 
 PHE793  MET794  SER795  GLU796  ALA797  LYS798  CYS799  TRP800  GLU811  SER814 

> <Gold.Protein.RotatedAtoms>
  150.7961  134.7021  159.6555 H   0  0  0  0  0  0  0  0  0  0  0  0  # atno 6907 bound_to 6896
  152.4073  134.6181  160.0053 H   0  0  0  0  0  0  0  0  0  0  0  0  # atno 6908 bound_to 6896
  151.6435  133.3288  159.3171 H   0  0  0  0  0  0  0  0  0  0  0  0  # atno 6909 bound_to 6896
  146.1325  139.6218  142.9217 H   0  0  0  0  0  0  0  0  0  0  0  0  # atno 7974 bound_to 7965
  154.5100  140.0813  156.7971 H   0  0  0  0  0  0  0  0  0  0  0  0  # atno 8008 bound_to 7997
  155.3807  140.3427  155.4228 H   0  0  0  0  0  0  0  0  0  0  0  0  # atno 8009 bound_to 7997
  156.1562  140.1574  156.8677 H   0  0  0  0  0  0  0  0  0  0  0  0  # atno 8010 bound_to 7997
  140.6641  143.2661  151.4347 H   0  0  0  0  0  0  0  0  0  0  0  0  # atno 10167 bound_to 10162
  157.0252  131.0243  151.2762 H   0  0  0  0  0  0  0  0  0  0  0  0  # atno 10718 bound_to 10713
  152.9847  135.5647  154.5366 H   0  0  0  0  0  0  0  0  0  0  0  0  # atno 10763 bound_to 10752
  154.4828  135.2789  155.1559 H   0  0  0  0  0  0  0  0  0  0  0  0  # atno 10764 bound_to 10752
  154.3061  135.6297  153.5498 H   0  0  0  0  0  0  0  0  0  0  0  0  # atno 10765 bound_to 10752
  139.8791  134.8885  156.3974 H   0  0  0  0  0  0  0  0  0  0  0  0  # atno 11005 bound_to 11000
  145.5230  141.0431  143.2425 LP  0  0  0  0  0  0  0  0  0  0  0  0  # atno 17320 bound_to 7965
  144.7705  139.6746  143.7197 LP  0  0  0  0  0  0  0  0  0  0  0  0  # atno 17321 bound_to 7965
  139.5885  144.1552  152.2058 LP  0  0  0  0  0  0  0  0  0  0  0  0  # atno 17342 bound_to 10162
  140.0899  144.5629  150.7062 LP  0  0  0  0  0  0  0  0  0  0  0  0  # atno 17343 bound_to 10162
  157.5219  130.8003  149.7819 LP  0  0  0  0  0  0  0  0  0  0  0  0  # atno 17370 bound_to 10713
  156.0088  130.3843  150.2336 LP  0  0  0  0  0  0  0  0  0  0  0  0  # atno 17371 bound_to 10713
  140.9291  133.7592  156.0002 LP  0  0  0  0  0  0  0  0  0  0  0  0  # atno 17394 bound_to 11000
  140.8352  134.3132  157.5334 LP  0  0  0  0  0  0  0  0  0  0  0  0  # atno 17395 bound_to 11000

$$$$
