AV-unprocessed.smi:1047|AV-procd|sdf|4585|dock5
  -GOLD-   22720 3 53D 1   1.00000     0.00000
 Structure written by MMmdl.
 58 60  0  0  0  0  0  0  0  0  4 V2000
  144.6672  131.5194  150.9592 C   0  0  0  0  0  0  0  0  0  0  0  0
  145.4363  132.1944  152.1040 C   0  0  0  0  0  0  0  0  0  0  0  0
  144.6003  133.1686  152.8550 N   0  3  2  0  0  0  0  0  0  0  0  0
  143.8754  134.1233  151.9817 C   0  0  0  0  0  0  0  0  0  0  0  0
  144.8099  135.2391  151.4810 C   0  0  0  0  0  0  0  0  0  0  0  0
  145.3995  135.8990  152.5953 O   0  0  0  0  0  0  0  0  0  0  0  0
  146.2022  135.0281  153.3866 C   0  0  1  0  0  0  0  0  0  0  0  0
  146.8314  135.8575  154.5167 C   0  0  0  0  0  0  0  0  0  0  0  0
  147.4580  137.0903  153.9981 N   0  3  0  0  0  0  0  0  0  0  0  0
  148.1109  137.9149  155.0352 C   0  0  0  0  0  0  0  0  0  0  0  0
  149.5913  137.5351  155.2070 C   0  0  1  0  0  0  0  0  0  0  0  0
  149.8101  136.2795  154.5943 O   0  0  0  0  0  0  0  0  0  0  0  0
  150.5270  138.5873  154.5799 C   0  0  0  0  0  0  0  0  0  0  0  0
  150.2868  139.9464  155.0875 N   0  0  0  0  0  0  0  0  0  0  0  0
  149.5431  140.9532  154.5525 C   0  0  0  0  0  0  0  0  0  0  0  0
  149.6429  142.0260  155.3850 N   0  3  0  0  0  0  0  0  0  0  0  0
  150.4641  141.7020  156.4666 C   0  0  0  0  0  0  0  0  0  0  0  0
  150.8636  142.4572  157.5625 C   0  0  0  0  0  0  0  0  0  0  0  0
  151.7133  141.8311  158.5021 C   0  0  0  0  0  0  0  0  0  0  0  0
  152.1707  142.6300  159.7108 C   0  0  0  0  0  0  0  0  0  0  0  0
  152.1322  140.4871  158.3253 C   0  0  0  0  0  0  0  0  0  0  0  0
  153.0432  139.8234  159.3440 C   0  0  0  0  0  0  0  0  0  0  0  0
  151.7155  139.7361  157.2028 C   0  0  0  0  0  0  0  0  0  0  0  0
  150.8803  140.3685  156.2842 C   0  0  0  0  0  0  0  0  0  0  0  0
  145.3077  133.8961  153.9408 C   0  0  0  0  0  0  0  0  0  0  0  0
  145.3349  130.8936  150.3667 H   0  0  0  0  0  0  0  0  0  0  0  0
  144.2292  132.2590  150.2882 H   0  0  0  0  0  0  0  0  0  0  0  0
  143.8659  130.8774  151.3236 H   0  0  0  0  0  0  0  0  0  0  0  0
  145.8601  131.4447  152.7718 H   0  0  0  0  0  0  0  0  0  0  0  0
  146.2831  132.7223  151.6638 H   0  0  0  0  0  0  0  0  0  0  0  0
  143.4062  133.6042  151.1452 H   0  0  0  0  0  0  0  0  0  0  0  0
  143.0632  134.5668  152.5592 H   0  0  0  0  0  0  0  0  0  0  0  0
  145.5834  134.8442  150.8209 H   0  0  0  0  0  0  0  0  0  0  0  0
  144.2431  135.9682  150.9019 H   0  0  0  0  0  0  0  0  0  0  0  0
  147.0012  134.6079  152.7735 H   0  0  0  0  0  0  0  0  0  0  0  0
  146.0769  136.1137  155.2618 H   0  0  0  0  0  0  0  0  0  0  0  0
  147.5965  135.2681  155.0240 H   0  0  0  0  0  0  0  0  0  0  0  0
  148.1477  136.8406  153.3039 H   0  0  0  0  0  0  0  0  0  0  0  0
  148.0159  138.9720  154.7812 H   0  0  0  0  0  0  0  0  0  0  0  0
  147.5811  137.7649  155.9769 H   0  0  0  0  0  0  0  0  0  0  0  0
  149.8231  137.4429  156.2691 H   0  0  0  0  0  0  0  0  0  0  0  0
  149.7951  136.3960  153.6561 H   0  0  0  0  0  0  0  0  0  0  0  0
  151.5751  138.3258  154.7277 H   0  0  0  0  0  0  0  0  0  0  0  0
  150.3738  138.6209  153.5005 H   0  0  0  0  0  0  0  0  0  0  0  0
  148.9791  140.9116  153.6316 H   0  0  0  0  0  0  0  0  0  0  0  0
  150.5399  143.4799  157.6914 H   0  0  0  0  0  0  0  0  0  0  0  0
  153.2585  142.7011  159.7335 H   0  0  0  0  0  0  0  0  0  0  0  0
  151.8344  142.1563  160.6334 H   0  0  0  0  0  0  0  0  0  0  0  0
  151.7717  143.6447  159.6930 H   0  0  0  0  0  0  0  0  0  0  0  0
  153.2553  138.7880  159.0755 H   0  0  0  0  0  0  0  0  0  0  0  0
  152.5793  139.8223  160.3307 H   0  0  0  0  0  0  0  0  0  0  0  0
  153.9943  140.3522  159.4086 H   0  0  0  0  0  0  0  0  0  0  0  0
  152.0345  138.7125  157.0729 H   0  0  0  0  0  0  0  0  0  0  0  0
  144.5520  134.3254  154.6004 H   0  0  0  0  0  0  0  0  0  0  0  0
  145.8880  133.2110  154.5576 H   0  0  0  0  0  0  0  0  0  0  0  0
  146.7438  137.6521  153.5558 H   0  0  0  0  0  0  0  0  0  0  0  0
  143.8864  132.6096  153.3010 H   0  0  0  0  0  0  0  0  0  0  0  0
  149.1866  142.9147  155.2221 H   0  0  0  0  0  0  0  0  0  0  0  0
  1  2  1  0  0  0  0
  1 26  1  0  0  0  0
  1 27  1  0  0  0  0
  1 28  1  0  0  0  0
  2  3  1  0  0  0  0
  2 29  1  0  0  0  0
  2 30  1  0  0  0  0
  3 25  1  0  0  0  0
  3  4  1  0  0  0  0
  3 57  1  0  0  0  0
  4  5  1  0  0  0  0
  4 31  1  0  0  0  0
  4 32  1  0  0  0  0
  5  6  1  0  0  0  0
  5 33  1  0  0  0  0
  5 34  1  0  0  0  0
  6  7  1  0  0  0  0
  7  8  1  0  0  0  0
  7 25  1  0  0  0  0
  7 35  1  0  0  0  0
  8  9  1  0  0  0  0
  8 36  1  0  0  0  0
  8 37  1  0  0  0  0
  9 10  1  0  0  0  0
  9 38  1  0  0  0  0
  9 56  1  0  0  0  0
 10 11  1  0  0  0  0
 10 39  1  0  0  0  0
 10 40  1  0  0  0  0
 11 12  1  0  0  0  0
 11 13  1  0  0  0  0
 11 41  1  0  0  0  0
 12 42  1  0  0  0  0
 13 14  1  0  0  0  0
 13 43  1  0  0  0  0
 13 44  1  0  0  0  0
 14 24  1  0  0  0  0
 14 15  1  0  0  0  0
 15 16  2  0  0  0  0
 15 45  1  0  0  0  0
 16 17  1  0  0  0  0
 16 58  1  0  0  0  0
 17 24  2  0  0  0  0
 17 18  1  0  0  0  0
 18 19  2  0  0  0  0
 18 46  1  0  0  0  0
 19 20  1  0  0  0  0
 19 21  1  0  0  0  0
 20 47  1  0  0  0  0
 20 48  1  0  0  0  0
 20 49  1  0  0  0  0
 21 22  1  0  0  0  0
 21 23  2  0  0  0  0
 22 50  1  0  0  0  0
 22 51  1  0  0  0  0
 22 52  1  0  0  0  0
 23 24  1  0  0  0  0
 23 53  1  0  0  0  0
 25 54  1  0  0  0  0
 25 55  1  0  0  0  0
M  CHG  1   3   1
M  CHG  1   9   1
M  CHG  1  16   1
M  END
> <s_m_source_file>
AV-unprocessed.smi

> <i_m_source_file_index>
1047

> <i_lp_mmshare_version>
43012

> <i_f3d_flags>
0

> <s_epik_input>
W0NIM11bQ0gyXU4xW0NIMl1bQ0gyXU9bQ0BIXShbQ0gyXTEpW0NIMl1bTkhdW0NIMl1bQ0BIXShbT0hdKVtDSDJdbihbY0hdbjIpYyhjMjMpW2NIXWMoW0NIM10pYyhbY0hdMylbQ0gzXQ==

> <s_epik_cmdline>
J2VwaWtfcHl0aG9uJywgJy1waCcsICc3LjAnLCAnLXRuJywgJzgnLCAnLW1hJywgJzIwMCcsICctbWV0YWxfYmluZGluZycsICctaW1hZScsICc8aW5maWxlLm1hZT4nLCAnLW9tYWUnLCAnPG91dGZpbGUubWFlPic=

> <r_epik_Ionization_Penalty>
1.6114

> <r_epik_Ionization_Penalty_Charging>
1.61139

> <r_epik_Ionization_Penalty_Neutral>
5.04732e-06

> <r_epik_State_Penalty>
1.63724

> <r_epik_Charging_Adjusted_Penalty>
3.24864

> <i_epik_Tot_Q>
3

> <i_epik_Tot_abs_Q>
3

> <r_epik_Metal_State_Penalty>
5.64594

> <b_epik_Metal_Only>
0

> <s_lp_Force_Field>
OPLS_2005

> <r_lp_Energy>
39.6477

> <b_lp_Chiralities_Consistent>
1

> <s_lp_Variant>
AV-unprocessed.smi:1047-26

> <Gold.Version>
5.8.1

> <Gold.Id.Protein>
6NUR|6NUR_protein|mol2

> <Gold.PLP.Fitness>
64.0515

> <Gold.PLP.PLP>
-42.5784

> <Gold.PLP.part.hbond>
-4.0924

> <Gold.PLP.part.metal>
0.0000

> <Gold.PLP.part.buried>
-2.9181

> <Gold.PLP.part.nonpolar>
-35.9158

> <Gold.PLP.part.repulsive>
0.3284

> <Gold.PLP.ligand.clash>
0.0000

> <Gold.PLP.ligand.torsion>
1.2749

> <Gold.PLP.Chemscore.Hbond>
6.9840

> <Gold.PLP.Chemscore.CHOScore>
0.9559

> <Gold.PLP.Chemscore.Metal>
0.0000

> <Gold.Chemscore.Hbonds>
donor molecule, donor type, donor heavy atom, donor atom, acceptor molecule, acceptor atom, score
      L1  H     3    57       P1 10957  1.72
      L1  H     9    38       P1  7948  2.00
      L1  H    12    42       P1  7948  1.00
      L1  H    16    58       P1  8028  2.00
      L1  C    15    45       P1  7957  0.60

> <Gold.PLP.Chemscore.Internal.Correction>
0.2031

> <Gold.Rescore>
     Score         DG    S(hbond)    S(metal)    S(lipo)     H(rot)  DE(clash)    DE(int)     intcor
     20.67     -22.00       3.62        0.00      98.72       2.78       0.00       1.33       ----

> <Gold.Chemscore.Fitness>
20.6678

> <Gold.Chemscore.DG>
-21.9977

> <Gold.Chemscore.ZeroCoef>
-5.4800

> <Gold.Chemscore.Hbond>
3.6216

> <Gold.Chemscore.Metal>
0.0000

> <Gold.Chemscore.Lipo>
98.7235

> <Gold.Chemscore.Internal_Hbond>
0.0000

> <Gold.Chemscore.DEClash>
0.0036

> <Gold.Chemscore.DEInternal>
1.3263

> <Gold.Chemscore.Rot>
2.7848

> <Gold.Chemscore.Internal.Correction>
   9.000000E+99

> <Gold.Chemscore.Hbonds>
donor molecule, donor type, donor heavy atom, donor atom, acceptor molecule, acceptor atom, score
      L1  H     3    57       P1 10957  0.25
      L1  H     9    38       P1  7948  1.00
      L1  H    12    42       P1  7948  0.33
      L1  H    16    58       P1  8028  0.96

> <Gold.Chemscore.Hbond.Weighted>
-12.0962

> <Gold.Chemscore.Metal.Weighted>
-0.0000

> <Gold.Chemscore.Lipo.Weighted>
-11.5507

> <Gold.Chemscore.Internal_Hbond.Weighted>
0.0000

> <Gold.Chemscore.DEClash.Weighted>
0.0036

> <Gold.Chemscore.DEInternal.Weighted>
1.3263

> <Gold.Chemscore.Rot.Weighted>
7.1291

> <Gold.Chemscore.Internal.Correction.Weighted>
   9.000000E+99

> <Gold.Protein.RotatedTorsions>
[ 6907 6896 6895 6894 ] final -125.55 input  -60.11 | X-H torsion
[ 7974 7965 7964 7962 ] final    4.05 input  175.53 | X-H torsion
[ 8008 7997 7996 7995 ] final -115.67 input   59.86 | X-H torsion
[ 10167 10162 10161 10158 ] final -156.77 input  -65.29 | X-H torsion
[ 10718 10713 10712 10709 ] final -125.68 input   66.30 | X-H torsion
[ 10763 10752 10751 10750 ] final   48.70 input  -60.55 | X-H torsion
[ 11005 11000 10999 10996 ] final   71.15 input  -57.11 | X-H torsion

> <Gold.Protein.ActiveResidues>
 VAL166  LYS551  ARG553  GLY616  TRP617  ASP618  TYR619  PRO620  LYS621  CYS622 
 ASP623  PHE694  ASN695  SER759  ASP760  ASP761  ALA762  ILE779  LEU786  VAL792 
 PHE793  MET794  SER795  GLU796  ALA797  LYS798  CYS799  TRP800  GLU811  SER814 

> <Gold.Protein.RotatedAtoms>
  150.8878  133.7283  159.2913 H   0  0  0  0  0  0  0  0  0  0  0  0  # atno 6907 bound_to 6896
  151.4843  135.1052  159.9796 H   0  0  0  0  0  0  0  0  0  0  0  0  # atno 6908 bound_to 6896
  152.4801  133.8187  159.7097 H   0  0  0  0  0  0  0  0  0  0  0  0  # atno 6909 bound_to 6896
  146.2444  140.0594  142.8369 H   0  0  0  0  0  0  0  0  0  0  0  0  # atno 7974 bound_to 7965
  155.0557  140.0393  157.2559 H   0  0  0  0  0  0  0  0  0  0  0  0  # atno 8008 bound_to 7997
  154.7101  140.2691  155.6613 H   0  0  0  0  0  0  0  0  0  0  0  0  # atno 8009 bound_to 7997
  156.2787  140.2723  156.1739 H   0  0  0  0  0  0  0  0  0  0  0  0  # atno 8010 bound_to 7997
  139.6823  143.9559  152.2343 H   0  0  0  0  0  0  0  0  0  0  0  0  # atno 10167 bound_to 10162
  156.1697  130.6659  151.0163 H   0  0  0  0  0  0  0  0  0  0  0  0  # atno 10718 bound_to 10713
  152.9790  135.5935  154.3969 H   0  0  0  0  0  0  0  0  0  0  0  0  # atno 10763 bound_to 10752
  154.3619  135.2767  155.2317 H   0  0  0  0  0  0  0  0  0  0  0  0  # atno 10764 bound_to 10752
  154.4311  135.6036  153.6124 H   0  0  0  0  0  0  0  0  0  0  0  0  # atno 10765 bound_to 10752
  139.9559  134.7145  156.0755 H   0  0  0  0  0  0  0  0  0  0  0  0  # atno 11005 bound_to 11000
  145.0914  140.9286  143.4767 LP  0  0  0  0  0  0  0  0  0  0  0  0  # atno 17320 bound_to 7965
  145.0767  139.2990  143.5804 LP  0  0  0  0  0  0  0  0  0  0  0  0  # atno 17321 bound_to 7965
  139.9353  144.6716  150.8321 LP  0  0  0  0  0  0  0  0  0  0  0  0  # atno 17342 bound_to 10162
  140.7656  143.3281  151.2471 LP  0  0  0  0  0  0  0  0  0  0  0  0  # atno 17343 bound_to 10162
  157.6794  131.0842  150.7410 LP  0  0  0  0  0  0  0  0  0  0  0  0  # atno 17370 bound_to 10713
  156.7469  130.4756  149.5465 LP  0  0  0  0  0  0  0  0  0  0  0  0  # atno 17371 bound_to 10713
  141.1230  133.6607  156.3264 LP  0  0  0  0  0  0  0  0  0  0  0  0  # atno 17394 bound_to 11000
  140.5611  134.5934  157.5433 LP  0  0  0  0  0  0  0  0  0  0  0  0  # atno 17395 bound_to 11000

$$$$
