AV-unprocessed.smi:2632|AV-procd|sdf|10250|dock9
  -GOLD-   2272014263D 1   1.00000     0.00000
 Structure written by MMmdl.
 38 39  0  0  0  0  0  0  0  0  1 V2000
  145.0928  143.8434  153.6429 C   0  0  0  0  0  0  0  0  0  0  0  0
  145.2749  142.6121  154.3185 O   0  0  0  0  0  0  0  0  0  0  0  0
  145.9309  142.7665  155.5664 C   0  0  0  0  0  0  0  0  0  0  0  0
  146.2747  141.3816  156.1400 C   0  0  0  0  0  0  0  0  0  0  0  0
  147.6197  140.9529  155.8112 N   0  0  0  0  0  0  0  0  0  0  0  0
  148.6248  140.7517  156.7610 C   0  0  0  0  0  0  0  0  0  0  0  0
  148.3368  140.9495  158.1009 N   0  0  0  0  0  0  0  0  0  0  0  0
  149.8777  140.3848  156.3856 C   0  0  0  0  0  0  0  0  0  0  0  0
  151.2476  140.1265  157.4874 S   0  0  0  0  0  0  0  0  0  0  0  0
  151.4015  141.7270  158.2110 C   0  0  0  0  0  0  0  0  0  0  0  0
  151.9791  141.8692  159.4883 C   0  0  0  0  0  0  0  0  0  0  0  0
  152.0927  143.1472  160.0690 C   0  0  0  0  0  0  0  0  0  0  0  0
  151.6317  144.2847  159.3738 C   0  0  0  0  0  0  0  0  0  0  0  0
  151.7541  145.6570  160.0035 C   0  0  0  0  0  0  0  0  0  0  0  0
  151.0537  144.1376  158.0951 C   0  0  0  0  0  0  0  0  0  0  0  0
  150.9398  142.8600  157.5132 C   0  0  0  0  0  0  0  0  0  0  0  0
  150.2463  140.1764  154.9836 C   0  0  0  0  0  0  0  0  0  0  0  0
  151.3484  139.8341  154.5554 O   0  0  0  0  0  0  0  0  0  0  0  0
  149.2021  140.4081  154.0889 N   0  0  0  0  0  0  0  0  0  0  0  0
  147.9077  140.7955  154.4317 C   0  0  0  0  0  0  0  0  0  0  0  0
  147.0797  140.9875  153.5406 O   0  0  0  0  0  0  0  0  0  0  0  0
  149.4027  140.2897  153.1064 H   0  0  0  0  0  0  0  0  0  0  0  0
  144.5820  143.6686  152.6962 H   0  0  0  0  0  0  0  0  0  0  0  0
  146.0499  144.3204  153.4280 H   0  0  0  0  0  0  0  0  0  0  0  0
  144.4829  144.5298  154.2318 H   0  0  0  0  0  0  0  0  0  0  0  0
  146.8474  143.3414  155.4270 H   0  0  0  0  0  0  0  0  0  0  0  0
  145.3020  143.3251  156.2612 H   0  0  0  0  0  0  0  0  0  0  0  0
  146.1797  141.3628  157.2250 H   0  0  0  0  0  0  0  0  0  0  0  0
  145.5878  140.6133  155.7805 H   0  0  0  0  0  0  0  0  0  0  0  0
  147.4182  141.2355  158.4079 H   0  0  0  0  0  0  0  0  0  0  0  0
  148.9890  140.6880  158.8264 H   0  0  0  0  0  0  0  0  0  0  0  0
  152.3319  141.0018  160.0266 H   0  0  0  0  0  0  0  0  0  0  0  0
  152.5341  143.2517  161.0493 H   0  0  0  0  0  0  0  0  0  0  0  0
  151.6886  146.4430  159.2507 H   0  0  0  0  0  0  0  0  0  0  0  0
  152.7108  145.7601  160.5164 H   0  0  0  0  0  0  0  0  0  0  0  0
  150.9559  145.8104  160.7300 H   0  0  0  0  0  0  0  0  0  0  0  0
  150.6952  145.0027  157.5568 H   0  0  0  0  0  0  0  0  0  0  0  0
  150.4938  142.7514  156.5354 H   0  0  0  0  0  0  0  0  0  0  0  0
  1  2  1  0  0  0  0
  1 23  1  0  0  0  0
  1 24  1  0  0  0  0
  1 25  1  0  0  0  0
  2  3  1  0  0  0  0
  3  4  1  0  0  0  0
  3 26  1  0  0  0  0
  3 27  1  0  0  0  0
  4  5  1  0  0  0  0
  4 28  1  0  0  0  0
  4 29  1  0  0  0  0
  5 20  1  0  0  0  0
  5  6  1  0  0  0  0
  6  7  1  0  0  0  0
  6  8  2  0  0  0  0
  7 30  1  0  0  0  0
  7 31  1  0  0  0  0
  8  9  1  0  0  0  0
  8 17  1  0  0  0  0
  9 10  1  0  0  0  0
 10 16  1  0  0  0  0
 10 11  2  0  0  0  0
 11 12  1  0  0  0  0
 11 32  1  0  0  0  0
 12 13  2  0  0  0  0
 12 33  1  0  0  0  0
 13 14  1  0  0  0  0
 13 15  1  0  0  0  0
 14 34  1  0  0  0  0
 14 35  1  0  0  0  0
 14 36  1  0  0  0  0
 15 16  2  0  0  0  0
 15 37  1  0  0  0  0
 16 38  1  0  0  0  0
 17 18  2  0  0  0  0
 17 19  1  0  0  0  0
 19 22  1  0  0  0  0
 19 20  1  0  0  0  0
 20 21  2  0  0  0  0
M  END
> <s_m_source_file>
AV-unprocessed.smi

> <i_m_source_file_index>
2632

> <i_lp_mmshare_version>
43012

> <i_f3d_flags>
0

> <s_epik_input>
W0NIM11PW0NIMl1bQ0gyXW4xYyhbTkgyXSljKGMoPU8pW25IXWMxPU8pU2MyW2NIXVtjSF1jKFtDSDNdKVtjSF1bY0hdMg==

> <s_epik_cmdline>
J2VwaWtfcHl0aG9uJywgJy1waCcsICc3LjAnLCAnLXRuJywgJzgnLCAnLW1hJywgJzIwMCcsICctbWV0YWxfYmluZGluZycsICctaW1hZScsICc8aW5maWxlLm1hZT4nLCAnLW9tYWUnLCAnPG91dGZpbGUubWFlPic=

> <r_lp_tautomer_probability>
1

> <r_epik_Ionization_Penalty>
1.3786e-05

> <r_epik_Ionization_Penalty_Charging>
1.17844e-05

> <r_epik_Ionization_Penalty_Neutral>
2.00164e-06

> <r_epik_State_Penalty>
-0

> <r_epik_Charging_Adjusted_Penalty>
1.17844e-05

> <i_epik_Tot_Q>
0

> <i_epik_Tot_abs_Q>
0

> <r_epik_Metal_State_Penalty>
0.0115847

> <b_epik_Metal_Only>
0

> <s_epik_Chemistry_Notes>
This compound has an imine and may undergo hydrolysis.

> <s_lp_Force_Field>
OPLS_2005

> <r_lp_Energy>
18.7052

> <b_lp_Chiralities_Consistent>
1

> <s_lp_Variant>
AV-unprocessed.smi:2632-1

> <Gold.Version>
5.8.1

> <Gold.Id.Protein>
6NUR|6NUR_protein|mol2

> <Gold.PLP.Fitness>
44.1473

> <Gold.PLP.PLP>
-39.3547

> <Gold.PLP.part.hbond>
-1.9926

> <Gold.PLP.part.metal>
0.0000

> <Gold.PLP.part.buried>
-5.0983

> <Gold.PLP.part.nonpolar>
-33.9311

> <Gold.PLP.part.repulsive>
0.8304

> <Gold.PLP.ligand.clash>
0.0000

> <Gold.PLP.ligand.torsion>
0.6157

> <Gold.PLP.Chemscore.Hbond>
2.0000

> <Gold.PLP.Chemscore.CHOScore>
0.0000

> <Gold.PLP.Chemscore.Metal>
0.0000

> <Gold.Chemscore.Hbonds>
donor molecule, donor type, donor heavy atom, donor atom, acceptor molecule, acceptor atom, score
      L1  H    19    22       P1  7957  1.00
      P1  H  7989  7998       L1    18  0.93

> <Gold.PLP.Chemscore.Internal.Correction>
0.0240

> <Gold.Rescore>
     Score         DG    S(hbond)    S(metal)    S(lipo)     H(rot)  DE(clash)    DE(int)     intcor
     15.69     -17.43       1.74        0.00      96.53       2.02       0.87       0.87       ----

> <Gold.Chemscore.Fitness>
15.6947

> <Gold.Chemscore.DG>
-17.4286

> <Gold.Chemscore.ZeroCoef>
-5.4800

> <Gold.Chemscore.Hbond>
1.7427

> <Gold.Chemscore.Metal>
0.0000

> <Gold.Chemscore.Lipo>
96.5320

> <Gold.Chemscore.Internal_Hbond>
0.0000

> <Gold.Chemscore.DEClash>
0.8678

> <Gold.Chemscore.DEInternal>
0.8662

> <Gold.Chemscore.Rot>
2.0180

> <Gold.Chemscore.Internal.Correction>
   9.000000E+99

> <Gold.Chemscore.Hbonds>
donor molecule, donor type, donor heavy atom, donor atom, acceptor molecule, acceptor atom, score
      L1  H    19    22       P1  7957  0.98
      P1  H  7989  7998       L1    18  0.40

> <Gold.Chemscore.Hbond.Weighted>
-5.8205

> <Gold.Chemscore.Metal.Weighted>
-0.0000

> <Gold.Chemscore.Lipo.Weighted>
-11.2942

> <Gold.Chemscore.Internal_Hbond.Weighted>
0.0000

> <Gold.Chemscore.DEClash.Weighted>
0.8678

> <Gold.Chemscore.DEInternal.Weighted>
0.8662

> <Gold.Chemscore.Rot.Weighted>
5.1661

> <Gold.Chemscore.Internal.Correction.Weighted>
   9.000000E+99

> <Gold.Protein.RotatedTorsions>
[ 6907 6896 6895 6894 ] final -134.20 input  -60.11 | X-H torsion
[ 7974 7965 7964 7962 ] final  157.84 input  175.53 | X-H torsion
[ 8008 7997 7996 7995 ] final -131.01 input   59.86 | X-H torsion
[ 10167 10162 10161 10158 ] final  -56.41 input  -65.29 | X-H torsion
[ 10718 10713 10712 10709 ] final   -7.33 input   66.30 | X-H torsion
[ 10763 10752 10751 10750 ] final -109.04 input  -60.55 | X-H torsion
[ 11005 11000 10999 10996 ] final  121.98 input  -57.11 | X-H torsion

> <Gold.Protein.ActiveResidues>
 VAL166  LYS551  ARG553  GLY616  TRP617  ASP618  TYR619  PRO620  LYS621  CYS622 
 ASP623  PHE694  ASN695  SER759  ASP760  ASP761  ALA762  ILE779  LEU786  VAL792 
 PHE793  MET794  SER795  GLU796  ALA797  LYS798  CYS799  TRP800  GLU811  SER814 

> <Gold.Protein.RotatedAtoms>
  150.9830  133.6226  159.2719 H   0  0  0  0  0  0  0  0  0  0  0  0  # atno 6907 bound_to 6896
  151.3474  135.0876  159.9401 H   0  0  0  0  0  0  0  0  0  0  0  0  # atno 6908 bound_to 6896
  152.5222  133.9430  159.7690 H   0  0  0  0  0  0  0  0  0  0  0  0  # atno 6909 bound_to 6896
  144.7880  139.7395  143.6233 H   0  0  0  0  0  0  0  0  0  0  0  0  # atno 7974 bound_to 7965
  155.3052  140.0454  157.3032 H   0  0  0  0  0  0  0  0  0  0  0  0  # atno 8008 bound_to 7997
  154.5464  140.2304  155.8523 H   0  0  0  0  0  0  0  0  0  0  0  0  # atno 8009 bound_to 7997
  156.1927  140.3046  155.9372 H   0  0  0  0  0  0  0  0  0  0  0  0  # atno 8010 bound_to 7997
  140.6318  143.2463  151.5220 H   0  0  0  0  0  0  0  0  0  0  0  0  # atno 10167 bound_to 10162
  156.7188  130.5144  149.5873 H   0  0  0  0  0  0  0  0  0  0  0  0  # atno 10718 bound_to 10713
  154.8170  135.4615  154.0672 H   0  0  0  0  0  0  0  0  0  0  0  0  # atno 10763 bound_to 10752
  153.2057  135.6875  153.8183 H   0  0  0  0  0  0  0  0  0  0  0  0  # atno 10764 bound_to 10752
  153.7652  135.3278  155.3320 H   0  0  0  0  0  0  0  0  0  0  0  0  # atno 10765 bound_to 10752
  139.9249  134.9640  156.8040 H   0  0  0  0  0  0  0  0  0  0  0  0  # atno 11005 bound_to 11000
  146.2120  139.5483  142.9675 LP  0  0  0  0  0  0  0  0  0  0  0  0  # atno 17320 bound_to 7965
  145.5870  141.0375  143.2091 LP  0  0  0  0  0  0  0  0  0  0  0  0  # atno 17321 bound_to 7965
  139.5532  144.2342  152.1567 LP  0  0  0  0  0  0  0  0  0  0  0  0  # atno 17342 bound_to 10162
  140.1588  144.5045  150.6644 LP  0  0  0  0  0  0  0  0  0  0  0  0  # atno 17343 bound_to 10162
  156.1609  130.6373  151.0718 LP  0  0  0  0  0  0  0  0  0  0  0  0  # atno 17370 bound_to 10713
  157.6906  131.0811  150.7117 LP  0  0  0  0  0  0  0  0  0  0  0  0  # atno 17371 bound_to 10713
  140.6366  133.9856  155.7687 LP  0  0  0  0  0  0  0  0  0  0  0  0  # atno 17394 bound_to 11000
  141.0798  134.0079  157.3403 LP  0  0  0  0  0  0  0  0  0  0  0  0  # atno 17395 bound_to 11000

$$$$
