AV-unprocessed.smi:233|AV-procd|sdf|1784|dock6
  -GOLD-   2262020333D 1   1.00000     0.00000
 Structure written by MMmdl.
 59 62  0  0  0  0  0  0  0  0  1 V2000
  146.0184  135.4036  161.7348 C   0  0  0  0  0  0  0  0  0  0  0  0
  147.2639  135.9651  161.0579 C   0  0  0  0  0  0  0  0  0  0  0  0
  148.0037  136.7360  161.6686 O   0  0  0  0  0  0  0  0  0  0  0  0
  147.4819  135.5685  159.7949 N   0  0  0  0  0  0  0  0  0  0  0  0
  148.6072  135.9798  158.9566 C   0  0  2  0  0  0  0  0  0  0  0  0
  148.7484  137.5133  158.9083 C   0  0  0  0  0  0  0  0  0  0  0  0
  147.5970  138.1814  158.1375 C   0  0  0  0  0  0  0  0  0  0  0  0
  147.4579  137.6281  156.6992 C   0  0  2  0  0  0  0  0  0  0  0  0
  146.3511  138.2793  155.9806 N   0  0  0  0  0  0  0  0  0  0  0  0
  146.2460  139.7320  156.0791 C   0  0  0  0  0  0  0  0  0  0  0  0
  146.1740  137.8859  154.6992 C   0  0  0  0  0  0  0  0  0  0  0  0
  146.6470  138.7028  153.7261 N   0  0  0  0  0  0  0  0  0  0  0  0
  146.5007  138.3633  152.4417 C   0  0  0  0  0  0  0  0  0  0  0  0
  145.9236  137.2756  151.9253 N   0  0  0  0  0  0  0  0  0  0  0  0
  145.4514  136.4513  152.9044 C   0  0  0  0  0  0  0  0  0  0  0  0
  145.5405  136.6734  154.3069 C   0  0  0  0  0  0  0  0  0  0  0  0
  144.9709  135.6086  154.9938 N   0  0  0  0  0  0  0  0  0  0  0  0
  144.5682  134.8020  154.0502 C   0  0  0  0  0  0  0  0  0  0  0  0
  144.7909  135.2439  152.7650 N   0  0  0  0  0  0  0  0  0  0  0  0
  144.4821  134.5533  151.5478 C   0  0  0  0  0  0  0  0  0  0  0  0
  144.0840  133.0762  151.5652 C   0  0  0  0  0  0  0  0  0  0  0  0
  144.7548  132.8862  150.1858 C   0  0  0  0  0  0  0  0  0  0  0  0
  145.5710  131.5942  150.0169 C   0  0  0  0  0  0  0  0  0  0  0  0
  146.6219  131.7716  149.0890 O   0  0  0  0  0  0  0  0  0  0  0  0
  143.8200  133.0581  148.9715 C   0  0  0  0  0  0  0  0  0  0  0  0
  142.7610  132.1224  148.9981 O   0  0  0  0  0  0  0  0  0  0  0  0
  145.5783  134.1374  150.5637 C   0  0  0  0  0  0  0  0  0  0  0  0
  147.3018  136.0855  156.7600 C   0  0  0  0  0  0  0  0  0  0  0  0
  148.4489  135.4135  157.5349 C   0  0  0  0  0  0  0  0  0  0  0  0
  145.1610  135.4449  161.0619 H   0  0  0  0  0  0  0  0  0  0  0  0
  145.7748  135.9751  162.6311 H   0  0  0  0  0  0  0  0  0  0  0  0
  146.1814  134.3649  162.0239 H   0  0  0  0  0  0  0  0  0  0  0  0
  146.8167  134.9332  159.3787 H   0  0  0  0  0  0  0  0  0  0  0  0
  149.5183  135.5584  159.3850 H   0  0  0  0  0  0  0  0  0  0  0  0
  148.8087  137.9243  159.9166 H   0  0  0  0  0  0  0  0  0  0  0  0
  149.6921  137.7685  158.4246 H   0  0  0  0  0  0  0  0  0  0  0  0
  146.6612  138.0409  158.6801 H   0  0  0  0  0  0  0  0  0  0  0  0
  147.7824  139.2552  158.1195 H   0  0  0  0  0  0  0  0  0  0  0  0
  148.3819  137.8570  156.1672 H   0  0  0  0  0  0  0  0  0  0  0  0
  145.5934  140.1499  155.3104 H   0  0  0  0  0  0  0  0  0  0  0  0
  147.2271  140.1982  155.9808 H   0  0  0  0  0  0  0  0  0  0  0  0
  145.8274  140.0138  157.0452 H   0  0  0  0  0  0  0  0  0  0  0  0
  146.9024  139.0641  151.7247 H   0  0  0  0  0  0  0  0  0  0  0  0
  144.0886  133.8594  154.2704 H   0  0  0  0  0  0  0  0  0  0  0  0
  143.7201  135.1525  151.0464 H   0  0  0  0  0  0  0  0  0  0  0  0
  144.5818  132.5221  152.3634 H   0  0  0  0  0  0  0  0  0  0  0  0
  143.0077  132.9020  151.5861 H   0  0  0  0  0  0  0  0  0  0  0  0
  146.0140  131.2898  150.9655 H   0  0  0  0  0  0  0  0  0  0  0  0
  144.9462  130.7621  149.6920 H   0  0  0  0  0  0  0  0  0  0  0  0
  147.3593  131.2505  149.3681 H   0  0  0  0  0  0  0  0  0  0  0  0
  143.3800  134.0552  148.9513 H   0  0  0  0  0  0  0  0  0  0  0  0
  144.3619  132.9488  148.0320 H   0  0  0  0  0  0  0  0  0  0  0  0
  141.9568  132.5850  149.1774 H   0  0  0  0  0  0  0  0  0  0  0  0
  145.7435  134.8408  149.7471 H   0  0  0  0  0  0  0  0  0  0  0  0
  146.5177  133.8894  151.0616 H   0  0  0  0  0  0  0  0  0  0  0  0
  146.3470  135.8309  157.2222 H   0  0  0  0  0  0  0  0  0  0  0  0
  147.2786  135.6566  155.7581 H   0  0  0  0  0  0  0  0  0  0  0  0
  149.3796  135.5619  156.9857 H   0  0  0  0  0  0  0  0  0  0  0  0
  148.2907  134.3350  157.5745 H   0  0  0  0  0  0  0  0  0  0  0  0
  1  2  1  0  0  0  0
  1 30  1  0  0  0  0
  1 31  1  0  0  0  0
  1 32  1  0  0  0  0
  2  3  2  0  0  0  0
  2  4  1  0  0  0  0
  4  5  1  0  0  0  0
  4 33  1  0  0  0  0
  5 29  1  0  0  0  0
  5  6  1  0  0  0  0
  5 34  1  0  0  0  0
  6  7  1  0  0  0  0
  6 35  1  0  0  0  0
  6 36  1  0  0  0  0
  7  8  1  0  0  0  0
  7 37  1  0  0  0  0
  7 38  1  0  0  0  0
  8  9  1  0  0  0  0
  8 28  1  0  0  0  0
  8 39  1  0  0  0  0
  9 10  1  0  0  0  0
  9 11  1  0  0  0  0
 10 40  1  0  0  0  0
 10 41  1  0  0  0  0
 10 42  1  0  0  0  0
 11 16  1  0  0  0  0
 11 12  2  0  0  0  0
 12 13  1  0  0  0  0
 13 14  2  0  0  0  0
 13 43  1  0  0  0  0
 14 15  1  0  0  0  0
 15 19  1  0  0  0  0
 15 16  2  0  0  0  0
 16 17  1  0  0  0  0
 17 18  2  0  0  0  0
 18 19  1  0  0  0  0
 18 44  1  0  0  0  0
 19 20  1  0  0  0  0
 20 27  1  0  0  0  0
 20 21  1  0  0  0  0
 20 45  1  0  0  0  0
 21 22  1  0  0  0  0
 21 46  1  0  0  0  0
 21 47  1  0  0  0  0
 22 23  1  0  0  0  0
 22 25  1  0  0  0  0
 22 27  1  0  0  0  0
 23 24  1  0  0  0  0
 23 48  1  0  0  0  0
 23 49  1  0  0  0  0
 24 50  1  0  0  0  0
 25 26  1  0  0  0  0
 25 51  1  0  0  0  0
 25 52  1  0  0  0  0
 26 53  1  0  0  0  0
 27 54  1  0  0  0  0
 27 55  1  0  0  0  0
 28 29  1  0  0  0  0
 28 56  1  0  0  0  0
 28 57  1  0  0  0  0
 29 58  1  0  0  0  0
 29 59  1  0  0  0  0
M  END
> <s_m_source_file>
AV-unprocessed.smi

> <i_m_source_file_index>
233

> <i_lp_mmshare_version>
43012

> <i_f3d_flags>
0

> <s_epik_input>
W0NIM11DKD1PKVtOSF1bQ0BASF0xW0NIMl1bQ0gyXVtDQEhdKFtDSDJdW0NIMl0xKU4oW0NIM10pYyhuW2NIXW4yKWMoYzIzKW5bY0hdbjNbQ0hdKFtDSDJdNClbQ0gyXUM0KFtDSDJdW09IXSlbQ0gyXVtPSF0=

> <s_epik_cmdline>
J2VwaWtfcHl0aG9uJywgJy1waCcsICc3LjAnLCAnLXRuJywgJzgnLCAnLW1hJywgJzIwMCcsICctbWV0YWxfYmluZGluZycsICctaW1hZScsICc8aW5maWxlLm1hZT4nLCAnLW9tYWUnLCAnPG91dGZpbGUubWFlPic=

> <r_lp_tautomer_probability>
1

> <r_epik_Ionization_Penalty>
0.0029036

> <r_epik_Ionization_Penalty_Charging>
0

> <r_epik_Ionization_Penalty_Neutral>
0.0029036

> <r_epik_State_Penalty>
0.00183591

> <r_epik_Charging_Adjusted_Penalty>
0.00183591

> <i_epik_Tot_Q>
0

> <i_epik_Tot_abs_Q>
0

> <r_epik_Metal_State_Penalty>
-0

> <b_epik_Metal_Only>
0

> <s_lp_Force_Field>
OPLS_2005

> <r_lp_Energy>
38.4195

> <b_lp_Chiralities_Consistent>
1

> <s_lp_Variant>
AV-unprocessed.smi:233-2

> <Gold.Version>
5.8.1

> <Gold.Id.Protein>
6NUR|6NUR_protein|mol2

> <Gold.PLP.Fitness>
49.5124

> <Gold.PLP.PLP>
-33.6469

> <Gold.PLP.part.hbond>
-6.0000

> <Gold.PLP.part.metal>
0.0000

> <Gold.PLP.part.buried>
-5.7541

> <Gold.PLP.part.nonpolar>
-23.6171

> <Gold.PLP.part.repulsive>
0.8418

> <Gold.PLP.ligand.clash>
0.0000

> <Gold.PLP.ligand.torsion>
1.3149

> <Gold.PLP.Chemscore.Hbond>
4.7020

> <Gold.PLP.Chemscore.CHOScore>
1.1617

> <Gold.PLP.Chemscore.Metal>
0.0000

> <Gold.Chemscore.Hbonds>
donor molecule, donor type, donor heavy atom, donor atom, acceptor molecule, acceptor atom, score
      L1  H    24    50       P1 10747  1.00
      L1  H    26    53       P1 10186  0.84
      P1  H  6931  6943       L1     3  1.00
      P1  H 10785 10796       L1    26  0.98
      L1  C    13    43       P1  7957  0.10
      L1  C    18    44       P1 10957  0.87

> <Gold.PLP.Chemscore.Internal.Correction>
0.9041

> <Gold.Rescore>
     Score         DG    S(hbond)    S(metal)    S(lipo)     H(rot)  DE(clash)    DE(int)     intcor
     13.87     -15.51       3.64        0.00      67.28       3.91       0.23       1.41       ----

> <Gold.Chemscore.Fitness>
13.8719

> <Gold.Chemscore.DG>
-15.5122

> <Gold.Chemscore.ZeroCoef>
-5.4800

> <Gold.Chemscore.Hbond>
3.6399

> <Gold.Chemscore.Metal>
0.0000

> <Gold.Chemscore.Lipo>
67.2800

> <Gold.Chemscore.Internal_Hbond>
0.0000

> <Gold.Chemscore.DEClash>
0.2271

> <Gold.Chemscore.DEInternal>
1.4131

> <Gold.Chemscore.Rot>
3.9050

> <Gold.Chemscore.Internal.Correction>
   9.000000E+99

> <Gold.Chemscore.Hbonds>
donor molecule, donor type, donor heavy atom, donor atom, acceptor molecule, acceptor atom, score
      L1  H    24    50       P1 10747  0.99
      L1  H    26    53       P1 10186  0.78
      P1  H  6931  6943       L1     3  1.00
      P1  H 10785 10796       L1    26  0.88

> <Gold.Chemscore.Hbond.Weighted>
-12.1573

> <Gold.Chemscore.Metal.Weighted>
-0.0000

> <Gold.Chemscore.Lipo.Weighted>
-7.8718

> <Gold.Chemscore.Internal_Hbond.Weighted>
0.0000

> <Gold.Chemscore.DEClash.Weighted>
0.2271

> <Gold.Chemscore.DEInternal.Weighted>
1.4131

> <Gold.Chemscore.Rot.Weighted>
9.9969

> <Gold.Chemscore.Internal.Correction.Weighted>
   9.000000E+99

> <Gold.Protein.RotatedTorsions>
[ 6907 6896 6895 6894 ] final -104.78 input  -60.11 | X-H torsion
[ 7974 7965 7964 7962 ] final -155.92 input  175.53 | X-H torsion
[ 8008 7997 7996 7995 ] final  -71.27 input   59.86 | X-H torsion
[ 10167 10162 10161 10158 ] final  -11.09 input  -65.29 | X-H torsion
[ 10718 10713 10712 10709 ] final  146.78 input   66.30 | X-H torsion
[ 10763 10752 10751 10750 ] final  172.77 input  -60.55 | X-H torsion
[ 11005 11000 10999 10996 ] final  -26.10 input  -57.11 | X-H torsion

> <Gold.Protein.ActiveResidues>
 VAL166  LYS551  ARG553  GLY616  TRP617  ASP618  TYR619  PRO620  LYS621  CYS622 
 ASP623  PHE694  ASN695  SER759  ASP760  ASP761  ALA762  ILE779  LEU786  VAL792 
 PHE793  MET794  SER795  GLU796  ALA797  LYS798  CYS799  TRP800  GLU811  SER814 

> <Gold.Protein.RotatedAtoms>
  150.7304  134.0226  159.3706 H   0  0  0  0  0  0  0  0  0  0  0  0  # atno 6907 bound_to 6896
  151.8191  135.0655  160.0432 H   0  0  0  0  0  0  0  0  0  0  0  0  # atno 6908 bound_to 6896
  152.3016  133.5625  159.5659 H   0  0  0  0  0  0  0  0  0  0  0  0  # atno 6909 bound_to 6896
  144.7617  140.4182  143.5972 H   0  0  0  0  0  0  0  0  0  0  0  0  # atno 7974 bound_to 7965
  154.5075  140.0818  156.7924 H   0  0  0  0  0  0  0  0  0  0  0  0  # atno 8008 bound_to 7997
  155.3860  140.3430  155.4231 H   0  0  0  0  0  0  0  0  0  0  0  0  # atno 8009 bound_to 7997
  156.1533  140.1565  156.8721 H   0  0  0  0  0  0  0  0  0  0  0  0  # atno 8010 bound_to 7997
  140.7130  143.5677  150.9126 H   0  0  0  0  0  0  0  0  0  0  0  0  # atno 10167 bound_to 10162
  157.3290  131.0917  151.1178 H   0  0  0  0  0  0  0  0  0  0  0  0  # atno 10718 bound_to 10713
  154.4308  135.2760  155.1914 H   0  0  0  0  0  0  0  0  0  0  0  0  # atno 10763 bound_to 10752
  154.3821  135.6085  153.5800 H   0  0  0  0  0  0  0  0  0  0  0  0  # atno 10764 bound_to 10752
  152.9836  135.5883  154.4619 H   0  0  0  0  0  0  0  0  0  0  0  0  # atno 10765 bound_to 10752
  140.8998  133.7532  156.0529 H   0  0  0  0  0  0  0  0  0  0  0  0  # atno 11005 bound_to 11000
  145.6598  139.1579  143.2814 LP  0  0  0  0  0  0  0  0  0  0  0  0  # atno 17320 bound_to 7965
  146.1686  140.6680  142.9244 LP  0  0  0  0  0  0  0  0  0  0  0  0  # atno 17321 bound_to 7965
  139.9403  143.6390  152.3055 LP  0  0  0  0  0  0  0  0  0  0  0  0  # atno 17342 bound_to 10162
  139.6872  144.7650  151.1502 LP  0  0  0  0  0  0  0  0  0  0  0  0  # atno 17343 bound_to 10162
  157.2434  130.6580  149.5899 LP  0  0  0  0  0  0  0  0  0  0  0  0  # atno 17370 bound_to 10713
  155.9693  130.4561  150.5913 LP  0  0  0  0  0  0  0  0  0  0  0  0  # atno 17371 bound_to 10713
  140.8244  134.3252  157.5371 LP  0  0  0  0  0  0  0  0  0  0  0  0  # atno 17394 bound_to 11000
  139.8740  134.9327  156.3562 LP  0  0  0  0  0  0  0  0  0  0  0  0  # atno 17395 bound_to 11000

$$$$
