#       Name:                AV-unprocessed.smi:229
#       Creating user name   scv26
#       Creation time:       Thu Mar 26 20:27:42 2020


#       File generated by GOLD software.
#

@<TRIPOS>MOLECULE
AV-unprocessed.smi:229
    70    74     1
SMALL
NO_CHARGES


@<TRIPOS>ATOM
      1 ****        -6.5165   1.5441   1.7299 C.3            1 S1                 0.0000
      2 ****        -5.1432   2.1588   1.4331 C.3            1 S1                 0.0000
      3 ****        -4.0444   1.1041   1.2347 C.3            1 S1                 0.0000
      4 ****        -2.6565   1.7488   1.0767 C.3            1 S1                 0.0000
      5 ****        -1.6612   0.7238   0.7803 N.3            1 S1                 0.0000
      6 ****        -0.3477   1.0437   0.9048 C.ar           1 S1                 0.0000
      7 ****         0.0324   2.3492   0.9398 N.ar           1 S1                 0.0000
      8 ****         1.3218   2.6751   1.0659 C.ar           1 S1                 0.0000
      9 ****         2.3790   1.8688   1.1723 N.ar           1 S1                 0.0000
     10 ****         2.0078   0.5568   1.1388 C.ar           1 S1                 0.0000
     11 ****         0.6785   0.0619   1.0134 C.ar           1 S1                 0.0000
     12 ****         0.6889  -1.3271   1.0468 N.2            1 S1                 0.0000
     13 ****         1.9502  -1.6350   1.1746 C.2            1 S1                 0.0000
     14 ****         2.8168  -0.5648   1.2209 N.pl3          1 S1                 0.0000
     15 ****         4.2658  -0.6088   1.3753 C.3            1 S1                 0.0000
     16 ****         5.0228  -1.2466   0.1848 C.3            1 S1                 0.0000
     17 ****         4.7836  -2.6401   0.2081 O.3            1 S1                 0.0000
     18 ****         4.6162  -0.7196  -1.2087 C.3            1 S1                 0.0000
     19 ****         4.6775   0.8057  -1.3655 C.3            1 S1                 0.0000
     20 ****         5.0913   1.0305  -2.8133 C.3            1 S1                 0.0000
     21 ****         5.3633  -0.3754  -3.3422 C.3            1 S1                 0.0000
     22 ****         5.5723  -1.1442  -2.1701 O.3            1 S1                 0.0000
     23 ****        -2.0016  -0.0702  -0.3945 C.3            1 S1                 0.0000
     24 ****        -3.4121  -0.6860  -0.2498 C.3            1 S1                 0.0000
     25 ****        -3.8574  -1.3443  -1.5516 C.3            1 S1                 0.0000
     26 ****        -3.4808  -2.8043  -1.3501 C.3            1 S1                 0.0000
     27 ****        -3.8318  -3.0212   0.0033 O.3            1 S1                 0.0000
     28 ****        -3.4604  -1.8672   0.7483 C.3            1 S1                 0.0000
     29 ****        -4.3509   0.3477   0.0613 O.3            1 S1                 0.0000
     30 ****        -7.2646   2.3224   1.8814 H              1 S1                 0.0000
     31 ****        -6.4873   0.9310   2.6310 H              1 S1                 0.0000
     32 ****        -6.8549   0.9145   0.9067 H              1 S1                 0.0000
     33 ****        -5.2105   2.7916   0.5474 H              1 S1                 0.0000
     34 ****        -4.8685   2.8154   2.2594 H              1 S1                 0.0000
     35 ****        -4.0318   0.4514   2.1080 H              1 S1                 0.0000
     36 ****        -2.6704   2.4836   0.2703 H              1 S1                 0.0000
     37 ****        -2.3926   2.2755   1.9948 H              1 S1                 0.0000
     38 ****         1.5371   3.7333   1.0850 H              1 S1                 0.0000
     39 ****         2.2795  -2.6613   1.2407 H              1 S1                 0.0000
     40 ****         4.6256   0.4091   1.5255 H              1 S1                 0.0000
     41 ****         4.4942  -1.1417   2.2992 H              1 S1                 0.0000
     42 ****         6.0920  -1.0896   0.3321 H              1 S1                 0.0000
     43 ****         5.1314  -2.9903   1.0138 H              1 S1                 0.0000
     44 ****         3.6259  -1.0799  -1.4957 H              1 S1                 0.0000
     45 ****         3.7229   1.2782  -1.1385 H              1 S1                 0.0000
     46 ****         5.4295   1.2341  -0.7017 H              1 S1                 0.0000
     47 ****         4.3168   1.5315  -3.3947 H              1 S1                 0.0000
     48 ****         5.9929   1.6425  -2.8557 H              1 S1                 0.0000
     49 ****         4.4960  -0.7634  -3.8787 H              1 S1                 0.0000
     50 ****         6.2260  -0.4166  -4.0075 H              1 S1                 0.0000
     51 ****        -1.9736   0.5891  -1.2633 H              1 S1                 0.0000
     52 ****        -1.2708  -0.8559  -0.5816 H              1 S1                 0.0000
     53 ****        -4.9406  -1.2696  -1.6595 H              1 S1                 0.0000
     54 ****        -3.4058  -0.9075  -2.4427 H              1 S1                 0.0000
     55 ****        -4.0173  -3.4768  -2.0194 H              1 S1                 0.0000
     56 ****        -2.4089  -2.9587  -1.4847 H              1 S1                 0.0000
     57 ****        -2.4884  -2.0370   1.2131 H              1 S1                 0.0000
     58 ****        -4.1877  -1.7207   1.5462 H              1 S1                 0.0000
     59 ****        -1.7415   0.1154   1.5699 LP             1 S1                 0.0000
     60 ****        -0.6577   3.0696   0.8707 LP             1 S1                 0.0000
     61 ****         3.3229   2.1857   1.2648 LP             1 S1                 0.0000
     62 ****        -0.0920  -1.9488   0.9867 LP             1 S1                 0.0000
     63 ****         5.2364  -3.0732  -0.5712 LP             1 S1                 0.0000
     64 ****         3.8000  -2.8144   0.1613 LP             1 S1                 0.0000
     65 ****         5.4467  -2.1156  -2.3713 LP             1 S1                 0.0000
     66 ****         6.4975  -0.9928  -1.8222 LP             1 S1                 0.0000
     67 ****        -3.3467  -3.8219   0.3549 LP             1 S1                 0.0000
     68 ****        -4.8179  -3.1696   0.0779 LP             1 S1                 0.0000
     69 ****        -4.3875   0.9781  -0.7141 LP             1 S1                 0.0000
     70 ****        -5.2479  -0.0753   0.1897 LP             1 S1                 0.0000
@<TRIPOS>BOND
    1    1    2 1     
    2    1   30 1     
    3    1   31 1     
    4    1   32 1     
    5    2    3 1     
    6    2   33 1     
    7    2   34 1     
    8    3   29 1     
    9    3    4 1     
   10    3   35 1     
   11    4    5 1     
   12    4   36 1     
   13    4   37 1     
   14    5    6 1     
   15    5   23 1     
   16    6   11 ar    
   17    6    7 ar    
   18    7    8 ar    
   19    8    9 ar    
   20    8   38 1     
   21    9   10 ar    
   22   10   14 1     
   23   10   11 ar    
   24   11   12 1     
   25   12   13 2     
   26   13   14 1     
   27   13   39 1     
   28   14   15 1     
   29   15   16 1     
   30   15   40 1     
   31   15   41 1     
   32   16   17 1     
   33   16   18 1     
   34   16   42 1     
   35   17   43 1     
   36   18   22 1     
   37   18   19 1     
   38   18   44 1     
   39   19   20 1     
   40   19   45 1     
   41   19   46 1     
   42   20   21 1     
   43   20   47 1     
   44   20   48 1     
   45   21   22 1     
   46   21   49 1     
   47   21   50 1     
   48   23   24 1     
   49   23   51 1     
   50   23   52 1     
   51   24   28 1     
   52   24   25 1     
   53   24   29 1     
   54   25   26 1     
   55   25   53 1     
   56   25   54 1     
   57   26   27 1     
   58   26   55 1     
   59   26   56 1     
   60   27   28 1     
   61   28   57 1     
   62   28   58 1     
   63    5   59 1     
   64    7   60 1     
   65    9   61 1     
   66   12   62 1     
   67   17   63 1     
   68   17   64 1     
   69   22   65 1     
   70   22   66 1     
   71   27   67 1     
   72   27   68 1     
   73   29   69 1     
   74   29   70 1     
@<TRIPOS>SUBSTRUCTURE
      1 S1             1
@<TRIPOS>SET
LONE_PAIRS      STATIC     ATOMS    <user>   **** ""
12 59 60 61 62 63 64 65 66 67 68 69 70
DONOR_HYDROGENS      STATIC     ATOMS    <user>   **** ""
1 43
ATOM$BLUE        STATIC     ATOMS    COLORGROUP SYSTEM
12 59 60 61 62 63 64 65 66 67 68 69 70
ATOM$RED        STATIC     ATOMS    COLORGROUP SYSTEM
1 43
