AV-unprocessed.smi:3144|AV-procd|sdf|11978|dock1
  -GOLD-   2272017373D 1   1.00000     0.00000
 Structure written by MMmdl.
 40 41  0  0  0  0  0  0  0  0  2 V2000
  150.6247  136.4648  154.7834 C   0  0  0  0  0  0  0  0  0  0  0  0
  150.5162  137.9590  154.6798 C   0  0  0  0  0  0  0  0  0  0  0  0
  151.5703  138.9152  154.7180 C   0  0  0  0  0  0  0  0  0  0  0  0
  151.1390  140.1608  154.6019 N   0  0  0  0  0  0  0  0  0  0  0  0
  149.7997  140.0443  154.4856 N   0  0  0  0  0  0  0  0  0  0  0  0
  148.9862  141.2351  154.3369 C   0  0  0  0  0  0  0  0  0  0  0  0
  148.1026  141.4752  155.5694 C   0  0  0  0  0  0  0  0  0  0  0  0
  148.8266  142.2472  156.5973 N   0  3  0  0  0  0  0  0  0  0  0  0
  150.1679  141.7169  156.9139 C   0  0  0  0  0  0  0  0  0  0  0  0
  150.8669  142.5511  158.0031 C   0  0  0  0  0  0  0  0  0  0  0  0
  151.4706  143.8395  157.4067 C   0  0  0  0  0  0  0  0  0  0  0  0
  152.1689  144.6911  158.4795 C   0  0  0  0  0  0  0  0  0  0  0  0
  153.2483  143.8830  159.2153 C   0  0  0  0  0  0  0  0  0  0  0  0
  152.6618  142.5958  159.8137 C   0  0  0  0  0  0  0  0  0  0  0  0
  151.9632  141.7481  158.7379 C   0  0  0  0  0  0  0  0  0  0  0  0
  149.3959  138.7267  154.5286 C   0  0  0  0  0  0  0  0  0  0  0  0
  151.5669  136.0993  154.3746 H   0  0  0  0  0  0  0  0  0  0  0  0
  149.8241  135.9615  154.2407 H   0  0  0  0  0  0  0  0  0  0  0  0
  150.5725  136.1298  155.8195 H   0  0  0  0  0  0  0  0  0  0  0  0
  152.6309  138.7413  154.8263 H   0  0  0  0  0  0  0  0  0  0  0  0
  149.6468  142.0866  154.1663 H   0  0  0  0  0  0  0  0  0  0  0  0
  148.3716  141.1265  153.4422 H   0  0  0  0  0  0  0  0  0  0  0  0
  147.1999  142.0154  155.2810 H   0  0  0  0  0  0  0  0  0  0  0  0
  147.7864  140.5229  155.9973 H   0  0  0  0  0  0  0  0  0  0  0  0
  148.9259  143.1985  156.2726 H   0  0  0  0  0  0  0  0  0  0  0  0
  150.0867  140.6750  157.2273 H   0  0  0  0  0  0  0  0  0  0  0  0
  150.7650  141.7289  156.0009 H   0  0  0  0  0  0  0  0  0  0  0  0
  150.1133  142.8494  158.7343 H   0  0  0  0  0  0  0  0  0  0  0  0
  152.1869  143.5840  156.6245 H   0  0  0  0  0  0  0  0  0  0  0  0
  150.6903  144.4317  156.9271 H   0  0  0  0  0  0  0  0  0  0  0  0
  152.6149  145.5744  158.0213 H   0  0  0  0  0  0  0  0  0  0  0  0
  151.4309  145.0543  159.1962 H   0  0  0  0  0  0  0  0  0  0  0  0
  154.0525  143.6312  158.5229 H   0  0  0  0  0  0  0  0  0  0  0  0
  153.6967  144.4894  160.0028 H   0  0  0  0  0  0  0  0  0  0  0  0
  153.4519  142.0149  160.2902 H   0  0  0  0  0  0  0  0  0  0  0  0
  151.9488  142.8498  160.5993 H   0  0  0  0  0  0  0  0  0  0  0  0
  151.5363  140.8603  159.2052 H   0  0  0  0  0  0  0  0  0  0  0  0
  152.7037  141.3917  158.0207 H   0  0  0  0  0  0  0  0  0  0  0  0
  148.3559  138.4461  154.4498 H   0  0  0  0  0  0  0  0  0  0  0  0
  148.2765  142.2503  157.4442 H   0  0  0  0  0  0  0  0  0  0  0  0
  1  2  1  0  0  0  0
  1 17  1  0  0  0  0
  1 18  1  0  0  0  0
  1 19  1  0  0  0  0
  2 16  2  0  0  0  0
  2  3  1  0  0  0  0
  3  4  2  0  0  0  0
  3 20  1  0  0  0  0
  4  5  1  0  0  0  0
  5  6  1  0  0  0  0
  5 16  1  0  0  0  0
  6  7  1  0  0  0  0
  6 21  1  0  0  0  0
  6 22  1  0  0  0  0
  7  8  1  0  0  0  0
  7 23  1  0  0  0  0
  7 24  1  0  0  0  0
  8  9  1  0  0  0  0
  8 25  1  0  0  0  0
  8 40  1  0  0  0  0
  9 10  1  0  0  0  0
  9 26  1  0  0  0  0
  9 27  1  0  0  0  0
 10 15  1  0  0  0  0
 10 11  1  0  0  0  0
 10 28  1  0  0  0  0
 11 12  1  0  0  0  0
 11 29  1  0  0  0  0
 11 30  1  0  0  0  0
 12 13  1  0  0  0  0
 12 31  1  0  0  0  0
 12 32  1  0  0  0  0
 13 14  1  0  0  0  0
 13 33  1  0  0  0  0
 13 34  1  0  0  0  0
 14 15  1  0  0  0  0
 14 35  1  0  0  0  0
 14 36  1  0  0  0  0
 15 37  1  0  0  0  0
 15 38  1  0  0  0  0
 16 39  1  0  0  0  0
M  CHG  1   8   1
M  END
> <s_m_source_file>
AV-unprocessed.smi

> <i_m_source_file_index>
3144

> <i_lp_mmshare_version>
43012

> <i_f3d_flags>
0

> <s_epik_input>
W0NIM11jMVtjSF1ubihbY0hdMSlbQ0gyXVtDSDJdW05IXVtDSDJdW0NIXTJbQ0gyXVtDSDJdW0NIMl1bQ0gyXVtDSDJdMg==

> <s_epik_cmdline>
J2VwaWtfcHl0aG9uJywgJy1waCcsICc3LjAnLCAnLXRuJywgJzgnLCAnLW1hJywgJzIwMCcsICctbWV0YWxfYmluZGluZycsICctaW1hZScsICc8aW5maWxlLm1hZT4nLCAnLW9tYWUnLCAnPG91dGZpbGUubWFlPic=

> <r_lp_tautomer_probability>
1

> <r_epik_Ionization_Penalty>
0.0017464

> <r_epik_Ionization_Penalty_Charging>
0.00174052

> <r_epik_Ionization_Penalty_Neutral>
5.87243e-06

> <r_epik_State_Penalty>
-0

> <r_epik_Charging_Adjusted_Penalty>
0.00174052

> <i_epik_Tot_Q>
1

> <i_epik_Tot_abs_Q>
1

> <r_epik_Metal_State_Penalty>
-0

> <b_epik_Metal_Only>
0

> <s_lp_Force_Field>
OPLS_2005

> <r_lp_Energy>
13.1437

> <b_lp_Chiralities_Consistent>
1

> <s_lp_Variant>
AV-unprocessed.smi:3144-1

> <Gold.Version>
5.8.1

> <Gold.Id.Protein>
6NUR|6NUR_protein|mol2

> <Gold.PLP.Fitness>
48.4155

> <Gold.PLP.PLP>
-40.2476

> <Gold.PLP.part.hbond>
-1.9470

> <Gold.PLP.part.metal>
0.0000

> <Gold.PLP.part.buried>
-3.7366

> <Gold.PLP.part.nonpolar>
-35.2973

> <Gold.PLP.part.repulsive>
0.0763

> <Gold.PLP.ligand.clash>
0.0000

> <Gold.PLP.ligand.torsion>
0.4516

> <Gold.PLP.Chemscore.Hbond>
3.0000

> <Gold.PLP.Chemscore.CHOScore>
0.0000

> <Gold.PLP.Chemscore.Metal>
0.0000

> <Gold.Chemscore.Hbonds>
donor molecule, donor type, donor heavy atom, donor atom, acceptor molecule, acceptor atom, score
      L1  H     8    25       P1  8028  2.00
      P1  H  7989  7998       L1     4  0.68

> <Gold.PLP.Chemscore.Internal.Correction>
0.0711

> <Gold.Rescore>
     Score         DG    S(hbond)    S(metal)    S(lipo)     H(rot)  DE(clash)    DE(int)     intcor
     16.80     -18.35       1.05        0.00     112.90       1.50       0.47       1.09       ----

> <Gold.Chemscore.Fitness>
16.7995

> <Gold.Chemscore.DG>
-18.3542

> <Gold.Chemscore.ZeroCoef>
-5.4800

> <Gold.Chemscore.Hbond>
1.0521

> <Gold.Chemscore.Metal>
0.0000

> <Gold.Chemscore.Lipo>
112.8997

> <Gold.Chemscore.Internal_Hbond>
0.0000

> <Gold.Chemscore.DEClash>
0.4688

> <Gold.Chemscore.DEInternal>
1.0858

> <Gold.Chemscore.Rot>
1.5036

> <Gold.Chemscore.Internal.Correction>
   9.000000E+99

> <Gold.Chemscore.Hbonds>
donor molecule, donor type, donor heavy atom, donor atom, acceptor molecule, acceptor atom, score
      L1  H     8    25       P1  8028  0.99
      P1  H  7989  7998       L1     4  0.42

> <Gold.Chemscore.Hbond.Weighted>
-3.5141

> <Gold.Chemscore.Metal.Weighted>
-0.0000

> <Gold.Chemscore.Lipo.Weighted>
-13.2093

> <Gold.Chemscore.Internal_Hbond.Weighted>
0.0000

> <Gold.Chemscore.DEClash.Weighted>
0.4688

> <Gold.Chemscore.DEInternal.Weighted>
1.0858

> <Gold.Chemscore.Rot.Weighted>
3.8492

> <Gold.Chemscore.Internal.Correction.Weighted>
   9.000000E+99

> <Gold.Protein.RotatedTorsions>
[ 6907 6896 6895 6894 ] final -136.64 input  -60.11 | X-H torsion
[ 7974 7965 7964 7962 ] final  -86.70 input  175.53 | X-H torsion
[ 8008 7997 7996 7995 ] final  150.90 input   59.86 | X-H torsion
[ 10167 10162 10161 10158 ] final   -9.14 input  -65.29 | X-H torsion
[ 10718 10713 10712 10709 ] final   96.86 input   66.30 | X-H torsion
[ 10763 10752 10751 10750 ] final -104.83 input  -60.55 | X-H torsion
[ 11005 11000 10999 10996 ] final  -86.73 input  -57.11 | X-H torsion

> <Gold.Protein.ActiveResidues>
 VAL166  LYS551  ARG553  GLY616  TRP617  ASP618  TYR619  PRO620  LYS621  CYS622 
 ASP623  PHE694  ASN695  SER759  ASP760  ASP761  ALA762  ILE779  LEU786  VAL792 
 PHE793  MET794  SER795  GLU796  ALA797  LYS798  CYS799  TRP800  GLU811  SER814 

> <Gold.Protein.RotatedAtoms>
  151.0126  133.5951  159.2680 H   0  0  0  0  0  0  0  0  0  0  0  0  # atno 6907 bound_to 6896
  151.3097  135.0790  159.9278 H   0  0  0  0  0  0  0  0  0  0  0  0  # atno 6908 bound_to 6896
  152.5303  133.9793  159.7853 H   0  0  0  0  0  0  0  0  0  0  0  0  # atno 6909 bound_to 6896
  145.4764  140.9558  143.1888 H   0  0  0  0  0  0  0  0  0  0  0  0  # atno 7974 bound_to 7965
  156.2696  140.2062  156.6091 H   0  0  0  0  0  0  0  0  0  0  0  0  # atno 8008 bound_to 7997
  154.6845  140.0536  157.0324 H   0  0  0  0  0  0  0  0  0  0  0  0  # atno 8009 bound_to 7997
  155.0953  140.3200  155.4565 H   0  0  0  0  0  0  0  0  0  0  0  0  # atno 8010 bound_to 7997
  140.7079  143.5891  150.8912 H   0  0  0  0  0  0  0  0  0  0  0  0  # atno 10167 bound_to 10162
  157.6921  131.0591  150.4555 H   0  0  0  0  0  0  0  0  0  0  0  0  # atno 10718 bound_to 10713
  154.7905  135.4772  154.0042 H   0  0  0  0  0  0  0  0  0  0  0  0  # atno 10763 bound_to 10752
  153.1624  135.6811  153.8731 H   0  0  0  0  0  0  0  0  0  0  0  0  # atno 10764 bound_to 10752
  153.8340  135.3188  155.3399 H   0  0  0  0  0  0  0  0  0  0  0  0  # atno 10765 bound_to 10752
  141.1626  133.7471  156.9203 H   0  0  0  0  0  0  0  0  0  0  0  0  # atno 11005 bound_to 11000
  144.7915  139.6320  143.7111 LP  0  0  0  0  0  0  0  0  0  0  0  0  # atno 17320 bound_to 7965
  146.2367  139.5918  142.9519 LP  0  0  0  0  0  0  0  0  0  0  0  0  # atno 17321 bound_to 7965
  139.9616  143.6157  152.3000 LP  0  0  0  0  0  0  0  0  0  0  0  0  # atno 17342 bound_to 10162
  139.6712  144.7661  151.1780 LP  0  0  0  0  0  0  0  0  0  0  0  0  # atno 17343 bound_to 10162
  156.4903  130.4094  149.6410 LP  0  0  0  0  0  0  0  0  0  0  0  0  # atno 17370 bound_to 10713
  156.3423  130.7388  151.2335 LP  0  0  0  0  0  0  0  0  0  0  0  0  # atno 17371 bound_to 10713
  140.1456  134.9265  157.2524 LP  0  0  0  0  0  0  0  0  0  0  0  0  # atno 17394 bound_to 11000
  140.2784  134.3378  155.7351 LP  0  0  0  0  0  0  0  0  0  0  0  0  # atno 17395 bound_to 11000

$$$$
