AV-unprocessed.smi:89|AV-procd|sdf|827|dock10
  -GOLD-   2262017243D 1   1.00000     0.00000
 Structure written by MMmdl.
 54 56  0  0  0  0  0  0  0  0  1 V2000
  150.3970  134.1076  154.9532 C   0  0  0  0  0  0  0  0  0  0  0  0
  150.2201  135.3524  155.8384 C   0  0  0  0  0  0  0  0  0  0  0  0
  148.9393  135.3887  156.5472 N   0  0  0  0  0  0  0  0  0  0  0  0
  147.8451  135.5541  155.7635 C   0  0  0  0  0  0  0  0  0  0  0  0
  147.1333  136.6973  155.9268 N   0  0  0  0  0  0  0  0  0  0  0  0
  146.0386  136.9177  155.1942 C   0  0  0  0  0  0  0  0  0  0  0  0
  145.4853  136.1356  154.2654 N   0  0  0  0  0  0  0  0  0  0  0  0
  146.1882  134.9774  154.1089 C   0  0  0  0  0  0  0  0  0  0  0  0
  147.3718  134.6086  154.8090 C   0  0  0  0  0  0  0  0  0  0  0  0
  147.8065  133.3619  154.3755 N   0  0  0  0  0  0  0  0  0  0  0  0
  146.9317  133.0143  153.4724 C   0  0  0  0  0  0  0  0  0  0  0  0
  145.9147  133.9180  153.2610 N   0  0  0  0  0  0  0  0  0  0  0  0
  144.8053  133.7778  152.3299 C   0  0  0  0  0  0  0  0  0  0  0  0
  145.2192  133.6923  150.8363 C   0  0  1  0  0  0  0  0  0  0  0  0
  145.6542  134.9792  150.4425 O   0  0  0  0  0  0  0  0  0  0  0  0
  146.3154  132.6705  150.5412 C   0  0  0  0  0  0  0  0  0  0  0  0
  145.5658  131.4214  150.0626 C   0  0  0  0  0  0  0  0  0  0  0  0
  144.1981  131.7948  149.9409 O   0  0  0  0  0  0  0  0  0  0  0  0
  144.1074  133.2106  149.8997 C   0  0  0  0  0  0  0  0  0  0  0  0
  148.9226  136.0533  157.8607 C   0  0  1  0  0  0  0  0  0  0  0  0
  149.2394  137.5581  157.7688 C   0  0  0  0  0  0  0  0  0  0  0  0
  147.6263  135.8197  158.6737 C   0  0  0  0  0  0  0  0  0  0  0  0
  147.6889  136.5333  160.3840 S   0  0  0  0  0  0  0  0  0  0  0  0
  149.0869  136.8795  160.6817 O   0  0  0  0  0  0  0  0  0  0  0  0
  146.6340  137.5482  160.5302 O   0  0  0  0  0  0  0  0  0  0  0  0
  147.2391  135.0819  161.4346 C   0  0  0  0  0  0  0  0  0  0  0  0
  147.3848  135.3783  162.9315 C   0  0  0  0  0  0  0  0  0  0  0  0
  151.3953  134.0868  154.5167 H   0  0  0  0  0  0  0  0  0  0  0  0
  149.6821  134.0872  154.1303 H   0  0  0  0  0  0  0  0  0  0  0  0
  150.2699  133.1932  155.5337 H   0  0  0  0  0  0  0  0  0  0  0  0
  151.0215  135.3684  156.5775 H   0  0  0  0  0  0  0  0  0  0  0  0
  150.3446  136.2531  155.2382 H   0  0  0  0  0  0  0  0  0  0  0  0
  145.5333  137.8538  155.3810 H   0  0  0  0  0  0  0  0  0  0  0  0
  146.9991  132.0770  152.9396 H   0  0  0  0  0  0  0  0  0  0  0  0
  144.2356  132.8913  152.6123 H   0  0  0  0  0  0  0  0  0  0  0  0
  144.1360  134.6262  152.4798 H   0  0  0  0  0  0  0  0  0  0  0  0
  146.0245  134.9178  149.5752 H   0  0  0  0  0  0  0  0  0  0  0  0
  146.9578  133.0198  149.7310 H   0  0  0  0  0  0  0  0  0  0  0  0
  146.9615  132.4764  151.3974 H   0  0  0  0  0  0  0  0  0  0  0  0
  145.9476  131.0821  149.0993 H   0  0  0  0  0  0  0  0  0  0  0  0
  145.6568  130.5972  150.7705 H   0  0  0  0  0  0  0  0  0  0  0  0
  143.1175  133.5695  150.1808 H   0  0  0  0  0  0  0  0  0  0  0  0
  144.2974  133.5305  148.8734 H   0  0  0  0  0  0  0  0  0  0  0  0
  149.7366  135.6044  158.4295 H   0  0  0  0  0  0  0  0  0  0  0  0
  149.3403  137.9942  158.7629 H   0  0  0  0  0  0  0  0  0  0  0  0
  148.4487  138.1040  157.2542 H   0  0  0  0  0  0  0  0  0  0  0  0
  150.1751  137.7429  157.2413 H   0  0  0  0  0  0  0  0  0  0  0  0
  146.7742  136.2743  158.1695 H   0  0  0  0  0  0  0  0  0  0  0  0
  147.3887  134.7591  158.7523 H   0  0  0  0  0  0  0  0  0  0  0  0
  146.2187  134.7841  161.1938 H   0  0  0  0  0  0  0  0  0  0  0  0
  147.8932  134.2571  161.1517 H   0  0  0  0  0  0  0  0  0  0  0  0
  147.1816  134.4844  163.5213 H   0  0  0  0  0  0  0  0  0  0  0  0
  146.6856  136.1480  163.2557 H   0  0  0  0  0  0  0  0  0  0  0  0
  148.3943  135.7120  163.1727 H   0  0  0  0  0  0  0  0  0  0  0  0
  1  2  1  0  0  0  0
  1 28  1  0  0  0  0
  1 29  1  0  0  0  0
  1 30  1  0  0  0  0
  2  3  1  0  0  0  0
  2 31  1  0  0  0  0
  2 32  1  0  0  0  0
  3  4  1  0  0  0  0
  3 20  1  0  0  0  0
  4  9  1  0  0  0  0
  4  5  2  0  0  0  0
  5  6  1  0  0  0  0
  6  7  2  0  0  0  0
  6 33  1  0  0  0  0
  7  8  1  0  0  0  0
  8 12  1  0  0  0  0
  8  9  2  0  0  0  0
  9 10  1  0  0  0  0
 10 11  2  0  0  0  0
 11 12  1  0  0  0  0
 11 34  1  0  0  0  0
 12 13  1  0  0  0  0
 13 14  1  0  0  0  0
 13 35  1  0  0  0  0
 13 36  1  0  0  0  0
 14 19  1  0  0  0  0
 14 15  1  0  0  0  0
 14 16  1  0  0  0  0
 15 37  1  0  0  0  0
 16 17  1  0  0  0  0
 16 38  1  0  0  0  0
 16 39  1  0  0  0  0
 17 18  1  0  0  0  0
 17 40  1  0  0  0  0
 17 41  1  0  0  0  0
 18 19  1  0  0  0  0
 19 42  1  0  0  0  0
 19 43  1  0  0  0  0
 20 21  1  0  0  0  0
 20 22  1  0  0  0  0
 20 44  1  0  0  0  0
 21 45  1  0  0  0  0
 21 46  1  0  0  0  0
 21 47  1  0  0  0  0
 22 23  1  0  0  0  0
 22 48  1  0  0  0  0
 22 49  1  0  0  0  0
 23 24  2  0  0  0  0
 23 25  2  0  0  0  0
 23 26  1  0  0  0  0
 26 27  1  0  0  0  0
 26 50  1  0  0  0  0
 26 51  1  0  0  0  0
 27 52  1  0  0  0  0
 27 53  1  0  0  0  0
 27 54  1  0  0  0  0
M  END
> <s_m_source_file>
AV-unprocessed.smi

> <i_m_source_file_index>
89

> <i_lp_mmshare_version>
43012

> <i_f3d_flags>
0

> <s_epik_input>
W0NIM11bQ0gyXVMoPU8pKD1PKVtDSDJdW0NAQEhdKFtDSDNdKU4oW0NIMl1bQ0gzXSljKG5bY0hdbjEpYyhjMTIpbltjSF1uMltDSDJdW0NAQF0zKFtPSF0pW0NIMl1bQ0gyXU9bQ0gyXTM=

> <s_epik_cmdline>
J2VwaWtfcHl0aG9uJywgJy1waCcsICc3LjAnLCAnLXRuJywgJzgnLCAnLW1hJywgJzIwMCcsICctbWV0YWxfYmluZGluZycsICctaW1hZScsICc8aW5maWxlLm1hZT4nLCAnLW9tYWUnLCAnPG91dGZpbGUubWFlPic=

> <r_lp_tautomer_probability>
1

> <r_epik_Ionization_Penalty>
0.00103773

> <r_epik_Ionization_Penalty_Charging>
0

> <r_epik_Ionization_Penalty_Neutral>
0.00103773

> <r_epik_State_Penalty>
0.000558914

> <r_epik_Charging_Adjusted_Penalty>
0.000558914

> <i_epik_Tot_Q>
0

> <i_epik_Tot_abs_Q>
0

> <r_epik_Metal_State_Penalty>
-0

> <b_epik_Metal_Only>
0

> <s_lp_Force_Field>
OPLS_2005

> <r_lp_Energy>
30.4714

> <b_lp_Chiralities_Consistent>
1

> <s_lp_Variant>
AV-unprocessed.smi:89-3

> <Gold.Version>
5.8.1

> <Gold.Id.Protein>
6NUR|6NUR_protein|mol2

> <Gold.PLP.Fitness>
42.0791

> <Gold.PLP.PLP>
-34.2331

> <Gold.PLP.part.hbond>
-4.2812

> <Gold.PLP.part.metal>
0.0000

> <Gold.PLP.part.buried>
-7.0958

> <Gold.PLP.part.nonpolar>
-24.8905

> <Gold.PLP.part.repulsive>
0.2821

> <Gold.PLP.ligand.clash>
0.0000

> <Gold.PLP.ligand.torsion>
1.0859

> <Gold.PLP.Chemscore.Hbond>
2.9283

> <Gold.PLP.Chemscore.CHOScore>
0.0000

> <Gold.PLP.Chemscore.Metal>
0.0000

> <Gold.Chemscore.Hbonds>
donor molecule, donor type, donor heavy atom, donor atom, acceptor molecule, acceptor atom, score
      L1  H    15    37       P1  7921  1.00
      P1  H  6931  6943       L1    24  0.78
      P1  H  6934  6947       L1    25  1.00
      P1  H 10785 10796       L1    18  0.27

> <Gold.PLP.Chemscore.Internal.Correction>
1.2329

> <Gold.Rescore>
     Score         DG    S(hbond)    S(metal)    S(lipo)     H(rot)  DE(clash)    DE(int)     intcor
      9.38     -15.32       2.93        0.00      75.97       3.45       0.18       5.77       ----

> <Gold.Chemscore.Fitness>
9.3772

> <Gold.Chemscore.DG>
-15.3245

> <Gold.Chemscore.ZeroCoef>
-5.4800

> <Gold.Chemscore.Hbond>
2.9324

> <Gold.Chemscore.Metal>
0.0000

> <Gold.Chemscore.Lipo>
75.9701

> <Gold.Chemscore.Internal_Hbond>
0.0000

> <Gold.Chemscore.DEClash>
0.1775

> <Gold.Chemscore.DEInternal>
5.7698

> <Gold.Chemscore.Rot>
3.4524

> <Gold.Chemscore.Internal.Correction>
   9.000000E+99

> <Gold.Chemscore.Hbonds>
donor molecule, donor type, donor heavy atom, donor atom, acceptor molecule, acceptor atom, score
      L1  H    15    37       P1  7921  0.74
      P1  H  6931  6943       L1    24  0.51
      P1  H  6934  6947       L1    25  0.90
      P1  H 10785 10796       L1    18  0.14

> <Gold.Chemscore.Hbond.Weighted>
-9.7942

> <Gold.Chemscore.Metal.Weighted>
-0.0000

> <Gold.Chemscore.Lipo.Weighted>
-8.8885

> <Gold.Chemscore.Internal_Hbond.Weighted>
0.0000

> <Gold.Chemscore.DEClash.Weighted>
0.1775

> <Gold.Chemscore.DEInternal.Weighted>
5.7698

> <Gold.Chemscore.Rot.Weighted>
8.8382

> <Gold.Chemscore.Internal.Correction.Weighted>
   9.000000E+99

> <Gold.Protein.RotatedTorsions>
[ 6907 6896 6895 6894 ] final   52.75 input  -60.11 | X-H torsion
[ 7974 7965 7964 7962 ] final  -72.73 input  175.53 | X-H torsion
[ 8008 7997 7996 7995 ] final   75.53 input   59.86 | X-H torsion
[ 10167 10162 10161 10158 ] final  -61.68 input  -65.29 | X-H torsion
[ 10718 10713 10712 10709 ] final  -64.70 input   66.30 | X-H torsion
[ 10763 10752 10751 10750 ] final  104.96 input  -60.55 | X-H torsion
[ 11005 11000 10999 10996 ] final  175.04 input  -57.11 | X-H torsion

> <Gold.Protein.ActiveResidues>
 VAL166  LYS551  ARG553  GLY616  TRP617  ASP618  TYR619  PRO620  LYS621  CYS622 
 ASP623  PHE694  ASN695  SER759  ASP760  ASP761  ALA762  ILE779  LEU786  VAL792 
 PHE793  MET794  SER795  GLU796  ALA797  LYS798  CYS799  TRP800  GLU811  SER814 

> <Gold.Protein.RotatedAtoms>
  152.3265  134.7314  160.0300 H   0  0  0  0  0  0  0  0  0  0  0  0  # atno 6907 bound_to 6896
  151.7744  133.3338  159.3462 H   0  0  0  0  0  0  0  0  0  0  0  0  # atno 6908 bound_to 6896
  150.7399  134.5920  159.6037 H   0  0  0  0  0  0  0  0  0  0  0  0  # atno 6909 bound_to 6896
  145.6614  140.9251  143.0932 H   0  0  0  0  0  0  0  0  0  0  0  0  # atno 7974 bound_to 7965
  155.8143  140.3472  155.5476 H   0  0  0  0  0  0  0  0  0  0  0  0  # atno 8008 bound_to 7997
  155.8408  140.0941  157.1755 H   0  0  0  0  0  0  0  0  0  0  0  0  # atno 8009 bound_to 7997
  154.4005  140.1394  156.3714 H   0  0  0  0  0  0  0  0  0  0  0  0  # atno 8010 bound_to 7997
  140.5990  143.2357  151.5972 H   0  0  0  0  0  0  0  0  0  0  0  0  # atno 10167 bound_to 10162
  156.0713  130.4237  150.1457 H   0  0  0  0  0  0  0  0  0  0  0  0  # atno 10718 bound_to 10713
  153.3730  135.3925  155.1802 H   0  0  0  0  0  0  0  0  0  0  0  0  # atno 10763 bound_to 10752
  154.8697  135.3707  154.4954 H   0  0  0  0  0  0  0  0  0  0  0  0  # atno 10764 bound_to 10752
  153.5423  135.7084  153.5691 H   0  0  0  0  0  0  0  0  0  0  0  0  # atno 10765 bound_to 10752
  140.3579  134.7138  157.4312 H   0  0  0  0  0  0  0  0  0  0  0  0  # atno 11005 bound_to 11000
  144.7088  139.8453  143.7421 LP  0  0  0  0  0  0  0  0  0  0  0  0  # atno 17320 bound_to 7965
  146.1122  139.4129  143.0280 LP  0  0  0  0  0  0  0  0  0  0  0  0  # atno 17321 bound_to 7965
  139.5278  144.3008  152.1075 LP  0  0  0  0  0  0  0  0  0  0  0  0  # atno 17342 bound_to 10162
  140.2185  144.4490  150.6353 LP  0  0  0  0  0  0  0  0  0  0  0  0  # atno 17343 bound_to 10162
  156.9507  130.9774  151.3498 LP  0  0  0  0  0  0  0  0  0  0  0  0  # atno 17370 bound_to 10713
  157.5786  130.8360  149.8490 LP  0  0  0  0  0  0  0  0  0  0  0  0  # atno 17371 bound_to 10713
  140.0650  134.5942  155.8705 LP  0  0  0  0  0  0  0  0  0  0  0  0  # atno 17394 bound_to 11000
  141.1993  133.6606  156.5836 LP  0  0  0  0  0  0  0  0  0  0  0  0  # atno 17395 bound_to 11000

$$$$
