AV-unprocessed.smi:2131|AV-procd|sdf|8690|dock1
  -GOLD-   2272011443D 1   1.00000     0.00000
 Structure written by MMmdl.
 41 43  0  0  0  0  0  0  0  0  2 V2000
  153.3139  132.4931  164.7827 N   0  0  0  0  0  0  0  0  0  0  0  0
  154.2006  133.1789  164.4959 C   0  0  0  0  0  0  0  0  0  0  0  0
  155.3274  134.0510  164.1316 C   0  0  0  0  0  0  0  0  0  0  0  0
  154.9580  135.0261  163.0332 C   0  0  0  0  0  0  0  0  0  0  0  0
  155.5591  134.9240  161.7635 C   0  0  0  0  0  0  0  0  0  0  0  0
  155.2172  135.8346  160.7455 C   0  0  0  0  0  0  0  0  0  0  0  0
  154.2758  136.8585  160.9778 C   0  0  0  0  0  0  0  0  0  0  0  0
  154.0026  137.7071  159.9267 O   0  0  0  0  0  0  0  0  0  0  0  0
  152.7312  138.3419  159.8866 C   0  0  0  0  0  0  0  0  0  0  0  0
  152.6935  139.3020  158.6890 C   0  0  1  0  0  0  0  0  0  0  0  0
  153.3764  138.7021  157.6058 O   0  0  0  0  0  0  0  0  0  0  0  0
  151.2541  139.6537  158.2625 C   0  0  0  0  0  0  0  0  0  0  0  0
  151.0936  141.0713  157.9145 N   0  0  0  0  0  0  0  0  0  0  0  0
  150.4924  141.6456  156.8375 C   0  0  0  0  0  0  0  0  0  0  0  0
  150.6120  142.9957  156.9722 N   0  3  0  0  0  0  0  0  0  0  0  0
  151.2999  143.2877  158.1523 C   0  0  0  0  0  0  0  0  0  0  0  0
  151.6654  144.5052  158.7184 C   0  0  0  0  0  0  0  0  0  0  0  0
  152.3694  144.4493  159.9395 C   0  0  0  0  0  0  0  0  0  0  0  0
  152.6827  143.2182  160.5520 C   0  0  0  0  0  0  0  0  0  0  0  0
  152.3054  141.9897  159.9703 C   0  0  0  0  0  0  0  0  0  0  0  0
  151.6116  142.0546  158.7628 C   0  0  0  0  0  0  0  0  0  0  0  0
  153.6738  136.9546  162.2581 C   0  0  0  0  0  0  0  0  0  0  0  0
  154.0145  136.0434  163.2767 C   0  0  0  0  0  0  0  0  0  0  0  0
  155.6470  134.5922  165.0226 H   0  0  0  0  0  0  0  0  0  0  0  0
  156.1602  133.4240  163.8124 H   0  0  0  0  0  0  0  0  0  0  0  0
  156.2852  134.1487  161.5677 H   0  0  0  0  0  0  0  0  0  0  0  0
  155.6858  135.7484  159.7760 H   0  0  0  0  0  0  0  0  0  0  0  0
  151.9523  137.5856  159.7750 H   0  0  0  0  0  0  0  0  0  0  0  0
  152.5426  138.8893  160.8119 H   0  0  0  0  0  0  0  0  0  0  0  0
  153.2336  140.2125  158.9505 H   0  0  0  0  0  0  0  0  0  0  0  0
  153.6208  137.8236  157.8545 H   0  0  0  0  0  0  0  0  0  0  0  0
  150.9633  139.0673  157.3896 H   0  0  0  0  0  0  0  0  0  0  0  0
  150.5398  139.4113  159.0503 H   0  0  0  0  0  0  0  0  0  0  0  0
  150.0119  141.1242  156.0220 H   0  0  0  0  0  0  0  0  0  0  0  0
  151.4268  145.4497  158.2519 H   0  0  0  0  0  0  0  0  0  0  0  0
  152.6757  145.3695  160.4155 H   0  0  0  0  0  0  0  0  0  0  0  0
  153.2241  143.2153  161.4870 H   0  0  0  0  0  0  0  0  0  0  0  0
  152.5498  141.0509  160.4452 H   0  0  0  0  0  0  0  0  0  0  0  0
  152.9461  137.7186  162.4849 H   0  0  0  0  0  0  0  0  0  0  0  0
  153.5496  136.1286  164.2480 H   0  0  0  0  0  0  0  0  0  0  0  0
  150.2516  143.6657  156.3048 H   0  0  0  0  0  0  0  0  0  0  0  0
  1  2  3  0  0  0  0
  2  3  1  0  0  0  0
  3  4  1  0  0  0  0
  3 24  1  0  0  0  0
  3 25  1  0  0  0  0
  4 23  1  0  0  0  0
  4  5  2  0  0  0  0
  5  6  1  0  0  0  0
  5 26  1  0  0  0  0
  6  7  2  0  0  0  0
  6 27  1  0  0  0  0
  7  8  1  0  0  0  0
  7 22  1  0  0  0  0
  8  9  1  0  0  0  0
  9 10  1  0  0  0  0
  9 28  1  0  0  0  0
  9 29  1  0  0  0  0
 10 11  1  0  0  0  0
 10 12  1  0  0  0  0
 10 30  1  0  0  0  0
 11 31  1  0  0  0  0
 12 13  1  0  0  0  0
 12 32  1  0  0  0  0
 12 33  1  0  0  0  0
 13 21  1  0  0  0  0
 13 14  1  0  0  0  0
 14 15  2  0  0  0  0
 14 34  1  0  0  0  0
 15 16  1  0  0  0  0
 15 41  1  0  0  0  0
 16 21  2  0  0  0  0
 16 17  1  0  0  0  0
 17 18  2  0  0  0  0
 17 35  1  0  0  0  0
 18 19  1  0  0  0  0
 18 36  1  0  0  0  0
 19 20  2  0  0  0  0
 19 37  1  0  0  0  0
 20 21  1  0  0  0  0
 20 38  1  0  0  0  0
 22 23  2  0  0  0  0
 22 39  1  0  0  0  0
 23 40  1  0  0  0  0
M  CHG  1  15   1
M  END
> <s_m_source_file>
AV-unprocessed.smi

> <i_m_source_file_index>
2131

> <i_lp_mmshare_version>
43012

> <i_f3d_flags>
0

> <s_epik_input>
TiNDW0NIMl1jMVtjSF1bY0hdYyhbY0hdW2NIXTEpT1tDSDJdW0NASF0oW09IXSlbQ0gyXW4oW2NIXW4yKWMoYzIzKVtjSF1bY0hdW2NIXVtjSF0z

> <s_epik_cmdline>
J2VwaWtfcHl0aG9uJywgJy1waCcsICc3LjAnLCAnLXRuJywgJzgnLCAnLW1hJywgJzIwMCcsICctbWV0YWxfYmluZGluZycsICctaW1hZScsICc8aW5maWxlLm1hZT4nLCAnLW9tYWUnLCAnPG91dGZpbGUubWFlPic=

> <r_lp_tautomer_probability>
1

> <r_epik_Ionization_Penalty>
1.3774

> <r_epik_Ionization_Penalty_Charging>
1.37739

> <r_epik_Ionization_Penalty_Neutral>
2.3994e-06

> <r_epik_State_Penalty>
1.45762

> <r_epik_Charging_Adjusted_Penalty>
2.83501

> <i_epik_Tot_Q>
1

> <i_epik_Tot_abs_Q>
1

> <r_epik_Metal_State_Penalty>
5.49752

> <b_epik_Metal_Only>
0

> <s_lp_Force_Field>
OPLS_2005

> <r_lp_Energy>
20.3244

> <b_lp_Chiralities_Consistent>
1

> <s_lp_Variant>
AV-unprocessed.smi:2131-4

> <Gold.Version>
5.8.1

> <Gold.Id.Protein>
6NUR|6NUR_protein|mol2

> <Gold.PLP.Fitness>
53.9605

> <Gold.PLP.PLP>
-48.0096

> <Gold.PLP.part.hbond>
-2.0000

> <Gold.PLP.part.metal>
0.0000

> <Gold.PLP.part.buried>
-6.5650

> <Gold.PLP.part.nonpolar>
-40.3545

> <Gold.PLP.part.repulsive>
0.1456

> <Gold.PLP.ligand.clash>
0.0000

> <Gold.PLP.ligand.torsion>
1.3262

> <Gold.PLP.Chemscore.Hbond>
2.7920

> <Gold.PLP.Chemscore.CHOScore>
0.0000

> <Gold.PLP.Chemscore.Metal>
0.0000

> <Gold.Chemscore.Hbonds>
donor molecule, donor type, donor heavy atom, donor atom, acceptor molecule, acceptor atom, score
      L1  H    15    41       P1  8028  2.00
      P1  H  7997  8008       L1    11  1.00

> <Gold.PLP.Chemscore.Internal.Correction>
0.2272

> <Gold.Rescore>
     Score         DG    S(hbond)    S(metal)    S(lipo)     H(rot)  DE(clash)    DE(int)     intcor
     16.91     -19.25       1.94        0.00     123.82       2.81       0.09       2.25       ----

> <Gold.Chemscore.Fitness>
16.9086

> <Gold.Chemscore.DG>
-19.2478

> <Gold.Chemscore.ZeroCoef>
-5.4800

> <Gold.Chemscore.Hbond>
1.9415

> <Gold.Chemscore.Metal>
0.0000

> <Gold.Chemscore.Lipo>
123.8212

> <Gold.Chemscore.Internal_Hbond>
0.0000

> <Gold.Chemscore.DEClash>
0.0899

> <Gold.Chemscore.DEInternal>
2.2492

> <Gold.Chemscore.Rot>
2.8140

> <Gold.Chemscore.Internal.Correction>
   9.000000E+99

> <Gold.Chemscore.Hbonds>
donor molecule, donor type, donor heavy atom, donor atom, acceptor molecule, acceptor atom, score
      L1  H    15    41       P1  8028  0.96
      P1  H  7997  8008       L1    11  0.55

> <Gold.Chemscore.Hbond.Weighted>
-6.4846

> <Gold.Chemscore.Metal.Weighted>
-0.0000

> <Gold.Chemscore.Lipo.Weighted>
-14.4871

> <Gold.Chemscore.Internal_Hbond.Weighted>
0.0000

> <Gold.Chemscore.DEClash.Weighted>
0.0899

> <Gold.Chemscore.DEInternal.Weighted>
2.2492

> <Gold.Chemscore.Rot.Weighted>
7.2039

> <Gold.Chemscore.Internal.Correction.Weighted>
   9.000000E+99

> <Gold.Protein.RotatedTorsions>
[ 6907 6896 6895 6894 ] final   50.68 input  -60.11 | X-H torsion
[ 7974 7965 7964 7962 ] final   70.93 input  175.53 | X-H torsion
[ 8008 7997 7996 7995 ] final  -79.28 input   59.86 | X-H torsion
[ 10167 10162 10161 10158 ] final    5.73 input  -65.29 | X-H torsion
[ 10718 10713 10712 10709 ] final -158.08 input   66.30 | X-H torsion
[ 10763 10752 10751 10750 ] final  107.16 input  -60.55 | X-H torsion
[ 11005 11000 10999 10996 ] final   70.83 input  -57.11 | X-H torsion

> <Gold.Protein.ActiveResidues>
 VAL166  LYS551  ARG553  GLY616  TRP617  ASP618  TYR619  PRO620  LYS621  CYS622 
 ASP623  PHE694  ASN695  SER759  ASP760  ASP761  ALA762  ILE779  LEU786  VAL792 
 PHE793  MET794  SER795  GLU796  ALA797  LYS798  CYS799  TRP800  GLU811  SER814 

> <Gold.Protein.RotatedAtoms>
  152.3044  134.7572  160.0350 H   0  0  0  0  0  0  0  0  0  0  0  0  # atno 6907 bound_to 6896
  151.8074  133.3372  159.3553 H   0  0  0  0  0  0  0  0  0  0  0  0  # atno 6908 bound_to 6896
  150.7289  134.5626  159.5894 H   0  0  0  0  0  0  0  0  0  0  0  0  # atno 6909 bound_to 6896
  145.7721  139.2848  143.1315 H   0  0  0  0  0  0  0  0  0  0  0  0  # atno 7974 bound_to 7965
  154.5770  140.0681  156.9048 H   0  0  0  0  0  0  0  0  0  0  0  0  # atno 8008 bound_to 7997
  155.2531  140.3353  155.4262 H   0  0  0  0  0  0  0  0  0  0  0  0  # atno 8009 bound_to 7997
  156.2161  140.1779  156.7570 H   0  0  0  0  0  0  0  0  0  0  0  0  # atno 8010 bound_to 7997
  140.6466  143.7647  150.7509 H   0  0  0  0  0  0  0  0  0  0  0  0  # atno 10167 bound_to 10162
  156.5492  130.8597  151.2774 H   0  0  0  0  0  0  0  0  0  0  0  0  # atno 10718 bound_to 10713
  153.4030  135.3853  155.2000 H   0  0  0  0  0  0  0  0  0  0  0  0  # atno 10763 bound_to 10752
  154.8731  135.3776  154.4596 H   0  0  0  0  0  0  0  0  0  0  0  0  # atno 10764 bound_to 10752
  153.5095  135.7087  153.5850 H   0  0  0  0  0  0  0  0  0  0  0  0  # atno 10765 bound_to 10752
  139.9576  134.7117  156.0718 H   0  0  0  0  0  0  0  0  0  0  0  0  # atno 11005 bound_to 11000
  146.0159  140.8393  142.9947 LP  0  0  0  0  0  0  0  0  0  0  0  0  # atno 17320 bound_to 7965
  144.6811  140.2558  143.7325 LP  0  0  0  0  0  0  0  0  0  0  0  0  # atno 17321 bound_to 7965
  140.1289  143.4544  152.2267 LP  0  0  0  0  0  0  0  0  0  0  0  0  # atno 17342 bound_to 10162
  139.5677  144.7445  151.3976 LP  0  0  0  0  0  0  0  0  0  0  0  0  # atno 17343 bound_to 10162
  157.7391  130.9825  150.2291 LP  0  0  0  0  0  0  0  0  0  0  0  0  # atno 17370 bound_to 10713
  156.2900  130.3744  149.7850 LP  0  0  0  0  0  0  0  0  0  0  0  0  # atno 17371 bound_to 10713
  141.1249  133.6602  156.3312 LP  0  0  0  0  0  0  0  0  0  0  0  0  # atno 17394 bound_to 11000
  140.5573  134.5968  157.5424 LP  0  0  0  0  0  0  0  0  0  0  0  0  # atno 17395 bound_to 11000

$$$$
