AV-unprocessed.smi:3351|AV-procd|sdf|12950|dock3
  -GOLD-   2272019383D 1   1.00000     0.00000
 Structure written by MMmdl.
 34 35  0  0  0  0  0  0  0  0  1 V2000
  151.3118  140.5526  158.7576 C   0  0  0  0  0  0  0  0  0  0  0  0
  150.7075  141.4656  157.6782 C   0  0  1  0  0  0  0  0  0  0  0  0
  151.5463  142.7355  157.4175 C   0  0  0  0  0  0  0  0  0  0  0  0
  151.6257  143.6037  158.5771 N   0  0  0  0  0  0  0  0  0  0  0  0
  151.0653  144.8666  158.7153 C   0  0  0  0  0  0  0  0  0  0  0  0
  151.4011  145.3099  159.9747 C   0  0  0  0  0  0  0  0  0  0  0  0
  152.1677  144.3441  160.6227 N   0  0  0  0  0  0  0  0  0  0  0  0
  152.2614  143.3648  159.7326 C   0  0  0  0  0  0  0  0  0  0  0  0
  150.5494  140.7041  156.4423 N   0  0  0  0  0  0  0  0  0  0  0  0
  151.4910  139.9310  155.8798 C   0  0  0  0  0  0  0  0  0  0  0  0
  152.6073  139.7600  156.3715 O   0  0  0  0  0  0  0  0  0  0  0  0
  151.0934  139.2250  154.5774 C   0  0  0  0  0  0  0  0  0  0  0  0
  149.6948  139.4524  154.2090 N   0  0  0  0  0  0  0  0  0  0  0  0
  148.7567  138.3372  154.2445 C   0  0  0  0  0  0  0  0  0  0  0  0
  147.3407  138.9111  154.1652 C   0  0  0  0  0  0  0  0  0  0  0  0
  147.4522  140.5394  153.3976 S   0  0  0  0  0  0  0  0  0  0  0  0
  149.2100  140.6669  153.7413 C   0  0  0  0  0  0  0  0  0  0  0  0
  149.8400  141.7081  153.5650 O   0  0  0  0  0  0  0  0  0  0  0  0
  151.3550  141.0520  159.7258 H   0  0  0  0  0  0  0  0  0  0  0  0
  152.3246  140.2455  158.4955 H   0  0  0  0  0  0  0  0  0  0  0  0
  150.7130  139.6505  158.8873 H   0  0  0  0  0  0  0  0  0  0  0  0
  149.7178  141.7674  158.0268 H   0  0  0  0  0  0  0  0  0  0  0  0
  152.5594  142.4642  157.1166 H   0  0  0  0  0  0  0  0  0  0  0  0
  151.1209  143.3130  156.5956 H   0  0  0  0  0  0  0  0  0  0  0  0
  150.4887  145.3309  157.9286 H   0  0  0  0  0  0  0  0  0  0  0  0
  151.1537  146.2426  160.4595 H   0  0  0  0  0  0  0  0  0  0  0  0
  152.8018  142.4501  159.9278 H   0  0  0  0  0  0  0  0  0  0  0  0
  149.6597  140.7828  155.9710 H   0  0  0  0  0  0  0  0  0  0  0  0
  151.7496  139.5785  153.7812 H   0  0  0  0  0  0  0  0  0  0  0  0
  151.2709  138.1520  154.6683 H   0  0  0  0  0  0  0  0  0  0  0  0
  148.9527  137.6962  153.3841 H   0  0  0  0  0  0  0  0  0  0  0  0
  148.8846  137.7325  155.1431 H   0  0  0  0  0  0  0  0  0  0  0  0
  146.6624  138.2602  153.6135 H   0  0  0  0  0  0  0  0  0  0  0  0
  146.9353  139.0408  155.1691 H   0  0  0  0  0  0  0  0  0  0  0  0
  1  2  1  0  0  0  0
  1 19  1  0  0  0  0
  1 20  1  0  0  0  0
  1 21  1  0  0  0  0
  2  3  1  0  0  0  0
  2  9  1  0  0  0  0
  2 22  1  0  0  0  0
  3  4  1  0  0  0  0
  3 23  1  0  0  0  0
  3 24  1  0  0  0  0
  4  8  1  0  0  0  0
  4  5  1  0  0  0  0
  5  6  2  0  0  0  0
  5 25  1  0  0  0  0
  6  7  1  0  0  0  0
  6 26  1  0  0  0  0
  7  8  2  0  0  0  0
  8 27  1  0  0  0  0
  9 10  1  0  0  0  0
  9 28  1  0  0  0  0
 10 11  2  0  0  0  0
 10 12  1  0  0  0  0
 12 13  1  0  0  0  0
 12 29  1  0  0  0  0
 12 30  1  0  0  0  0
 13 17  1  0  0  0  0
 13 14  1  0  0  0  0
 14 15  1  0  0  0  0
 14 31  1  0  0  0  0
 14 32  1  0  0  0  0
 15 16  1  0  0  0  0
 15 33  1  0  0  0  0
 15 34  1  0  0  0  0
 16 17  1  0  0  0  0
 17 18  2  0  0  0  0
M  END
> <s_m_source_file>
AV-unprocessed.smi

> <i_m_source_file_index>
3351

> <i_lp_mmshare_version>
43012

> <i_f3d_flags>
0

> <s_epik_input>
W2NIXTFuW2NIXVtjSF1uMVtDSDJdW0NAQEhdKFtDSDNdKVtOSF1DKD1PKVtDSDJdTjJbQ0gyXVtDSDJdU0MyPU8=

> <s_epik_cmdline>
J2VwaWtfcHl0aG9uJywgJy1waCcsICc3LjAnLCAnLXRuJywgJzgnLCAnLW1hJywgJzIwMCcsICctbWV0YWxfYmluZGluZycsICctaW1hZScsICc8aW5maWxlLm1hZT4nLCAnLW9tYWUnLCAnPG91dGZpbGUubWFlPic=

> <r_lp_tautomer_probability>
1

> <r_epik_Ionization_Penalty>
0.618163

> <r_epik_Ionization_Penalty_Charging>
0.618163

> <r_epik_Ionization_Penalty_Neutral>
6.6929e-08

> <r_epik_State_Penalty>
0.633954

> <r_epik_Charging_Adjusted_Penalty>
1.25212

> <i_epik_Tot_Q>
0

> <i_epik_Tot_abs_Q>
0

> <r_epik_Metal_State_Penalty>
0.305924

> <b_epik_Metal_Only>
0

> <s_lp_Force_Field>
OPLS_2005

> <r_lp_Energy>
4.61171

> <b_lp_Chiralities_Consistent>
1

> <s_lp_Variant>
AV-unprocessed.smi:3351-4

> <Gold.Version>
5.8.1

> <Gold.Id.Protein>
6NUR|6NUR_protein|mol2

> <Gold.PLP.Fitness>
43.1963

> <Gold.PLP.PLP>
-35.4351

> <Gold.PLP.part.hbond>
-3.0000

> <Gold.PLP.part.metal>
0.0000

> <Gold.PLP.part.buried>
-3.9255

> <Gold.PLP.part.nonpolar>
-30.0369

> <Gold.PLP.part.repulsive>
1.0948

> <Gold.PLP.ligand.clash>
0.0000

> <Gold.PLP.ligand.torsion>
0.3550

> <Gold.PLP.Chemscore.Hbond>
1.8568

> <Gold.PLP.Chemscore.CHOScore>
0.9533

> <Gold.PLP.Chemscore.Metal>
0.0000

> <Gold.Chemscore.Hbonds>
donor molecule, donor type, donor heavy atom, donor atom, acceptor molecule, acceptor atom, score
      P1  H  7997  8010       L1    11  1.00
      P1  H  8011  8017       L1    18  0.47
      L1  C     5    25       P1  8028  0.16
      L1  C     5    25       P1  8029  0.33

> <Gold.PLP.Chemscore.Internal.Correction>
0.0408

> <Gold.Rescore>
     Score         DG    S(hbond)    S(metal)    S(lipo)     H(rot)  DE(clash)    DE(int)     intcor
     10.45     -12.83       1.87        0.00      60.44       2.33       0.20       2.18       ----

> <Gold.Chemscore.Fitness>
10.4465

> <Gold.Chemscore.DG>
-12.8253

> <Gold.Chemscore.ZeroCoef>
-5.4800

> <Gold.Chemscore.Hbond>
1.8693

> <Gold.Chemscore.Metal>
0.0000

> <Gold.Chemscore.Lipo>
60.4355

> <Gold.Chemscore.Internal_Hbond>
0.0000

> <Gold.Chemscore.DEClash>
0.1951

> <Gold.Chemscore.DEInternal>
2.1837

> <Gold.Chemscore.Rot>
2.3317

> <Gold.Chemscore.Internal.Correction>
   9.000000E+99

> <Gold.Chemscore.Hbonds>
donor molecule, donor type, donor heavy atom, donor atom, acceptor molecule, acceptor atom, score
      P1  H  7989  7998       L1    18  0.01
      P1  H  7997  8010       L1    11  1.00
      P1  H  8011  8017       L1    18  0.46

> <Gold.Chemscore.Hbond.Weighted>
-6.2435

> <Gold.Chemscore.Metal.Weighted>
-0.0000

> <Gold.Chemscore.Lipo.Weighted>
-7.0709

> <Gold.Chemscore.Internal_Hbond.Weighted>
0.0000

> <Gold.Chemscore.DEClash.Weighted>
0.1951

> <Gold.Chemscore.DEInternal.Weighted>
2.1837

> <Gold.Chemscore.Rot.Weighted>
5.9692

> <Gold.Chemscore.Internal.Correction.Weighted>
   9.000000E+99

> <Gold.Protein.RotatedTorsions>
[ 6907 6896 6895 6894 ] final  -34.16 input  -60.11 | X-H torsion
[ 7974 7965 7964 7962 ] final   65.13 input  175.53 | X-H torsion
[ 8008 7997 7996 7995 ] final   80.58 input   59.86 | X-H torsion
[ 10167 10162 10161 10158 ] final  139.70 input  -65.29 | X-H torsion
[ 10718 10713 10712 10709 ] final  -20.48 input   66.30 | X-H torsion
[ 10763 10752 10751 10750 ] final  -94.90 input  -60.55 | X-H torsion
[ 11005 11000 10999 10996 ] final   89.31 input  -57.11 | X-H torsion

> <Gold.Protein.ActiveResidues>
 VAL166  LYS551  ARG553  GLY616  TRP617  ASP618  TYR619  PRO620  LYS621  CYS622 
 ASP623  PHE694  ASN695  SER759  ASP760  ASP761  ALA762  ILE779  LEU786  VAL792 
 PHE793  MET794  SER795  GLU796  ALA797  LYS798  CYS799  TRP800  GLU811  SER814 

> <Gold.Protein.RotatedAtoms>
  151.0562  134.9706  159.8236 H   0  0  0  0  0  0  0  0  0  0  0  0  # atno 6907 bound_to 6896
  152.5388  134.2475  159.8896 H   0  0  0  0  0  0  0  0  0  0  0  0  # atno 6908 bound_to 6896
  151.2493  133.4315  159.2644 H   0  0  0  0  0  0  0  0  0  0  0  0  # atno 6909 bound_to 6896
  145.8421  139.3202  143.0925 H   0  0  0  0  0  0  0  0  0  0  0  0  # atno 7974 bound_to 7965
  155.8854  140.3442  155.5918 H   0  0  0  0  0  0  0  0  0  0  0  0  # atno 8008 bound_to 7997
  155.7672  140.0840  157.2145 H   0  0  0  0  0  0  0  0  0  0  0  0  # atno 8009 bound_to 7997
  154.4028  140.1525  156.2887 H   0  0  0  0  0  0  0  0  0  0  0  0  # atno 8010 bound_to 7997
  139.5071  144.6279  151.5891 H   0  0  0  0  0  0  0  0  0  0  0  0  # atno 10167 bound_to 10162
  156.5312  130.4655  149.6546 H   0  0  0  0  0  0  0  0  0  0  0  0  # atno 10718 bound_to 10713
  154.7098  135.5140  153.8650 H   0  0  0  0  0  0  0  0  0  0  0  0  # atno 10763 bound_to 10752
  153.0771  135.6620  154.0131 H   0  0  0  0  0  0  0  0  0  0  0  0  # atno 10764 bound_to 10752
  153.9975  135.3014  155.3385 H   0  0  0  0  0  0  0  0  0  0  0  0  # atno 10765 bound_to 10752
  139.8878  134.8543  156.3124 H   0  0  0  0  0  0  0  0  0  0  0  0  # atno 11005 bound_to 11000
  145.9453  140.8949  143.0287 LP  0  0  0  0  0  0  0  0  0  0  0  0  # atno 17320 bound_to 7965
  144.6733  140.1605  143.7423 LP  0  0  0  0  0  0  0  0  0  0  0  0  # atno 17321 bound_to 7965
  140.6002  143.9624  150.6381 LP  0  0  0  0  0  0  0  0  0  0  0  0  # atno 17342 bound_to 10162
  140.2833  143.3374  152.1131 LP  0  0  0  0  0  0  0  0  0  0  0  0  # atno 17343 bound_to 10162
  156.3058  130.7202  151.2083 LP  0  0  0  0  0  0  0  0  0  0  0  0  # atno 17370 bound_to 10713
  157.7421  131.0494  150.5047 LP  0  0  0  0  0  0  0  0  0  0  0  0  # atno 17371 bound_to 10713
  140.9841  133.7249  156.0716 LP  0  0  0  0  0  0  0  0  0  0  0  0  # atno 17394 bound_to 11000
  140.7711  134.3832  157.5507 LP  0  0  0  0  0  0  0  0  0  0  0  0  # atno 17395 bound_to 11000

$$$$
