AV-unprocessed.smi:3029|AV-procd|sdf|11532|dock9
  -GOLD-   2272016483D 1   1.00000     0.00000
 Structure written by MMmdl.
 41 42  0  0  0  0  0  0  0  0  3 V2000
  147.8809  141.9997  154.5164 O   0  0  0  0  0  0  0  0  0  0  0  0
  148.7169  141.0975  154.5698 C   0  0  0  0  0  0  0  0  0  0  0  0
  149.9785  141.2533  155.3012 C   0  0  0  0  0  0  0  0  0  0  0  0
  150.8951  140.2670  155.3513 C   0  0  0  0  0  0  0  0  0  0  0  0
  150.6569  139.0069  154.6747 C   0  0  0  0  0  0  0  0  0  0  0  0
  151.6365  137.9436  154.7155 N   0  3  0  0  0  0  0  0  0  0  0  0
  152.7405  138.1694  155.2019 O   0  0  0  0  0  0  0  0  0  0  0  0
  151.3322  136.8455  154.2611 O   0  5  0  0  0  0  0  0  0  0  0  0
  149.4960  138.8654  154.0058 C   0  0  0  0  0  0  0  0  0  0  0  0
  148.5337  139.8920  153.9495 N   0  0  0  0  0  0  0  0  0  0  0  0
  147.3199  139.6128  153.1662 C   0  0  0  0  0  0  0  0  0  0  0  0
  146.5896  138.3523  153.6644 C   0  0  0  0  0  0  0  0  0  0  0  0
  145.3703  138.1374  152.8985 N   0  0  0  0  0  0  0  0  0  0  0  0
  144.5748  137.0255  153.4045 C   0  0  1  0  0  0  0  0  0  0  0  0
  143.5105  137.5987  154.3691 C   0  0  0  0  0  0  0  0  0  0  0  0
  142.5337  136.5223  154.8562 C   0  0  0  0  0  0  0  0  0  0  0  0
  141.8606  135.8290  153.6682 C   0  0  0  0  0  0  0  0  0  0  0  0
  142.9112  135.2196  152.7311 C   0  0  0  0  0  0  0  0  0  0  0  0
  143.9252  136.2663  152.2107 C   0  0  2  0  0  0  0  0  0  0  0  0
  144.9618  135.5795  151.2824 C   0  0  0  0  0  0  0  0  0  0  0  0
  145.8493  136.4673  150.8325 F   0  0  0  0  0  0  0  0  0  0  0  0
  145.6135  134.6307  151.9552 F   0  0  0  0  0  0  0  0  0  0  0  0
  144.3777  134.9934  150.2375 F   0  0  0  0  0  0  0  0  0  0  0  0
  150.1767  142.1845  155.8111 H   0  0  0  0  0  0  0  0  0  0  0  0
  151.8100  140.4294  155.9024 H   0  0  0  0  0  0  0  0  0  0  0  0
  149.2235  137.9704  153.4649 H   0  0  0  0  0  0  0  0  0  0  0  0
  146.6476  140.4674  153.2544 H   0  0  0  0  0  0  0  0  0  0  0  0
  147.5258  139.5335  152.0973 H   0  0  0  0  0  0  0  0  0  0  0  0
  147.2422  137.4819  153.5844 H   0  0  0  0  0  0  0  0  0  0  0  0
  146.3407  138.4717  154.7185 H   0  0  0  0  0  0  0  0  0  0  0  0
  144.8173  138.9818  152.8534 H   0  0  0  0  0  0  0  0  0  0  0  0
  145.2167  136.3271  153.9434 H   0  0  0  0  0  0  0  0  0  0  0  0
  143.9854  138.0600  155.2349 H   0  0  0  0  0  0  0  0  0  0  0  0
  142.9466  138.3893  153.8713 H   0  0  0  0  0  0  0  0  0  0  0  0
  143.0662  135.7873  155.4610 H   0  0  0  0  0  0  0  0  0  0  0  0
  141.7789  136.9698  155.5034 H   0  0  0  0  0  0  0  0  0  0  0  0
  141.1854  135.0510  154.0258 H   0  0  0  0  0  0  0  0  0  0  0  0
  141.2471  136.5449  153.1196 H   0  0  0  0  0  0  0  0  0  0  0  0
  143.4411  134.4250  153.2576 H   0  0  0  0  0  0  0  0  0  0  0  0
  142.4013  134.7426  151.8940 H   0  0  0  0  0  0  0  0  0  0  0  0
  143.3673  136.9879  151.6111 H   0  0  0  0  0  0  0  0  0  0  0  0
  1  2  2  0  0  0  0
  2 10  1  0  0  0  0
  2  3  1  0  0  0  0
  3  4  2  0  0  0  0
  3 24  1  0  0  0  0
  4  5  1  0  0  0  0
  4 25  1  0  0  0  0
  5  6  1  0  0  0  0
  5  9  2  0  0  0  0
  6  7  2  0  0  0  0
  6  8  1  0  0  0  0
  9 10  1  0  0  0  0
  9 26  1  0  0  0  0
 10 11  1  0  0  0  0
 11 12  1  0  0  0  0
 11 27  1  0  0  0  0
 11 28  1  0  0  0  0
 12 13  1  0  0  0  0
 12 29  1  0  0  0  0
 12 30  1  0  0  0  0
 13 14  1  0  0  0  0
 13 31  1  0  0  0  0
 14 19  1  0  0  0  0
 14 15  1  0  0  0  0
 14 32  1  0  0  0  0
 15 16  1  0  0  0  0
 15 33  1  0  0  0  0
 15 34  1  0  0  0  0
 16 17  1  0  0  0  0
 16 35  1  0  0  0  0
 16 36  1  0  0  0  0
 17 18  1  0  0  0  0
 17 37  1  0  0  0  0
 17 38  1  0  0  0  0
 18 19  1  0  0  0  0
 18 39  1  0  0  0  0
 18 40  1  0  0  0  0
 19 20  1  0  0  0  0
 19 41  1  0  0  0  0
 20 21  1  0  0  0  0
 20 22  1  0  0  0  0
 20 23  1  0  0  0  0
M  CHG  1   6   1
M  CHG  1   8  -1
M  END
> <s_m_source_file>
AV-unprocessed.smi

> <i_m_source_file_index>
3029

> <i_lp_mmshare_version>
43012

> <i_f3d_flags>
0

> <s_epik_input>
Tz1jMVtjSF1bY0hdYyhbTitdKD1PKVtPLV0pW2NIXW4xW0NIMl1bQ0gyXVtOSF1bQ0BASF0yW0NIMl1bQ0gyXVtDSDJdW0NIMl1bQ0BIXTJDKEYpKEYpRg==

> <s_epik_cmdline>
J2VwaWtfcHl0aG9uJywgJy1waCcsICc3LjAnLCAnLXRuJywgJzgnLCAnLW1hJywgJzIwMCcsICctbWV0YWxfYmluZGluZycsICctaW1hZScsICc8aW5maWxlLm1hZT4nLCAnLW9tYWUnLCAnPG91dGZpbGUubWFlPic=

> <r_lp_tautomer_probability>
1

> <r_epik_Ionization_Penalty>
1.65565

> <r_epik_Ionization_Penalty_Charging>
3.32684e-10

> <r_epik_Ionization_Penalty_Neutral>
1.65565

> <r_epik_State_Penalty>
1.75811

> <r_epik_Charging_Adjusted_Penalty>
1.75811

> <i_epik_Tot_Q>
0

> <i_epik_Tot_abs_Q>
2

> <r_epik_Metal_State_Penalty>
1.75811

> <b_epik_Metal_Only>
0

> <s_lp_Force_Field>
OPLS_2005

> <r_lp_Energy>
36.7279

> <b_lp_Chiralities_Consistent>
1

> <s_lp_Variant>
AV-unprocessed.smi:3029-8

> <Gold.Version>
5.8.1

> <Gold.Id.Protein>
6NUR|6NUR_protein|mol2

> <Gold.PLP.Fitness>
48.8519

> <Gold.PLP.PLP>
-40.8868

> <Gold.PLP.part.hbond>
-2.0278

> <Gold.PLP.part.metal>
0.0000

> <Gold.PLP.part.buried>
-1.8367

> <Gold.PLP.part.nonpolar>
-36.8741

> <Gold.PLP.part.repulsive>
1.1188

> <Gold.PLP.ligand.clash>
0.0000

> <Gold.PLP.ligand.torsion>
0.5496

> <Gold.PLP.Chemscore.Hbond>
2.0000

> <Gold.PLP.Chemscore.CHOScore>
1.0000

> <Gold.PLP.Chemscore.Metal>
0.0000

> <Gold.Chemscore.Hbonds>
donor molecule, donor type, donor heavy atom, donor atom, acceptor molecule, acceptor atom, score
      L1  H    13    31       P1 10175  1.00
      P1  H 10752 10765       L1     8  1.00
      L1  C     9    26       P1  7948  1.00

> <Gold.PLP.Chemscore.Internal.Correction>
0.0643

> <Gold.Rescore>
     Score         DG    S(hbond)    S(metal)    S(lipo)     H(rot)  DE(clash)    DE(int)     intcor
     12.19     -16.31       2.47        0.00      62.85       1.86       2.11       2.02       ----

> <Gold.Chemscore.Fitness>
12.1908

> <Gold.Chemscore.DG>
-16.3136

> <Gold.Chemscore.ZeroCoef>
-5.4800

> <Gold.Chemscore.Hbond>
2.4662

> <Gold.Chemscore.Metal>
0.0000

> <Gold.Chemscore.Lipo>
62.8539

> <Gold.Chemscore.Internal_Hbond>
0.0000

> <Gold.Chemscore.DEClash>
2.1056

> <Gold.Chemscore.DEInternal>
2.0173

> <Gold.Chemscore.Rot>
1.8584

> <Gold.Chemscore.Internal.Correction>
   9.000000E+99

> <Gold.Chemscore.Hbonds>
donor molecule, donor type, donor heavy atom, donor atom, acceptor molecule, acceptor atom, score
      L1  H    13    31       P1 10175  1.00
      P1  H 10752 10765       L1     8  0.67

> <Gold.Chemscore.Hbond.Weighted>
-8.2373

> <Gold.Chemscore.Metal.Weighted>
-0.0000

> <Gold.Chemscore.Lipo.Weighted>
-7.3539

> <Gold.Chemscore.Internal_Hbond.Weighted>
0.0000

> <Gold.Chemscore.DEClash.Weighted>
2.1056

> <Gold.Chemscore.DEInternal.Weighted>
2.0173

> <Gold.Chemscore.Rot.Weighted>
4.7576

> <Gold.Chemscore.Internal.Correction.Weighted>
   9.000000E+99

> <Gold.Protein.RotatedTorsions>
[ 6907 6896 6895 6894 ] final -175.68 input  -60.11 | X-H torsion
[ 7974 7965 7964 7962 ] final  178.65 input  175.53 | X-H torsion
[ 8008 7997 7996 7995 ] final  -32.88 input   59.86 | X-H torsion
[ 10167 10162 10161 10158 ] final  155.46 input  -65.29 | X-H torsion
[ 10718 10713 10712 10709 ] final  -28.28 input   66.30 | X-H torsion
[ 10763 10752 10751 10750 ] final  155.94 input  -60.55 | X-H torsion
[ 11005 11000 10999 10996 ] final  -98.35 input  -57.11 | X-H torsion

> <Gold.Protein.ActiveResidues>
 VAL166  LYS551  ARG553  GLY616  TRP617  ASP618  TYR619  PRO620  LYS621  CYS622 
 ASP623  PHE694  ASN695  SER759  ASP760  ASP761  ALA762  ILE779  LEU786  VAL792 
 PHE793  MET794  SER795  GLU796  ALA797  LYS798  CYS799  TRP800  GLU811  SER814 

> <Gold.Protein.RotatedAtoms>
  151.5925  133.3365  159.3030 H   0  0  0  0  0  0  0  0  0  0  0  0  # atno 6907 bound_to 6896
  150.8252  134.7483  159.6818 H   0  0  0  0  0  0  0  0  0  0  0  0  # atno 6908 bound_to 6896
  152.4342  134.5725  159.9976 H   0  0  0  0  0  0  0  0  0  0  0  0  # atno 6909 bound_to 6896
  144.7154  140.0429  143.6437 H   0  0  0  0  0  0  0  0  0  0  0  0  # atno 7974 bound_to 7965
  154.4166  140.1725  156.1799 H   0  0  0  0  0  0  0  0  0  0  0  0  # atno 8008 bound_to 7997
  155.9691  140.3387  155.6535 H   0  0  0  0  0  0  0  0  0  0  0  0  # atno 8009 bound_to 7997
  155.6649  140.0705  157.2531 H   0  0  0  0  0  0  0  0  0  0  0  0  # atno 8010 bound_to 7997
  139.4821  144.5096  151.8044 H   0  0  0  0  0  0  0  0  0  0  0  0  # atno 10167 bound_to 10162
  156.4272  130.4438  149.7142 H   0  0  0  0  0  0  0  0  0  0  0  0  # atno 10718 bound_to 10713
  154.1763  135.2802  155.3065 H   0  0  0  0  0  0  0  0  0  0  0  0  # atno 10763 bound_to 10752
  154.6036  135.5521  153.7403 H   0  0  0  0  0  0  0  0  0  0  0  0  # atno 10764 bound_to 10752
  153.0150  135.6398  154.1903 H   0  0  0  0  0  0  0  0  0  0  0  0  # atno 10765 bound_to 10752
  141.1348  133.8238  157.0827 H   0  0  0  0  0  0  0  0  0  0  0  0  # atno 11005 bound_to 11000
  146.0009  139.3090  143.0928 LP  0  0  0  0  0  0  0  0  0  0  0  0  # atno 17320 bound_to 7965
  145.8795  140.9371  143.0609 LP  0  0  0  0  0  0  0  0  0  0  0  0  # atno 17321 bound_to 7965
  140.4598  144.1738  150.5905 LP  0  0  0  0  0  0  0  0  0  0  0  0  # atno 17342 bound_to 10162
  140.4497  143.2492  151.9364 LP  0  0  0  0  0  0  0  0  0  0  0  0  # atno 17343 bound_to 10162
  156.4059  130.7698  151.2708 LP  0  0  0  0  0  0  0  0  0  0  0  0  # atno 17370 bound_to 10713
  157.7508  131.0226  150.3797 LP  0  0  0  0  0  0  0  0  0  0  0  0  # atno 17371 bound_to 10713
  140.0441  134.9839  157.1017 LP  0  0  0  0  0  0  0  0  0  0  0  0  # atno 17394 bound_to 11000
  140.4090  134.2002  155.7163 LP  0  0  0  0  0  0  0  0  0  0  0  0  # atno 17395 bound_to 11000

$$$$
