AV-unprocessed.smi:1943|AV-procd|sdf|7852|dock8
  -GOLD-   2272010 03D 1   1.00000     0.00000
 Structure written by MMmdl.
 47 48  0  0  0  0  0  0  0  0  3 V2000
  145.3228  131.4159  150.7523 C   0  0  0  0  0  0  0  0  0  0  0  0
  146.4743  131.3146  151.6970 N   0  3  0  0  0  0  0  0  0  0  0  0
  146.3948  130.0257  152.4339 C   0  0  0  0  0  0  0  0  0  0  0  0
  146.7728  132.5458  152.5299 C   0  0  0  0  0  0  0  0  0  0  0  0
  146.6038  133.8339  151.6718 C   0  0  0  0  0  0  0  0  0  0  0  0
  145.7841  132.6673  153.7346 C   0  0  0  0  0  0  0  0  0  0  0  0
  148.2349  132.3996  153.0893 C   0  0  0  0  0  0  0  0  0  0  0  0
  148.5581  133.4445  154.0576 N   0  5  0  0  0  0  0  0  0  0  0  0
  148.7567  133.2130  155.3850 C   0  0  0  0  0  0  0  0  0  0  0  0
  148.1680  132.4439  156.1529 O   0  0  0  0  0  0  0  0  0  0  0  0
  149.9268  133.9869  155.9228 C   0  0  0  0  0  0  0  0  0  0  0  0
  150.0332  135.2725  155.5141 N   0  0  0  0  0  0  0  0  0  0  0  0
  151.0541  136.0076  155.9702 C   0  0  0  0  0  0  0  0  0  0  0  0
  151.1349  137.3394  155.5420 N   0  0  0  0  0  0  0  0  0  0  0  0
  152.3239  138.1602  155.7869 C   0  0  0  0  0  0  0  0  0  0  0  0
  151.9440  139.6422  155.9437 C   0  0  0  0  0  0  0  0  0  0  0  0
  151.2100  140.0754  154.8049 O   0  0  0  0  0  0  0  0  0  0  0  0
  149.9957  139.3493  154.6602 C   0  0  0  0  0  0  0  0  0  0  0  0
  150.3012  137.8562  154.4538 C   0  0  0  0  0  0  0  0  0  0  0  0
  152.0029  135.5639  156.8045 N   0  0  0  0  0  0  0  0  0  0  0  0
  151.9281  134.2803  157.2133 C   0  0  0  0  0  0  0  0  0  0  0  0
  150.8946  133.4215  156.7943 C   0  0  0  0  0  0  0  0  0  0  0  0
  150.8797  131.7708  157.3166 Cl  0  0  0  0  0  0  0  0  0  0  0  0
  144.3705  131.3935  151.2836 H   0  0  0  0  0  0  0  0  0  0  0  0
  145.3298  130.5733  150.0602 H   0  0  0  0  0  0  0  0  0  0  0  0
  145.3494  132.3183  150.1424 H   0  0  0  0  0  0  0  0  0  0  0  0
  145.6190  130.0584  153.1997 H   0  0  0  0  0  0  0  0  0  0  0  0
  147.3436  129.7617  152.9008 H   0  0  0  0  0  0  0  0  0  0  0  0
  146.1556  129.2068  151.7548 H   0  0  0  0  0  0  0  0  0  0  0  0
  146.6930  134.7416  152.2719 H   0  0  0  0  0  0  0  0  0  0  0  0
  145.6146  133.8684  151.2144 H   0  0  0  0  0  0  0  0  0  0  0  0
  147.3347  133.9185  150.8653 H   0  0  0  0  0  0  0  0  0  0  0  0
  145.9934  133.5306  154.3698 H   0  0  0  0  0  0  0  0  0  0  0  0
  145.7926  131.7864  154.3803 H   0  0  0  0  0  0  0  0  0  0  0  0
  144.7568  132.8151  153.4008 H   0  0  0  0  0  0  0  0  0  0  0  0
  148.3391  131.4053  153.5262 H   0  0  0  0  0  0  0  0  0  0  0  0
  148.9393  132.4201  152.2576 H   0  0  0  0  0  0  0  0  0  0  0  0
  152.8611  137.8509  156.6830 H   0  0  0  0  0  0  0  0  0  0  0  0
  153.0111  138.0363  154.9493 H   0  0  0  0  0  0  0  0  0  0  0  0
  151.3582  139.7991  156.8508 H   0  0  0  0  0  0  0  0  0  0  0  0
  152.8437  140.2505  156.0378 H   0  0  0  0  0  0  0  0  0  0  0  0
  149.3619  139.4990  155.5360 H   0  0  0  0  0  0  0  0  0  0  0  0
  149.4489  139.7416  153.8027 H   0  0  0  0  0  0  0  0  0  0  0  0
  150.8289  137.7085  153.5110 H   0  0  0  0  0  0  0  0  0  0  0  0
  149.3543  137.3231  154.3728 H   0  0  0  0  0  0  0  0  0  0  0  0
  152.7084  133.9333  157.8746 H   0  0  0  0  0  0  0  0  0  0  0  0
  147.2902  131.2177  151.1089 H   0  0  0  0  0  0  0  0  0  0  0  0
  1  2  1  0  0  0  0
  1 24  1  0  0  0  0
  1 25  1  0  0  0  0
  1 26  1  0  0  0  0
  2  3  1  0  0  0  0
  2  4  1  0  0  0  0
  2 47  1  0  0  0  0
  3 27  1  0  0  0  0
  3 28  1  0  0  0  0
  3 29  1  0  0  0  0
  4  5  1  0  0  0  0
  4  6  1  0  0  0  0
  4  7  1  0  0  0  0
  5 30  1  0  0  0  0
  5 31  1  0  0  0  0
  5 32  1  0  0  0  0
  6 33  1  0  0  0  0
  6 34  1  0  0  0  0
  6 35  1  0  0  0  0
  7  8  1  0  0  0  0
  7 36  1  0  0  0  0
  7 37  1  0  0  0  0
  8  9  1  0  0  0  0
  9 10  2  0  0  0  0
  9 11  1  0  0  0  0
 11 22  1  0  0  0  0
 11 12  2  0  0  0  0
 12 13  1  0  0  0  0
 13 14  1  0  0  0  0
 13 20  2  0  0  0  0
 14 19  1  0  0  0  0
 14 15  1  0  0  0  0
 15 16  1  0  0  0  0
 15 38  1  0  0  0  0
 15 39  1  0  0  0  0
 16 17  1  0  0  0  0
 16 40  1  0  0  0  0
 16 41  1  0  0  0  0
 17 18  1  0  0  0  0
 18 19  1  0  0  0  0
 18 42  1  0  0  0  0
 18 43  1  0  0  0  0
 19 44  1  0  0  0  0
 19 45  1  0  0  0  0
 20 21  1  0  0  0  0
 21 22  2  0  0  0  0
 21 46  1  0  0  0  0
 22 23  1  0  0  0  0
M  CHG  1   2   1
M  CHG  1   8  -1
M  END
> <s_m_source_file>
AV-unprocessed.smi

> <i_m_source_file_index>
1943

> <i_lp_mmshare_version>
43012

> <i_f3d_flags>
0

> <s_epik_input>
W0NIM11OKFtDSDNdKUMoW0NIM10pKFtDSDNdKVtDSDJdW05IXUMoPU8pYzFuYyhuW2NIXWMxQ2wpTjJbQ0gyXVtDSDJdT1tDSDJdW0NIMl0y

> <s_epik_cmdline>
J2VwaWtfcHl0aG9uJywgJy1waCcsICc3LjAnLCAnLXRuJywgJzgnLCAnLW1hJywgJzIwMCcsICctbWV0YWxfYmluZGluZycsICctaW1hZScsICc8aW5maWxlLm1hZT4nLCAnLW9tYWUnLCAnPG91dGZpbGUubWFlPic=

> <r_lp_tautomer_probability>
1

> <r_epik_Ionization_Penalty>
4.9942

> <r_epik_Ionization_Penalty_Charging>
4.9942

> <r_epik_Ionization_Penalty_Neutral>
6.27513e-06

> <r_epik_State_Penalty>
4.99795

> <r_epik_Charging_Adjusted_Penalty>
9.99215

> <i_epik_Tot_Q>
0

> <i_epik_Tot_abs_Q>
2

> <r_epik_Metal_State_Penalty>
1.11486

> <b_epik_Metal_Only>
1

> <s_lp_Force_Field>
OPLS_2005

> <r_lp_Energy>
33.8194

> <b_lp_Chiralities_Consistent>
1

> <s_lp_Variant>
AV-unprocessed.smi:1943-2

> <Gold.Version>
5.8.1

> <Gold.Id.Protein>
6NUR|6NUR_protein|mol2

> <Gold.PLP.Fitness>
39.4218

> <Gold.PLP.PLP>
-33.4147

> <Gold.PLP.part.hbond>
-2.9589

> <Gold.PLP.part.metal>
0.0000

> <Gold.PLP.part.buried>
-0.6245

> <Gold.PLP.part.nonpolar>
-30.4681

> <Gold.PLP.part.repulsive>
0.3388

> <Gold.PLP.ligand.clash>
0.0000

> <Gold.PLP.ligand.torsion>
1.4064

> <Gold.PLP.Chemscore.Hbond>
2.8500

> <Gold.PLP.Chemscore.CHOScore>
0.0000

> <Gold.PLP.Chemscore.Metal>
0.0000

> <Gold.Chemscore.Hbonds>
donor molecule, donor type, donor heavy atom, donor atom, acceptor molecule, acceptor atom, score
      L1  H     2    47       P1 10747  1.00
      P1  H  7989  7998       L1    17  1.00
      P1  H 10752 10763       L1    20  0.57

> <Gold.PLP.Chemscore.Internal.Correction>
0.2700

> <Gold.Rescore>
     Score         DG    S(hbond)    S(metal)    S(lipo)     H(rot)  DE(clash)    DE(int)     intcor
     15.25     -18.21       1.97        0.00      83.32       1.41       0.69       2.27       ----

> <Gold.Chemscore.Fitness>
15.2469

> <Gold.Chemscore.DG>
-18.2104

> <Gold.Chemscore.ZeroCoef>
-5.4800

> <Gold.Chemscore.Hbond>
1.9705

> <Gold.Chemscore.Metal>
0.0000

> <Gold.Chemscore.Lipo>
83.3195

> <Gold.Chemscore.Internal_Hbond>
0.0000

> <Gold.Chemscore.DEClash>
0.6900

> <Gold.Chemscore.DEInternal>
2.2735

> <Gold.Chemscore.Rot>
1.4060

> <Gold.Chemscore.Internal.Correction>
   9.000000E+99

> <Gold.Chemscore.Hbonds>
donor molecule, donor type, donor heavy atom, donor atom, acceptor molecule, acceptor atom, score
      L1  H     2    47       P1 10747  1.00
      P1  H  7989  7998       L1    17  0.86
      P1  H 10752 10763       L1    20  0.02

> <Gold.Chemscore.Hbond.Weighted>
-6.5814

> <Gold.Chemscore.Metal.Weighted>
-0.0000

> <Gold.Chemscore.Lipo.Weighted>
-9.7484

> <Gold.Chemscore.Internal_Hbond.Weighted>
0.0000

> <Gold.Chemscore.DEClash.Weighted>
0.6900

> <Gold.Chemscore.DEInternal.Weighted>
2.2735

> <Gold.Chemscore.Rot.Weighted>
3.5994

> <Gold.Chemscore.Internal.Correction.Weighted>
   9.000000E+99

> <Gold.Protein.RotatedTorsions>
[ 6907 6896 6895 6894 ] final   62.63 input  -60.11 | X-H torsion
[ 7974 7965 7964 7962 ] final  -65.74 input  175.53 | X-H torsion
[ 8008 7997 7996 7995 ] final   85.28 input   59.86 | X-H torsion
[ 10167 10162 10161 10158 ] final  -18.56 input  -65.29 | X-H torsion
[ 10718 10713 10712 10709 ] final -121.02 input   66.30 | X-H torsion
[ 10763 10752 10751 10750 ] final  116.24 input  -60.55 | X-H torsion
[ 11005 11000 10999 10996 ] final  119.65 input  -57.11 | X-H torsion

> <Gold.Protein.ActiveResidues>
 VAL166  LYS551  ARG553  GLY616  TRP617  ASP618  TYR619  PRO620  LYS621  CYS622 
 ASP623  PHE694  ASN695  SER759  ASP760  ASP761  ALA762  ILE779  LEU786  VAL792 
 PHE793  MET794  SER795  GLU796  ALA797  LYS798  CYS799  TRP800  GLU811  SER814 

> <Gold.Protein.RotatedAtoms>
  152.4188  134.5993  159.9995 H   0  0  0  0  0  0  0  0  0  0  0  0  # atno 6907 bound_to 6896
  151.6149  133.3338  159.3083 H   0  0  0  0  0  0  0  0  0  0  0  0  # atno 6908 bound_to 6896
  150.8076  134.7250  159.6724 H   0  0  0  0  0  0  0  0  0  0  0  0  # atno 6909 bound_to 6896
  145.7505  140.8910  143.0482 H   0  0  0  0  0  0  0  0  0  0  0  0  # atno 7974 bound_to 7965
  155.9480  140.3403  155.6384 H   0  0  0  0  0  0  0  0  0  0  0  0  # atno 8008 bound_to 7997
  155.6956  140.0754  157.2449 H   0  0  0  0  0  0  0  0  0  0  0  0  # atno 8009 bound_to 7997
  154.4116  140.1649  156.2121 H   0  0  0  0  0  0  0  0  0  0  0  0  # atno 8010 bound_to 7997
  140.7260  143.4905  150.9998 H   0  0  0  0  0  0  0  0  0  0  0  0  # atno 10167 bound_to 10162
  156.1304  130.6391  150.9611 H   0  0  0  0  0  0  0  0  0  0  0  0  # atno 10718 bound_to 10713
  153.5342  135.3572  155.2689 H   0  0  0  0  0  0  0  0  0  0  0  0  # atno 10763 bound_to 10752
  154.8724  135.4075  154.3117 H   0  0  0  0  0  0  0  0  0  0  0  0  # atno 10764 bound_to 10752
  153.3811  135.7068  153.6632 H   0  0  0  0  0  0  0  0  0  0  0  0  # atno 10765 bound_to 10752
  139.9154  134.9630  156.7687 H   0  0  0  0  0  0  0  0  0  0  0  0  # atno 11005 bound_to 11000
  144.6851  139.9585  143.7480 LP  0  0  0  0  0  0  0  0  0  0  0  0  # atno 17320 bound_to 7965
  146.0361  139.3379  143.0726 LP  0  0  0  0  0  0  0  0  0  0  0  0  # atno 17321 bound_to 7965
  139.8609  143.7316  152.3173 LP  0  0  0  0  0  0  0  0  0  0  0  0  # atno 17342 bound_to 10162
  139.7531  144.7528  151.0476 LP  0  0  0  0  0  0  0  0  0  0  0  0  # atno 17343 bound_to 10162
  157.6482  131.0901  150.8107 LP  0  0  0  0  0  0  0  0  0  0  0  0  # atno 17370 bound_to 10713
  156.8193  130.4978  149.5345 LP  0  0  0  0  0  0  0  0  0  0  0  0  # atno 17371 bound_to 10713
  140.6638  133.9621  155.7819 LP  0  0  0  0  0  0  0  0  0  0  0  0  # atno 17394 bound_to 11000
  141.0625  134.0326  157.3639 LP  0  0  0  0  0  0  0  0  0  0  0  0  # atno 17395 bound_to 11000

$$$$
