AV-unprocessed.smi:235|AV-procd|sdf|1807|dock4
  -GOLD-   2262020383D 1   1.00000     0.00000
 Structure written by MMmdl.
 54 58  0  0  0  0  0  0  0  0  1 V2000
  143.7162  135.3888  152.2939 O   0  0  0  0  0  0  0  0  0  0  0  0
  144.8859  135.3400  151.9106 C   0  0  0  0  0  0  0  0  0  0  0  0
  145.7864  136.3017  152.1606 N   0  0  0  0  0  0  0  0  0  0  0  0
  145.5408  137.4977  152.8989 C   0  0  0  0  0  0  0  0  0  0  0  0
  146.1706  138.7772  152.3912 C   0  0  0  0  0  0  0  0  0  0  0  0
  146.7084  138.1209  153.6330 C   0  0  0  0  0  0  0  0  0  0  0  0
  145.3884  134.1453  151.0878 C   0  0  2  0  0  0  0  0  0  0  0  0
  144.4730  133.8379  149.8959 C   0  0  0  0  0  0  0  0  0  0  0  0
  144.7638  132.3689  149.6144 C   0  0  0  0  0  0  0  0  0  0  0  0
  144.9851  131.7865  151.0107 C   0  0  0  0  0  0  0  0  0  0  0  0
  145.3892  132.9022  151.8620 N   0  0  0  0  0  0  0  0  0  0  0  0
  146.4859  132.6934  152.6234 C   0  0  0  0  0  0  0  0  0  0  0  0
  147.1202  133.7869  153.1115 N   0  0  0  0  0  0  0  0  0  0  0  0
  148.2175  133.6421  153.8612 C   0  0  0  0  0  0  0  0  0  0  0  0
  148.8344  132.5172  154.2316 N   0  0  0  0  0  0  0  0  0  0  0  0
  148.1954  131.4170  153.7400 C   0  0  0  0  0  0  0  0  0  0  0  0
  147.0230  131.4129  152.9345 C   0  0  0  0  0  0  0  0  0  0  0  0
  146.6635  130.1068  152.6232 N   0  0  0  0  0  0  0  0  0  0  0  0
  147.5725  129.3792  153.2137 C   0  0  0  0  0  0  0  0  0  0  0  0
  148.5299  130.0857  153.9060 N   0  0  0  0  0  0  0  0  0  0  0  0
  149.6492  129.5389  154.6512 C   0  0  0  0  0  0  0  0  0  0  0  0
  150.4317  130.6268  155.4115 C   0  0  1  0  0  0  0  0  0  0  0  0
  149.6179  131.2260  156.4026 O   0  0  0  0  0  0  0  0  0  0  0  0
  151.7371  130.0972  156.0380 C   0  0  1  0  0  0  0  0  0  0  0  0
  152.6461  129.2700  155.1120 C   0  0  0  0  0  0  0  0  0  0  0  0
  154.0016  129.9467  155.2336 C   0  0  0  0  0  0  0  0  0  0  0  0
  153.8862  130.7214  156.5405 C   0  0  0  0  0  0  0  0  0  0  0  0
  152.5402  131.1661  156.5274 O   0  0  0  0  0  0  0  0  0  0  0  0
  146.7214  136.1751  151.8012 H   0  0  0  0  0  0  0  0  0  0  0  0
  144.5667  137.6012  153.3750 H   0  0  0  0  0  0  0  0  0  0  0  0
  146.7805  138.7236  151.4914 H   0  0  0  0  0  0  0  0  0  0  0  0
  145.6049  139.6986  152.5153 H   0  0  0  0  0  0  0  0  0  0  0  0
  146.5009  138.6029  154.5862 H   0  0  0  0  0  0  0  0  0  0  0  0
  147.6759  137.6271  153.5625 H   0  0  0  0  0  0  0  0  0  0  0  0
  146.3932  134.3560  150.7162 H   0  0  0  0  0  0  0  0  0  0  0  0
  143.4218  133.9595  150.1640 H   0  0  0  0  0  0  0  0  0  0  0  0
  144.6767  134.4747  149.0343 H   0  0  0  0  0  0  0  0  0  0  0  0
  143.9628  131.8710  149.0674 H   0  0  0  0  0  0  0  0  0  0  0  0
  145.6799  132.2821  149.0285 H   0  0  0  0  0  0  0  0  0  0  0  0
  144.0490  131.3896  151.4048 H   0  0  0  0  0  0  0  0  0  0  0  0
  145.7021  130.9639  150.9903 H   0  0  0  0  0  0  0  0  0  0  0  0
  148.6657  134.5595  154.2136 H   0  0  0  0  0  0  0  0  0  0  0  0
  147.5679  128.3000  153.1624 H   0  0  0  0  0  0  0  0  0  0  0  0
  149.2719  128.7822  155.3401 H   0  0  0  0  0  0  0  0  0  0  0  0
  150.3057  129.0230  153.9496 H   0  0  0  0  0  0  0  0  0  0  0  0
  150.6967  131.4171  154.7078 H   0  0  0  0  0  0  0  0  0  0  0  0
  149.9528  130.9791  157.2512 H   0  0  0  0  0  0  0  0  0  0  0  0
  151.4815  129.4793  156.9006 H   0  0  0  0  0  0  0  0  0  0  0  0
  152.6971  128.2387  155.4634 H   0  0  0  0  0  0  0  0  0  0  0  0
  152.3072  129.2447  154.0760 H   0  0  0  0  0  0  0  0  0  0  0  0
  154.8337  129.2422  155.2289 H   0  0  0  0  0  0  0  0  0  0  0  0
  154.1415  130.6428  154.4057 H   0  0  0  0  0  0  0  0  0  0  0  0
  154.0488  130.0677  157.3989 H   0  0  0  0  0  0  0  0  0  0  0  0
  154.5862  131.5550  156.6014 H   0  0  0  0  0  0  0  0  0  0  0  0
  1  2  2  0  0  0  0
  2  3  1  0  0  0  0
  2  7  1  0  0  0  0
  3  4  1  0  0  0  0
  3 29  1  0  0  0  0
  4  6  1  0  0  0  0
  4  5  1  0  0  0  0
  4 30  1  0  0  0  0
  5  6  1  0  0  0  0
  5 31  1  0  0  0  0
  5 32  1  0  0  0  0
  6 33  1  0  0  0  0
  6 34  1  0  0  0  0
  7 11  1  0  0  0  0
  7  8  1  0  0  0  0
  7 35  1  0  0  0  0
  8  9  1  0  0  0  0
  8 36  1  0  0  0  0
  8 37  1  0  0  0  0
  9 10  1  0  0  0  0
  9 38  1  0  0  0  0
  9 39  1  0  0  0  0
 10 11  1  0  0  0  0
 10 40  1  0  0  0  0
 10 41  1  0  0  0  0
 11 12  1  0  0  0  0
 12 17  1  0  0  0  0
 12 13  2  0  0  0  0
 13 14  1  0  0  0  0
 14 15  2  0  0  0  0
 14 42  1  0  0  0  0
 15 16  1  0  0  0  0
 16 20  1  0  0  0  0
 16 17  2  0  0  0  0
 17 18  1  0  0  0  0
 18 19  2  0  0  0  0
 19 20  1  0  0  0  0
 19 43  1  0  0  0  0
 20 21  1  0  0  0  0
 21 22  1  0  0  0  0
 21 44  1  0  0  0  0
 21 45  1  0  0  0  0
 22 23  1  0  0  0  0
 22 24  1  0  0  0  0
 22 46  1  0  0  0  0
 23 47  1  0  0  0  0
 24 28  1  0  0  0  0
 24 25  1  0  0  0  0
 24 48  1  0  0  0  0
 25 26  1  0  0  0  0
 25 49  1  0  0  0  0
 25 50  1  0  0  0  0
 26 27  1  0  0  0  0
 26 51  1  0  0  0  0
 26 52  1  0  0  0  0
 27 28  1  0  0  0  0
 27 53  1  0  0  0  0
 27 54  1  0  0  0  0
M  END
> <s_m_source_file>
AV-unprocessed.smi

> <i_m_source_file_index>
235

> <i_lp_mmshare_version>
43012

> <i_f3d_flags>
0

> <s_epik_input>
W0NIMl0xW0NIMl1bQ0hdMVtOSF1DKD1PKVtDQEBIXTJbQ0gyXVtDSDJdW0NIMl1OMmMobltjSF1uMyljKGMzNCluW2NIXW40W0NIMl1bQ0BIXShbT0hdKVtDQEBIXTVbQ0gyXVtDSDJdW0NIMl1PNQ==

> <s_epik_cmdline>
J2VwaWtfcHl0aG9uJywgJy1waCcsICc3LjAnLCAnLXRuJywgJzgnLCAnLW1hJywgJzIwMCcsICctbWV0YWxfYmluZGluZycsICctaW1hZScsICc8aW5maWxlLm1hZT4nLCAnLW9tYWUnLCAnPG91dGZpbGUubWFlPic=

> <r_lp_tautomer_probability>
1

> <r_epik_Ionization_Penalty>
0.000526714

> <r_epik_Ionization_Penalty_Charging>
0

> <r_epik_Ionization_Penalty_Neutral>
0.000526714

> <r_epik_State_Penalty>
0.000272704

> <r_epik_Charging_Adjusted_Penalty>
0.000272704

> <i_epik_Tot_Q>
0

> <i_epik_Tot_abs_Q>
0

> <r_epik_Metal_State_Penalty>
-0

> <b_epik_Metal_Only>
0

> <s_lp_Force_Field>
OPLS_2005

> <r_lp_Energy>
60.9584

> <b_lp_Chiralities_Consistent>
1

> <s_lp_Variant>
AV-unprocessed.smi:235-7

> <Gold.Version>
5.8.1

> <Gold.Id.Protein>
6NUR|6NUR_protein|mol2

> <Gold.PLP.Fitness>
45.7564

> <Gold.PLP.PLP>
-44.3637

> <Gold.PLP.part.hbond>
-1.0000

> <Gold.PLP.part.metal>
0.0000

> <Gold.PLP.part.buried>
-1.3712

> <Gold.PLP.part.nonpolar>
-43.5444

> <Gold.PLP.part.repulsive>
1.1105

> <Gold.PLP.ligand.clash>
0.2984

> <Gold.PLP.ligand.torsion>
1.2074

> <Gold.PLP.Chemscore.Hbond>
0.6599

> <Gold.PLP.Chemscore.CHOScore>
0.6263

> <Gold.PLP.Chemscore.Metal>
0.0000

> <Gold.Chemscore.Hbonds>
donor molecule, donor type, donor heavy atom, donor atom, acceptor molecule, acceptor atom, score
      L1  H     3    29       P1  7948  0.57
      L1  C    14    42       P1  7948  0.08

> <Gold.PLP.Chemscore.Internal.Correction>
0.2474

> <Gold.Rescore>
     Score         DG    S(hbond)    S(metal)    S(lipo)     H(rot)  DE(clash)    DE(int)     intcor
      4.72      -9.76       0.73        0.00      81.33       3.00       0.69       4.36       ----

> <Gold.Chemscore.Fitness>
4.7173

> <Gold.Chemscore.DG>
-9.7607

> <Gold.Chemscore.ZeroCoef>
-5.4800

> <Gold.Chemscore.Hbond>
0.7314

> <Gold.Chemscore.Metal>
0.0000

> <Gold.Chemscore.Lipo>
81.3251

> <Gold.Chemscore.Internal_Hbond>
0.0000

> <Gold.Chemscore.DEClash>
0.6878

> <Gold.Chemscore.DEInternal>
4.3556

> <Gold.Chemscore.Rot>
2.9989

> <Gold.Chemscore.Internal.Correction>
   9.000000E+99

> <Gold.Chemscore.Hbonds>
donor molecule, donor type, donor heavy atom, donor atom, acceptor molecule, acceptor atom, score
      L1  H     3    29       P1  7948  0.56

> <Gold.Chemscore.Hbond.Weighted>
-2.4429

> <Gold.Chemscore.Metal.Weighted>
-0.0000

> <Gold.Chemscore.Lipo.Weighted>
-9.5150

> <Gold.Chemscore.Internal_Hbond.Weighted>
0.0000

> <Gold.Chemscore.DEClash.Weighted>
0.6878

> <Gold.Chemscore.DEInternal.Weighted>
4.3556

> <Gold.Chemscore.Rot.Weighted>
7.6772

> <Gold.Chemscore.Internal.Correction.Weighted>
   9.000000E+99

> <Gold.Protein.RotatedTorsions>
[ 6907 6896 6895 6894 ] final -153.13 input  -60.11 | X-H torsion
[ 7974 7965 7964 7962 ] final  124.03 input  175.53 | X-H torsion
[ 8008 7997 7996 7995 ] final  -71.82 input   59.86 | X-H torsion
[ 10167 10162 10161 10158 ] final  135.59 input  -65.29 | X-H torsion
[ 10718 10713 10712 10709 ] final -125.51 input   66.30 | X-H torsion
[ 10763 10752 10751 10750 ] final -105.69 input  -60.55 | X-H torsion
[ 11005 11000 10999 10996 ] final  -93.53 input  -57.11 | X-H torsion

> <Gold.Protein.ActiveResidues>
 VAL166  LYS551  ARG553  GLY616  TRP617  ASP618  TYR619  PRO620  LYS621  CYS622 
 ASP623  PHE694  ASN695  SER759  ASP760  ASP761  ALA762  ILE779  LEU786  VAL792 
 PHE793  MET794  SER795  GLU796  ALA797  LYS798  CYS799  TRP800  GLU811  SER814 

> <Gold.Protein.RotatedAtoms>
  151.2381  133.4414  159.2606 H   0  0  0  0  0  0  0  0  0  0  0  0  # atno 6907 bound_to 6896
  151.0731  134.9811  159.8329 H   0  0  0  0  0  0  0  0  0  0  0  0  # atno 6908 bound_to 6896
  152.5415  134.2325  159.8883 H   0  0  0  0  0  0  0  0  0  0  0  0  # atno 6909 bound_to 6896
  145.0891  139.3600  143.4870 H   0  0  0  0  0  0  0  0  0  0  0  0  # atno 7974 bound_to 7965
  154.5117  140.0808  156.8003 H   0  0  0  0  0  0  0  0  0  0  0  0  # atno 8008 bound_to 7997
  155.3770  140.3426  155.4227 H   0  0  0  0  0  0  0  0  0  0  0  0  # atno 8009 bound_to 7997
  156.1581  140.1579  156.8646 H   0  0  0  0  0  0  0  0  0  0  0  0  # atno 8010 bound_to 7997
  139.5211  144.6509  151.5305 H   0  0  0  0  0  0  0  0  0  0  0  0  # atno 10167 bound_to 10162
  156.1682  130.6649  151.0143 H   0  0  0  0  0  0  0  0  0  0  0  0  # atno 10718 bound_to 10713
  154.7963  135.4739  154.0169 H   0  0  0  0  0  0  0  0  0  0  0  0  # atno 10763 bound_to 10752
  153.1709  135.6825  153.8616 H   0  0  0  0  0  0  0  0  0  0  0  0  # atno 10764 bound_to 10752
  153.8199  135.3205  155.3387 H   0  0  0  0  0  0  0  0  0  0  0  0  # atno 10765 bound_to 10752
  141.1494  133.7894  157.0172 H   0  0  0  0  0  0  0  0  0  0  0  0  # atno 11005 bound_to 11000
  146.3531  140.0716  142.8623 LP  0  0  0  0  0  0  0  0  0  0  0  0  # atno 17320 bound_to 7965
  145.1087  140.9392  143.4669 LP  0  0  0  0  0  0  0  0  0  0  0  0  # atno 17321 bound_to 7965
  140.6313  143.9070  150.6608 LP  0  0  0  0  0  0  0  0  0  0  0  0  # atno 17342 bound_to 10162
  140.2375  143.3689  152.1514 LP  0  0  0  0  0  0  0  0  0  0  0  0  # atno 17343 bound_to 10162
  157.6783  131.0844  150.7436 LP  0  0  0  0  0  0  0  0  0  0  0  0  # atno 17370 bound_to 10713
  156.7496  130.4764  149.5459 LP  0  0  0  0  0  0  0  0  0  0  0  0  # atno 17371 bound_to 10713
  140.0839  134.9632  157.1668 LP  0  0  0  0  0  0  0  0  0  0  0  0  # atno 17394 bound_to 11000
  140.3539  134.2569  155.7195 LP  0  0  0  0  0  0  0  0  0  0  0  0  # atno 17395 bound_to 11000

$$$$
