AV-unprocessed.smi:498|AV-procd|sdf|2731|dock9
  -GOLD-   2262023183D 1   1.00000     0.00000
 Structure written by MMmdl.
 42 44  0  0  0  0  0  0  0  0  3 V2000
  152.9107  138.7457  154.5370 C   0  0  0  0  0  0  0  0  0  0  0  0
  152.0459  139.3849  155.6261 C   0  0  0  0  0  0  0  0  0  0  0  0
  152.8119  139.4998  156.8135 O   0  0  0  0  0  0  0  0  0  0  0  0
  152.2216  138.8289  157.9133 C   0  0  0  0  0  0  0  0  0  0  0  0
  150.7914  139.3507  158.0995 C   0  0  0  0  0  0  0  0  0  0  0  0
  150.6993  140.8035  157.8523 N   0  0  0  0  0  0  0  0  0  0  0  0
  149.9227  141.5387  156.9906 C   0  0  0  0  0  0  0  0  0  0  0  0
  148.8869  141.0522  156.0117 C   0  0  0  0  0  0  0  0  0  0  0  0
  147.9553  142.1073  155.6166 N   0  5  0  0  0  0  0  0  0  0  0  0
  147.1726  142.0482  154.5031 C   0  0  0  0  0  0  0  0  0  0  0  0
  147.2241  141.2742  153.5412 O   0  0  0  0  0  0  0  0  0  0  0  0
  146.0960  143.0652  154.5268 C   0  0  0  0  0  0  0  0  0  0  0  0
  145.4762  143.7700  153.5256 C   0  0  0  0  0  0  0  0  0  0  0  0
  144.4949  144.5909  154.1467 C   0  0  0  0  0  0  0  0  0  0  0  0
  144.5746  144.3234  155.4827 C   0  0  0  0  0  0  0  0  0  0  0  0
  145.5376  143.3945  155.7291 O   0  0  0  0  0  0  0  0  0  0  0  0
  150.2439  142.8497  157.1925 N   0  3  0  0  0  0  0  0  0  0  0  0
  151.2197  142.9623  158.1801 C   0  0  0  0  0  0  0  0  0  0  0  0
  151.8476  144.0823  158.7154 C   0  0  0  0  0  0  0  0  0  0  0  0
  152.8011  143.8491  159.7277 C   0  0  0  0  0  0  0  0  0  0  0  0
  153.0966  142.5431  160.1694 C   0  0  0  0  0  0  0  0  0  0  0  0
  152.4539  141.4158  159.6166 C   0  0  0  0  0  0  0  0  0  0  0  0
  151.5138  141.6542  158.6132 C   0  0  0  0  0  0  0  0  0  0  0  0
  152.3538  138.6458  153.6051 H   0  0  0  0  0  0  0  0  0  0  0  0
  153.2441  137.7515  154.8353 H   0  0  0  0  0  0  0  0  0  0  0  0
  153.7954  139.3501  154.3349 H   0  0  0  0  0  0  0  0  0  0  0  0
  151.7059  140.3692  155.3008 H   0  0  0  0  0  0  0  0  0  0  0  0
  151.1617  138.7716  155.8054 H   0  0  0  0  0  0  0  0  0  0  0  0
  152.2062  137.7527  157.7333 H   0  0  0  0  0  0  0  0  0  0  0  0
  152.8098  139.0052  158.8151 H   0  0  0  0  0  0  0  0  0  0  0  0
  150.0970  138.8331  157.4375 H   0  0  0  0  0  0  0  0  0  0  0  0
  150.4430  139.1448  159.1116 H   0  0  0  0  0  0  0  0  0  0  0  0
  149.4054  140.6402  155.1461 H   0  0  0  0  0  0  0  0  0  0  0  0
  148.3727  140.2102  156.4762 H   0  0  0  0  0  0  0  0  0  0  0  0
  145.7021  143.7025  152.4716 H   0  0  0  0  0  0  0  0  0  0  0  0
  143.8152  145.2850  153.6751 H   0  0  0  0  0  0  0  0  0  0  0  0
  144.0468  144.6827  156.3537 H   0  0  0  0  0  0  0  0  0  0  0  0
  151.6185  145.0825  158.3783 H   0  0  0  0  0  0  0  0  0  0  0  0
  153.3142  144.6881  160.1750 H   0  0  0  0  0  0  0  0  0  0  0  0
  153.8313  142.4028  160.9490 H   0  0  0  0  0  0  0  0  0  0  0  0
  152.6871  140.4209  159.9658 H   0  0  0  0  0  0  0  0  0  0  0  0
  149.8146  143.6050  156.6731 H   0  0  0  0  0  0  0  0  0  0  0  0
  1  2  1  0  0  0  0
  1 24  1  0  0  0  0
  1 25  1  0  0  0  0
  1 26  1  0  0  0  0
  2  3  1  0  0  0  0
  2 27  1  0  0  0  0
  2 28  1  0  0  0  0
  3  4  1  0  0  0  0
  4  5  1  0  0  0  0
  4 29  1  0  0  0  0
  4 30  1  0  0  0  0
  5  6  1  0  0  0  0
  5 31  1  0  0  0  0
  5 32  1  0  0  0  0
  6 23  1  0  0  0  0
  6  7  1  0  0  0  0
  7  8  1  0  0  0  0
  7 17  2  0  0  0  0
  8  9  1  0  0  0  0
  8 33  1  0  0  0  0
  8 34  1  0  0  0  0
  9 10  1  0  0  0  0
 10 11  2  0  0  0  0
 10 12  1  0  0  0  0
 12 16  1  0  0  0  0
 12 13  2  0  0  0  0
 13 14  1  0  0  0  0
 13 35  1  0  0  0  0
 14 15  2  0  0  0  0
 14 36  1  0  0  0  0
 15 16  1  0  0  0  0
 15 37  1  0  0  0  0
 17 18  1  0  0  0  0
 17 42  1  0  0  0  0
 18 23  2  0  0  0  0
 18 19  1  0  0  0  0
 19 20  2  0  0  0  0
 19 38  1  0  0  0  0
 20 21  1  0  0  0  0
 20 39  1  0  0  0  0
 21 22  2  0  0  0  0
 21 40  1  0  0  0  0
 22 23  1  0  0  0  0
 22 41  1  0  0  0  0
M  CHG  1   9  -1
M  CHG  1  17   1
M  END
> <s_m_source_file>
AV-unprocessed.smi

> <i_m_source_file_index>
498

> <i_lp_mmshare_version>
43012

> <i_f3d_flags>
0

> <s_epik_input>
W0NIM11bQ0gyXU9bQ0gyXVtDSDJdbihjKGMxMilbY0hdW2NIXVtjSF1bY0hdMiljKG4xKVtDSDJdW05IXUMoPU8pYzNbY0hdW2NIXVtjSF1vMw==

> <s_epik_cmdline>
J2VwaWtfcHl0aG9uJywgJy1waCcsICc3LjAnLCAnLXRuJywgJzgnLCAnLW1hJywgJzIwMCcsICctbWV0YWxfYmluZGluZycsICctaW1hZScsICc8aW5maWxlLm1hZT4nLCAnLW9tYWUnLCAnPG91dGZpbGUubWFlPic=

> <r_epik_Ionization_Penalty>
6.05973

> <r_epik_Ionization_Penalty_Charging>
6.05973

> <r_epik_Ionization_Penalty_Neutral>
2.61143e-12

> <r_epik_State_Penalty>
7.27867

> <r_epik_Charging_Adjusted_Penalty>
13.3384

> <i_epik_Tot_Q>
0

> <i_epik_Tot_abs_Q>
2

> <r_epik_Metal_State_Penalty>
3.28829

> <b_epik_Metal_Only>
1

> <s_lp_Force_Field>
OPLS_2005

> <r_lp_Energy>
13.3144

> <b_lp_Chiralities_Consistent>
1

> <s_lp_Variant>
AV-unprocessed.smi:498-4

> <Gold.Version>
5.8.1

> <Gold.Id.Protein>
6NUR|6NUR_protein|mol2

> <Gold.PLP.Fitness>
54.6668

> <Gold.PLP.PLP>
-48.3936

> <Gold.PLP.part.hbond>
-2.0000

> <Gold.PLP.part.metal>
0.0000

> <Gold.PLP.part.buried>
-8.7114

> <Gold.PLP.part.nonpolar>
-41.0885

> <Gold.PLP.part.repulsive>
2.3597

> <Gold.PLP.ligand.clash>
0.0000

> <Gold.PLP.ligand.torsion>
1.4167

> <Gold.PLP.Chemscore.Hbond>
3.0000

> <Gold.PLP.Chemscore.CHOScore>
0.0000

> <Gold.PLP.Chemscore.Metal>
0.0000

> <Gold.Chemscore.Hbonds>
donor molecule, donor type, donor heavy atom, donor atom, acceptor molecule, acceptor atom, score
      L1  H    17    42       P1  8028  2.00
      P1  H  7997  8009       L1     3  0.91

> <Gold.PLP.Chemscore.Internal.Correction>
0.1065

> <Gold.Rescore>
     Score         DG    S(hbond)    S(metal)    S(lipo)     H(rot)  DE(clash)    DE(int)     intcor
     18.33     -20.17       1.86        0.00     115.42       1.96       0.59       1.26       ----

> <Gold.Chemscore.Fitness>
18.3262

> <Gold.Chemscore.DG>
-20.1715

> <Gold.Chemscore.ZeroCoef>
-5.4800

> <Gold.Chemscore.Hbond>
1.8606

> <Gold.Chemscore.Metal>
0.0000

> <Gold.Chemscore.Lipo>
115.4182

> <Gold.Chemscore.Internal_Hbond>
0.0000

> <Gold.Chemscore.DEClash>
0.5901

> <Gold.Chemscore.DEInternal>
1.2552

> <Gold.Chemscore.Rot>
1.9637

> <Gold.Chemscore.Internal.Correction>
   9.000000E+99

> <Gold.Chemscore.Hbonds>
donor molecule, donor type, donor heavy atom, donor atom, acceptor molecule, acceptor atom, score
      L1  H    17    42       P1  8028  1.00
      P1  H  7997  8009       L1     3  0.87

> <Gold.Chemscore.Hbond.Weighted>
-6.2145

> <Gold.Chemscore.Metal.Weighted>
-0.0000

> <Gold.Chemscore.Lipo.Weighted>
-13.5039

> <Gold.Chemscore.Internal_Hbond.Weighted>
0.0000

> <Gold.Chemscore.DEClash.Weighted>
0.5901

> <Gold.Chemscore.DEInternal.Weighted>
1.2552

> <Gold.Chemscore.Rot.Weighted>
5.0270

> <Gold.Chemscore.Internal.Correction.Weighted>
   9.000000E+99

> <Gold.Protein.RotatedTorsions>
[ 6907 6896 6895 6894 ] final -134.72 input  -60.11 | X-H torsion
[ 7974 7965 7964 7962 ] final  -12.91 input  175.53 | X-H torsion
[ 8008 7997 7996 7995 ] final  161.22 input   59.86 | X-H torsion
[ 10167 10162 10161 10158 ] final -131.29 input  -65.29 | X-H torsion
[ 10718 10713 10712 10709 ] final  134.27 input   66.30 | X-H torsion
[ 10763 10752 10751 10750 ] final  -41.00 input  -60.55 | X-H torsion
[ 11005 11000 10999 10996 ] final -162.96 input  -57.11 | X-H torsion

> <Gold.Protein.ActiveResidues>
 VAL166  LYS551  ARG553  GLY616  TRP617  ASP618  TYR619  PRO620  LYS621  CYS622 
 ASP623  PHE694  ASN695  SER759  ASP760  ASP761  ALA762  ILE779  LEU786  VAL792 
 PHE793  MET794  SER795  GLU796  ALA797  LYS798  CYS799  TRP800  GLU811  SER814 

> <Gold.Protein.RotatedAtoms>
  150.9892  133.6167  159.2710 H   0  0  0  0  0  0  0  0  0  0  0  0  # atno 6907 bound_to 6896
  151.3394  135.0859  159.9375 H   0  0  0  0  0  0  0  0  0  0  0  0  # atno 6908 bound_to 6896
  152.5240  133.9506  159.7724 H   0  0  0  0  0  0  0  0  0  0  0  0  # atno 6909 bound_to 6896
  146.2134  140.3127  142.8384 H   0  0  0  0  0  0  0  0  0  0  0  0  # atno 7974 bound_to 7965
  156.2119  140.1783  156.7677 H   0  0  0  0  0  0  0  0  0  0  0  0  # atno 8008 bound_to 7997
  154.5734  140.0678  156.9028 H   0  0  0  0  0  0  0  0  0  0  0  0  # atno 8009 bound_to 7997
  155.2631  140.3337  155.4274 H   0  0  0  0  0  0  0  0  0  0  0  0  # atno 8010 bound_to 7997
  139.9204  143.6389  152.2555 H   0  0  0  0  0  0  0  0  0  0  0  0  # atno 10167 bound_to 10162
  157.4689  131.1079  150.9827 H   0  0  0  0  0  0  0  0  0  0  0  0  # atno 10718 bound_to 10713
  153.9553  135.6746  153.4744 H   0  0  0  0  0  0  0  0  0  0  0  0  # atno 10763 bound_to 10752
  153.0864  135.4896  154.8602 H   0  0  0  0  0  0  0  0  0  0  0  0  # atno 10764 bound_to 10752
  154.7303  135.3136  154.8862 H   0  0  0  0  0  0  0  0  0  0  0  0  # atno 10765 bound_to 10752
  140.6034  134.4924  157.5208 H   0  0  0  0  0  0  0  0  0  0  0  0  # atno 11005 bound_to 11000
  144.8977  140.7603  143.5887 LP  0  0  0  0  0  0  0  0  0  0  0  0  # atno 17320 bound_to 7965
  145.3052  139.1837  143.4668 LP  0  0  0  0  0  0  0  0  0  0  0  0  # atno 17321 bound_to 7965
  139.6866  144.7651  151.1513 LP  0  0  0  0  0  0  0  0  0  0  0  0  # atno 17342 bound_to 10162
  140.7663  143.5648  150.9059 LP  0  0  0  0  0  0  0  0  0  0  0  0  # atno 17343 bound_to 10162
  157.0599  130.5821  149.5384 LP  0  0  0  0  0  0  0  0  0  0  0  0  # atno 17370 bound_to 10713
  156.0064  130.5151  150.7843 LP  0  0  0  0  0  0  0  0  0  0  0  0  # atno 17371 bound_to 10713
  139.9223  134.8125  156.1175 LP  0  0  0  0  0  0  0  0  0  0  0  0  # atno 17394 bound_to 11000
  141.0857  133.6735  156.2430 LP  0  0  0  0  0  0  0  0  0  0  0  0  # atno 17395 bound_to 11000

$$$$
