#       Name:                AV-unprocessed.smi:182
#       Creating user name   scv26
#       Creation time:       Thu Mar 26 19:25:43 2020


#       File generated by GOLD software.
#

@<TRIPOS>MOLECULE
AV-unprocessed.smi:182
    66    69     1
SMALL
NO_CHARGES


@<TRIPOS>ATOM
      1 ****        -6.6645   1.5295  -4.8192 N.am           1 S1                 0.0000
      2 ****        -6.5243   1.7974  -3.5189 C.2            1 S1                 0.0000
      3 ****        -7.2718   2.5752  -2.9286 O.2            1 S1                 0.0000
      4 ****        -5.3754   1.0926  -2.7908 C.3            1 S1                 0.0000
      5 ****        -5.6097   0.9574  -1.2726 C.3            1 S1                 0.0000
      6 ****        -4.5173   0.1518  -0.5416 C.3            1 S1                 0.0000
      7 ****        -4.9298  -0.1363   0.9154 C.3            1 S1                 0.0000
      8 ****        -3.8286  -0.9136   1.6511 C.3            1 S1                 0.0000
      9 ****        -2.4883  -0.1686   1.5736 C.3            1 S1                 0.0000
     10 ****        -2.1365   0.1203   0.1843 N.3            1 S1                 0.0000
     11 ****        -0.8341   0.4511  -0.0129 C.ar           1 S1                 0.0000
     12 ****        -0.5127   1.6746  -0.5137 N.ar           1 S1                 0.0000
     13 ****         0.7651   2.0129  -0.7064 C.ar           1 S1                 0.0000
     14 ****         1.8631   1.2944  -0.4669 N.ar           1 S1                 0.0000
     15 ****         1.5505   0.0649   0.0335 C.ar           1 S1                 0.0000
     16 ****         0.2406  -0.4359   0.2813 C.ar           1 S1                 0.0000
     17 ****         0.3174  -1.7396   0.7577 N.2            1 S1                 0.0000
     18 ****         1.5973  -1.9909   0.7974 C.2            1 S1                 0.0000
     19 ****         2.4118  -0.9510   0.4100 N.pl3          1 S1                 0.0000
     20 ****         3.8425  -0.9684   0.3228 C.3            1 S1                 0.0000
     21 ****         4.6856  -1.7842   1.3059 C.3            1 S1                 0.0000
     22 ****         5.8044  -0.7210   1.2185 C.3            1 S1                 0.0000
     23 ****         6.4776  -0.3549   2.5517 C.3            1 S1                 0.0000
     24 ****         7.1445   0.8878   2.4640 O.3            1 S1                 0.0000
     25 ****         6.8916  -0.9942   0.1599 C.3            1 S1                 0.0000
     26 ****         7.6376  -2.1529   0.4733 O.3            1 S1                 0.0000
     27 ****         4.6771   0.2342   0.7692 C.3            1 S1                 0.0000
     28 ****        -3.1479   0.8658  -0.5688 C.3            1 S1                 0.0000
     29 ****        -7.4058   1.9719  -5.3431 H              1 S1                 0.0000
     30 ****        -6.0304   0.8898  -5.2756 H              1 S1                 0.0000
     31 ****        -5.2351   0.1023  -3.2266 H              1 S1                 0.0000
     32 ****        -4.4628   1.6553  -2.9867 H              1 S1                 0.0000
     33 ****        -5.6919   1.9467  -0.8195 H              1 S1                 0.0000
     34 ****        -6.5725   0.4700  -1.1105 H              1 S1                 0.0000
     35 ****        -4.4092  -0.8080  -1.0493 H              1 S1                 0.0000
     36 ****        -5.1251   0.8016   1.4375 H              1 S1                 0.0000
     37 ****        -5.8595  -0.7058   0.9402 H              1 S1                 0.0000
     38 ****        -4.1096  -1.0660   2.6933 H              1 S1                 0.0000
     39 ****        -3.7210  -1.9053   1.2100 H              1 S1                 0.0000
     40 ****        -2.5557   0.7735   2.1194 H              1 S1                 0.0000
     41 ****        -1.7199  -0.7603   2.0694 H              1 S1                 0.0000
     42 ****         0.9316   3.0018  -1.1074 H              1 S1                 0.0000
     43 ****         1.9837  -2.9477   1.1181 H              1 S1                 0.0000
     44 ****         4.0782  -1.2409  -0.7073 H              1 S1                 0.0000
     45 ****         4.2307  -1.8418   2.2967 H              1 S1                 0.0000
     46 ****         4.9580  -2.7767   0.9462 H              1 S1                 0.0000
     47 ****         5.7388  -0.2781   3.3500 H              1 S1                 0.0000
     48 ****         7.1890  -1.1183   2.8671 H              1 S1                 0.0000
     49 ****         7.5279   1.0827   3.3054 H              1 S1                 0.0000
     50 ****         6.4532  -1.1391  -0.8277 H              1 S1                 0.0000
     51 ****         7.5767  -0.1514   0.0642 H              1 S1                 0.0000
     52 ****         7.0495  -2.8923   0.4929 H              1 S1                 0.0000
     53 ****         4.9498   0.9182  -0.0353 H              1 S1                 0.0000
     54 ****         4.2189   0.7738   1.6005 H              1 S1                 0.0000
     55 ****        -2.8143   0.9779  -1.6009 H              1 S1                 0.0000
     56 ****        -3.2400   1.8684  -0.1482 H              1 S1                 0.0000
     57 ****        -8.0126   3.0293  -3.4235 LP             1 S1                 0.0000
     58 ****        -7.1388   2.7535  -1.9537 LP             1 S1                 0.0000
     59 ****        -2.1809  -0.7644  -0.2797 LP             1 S1                 0.0000
     60 ****        -1.2380   2.3251  -0.7391 LP             1 S1                 0.0000
     61 ****         2.7954   1.6159  -0.6329 LP             1 S1                 0.0000
     62 ****        -0.4359  -2.3462   1.0118 LP             1 S1                 0.0000
     63 ****         6.4919   1.6040   2.2167 LP             1 S1                 0.0000
     64 ****         7.8625   0.8369   1.7698 LP             1 S1                 0.0000
     65 ****         8.0713  -2.0431   1.3676 LP             1 S1                 0.0000
     66 ****         8.3408  -2.2997  -0.2224 LP             1 S1                 0.0000
@<TRIPOS>BOND
    1    1    2 am    
    2    1   29 1     
    3    1   30 1     
    4    2    3 2     
    5    2    4 1     
    6    4    5 1     
    7    4   31 1     
    8    4   32 1     
    9    5    6 1     
   10    5   33 1     
   11    5   34 1     
   12    6   28 1     
   13    6    7 1     
   14    6   35 1     
   15    7    8 1     
   16    7   36 1     
   17    7   37 1     
   18    8    9 1     
   19    8   38 1     
   20    8   39 1     
   21    9   10 1     
   22    9   40 1     
   23    9   41 1     
   24   10   11 1     
   25   10   28 1     
   26   11   16 ar    
   27   11   12 ar    
   28   12   13 ar    
   29   13   14 ar    
   30   13   42 1     
   31   14   15 ar    
   32   15   19 1     
   33   15   16 ar    
   34   16   17 1     
   35   17   18 2     
   36   18   19 1     
   37   18   43 1     
   38   19   20 1     
   39   20   27 1     
   40   20   21 1     
   41   20   44 1     
   42   21   22 1     
   43   21   45 1     
   44   21   46 1     
   45   22   23 1     
   46   22   25 1     
   47   22   27 1     
   48   23   24 1     
   49   23   47 1     
   50   23   48 1     
   51   24   49 1     
   52   25   26 1     
   53   25   50 1     
   54   25   51 1     
   55   26   52 1     
   56   27   53 1     
   57   27   54 1     
   58   28   55 1     
   59   28   56 1     
   60    3   57 1     
   61    3   58 1     
   62   10   59 1     
   63   12   60 1     
   64   14   61 1     
   65   17   62 1     
   66   24   63 1     
   67   24   64 1     
   68   26   65 1     
   69   26   66 1     
@<TRIPOS>SUBSTRUCTURE
      1 S1             1
@<TRIPOS>SET
LONE_PAIRS      STATIC     ATOMS    <user>   **** ""
10 57 58 59 60 61 62 63 64 65 66
DONOR_HYDROGENS      STATIC     ATOMS    <user>   **** ""
4 29 30 49 52
ATOM$BLUE        STATIC     ATOMS    COLORGROUP SYSTEM
10 57 58 59 60 61 62 63 64 65 66
ATOM$RED        STATIC     ATOMS    COLORGROUP SYSTEM
4 29 30 49 52
