AV-unprocessed.smi:1995|AV-procd|sdf|8081|dock4
  -GOLD-   2272010293D 1   1.00000     0.00000
 Structure written by MMmdl.
 41 42  0  0  0  0  0  0  0  0  2 V2000
  151.8086  139.3275  155.3482 C   0  0  0  0  0  0  0  0  0  0  0  0
  152.4581  138.6309  156.5578 C   0  0  0  0  0  0  0  0  0  0  0  0
  151.6049  138.6121  157.8665 C   0  0  2  0  0  0  0  0  0  0  0  0
  152.2650  137.5641  158.8025 C   0  0  0  0  0  0  0  0  0  0  0  0
  150.1638  138.1235  157.5043 C   0  0  0  0  0  0  0  0  0  0  0  0
  149.2523  138.0602  158.6480 N   0  0  0  0  0  0  0  0  0  0  0  0
  148.8361  136.9536  159.2811 C   0  0  0  0  0  0  0  0  0  0  0  0
  149.2332  135.8451  158.9149 O   0  0  0  0  0  0  0  0  0  0  0  0
  147.9758  137.2005  160.2952 N   0  5  0  0  0  0  0  0  0  0  0  0
  147.4584  136.1804  160.9991 C   0  0  0  0  0  0  0  0  0  0  0  0
  146.9503  135.0821  160.4282 N   0  0  0  0  0  0  0  0  0  0  0  0
  146.4719  134.1483  161.3495 C   0  0  0  0  0  0  0  0  0  0  0  0
  146.6270  134.5416  162.6524 C   0  0  0  0  0  0  0  0  0  0  0  0
  147.3841  136.1050  162.7620 S   0  0  0  0  0  0  0  0  0  0  0  0
  151.5930  139.9528  158.5192 N   0  0  0  0  0  0  0  0  0  0  0  0
  151.0540  141.0430  157.6969 C   0  0  0  0  0  0  0  0  0  0  0  0
  150.9400  142.3584  158.4862 C   0  0  0  0  0  0  0  0  0  0  0  0
  152.2114  142.7129  159.0175 O   0  0  0  0  0  0  0  0  0  0  0  0
  152.7461  141.7035  159.8653 C   0  0  0  0  0  0  0  0  0  0  0  0
  152.8772  140.3855  159.0832 C   0  0  0  0  0  0  0  0  0  0  0  0
  152.4696  139.2801  154.4828 H   0  0  0  0  0  0  0  0  0  0  0  0
  151.6111  140.3805  155.5462 H   0  0  0  0  0  0  0  0  0  0  0  0
  150.8678  138.8563  155.0637 H   0  0  0  0  0  0  0  0  0  0  0  0
  152.7338  137.6160  156.2721 H   0  0  0  0  0  0  0  0  0  0  0  0
  153.4111  139.1279  156.7426 H   0  0  0  0  0  0  0  0  0  0  0  0
  152.5102  136.6411  158.2763 H   0  0  0  0  0  0  0  0  0  0  0  0
  151.6087  137.2817  159.6259 H   0  0  0  0  0  0  0  0  0  0  0  0
  153.1909  137.9388  159.2389 H   0  0  0  0  0  0  0  0  0  0  0  0
  149.7244  138.7394  156.7199 H   0  0  0  0  0  0  0  0  0  0  0  0
  150.1980  137.1138  157.0970 H   0  0  0  0  0  0  0  0  0  0  0  0
  148.8951  138.9412  158.9873 H   0  0  0  0  0  0  0  0  0  0  0  0
  146.0365  133.2285  160.9885 H   0  0  0  0  0  0  0  0  0  0  0  0
  146.3455  134.0107  163.5491 H   0  0  0  0  0  0  0  0  0  0  0  0
  151.6898  141.2133  156.8282 H   0  0  0  0  0  0  0  0  0  0  0  0
  150.0634  140.7953  157.3199 H   0  0  0  0  0  0  0  0  0  0  0  0
  150.5901  143.1605  157.8361 H   0  0  0  0  0  0  0  0  0  0  0  0
  150.2136  142.2611  159.2946 H   0  0  0  0  0  0  0  0  0  0  0  0
  153.7213  142.0255  160.2305 H   0  0  0  0  0  0  0  0  0  0  0  0
  152.1036  141.5726  160.7375 H   0  0  0  0  0  0  0  0  0  0  0  0
  153.2798  139.6352  159.7611 H   0  0  0  0  0  0  0  0  0  0  0  0
  153.6119  140.5227  158.2901 H   0  0  0  0  0  0  0  0  0  0  0  0
  1  2  1  0  0  0  0
  1 21  1  0  0  0  0
  1 22  1  0  0  0  0
  1 23  1  0  0  0  0
  2  3  1  0  0  0  0
  2 24  1  0  0  0  0
  2 25  1  0  0  0  0
  3  4  1  0  0  0  0
  3  5  1  0  0  0  0
  3 15  1  0  0  0  0
  4 26  1  0  0  0  0
  4 27  1  0  0  0  0
  4 28  1  0  0  0  0
  5  6  1  0  0  0  0
  5 29  1  0  0  0  0
  5 30  1  0  0  0  0
  6  7  1  0  0  0  0
  6 31  1  0  0  0  0
  7  8  2  0  0  0  0
  7  9  1  0  0  0  0
  9 10  1  0  0  0  0
 10 14  1  0  0  0  0
 10 11  2  0  0  0  0
 11 12  1  0  0  0  0
 12 13  2  0  0  0  0
 12 32  1  0  0  0  0
 13 14  1  0  0  0  0
 13 33  1  0  0  0  0
 15 20  1  0  0  0  0
 15 16  1  0  0  0  0
 16 17  1  0  0  0  0
 16 34  1  0  0  0  0
 16 35  1  0  0  0  0
 17 18  1  0  0  0  0
 17 36  1  0  0  0  0
 17 37  1  0  0  0  0
 18 19  1  0  0  0  0
 19 20  1  0  0  0  0
 19 38  1  0  0  0  0
 19 39  1  0  0  0  0
 20 40  1  0  0  0  0
 20 41  1  0  0  0  0
M  CHG  1   9  -1
M  END
> <s_m_source_file>
AV-unprocessed.smi

> <i_m_source_file_index>
1995

> <i_lp_mmshare_version>
43012

> <i_f3d_flags>
0

> <s_epik_input>
W0NIMl0xW0NIMl1PW0NIMl1bQ0gyXU4xW0NAQF0oW0NIM10pKFtDSDJdW0NIM10pW0NIMl1bTkhdQyg9TylbTkhdYzJuW2NIXVtjSF1zMg==

> <s_epik_cmdline>
J2VwaWtfcHl0aG9uJywgJy1waCcsICc3LjAnLCAnLXRuJywgJzgnLCAnLW1hJywgJzIwMCcsICctbWV0YWxfYmluZGluZycsICctaW1hZScsICc8aW5maWxlLm1hZT4nLCAnLW9tYWUnLCAnPG91dGZpbGUubWFlPic=

> <r_lp_tautomer_probability>
0.999

> <r_epik_Ionization_Penalty>
8.86479

> <r_epik_Ionization_Penalty_Charging>
6.76546

> <r_epik_Ionization_Penalty_Neutral>
2.09933

> <r_epik_State_Penalty>
7.05418

> <r_epik_Charging_Adjusted_Penalty>
13.8196

> <i_epik_Tot_Q>
-1

> <i_epik_Tot_abs_Q>
1

> <r_epik_Metal_State_Penalty>
2.97744

> <b_epik_Metal_Only>
1

> <s_lp_Force_Field>
OPLS_2005

> <r_lp_Energy>
37.8837

> <b_lp_Chiralities_Consistent>
1

> <s_lp_Variant>
AV-unprocessed.smi:1995-6

> <Gold.Version>
5.8.1

> <Gold.Id.Protein>
6NUR|6NUR_protein|mol2

> <Gold.PLP.Fitness>
46.4881

> <Gold.PLP.PLP>
-36.7966

> <Gold.PLP.part.hbond>
-3.0000

> <Gold.PLP.part.metal>
0.0000

> <Gold.PLP.part.buried>
-5.7607

> <Gold.PLP.part.nonpolar>
-29.5392

> <Gold.PLP.part.repulsive>
0.2025

> <Gold.PLP.ligand.clash>
0.0000

> <Gold.PLP.ligand.torsion>
0.7084

> <Gold.PLP.Chemscore.Hbond>
3.6618

> <Gold.PLP.Chemscore.CHOScore>
0.0000

> <Gold.PLP.Chemscore.Metal>
0.0000

> <Gold.Chemscore.Hbonds>
donor molecule, donor type, donor heavy atom, donor atom, acceptor molecule, acceptor atom, score
      P1  H  6896  6909       L1     8  1.00
      P1  H  6931  6943       L1     9  0.85
      P1  H  6934  6947       L1     9  1.35

> <Gold.PLP.Chemscore.Internal.Correction>
0.1229

> <Gold.Rescore>
     Score         DG    S(hbond)    S(metal)    S(lipo)     H(rot)  DE(clash)    DE(int)     intcor
     14.91     -17.17       2.01        0.00      79.80       1.70       0.06       2.20       ----

> <Gold.Chemscore.Fitness>
14.9053

> <Gold.Chemscore.DG>
-17.1671

> <Gold.Chemscore.ZeroCoef>
-5.4800

> <Gold.Chemscore.Hbond>
2.0057

> <Gold.Chemscore.Metal>
0.0000

> <Gold.Chemscore.Lipo>
79.7965

> <Gold.Chemscore.Internal_Hbond>
0.0000

> <Gold.Chemscore.DEClash>
0.0647

> <Gold.Chemscore.DEInternal>
2.1972

> <Gold.Chemscore.Rot>
1.6985

> <Gold.Chemscore.Internal.Correction>
   9.000000E+99

> <Gold.Chemscore.Hbonds>
donor molecule, donor type, donor heavy atom, donor atom, acceptor molecule, acceptor atom, score
      P1  H  6896  6909       L1     8  0.96
      P1  H  6931  6943       L1     9  0.08
      P1  H  6934  6947       L1     9  0.53

> <Gold.Chemscore.Hbond.Weighted>
-6.6991

> <Gold.Chemscore.Metal.Weighted>
-0.0000

> <Gold.Chemscore.Lipo.Weighted>
-9.3362

> <Gold.Chemscore.Internal_Hbond.Weighted>
0.0000

> <Gold.Chemscore.DEClash.Weighted>
0.0647

> <Gold.Chemscore.DEInternal.Weighted>
2.1972

> <Gold.Chemscore.Rot.Weighted>
4.3482

> <Gold.Chemscore.Internal.Correction.Weighted>
   9.000000E+99

> <Gold.Protein.RotatedTorsions>
[ 6907 6896 6895 6894 ] final   56.92 input  -60.11 | X-H torsion
[ 7974 7965 7964 7962 ] final -147.72 input  175.53 | X-H torsion
[ 8008 7997 7996 7995 ] final -164.20 input   59.86 | X-H torsion
[ 10167 10162 10161 10158 ] final   74.81 input  -65.29 | X-H torsion
[ 10718 10713 10712 10709 ] final   64.81 input   66.30 | X-H torsion
[ 10763 10752 10751 10750 ] final -164.25 input  -60.55 | X-H torsion
[ 11005 11000 10999 10996 ] final   12.86 input  -57.11 | X-H torsion

> <Gold.Protein.ActiveResidues>
 VAL166  LYS551  ARG553  GLY616  TRP617  ASP618  TYR619  PRO620  LYS621  CYS622 
 ASP623  PHE694  ASN695  SER759  ASP760  ASP761  ALA762  ILE779  LEU786  VAL792 
 PHE793  MET794  SER795  GLU796  ALA797  LYS798  CYS799  TRP800  GLU811  SER814 

> <Gold.Protein.RotatedAtoms>
  152.3682  134.6772  160.0184 H   0  0  0  0  0  0  0  0  0  0  0  0  # atno 6907 bound_to 6896
  151.7074  133.3306  159.3290 H   0  0  0  0  0  0  0  0  0  0  0  0  # atno 6908 bound_to 6896
  150.7654  134.6497  159.6326 H   0  0  0  0  0  0  0  0  0  0  0  0  # atno 6909 bound_to 6896
  144.8075  140.5290  143.5665 H   0  0  0  0  0  0  0  0  0  0  0  0  # atno 7974 bound_to 7965
  155.8322  140.0935  157.1785 H   0  0  0  0  0  0  0  0  0  0  0  0  # atno 8008 bound_to 7997
  154.3980  140.1417  156.3689 H   0  0  0  0  0  0  0  0  0  0  0  0  # atno 8009 bound_to 7997
  155.8153  140.3448  155.5484 H   0  0  0  0  0  0  0  0  0  0  0  0  # atno 8010 bound_to 7997
  140.0097  144.5624  150.7669 H   0  0  0  0  0  0  0  0  0  0  0  0  # atno 10167 bound_to 10162
  157.6064  130.9180  149.9894 H   0  0  0  0  0  0  0  0  0  0  0  0  # atno 10718 bound_to 10713
  154.7046  135.2994  154.9289 H   0  0  0  0  0  0  0  0  0  0  0  0  # atno 10763 bound_to 10752
  154.0210  135.6682  153.4776 H   0  0  0  0  0  0  0  0  0  0  0  0  # atno 10764 bound_to 10752
  153.0707  135.5062  154.8210 H   0  0  0  0  0  0  0  0  0  0  0  0  # atno 10765 bound_to 10752
  140.4872  134.0876  155.7763 H   0  0  0  0  0  0  0  0  0  0  0  0  # atno 11005 bound_to 11000
  145.5403  139.1475  143.3451 LP  0  0  0  0  0  0  0  0  0  0  0  0  # atno 17320 bound_to 7965
  146.2369  140.5542  142.8951 LP  0  0  0  0  0  0  0  0  0  0  0  0  # atno 17321 bound_to 7965
  140.7386  143.2781  151.3681 LP  0  0  0  0  0  0  0  0  0  0  0  0  # atno 17342 bound_to 10162
  139.6214  144.0900  152.2394 LP  0  0  0  0  0  0  0  0  0  0  0  0  # atno 17343 bound_to 10162
  156.1152  130.3648  149.9980 LP  0  0  0  0  0  0  0  0  0  0  0  0  # atno 17370 bound_to 10713
  156.8071  130.9311  151.3645 LP  0  0  0  0  0  0  0  0  0  0  0  0  # atno 17371 bound_to 10713
  141.1502  133.8983  157.2117 LP  0  0  0  0  0  0  0  0  0  0  0  0  # atno 17394 bound_to 11000
  139.9791  135.0104  156.9704 LP  0  0  0  0  0  0  0  0  0  0  0  0  # atno 17395 bound_to 11000

$$$$
