AV-unprocessed.smi:895|AV-procd|sdf|4074|dock6
  -GOLD-   22720 1563D 1   1.00000     0.00000
 Structure written by MMmdl.
 44 45  0  0  0  0  0  0  0  0  1 V2000
  143.4331  135.8416  152.3241 C   0  0  0  0  0  0  0  0  0  0  0  0
  144.8807  136.3694  152.2959 C   0  0  0  0  0  0  0  0  0  0  0  0
  145.5654  135.9868  150.9731 C   0  0  0  0  0  0  0  0  0  0  0  0
  144.8391  137.7826  152.3270 O   0  0  0  0  0  0  0  0  0  0  0  0
  145.7328  135.8909  153.4933 C   0  0  0  0  0  0  0  0  0  0  0  0
  147.0633  136.4871  153.5027 N   0  0  0  0  0  0  0  0  0  0  0  0
  147.6035  137.1149  154.5538 C   0  0  0  0  0  0  0  0  0  0  0  0
  147.0355  137.2600  155.6363 O   0  0  0  0  0  0  0  0  0  0  0  0
  148.8355  137.5646  154.2810 N   0  0  0  0  0  0  0  0  0  0  0  0
  149.7023  138.2910  155.2075 C   0  0  1  0  0  0  0  0  0  0  0  0
  151.0443  138.6508  154.5343 C   0  0  0  0  0  0  0  0  0  0  0  0
  151.9540  139.4391  155.4891 C   0  0  0  0  0  0  0  0  0  0  0  0
  151.2586  140.7016  156.0203 C   0  0  0  0  0  0  0  0  0  0  0  0
  149.9138  140.3637  156.6906 C   0  0  0  0  0  0  0  0  0  0  0  0
  148.9676  139.5240  155.8005 C   0  0  1  0  0  0  0  0  0  0  0  0
  148.2596  140.3343  154.8065 N   0  0  0  0  0  0  0  0  0  0  0  0
  148.3510  141.7000  154.6237 C   0  0  0  0  0  0  0  0  0  0  0  0
  147.5139  142.0397  153.6002 C   0  0  0  0  0  0  0  0  0  0  0  0
  146.9416  140.7986  153.2094 C   0  0  0  0  0  0  0  0  0  0  0  0
  147.3874  139.7846  153.9313 N   0  0  0  0  0  0  0  0  0  0  0  0
  143.4139  134.7515  152.3409 H   0  0  0  0  0  0  0  0  0  0  0  0
  142.8779  136.1662  151.4434 H   0  0  0  0  0  0  0  0  0  0  0  0
  142.8844  136.1965  153.1969 H   0  0  0  0  0  0  0  0  0  0  0  0
  145.6310  134.9038  150.8634 H   0  0  0  0  0  0  0  0  0  0  0  0
  146.5797  136.3841  150.9190 H   0  0  0  0  0  0  0  0  0  0  0  0
  145.0148  136.3700  150.1128 H   0  0  0  0  0  0  0  0  0  0  0  0
  144.3474  138.0853  151.5787 H   0  0  0  0  0  0  0  0  0  0  0  0
  145.2363  136.1693  154.4244 H   0  0  0  0  0  0  0  0  0  0  0  0
  145.8145  134.8023  153.4975 H   0  0  0  0  0  0  0  0  0  0  0  0
  147.6054  136.4097  152.6547 H   0  0  0  0  0  0  0  0  0  0  0  0
  149.2112  137.3857  153.3612 H   0  0  0  0  0  0  0  0  0  0  0  0
  149.9308  137.6332  156.0487 H   0  0  0  0  0  0  0  0  0  0  0  0
  151.5573  137.7407  154.2215 H   0  0  0  0  0  0  0  0  0  0  0  0
  150.8776  139.2269  153.6246 H   0  0  0  0  0  0  0  0  0  0  0  0
  152.2393  138.8020  156.3271 H   0  0  0  0  0  0  0  0  0  0  0  0
  152.8789  139.7110  154.9798 H   0  0  0  0  0  0  0  0  0  0  0  0
  151.9084  141.2014  156.7391 H   0  0  0  0  0  0  0  0  0  0  0  0
  151.1132  141.4122  155.2075 H   0  0  0  0  0  0  0  0  0  0  0  0
  150.1194  139.8014  157.6023 H   0  0  0  0  0  0  0  0  0  0  0  0
  149.4154  141.2791  157.0119 H   0  0  0  0  0  0  0  0  0  0  0  0
  148.1916  139.1346  156.4616 H   0  0  0  0  0  0  0  0  0  0  0  0
  148.9973  142.3133  155.2343 H   0  0  0  0  0  0  0  0  0  0  0  0
  147.3371  143.0242  153.1938 H   0  0  0  0  0  0  0  0  0  0  0  0
  146.2199  140.6056  152.4294 H   0  0  0  0  0  0  0  0  0  0  0  0
  1  2  1  0  0  0  0
  1 21  1  0  0  0  0
  1 22  1  0  0  0  0
  1 23  1  0  0  0  0
  2  3  1  0  0  0  0
  2  4  1  0  0  0  0
  2  5  1  0  0  0  0
  3 24  1  0  0  0  0
  3 25  1  0  0  0  0
  3 26  1  0  0  0  0
  4 27  1  0  0  0  0
  5  6  1  0  0  0  0
  5 28  1  0  0  0  0
  5 29  1  0  0  0  0
  6  7  1  0  0  0  0
  6 30  1  0  0  0  0
  7  8  2  0  0  0  0
  7  9  1  0  0  0  0
  9 10  1  0  0  0  0
  9 31  1  0  0  0  0
 10 15  1  0  0  0  0
 10 11  1  0  0  0  0
 10 32  1  0  0  0  0
 11 12  1  0  0  0  0
 11 33  1  0  0  0  0
 11 34  1  0  0  0  0
 12 13  1  0  0  0  0
 12 35  1  0  0  0  0
 12 36  1  0  0  0  0
 13 14  1  0  0  0  0
 13 37  1  0  0  0  0
 13 38  1  0  0  0  0
 14 15  1  0  0  0  0
 14 39  1  0  0  0  0
 14 40  1  0  0  0  0
 15 16  1  0  0  0  0
 15 41  1  0  0  0  0
 16 20  1  0  0  0  0
 16 17  1  0  0  0  0
 17 18  2  0  0  0  0
 17 42  1  0  0  0  0
 18 19  1  0  0  0  0
 18 43  1  0  0  0  0
 19 20  2  0  0  0  0
 19 44  1  0  0  0  0
M  END
> <s_m_source_file>
AV-unprocessed.smi

> <i_m_source_file_index>
895

> <i_lp_mmshare_version>
43012

> <i_f3d_flags>
0

> <s_epik_input>
W0NIM11DKFtDSDNdKShbT0hdKVtDSDJdW05IXUMoPU8pW05IXVtDQEBIXTFbQ0gyXVtDSDJdW0NIMl1bQ0gyXVtDQEhdMW4yW2NIXVtjSF1bY0hdbjI=

> <s_epik_cmdline>
J2VwaWtfcHl0aG9uJywgJy1waCcsICc3LjAnLCAnLXRuJywgJzgnLCAnLW1hJywgJzIwMCcsICctbWV0YWxfYmluZGluZycsICctaW1hZScsICc8aW5maWxlLm1hZT4nLCAnLW9tYWUnLCAnPG91dGZpbGUubWFlPic=

> <r_lp_tautomer_probability>
1

> <r_epik_Ionization_Penalty>
0.000440451

> <r_epik_Ionization_Penalty_Charging>
0

> <r_epik_Ionization_Penalty_Neutral>
0.000440451

> <r_epik_State_Penalty>
-0

> <r_epik_Charging_Adjusted_Penalty>
0

> <i_epik_Tot_Q>
0

> <i_epik_Tot_abs_Q>
0

> <r_epik_Metal_State_Penalty>
-0

> <b_epik_Metal_Only>
0

> <s_lp_Force_Field>
OPLS_2005

> <r_lp_Energy>
15.0391

> <b_lp_Chiralities_Consistent>
1

> <s_lp_Variant>
AV-unprocessed.smi:895-2

> <Gold.Version>
5.8.1

> <Gold.Id.Protein>
6NUR|6NUR_protein|mol2

> <Gold.PLP.Fitness>
45.5375

> <Gold.PLP.PLP>
-31.2778

> <Gold.PLP.part.hbond>
-3.9478

> <Gold.PLP.part.metal>
0.0000

> <Gold.PLP.part.buried>
-4.0918

> <Gold.PLP.part.nonpolar>
-23.8570

> <Gold.PLP.part.repulsive>
0.1883

> <Gold.PLP.ligand.clash>
0.0073

> <Gold.PLP.ligand.torsion>
0.1369

> <Gold.PLP.Chemscore.Hbond>
2.8480

> <Gold.PLP.Chemscore.CHOScore>
1.9658

> <Gold.PLP.Chemscore.Metal>
0.0000

> <Gold.Chemscore.Hbonds>
donor molecule, donor type, donor heavy atom, donor atom, acceptor molecule, acceptor atom, score
      L1  H     4    27       P1 10171  1.00
      L1  H     6    30       P1  7948  1.00
      L1  H     9    31       P1  7948  0.85
      L1  C    17    42       P1  8028  0.97
      L1  C    19    44       P1 10175  1.00

> <Gold.PLP.Chemscore.Internal.Correction>
0.0995

> <Gold.Rescore>
     Score         DG    S(hbond)    S(metal)    S(lipo)     H(rot)  DE(clash)    DE(int)     intcor
     13.43     -17.56       2.89        0.00      68.64       2.19       0.07       4.07       ----

> <Gold.Chemscore.Fitness>
13.4305

> <Gold.Chemscore.DG>
-17.5622

> <Gold.Chemscore.ZeroCoef>
-5.4800

> <Gold.Chemscore.Hbond>
2.8929

> <Gold.Chemscore.Metal>
0.0000

> <Gold.Chemscore.Lipo>
68.6440

> <Gold.Chemscore.Internal_Hbond>
0.0000

> <Gold.Chemscore.DEClash>
0.0655

> <Gold.Chemscore.DEInternal>
4.0662

> <Gold.Chemscore.Rot>
2.1919

> <Gold.Chemscore.Internal.Correction>
   9.000000E+99

> <Gold.Chemscore.Hbonds>
donor molecule, donor type, donor heavy atom, donor atom, acceptor molecule, acceptor atom, score
      L1  H     4    27       P1 10171  1.00
      L1  H     6    30       P1  7948  0.94
      L1  H     9    31       P1  7948  0.82

> <Gold.Chemscore.Hbond.Weighted>
-9.6621

> <Gold.Chemscore.Metal.Weighted>
-0.0000

> <Gold.Chemscore.Lipo.Weighted>
-8.0313

> <Gold.Chemscore.Internal_Hbond.Weighted>
0.0000

> <Gold.Chemscore.DEClash.Weighted>
0.0655

> <Gold.Chemscore.DEInternal.Weighted>
4.0662

> <Gold.Chemscore.Rot.Weighted>
5.6113

> <Gold.Chemscore.Internal.Correction.Weighted>
   9.000000E+99

> <Gold.Protein.RotatedTorsions>
[ 6907 6896 6895 6894 ] final  -70.78 input  -60.11 | X-H torsion
[ 7974 7965 7964 7962 ] final  -65.97 input  175.53 | X-H torsion
[ 8008 7997 7996 7995 ] final -129.37 input   59.86 | X-H torsion
[ 10167 10162 10161 10158 ] final   66.50 input  -65.29 | X-H torsion
[ 10718 10713 10712 10709 ] final  161.31 input   66.30 | X-H torsion
[ 10763 10752 10751 10750 ] final  124.36 input  -60.55 | X-H torsion
[ 11005 11000 10999 10996 ] final  -31.75 input  -57.11 | X-H torsion

> <Gold.Protein.ActiveResidues>
 VAL166  LYS551  ARG553  GLY616  TRP617  ASP618  TYR619  PRO620  LYS621  CYS622 
 ASP623  PHE694  ASN695  SER759  ASP760  ASP761  ALA762  ILE779  LEU786  VAL792 
 PHE793  MET794  SER795  GLU796  ALA797  LYS798  CYS799  TRP800  GLU811  SER814 

> <Gold.Protein.RotatedAtoms>
  150.7242  134.5404  159.5744 H   0  0  0  0  0  0  0  0  0  0  0  0  # atno 6907 bound_to 6896
  152.2916  134.7712  160.0385 H   0  0  0  0  0  0  0  0  0  0  0  0  # atno 6908 bound_to 6896
  151.8323  133.3375  159.3654 H   0  0  0  0  0  0  0  0  0  0  0  0  # atno 6909 bound_to 6896
  145.7476  140.8924  143.0497 H   0  0  0  0  0  0  0  0  0  0  0  0  # atno 7974 bound_to 7965
  155.2780  140.0443  157.3013 H   0  0  0  0  0  0  0  0  0  0  0  0  # atno 8008 bound_to 7997
  154.5613  140.2347  155.8299 H   0  0  0  0  0  0  0  0  0  0  0  0  # atno 8009 bound_to 7997
  156.2050  140.3015  155.9614 H   0  0  0  0  0  0  0  0  0  0  0  0  # atno 8010 bound_to 7997
  140.0997  144.4914  150.7045 H   0  0  0  0  0  0  0  0  0  0  0  0  # atno 10167 bound_to 10162
  157.1383  131.0534  151.2339 H   0  0  0  0  0  0  0  0  0  0  0  0  # atno 10718 bound_to 10713
  153.6601  135.3348  155.3125 H   0  0  0  0  0  0  0  0  0  0  0  0  # atno 10763 bound_to 10752
  154.8517  135.4361  154.1813 H   0  0  0  0  0  0  0  0  0  0  0  0  # atno 10764 bound_to 10752
  153.2778  135.7006  153.7491 H   0  0  0  0  0  0  0  0  0  0  0  0  # atno 10765 bound_to 10752
  140.9495  133.7229  156.1198 H   0  0  0  0  0  0  0  0  0  0  0  0  # atno 11005 bound_to 11000
  144.6856  139.9547  143.7479 LP  0  0  0  0  0  0  0  0  0  0  0  0  # atno 17320 bound_to 7965
  146.0387  139.3402  143.0710 LP  0  0  0  0  0  0  0  0  0  0  0  0  # atno 17321 bound_to 7965
  140.6984  143.2419  151.4934 LP  0  0  0  0  0  0  0  0  0  0  0  0  # atno 17342 bound_to 10162
  139.5678  144.2001  152.1791 LP  0  0  0  0  0  0  0  0  0  0  0  0  # atno 17343 bound_to 10162
  157.4330  130.7501  149.7006 LP  0  0  0  0  0  0  0  0  0  0  0  0  # atno 17370 bound_to 10713
  155.9794  130.4041  150.3591 LP  0  0  0  0  0  0  0  0  0  0  0  0  # atno 17371 bound_to 10713
  140.7623  134.3926  157.5523 LP  0  0  0  0  0  0  0  0  0  0  0  0  # atno 17394 bound_to 11000
  139.8843  134.8969  156.2711 LP  0  0  0  0  0  0  0  0  0  0  0  0  # atno 17395 bound_to 11000

$$$$
