AV-unprocessed.smi:49|AV-procd|sdf|468|dock8
  -GOLD-   2262016333D 1   1.00000     0.00000
 Structure written by MMmdl.
 28 29  0  0  0  0  0  0  0  0  2 V2000
  152.4292  142.3595  159.4615 C   0  0  0  0  0  0  0  0  0  0  0  0
  151.9608  140.9498  159.0834 C   0  0  0  0  0  0  0  0  0  0  0  0
  151.5284  140.8623  157.6572 C   0  0  0  0  0  0  0  0  0  0  0  0
  150.4099  141.4899  157.1837 N   0  0  0  0  0  0  0  0  0  0  0  0
  150.4266  141.0825  155.9161 C   0  0  0  0  0  0  0  0  0  0  0  0
  149.4181  141.4336  154.8632 C   0  0  1  0  0  0  0  0  0  0  0  0
  148.6900  140.2383  154.2442 C   0  0  0  0  0  0  0  0  0  0  0  0
  147.3236  140.8306  153.9132 C   0  0  1  0  0  0  0  0  0  0  0  0
  146.3274  139.8371  153.7976 O   0  0  0  0  0  0  0  0  0  0  0  0
  147.0595  141.7826  155.0857 C   0  0  0  0  0  0  0  0  0  0  0  0
  148.3851  142.2323  155.5564 N   0  3  0  0  0  0  0  0  0  0  0  0
  151.4554  140.2711  155.6596 N   0  0  0  0  0  0  0  0  0  0  0  0
  152.1874  140.1060  156.7811 N   0  0  0  0  0  0  0  0  0  0  0  0
  149.8739  142.0499  154.0865 H   0  0  0  0  0  0  0  0  0  0  0  0
  147.3839  141.3974  152.9827 H   0  0  0  0  0  0  0  0  0  0  0  0
  151.6824  139.8212  154.7841 H   0  0  0  0  0  0  0  0  0  0  0  0
  152.7408  142.3979  160.5053 H   0  0  0  0  0  0  0  0  0  0  0  0
  151.6305  143.0891  159.3251 H   0  0  0  0  0  0  0  0  0  0  0  0
  153.2760  142.6704  158.8489 H   0  0  0  0  0  0  0  0  0  0  0  0
  152.7656  140.2343  159.2565 H   0  0  0  0  0  0  0  0  0  0  0  0
  151.1349  140.6484  159.7291 H   0  0  0  0  0  0  0  0  0  0  0  0
  149.2088  139.8177  153.3822 H   0  0  0  0  0  0  0  0  0  0  0  0
  148.5726  139.4455  154.9858 H   0  0  0  0  0  0  0  0  0  0  0  0
  145.5775  140.2080  153.3573 H   0  0  0  0  0  0  0  0  0  0  0  0
  146.4249  142.6236  154.8057 H   0  0  0  0  0  0  0  0  0  0  0  0
  146.5762  141.2564  155.9103 H   0  0  0  0  0  0  0  0  0  0  0  0
  148.4516  142.0694  156.5516 H   0  0  0  0  0  0  0  0  0  0  0  0
  148.5209  143.2137  155.3611 H   0  0  0  0  0  0  0  0  0  0  0  0
  1  2  1  0  0  0  0
  1 17  1  0  0  0  0
  1 18  1  0  0  0  0
  1 19  1  0  0  0  0
  2 20  1  0  0  0  0
  2 21  1  0  0  0  0
  2  3  1  0  0  0  0
  3  4  1  0  0  0  0
  3 13  2  0  0  0  0
  4  5  2  0  0  0  0
  5  6  1  0  0  0  0
  5 12  1  0  0  0  0
  6 14  1  0  0  0  0
  6 11  1  0  0  0  0
  6  7  1  0  0  0  0
  7  8  1  0  0  0  0
  7 22  1  0  0  0  0
  7 23  1  0  0  0  0
  8 15  1  0  0  0  0
  8  9  1  0  0  0  0
  8 10  1  0  0  0  0
  9 24  1  0  0  0  0
 10 11  1  0  0  0  0
 10 25  1  0  0  0  0
 10 26  1  0  0  0  0
 11 27  1  0  0  0  0
 11 28  1  0  0  0  0
 12 13  1  0  0  0  0
 12 16  1  0  0  0  0
M  CHG  1  11   1
M  END
> <s_m_source_file>
AV-unprocessed.smi

> <i_m_source_file_index>
49

> <i_lp_mmshare_version>
43012

> <i_f3d_flags>
0

> <s_epik_input>
W0NIM11bQ0gyXWMxbmMobltuSF0xKVtDQEBIXTJbQ0gyXVtDQEBIXShbT0hdKVtDSDJdW05IXTI=

> <s_epik_cmdline>
J2VwaWtfcHl0aG9uJywgJy1waCcsICc3LjAnLCAnLXRuJywgJzgnLCAnLW1hJywgJzIwMCcsICctbWV0YWxfYmluZGluZycsICctaW1hZScsICc8aW5maWxlLm1hZT4nLCAnLW9tYWUnLCAnPG91dGZpbGUubWFlPic=

> <r_epik_Ionization_Penalty>
0.372103

> <r_epik_Ionization_Penalty_Charging>
0.0688988

> <r_epik_Ionization_Penalty_Neutral>
0.303204

> <r_epik_State_Penalty>
0.737493

> <r_epik_Charging_Adjusted_Penalty>
0.806392

> <i_epik_Tot_Q>
1

> <i_epik_Tot_abs_Q>
1

> <r_epik_Metal_State_Penalty>
1.01235

> <b_epik_Metal_Only>
0

> <s_lp_Force_Field>
OPLS_2005

> <r_lp_Energy>
17.828

> <b_lp_Chiralities_Consistent>
1

> <s_lp_Variant>
AV-unprocessed.smi:49-6

> <Gold.Version>
5.8.1

> <Gold.Id.Protein>
6NUR|6NUR_protein|mol2

> <Gold.PLP.Fitness>
34.4978

> <Gold.PLP.PLP>
-23.4139

> <Gold.PLP.part.hbond>
-2.6718

> <Gold.PLP.part.metal>
0.0000

> <Gold.PLP.part.buried>
-2.9578

> <Gold.PLP.part.nonpolar>
-19.1506

> <Gold.PLP.part.repulsive>
1.4873

> <Gold.PLP.ligand.clash>
0.0000

> <Gold.PLP.ligand.torsion>
0.0646

> <Gold.PLP.Chemscore.Hbond>
3.7313

> <Gold.PLP.Chemscore.CHOScore>
0.0000

> <Gold.PLP.Chemscore.Metal>
0.0000

> <Gold.Chemscore.Hbonds>
donor molecule, donor type, donor heavy atom, donor atom, acceptor molecule, acceptor atom, score
      L1  H     9    24       P1 10175  0.81
      L1  H    11    28       P1  8028  2.00
      P1  H  7997  8010       L1    13  0.63

> <Gold.PLP.Chemscore.Internal.Correction>
0.0195

> <Gold.Rescore>
     Score         DG    S(hbond)    S(metal)    S(lipo)     H(rot)  DE(clash)    DE(int)     intcor
     14.10     -14.28       2.54        0.00      43.85       1.89       0.12       0.05       ----

> <Gold.Chemscore.Fitness>
14.1033

> <Gold.Chemscore.DG>
-14.2754

> <Gold.Chemscore.ZeroCoef>
-5.4800

> <Gold.Chemscore.Hbond>
2.5445

> <Gold.Chemscore.Metal>
0.0000

> <Gold.Chemscore.Lipo>
43.8526

> <Gold.Chemscore.Internal_Hbond>
0.0000

> <Gold.Chemscore.DEClash>
0.1214

> <Gold.Chemscore.DEInternal>
0.0508

> <Gold.Chemscore.Rot>
1.8883

> <Gold.Chemscore.Internal.Correction>
   9.000000E+99

> <Gold.Chemscore.Hbonds>
donor molecule, donor type, donor heavy atom, donor atom, acceptor molecule, acceptor atom, score
      L1  H     9    24       P1 10175  0.80
      L1  H    11    28       P1  8028  0.95
      P1  H  7997  8010       L1    13  0.52

> <Gold.Chemscore.Hbond.Weighted>
-8.4987

> <Gold.Chemscore.Metal.Weighted>
-0.0000

> <Gold.Chemscore.Lipo.Weighted>
-5.1307

> <Gold.Chemscore.Internal_Hbond.Weighted>
0.0000

> <Gold.Chemscore.DEClash.Weighted>
0.1214

> <Gold.Chemscore.DEInternal.Weighted>
0.0508

> <Gold.Chemscore.Rot.Weighted>
4.8340

> <Gold.Chemscore.Internal.Correction.Weighted>
   9.000000E+99

> <Gold.Protein.RotatedTorsions>
[ 6907 6896 6895 6894 ] final -156.07 input  -60.11 | X-H torsion
[ 7974 7965 7964 7962 ] final  125.54 input  175.53 | X-H torsion
[ 8008 7997 7996 7995 ] final   74.75 input   59.86 | X-H torsion
[ 10167 10162 10161 10158 ] final  -64.22 input  -65.29 | X-H torsion
[ 10718 10713 10712 10709 ] final    5.92 input   66.30 | X-H torsion
[ 10763 10752 10751 10750 ] final   83.97 input  -60.55 | X-H torsion
[ 11005 11000 10999 10996 ] final   28.50 input  -57.11 | X-H torsion

> <Gold.Protein.ActiveResidues>
 VAL166  LYS551  ARG553  GLY616  TRP617  ASP618  TYR619  PRO620  LYS621  CYS622 
 ASP623  PHE694  ASN695  SER759  ASP760  ASP761  ALA762  ILE779  LEU786  VAL792 
 PHE793  MET794  SER795  GLU796  ALA797  LYS798  CYS799  TRP800  GLU811  SER814 

> <Gold.Protein.RotatedAtoms>
  151.2821  133.4205  159.2627 H   0  0  0  0  0  0  0  0  0  0  0  0  # atno 6907 bound_to 6896
  151.0352  134.9568  159.8142 H   0  0  0  0  0  0  0  0  0  0  0  0  # atno 6908 bound_to 6896
  152.5354  134.2780  159.9049 H   0  0  0  0  0  0  0  0  0  0  0  0  # atno 6909 bound_to 6896
  145.0719  139.3724  143.4953 H   0  0  0  0  0  0  0  0  0  0  0  0  # atno 7974 bound_to 7965
  155.8029  140.3476  155.5413 H   0  0  0  0  0  0  0  0  0  0  0  0  # atno 8008 bound_to 7997
  155.8520  140.0958  157.1689 H   0  0  0  0  0  0  0  0  0  0  0  0  # atno 8009 bound_to 7997
  154.4008  140.1375  156.3843 H   0  0  0  0  0  0  0  0  0  0  0  0  # atno 8010 bound_to 7997
  140.5816  143.2328  151.6330 H   0  0  0  0  0  0  0  0  0  0  0  0  # atno 10167 bound_to 10162
  156.9146  130.5768  149.5647 H   0  0  0  0  0  0  0  0  0  0  0  0  # atno 10718 bound_to 10713
  153.1339  135.4671  154.9391 H   0  0  0  0  0  0  0  0  0  0  0  0  # atno 10763 bound_to 10752
  154.7688  135.3153  154.8233 H   0  0  0  0  0  0  0  0  0  0  0  0  # atno 10764 bound_to 10752
  153.8770  135.6898  153.4824 H   0  0  0  0  0  0  0  0  0  0  0  0  # atno 10765 bound_to 10752
  140.3149  134.2608  155.7727 H   0  0  0  0  0  0  0  0  0  0  0  0  # atno 11005 bound_to 11000
  146.3529  140.0467  142.8639 LP  0  0  0  0  0  0  0  0  0  0  0  0  # atno 17320 bound_to 7965
  145.1283  140.9503  143.4560 LP  0  0  0  0  0  0  0  0  0  0  0  0  # atno 17321 bound_to 7965
  139.5173  144.3319  152.0818 LP  0  0  0  0  0  0  0  0  0  0  0  0  # atno 17342 bound_to 10162
  140.2470  144.4209  150.6237 LP  0  0  0  0  0  0  0  0  0  0  0  0  # atno 17343 bound_to 10162
  156.0520  130.5587  150.9009 LP  0  0  0  0  0  0  0  0  0  0  0  0  # atno 17370 bound_to 10713
  157.5946  131.0943  150.9062 LP  0  0  0  0  0  0  0  0  0  0  0  0  # atno 17371 bound_to 10713
  141.2100  133.7733  156.9962 LP  0  0  0  0  0  0  0  0  0  0  0  0  # atno 17394 bound_to 11000
  140.0992  134.9546  157.1896 LP  0  0  0  0  0  0  0  0  0  0  0  0  # atno 17395 bound_to 11000

$$$$
