#       Name:                AV-unprocessed.smi:2482
#       Creating user name   scv26
#       Creation time:       Fri Mar 27 13:41:50 2020


#       File generated by GOLD software.
#

@<TRIPOS>MOLECULE
AV-unprocessed.smi:2482
    40    41     1
SMALL
NO_CHARGES


@<TRIPOS>ATOM
      1 ****        -5.3320   2.5252  -0.8366 C.3            1 S1                 0.0000
      2 ****        -4.5470   1.2325  -0.7152 C.ar           1 S1                 0.0000
      3 ****        -5.2864   0.1058  -0.6210 N.ar           1 S1                 0.0000
      4 ****        -4.6383  -1.0722  -0.5161 C.ar           1 S1                 0.0000
      5 ****        -3.2351  -1.1853  -0.4940 C.ar           1 S1                 0.0000
      6 ****        -2.4572  -0.0056  -0.5769 C.ar           1 S1                 0.0000
      7 ****        -1.0349  -0.0024  -0.5856 N.am           1 S1                 0.0000
      8 ****        -0.1806  -0.9148  -0.0853 C.2            1 S1                 0.0000
      9 ****        -0.5249  -1.9559   0.4740 O.2            1 S1                 0.0000
     10 ****         1.3129  -0.5915  -0.2502 C.3            1 S1                 0.0000
     11 ****         2.2020  -1.3273   0.7800 C.3            1 S1                 0.0000
     12 ****         3.6193  -0.9256   0.6277 N.4            1 S1                 1.0000
     13 ****         4.5160  -1.6322   1.5670 C.3            1 S1                 0.0000
     14 ****         3.7635   0.5456   0.6985 C.3            1 S1                 0.0000
     15 ****         2.8408   1.2195  -0.3290 C.3            1 S1                 0.0000
     16 ****         1.4971   0.8156  -0.0977 O.3            1 S1                 0.0000
     17 ****        -3.1323   1.2311  -0.7037 C.ar           1 S1                 0.0000
     18 ****        -2.2458   2.7137  -0.8348 Cl             1 S1                 0.0000
     19 ****        -5.0940   3.1918  -0.0074 H              1 S1                 0.0000
     20 ****        -6.4077   2.3444  -0.8244 H              1 S1                 0.0000
     21 ****        -5.0865   3.0328  -1.7699 H              1 S1                 0.0000
     22 ****        -5.2577  -1.9547  -0.4547 H              1 S1                 0.0000
     23 ****        -2.7911  -2.1662  -0.4286 H              1 S1                 0.0000
     24 ****        -0.6122   0.8414  -0.9454 H              1 S1                 0.0000
     25 ****         1.5999  -0.8835  -1.2619 H              1 S1                 0.0000
     26 ****         1.8696  -1.1052   1.7961 H              1 S1                 0.0000
     27 ****         2.1230  -2.4070   0.6445 H              1 S1                 0.0000
     28 ****         4.2708  -1.3891   2.6017 H              1 S1                 0.0000
     29 ****         5.5555  -1.3568   1.3871 H              1 S1                 0.0000
     30 ****         4.4310  -2.7119   1.4399 H              1 S1                 0.0000
     31 ****         3.5188   0.8917   1.7042 H              1 S1                 0.0000
     32 ****         4.8000   0.8242   0.5054 H              1 S1                 0.0000
     33 ****         2.9045   2.3038  -0.2377 H              1 S1                 0.0000
     34 ****         3.1394   0.9670  -1.3477 H              1 S1                 0.0000
     35 ****         3.9008  -1.1999  -0.3030 H              1 S1                 0.0000
     36 ****        -6.2857   0.1442  -0.6288 LP             1 S1                 0.0000
     37 ****        -1.4962  -2.1687   0.5804 LP             1 S1                 0.0000
     38 ****         0.1666  -2.5888   0.8220 LP             1 S1                 0.0000
     39 ****         1.2412   1.0730   0.8341 LP             1 S1                 0.0000
     40 ****         0.9038   1.2887  -0.7490 LP             1 S1                 0.0000
@<TRIPOS>BOND
    1    1    2 1     
    2    1   19 1     
    3    1   20 1     
    4    1   21 1     
    5    2   17 ar    
    6    2    3 ar    
    7    3    4 ar    
    8    4    5 ar    
    9    4   22 1     
   10    5    6 ar    
   11    5   23 1     
   12    6    7 1     
   13    6   17 ar    
   14    7    8 am    
   15    7   24 1     
   16    8    9 2     
   17    8   10 1     
   18   10   16 1     
   19   10   11 1     
   20   10   25 1     
   21   11   12 1     
   22   11   26 1     
   23   11   27 1     
   24   12   13 1     
   25   12   14 1     
   26   12   35 1     
   27   13   28 1     
   28   13   29 1     
   29   13   30 1     
   30   14   15 1     
   31   14   31 1     
   32   14   32 1     
   33   15   16 1     
   34   15   33 1     
   35   15   34 1     
   36   17   18 1     
   37    3   36 1     
   38    9   37 1     
   39    9   38 1     
   40   16   39 1     
   41   16   40 1     
@<TRIPOS>SUBSTRUCTURE
      1 S1             1
@<TRIPOS>SET
LONE_PAIRS      STATIC     ATOMS    <user>   **** ""
5 36 37 38 39 40
DONOR_HYDROGENS      STATIC     ATOMS    <user>   **** ""
2 24 35
ATOM$BLUE        STATIC     ATOMS    COLORGROUP SYSTEM
5 36 37 38 39 40
ATOM$RED        STATIC     ATOMS    COLORGROUP SYSTEM
2 24 35
