AV-unprocessed.smi:72|AV-procd|sdf|707|dock4
  -GOLD-   2262017 23D 1   1.00000     0.00000
 Structure written by MMmdl.
 30 31  0  0  0  0  0  0  0  0  2 V2000
  145.8198  138.9582  152.0098 N   0  0  0  0  0  0  0  0  0  0  0  0
  146.8105  139.4631  152.8259 C   0  0  0  0  0  0  0  0  0  0  0  0
  147.9964  138.7557  152.9099 N   0  3  0  0  0  0  0  0  0  0  0  0
  149.0514  139.1109  153.6551 C   0  0  0  0  0  0  0  0  0  0  0  0
  148.9868  140.2099  154.3752 N   0  0  0  0  0  0  0  0  0  0  0  0
  150.1638  140.6184  155.2203 C   0  0  2  0  0  0  0  0  0  0  0  0
  151.2616  139.8731  154.7967 O   0  0  0  0  0  0  0  0  0  0  0  0
  152.0709  139.5818  155.9282 C   0  0  2  0  0  0  0  0  0  0  0  0
  153.0872  138.4670  155.6226 C   0  0  0  0  0  0  0  0  0  0  0  0
  154.0915  138.9499  154.7563 O   0  0  0  0  0  0  0  0  0  0  0  0
  151.0432  139.3113  157.0375 C   0  0  2  0  0  0  0  0  0  0  0  0
  150.5778  137.9727  156.9892 O   0  0  0  0  0  0  0  0  0  0  0  0
  149.9462  140.3284  156.7205 C   0  0  2  0  0  0  0  0  0  0  0  0
  148.6457  139.8846  157.0732 O   0  0  0  0  0  0  0  0  0  0  0  0
  147.8106  141.0027  154.3571 C   0  0  0  0  0  0  0  0  0  0  0  0
  147.7294  142.0258  155.0354 O   0  0  0  0  0  0  0  0  0  0  0  0
  146.7611  140.5518  153.5429 N   0  0  0  0  0  0  0  0  0  0  0  0
  150.3706  141.6708  155.0241 H   0  0  0  0  0  0  0  0  0  0  0  0
  152.6151  140.4969  156.1711 H   0  0  0  0  0  0  0  0  0  0  0  0
  151.4704  139.4802  158.0266 H   0  0  0  0  0  0  0  0  0  0  0  0
  150.1500  141.2554  157.2583 H   0  0  0  0  0  0  0  0  0  0  0  0
  144.9230  139.4071  151.8873 H   0  0  0  0  0  0  0  0  0  0  0  0
  145.9071  138.1054  151.4760 H   0  0  0  0  0  0  0  0  0  0  0  0
  149.9429  138.4973  153.6600 H   0  0  0  0  0  0  0  0  0  0  0  0
  153.5412  138.0703  156.5308 H   0  0  0  0  0  0  0  0  0  0  0  0
  152.5854  137.6333  155.1307 H   0  0  0  0  0  0  0  0  0  0  0  0
  154.7301  138.2658  154.6231 H   0  0  0  0  0  0  0  0  0  0  0  0
  149.6854  137.9747  156.6815 H   0  0  0  0  0  0  0  0  0  0  0  0
  148.1355  139.7958  156.2818 H   0  0  0  0  0  0  0  0  0  0  0  0
  148.0682  137.9074  152.3666 H   0  0  0  0  0  0  0  0  0  0  0  0
  1  2  1  0  0  0  0
  1 22  1  0  0  0  0
  1 23  1  0  0  0  0
  2 17  2  0  0  0  0
  2  3  1  0  0  0  0
  3  4  2  0  0  0  0
  3 30  1  0  0  0  0
  4  5  1  0  0  0  0
  4 24  1  0  0  0  0
  5  6  1  0  0  0  0
  5 15  1  0  0  0  0
  6 18  1  0  0  0  0
  6 13  1  0  0  0  0
  6  7  1  0  0  0  0
  7  8  1  0  0  0  0
  8 19  1  0  0  0  0
  8  9  1  0  0  0  0
  8 11  1  0  0  0  0
  9 10  1  0  0  0  0
  9 25  1  0  0  0  0
  9 26  1  0  0  0  0
 10 27  1  0  0  0  0
 11 20  1  0  0  0  0
 11 12  1  0  0  0  0
 11 13  1  0  0  0  0
 12 28  1  0  0  0  0
 13 21  1  0  0  0  0
 13 14  1  0  0  0  0
 14 29  1  0  0  0  0
 15 16  2  0  0  0  0
 15 17  1  0  0  0  0
M  CHG  1   3   1
M  END
> <s_m_source_file>
AV-unprocessed.smi

> <i_m_source_file_index>
72

> <i_lp_mmshare_version>
43012

> <i_f3d_flags>
0

> <s_epik_input>
W05IMl1jMW5bY0hdbihjKD1PKW4xKVtDQEBIXTJPW0NASF0oW0NIMl1bT0hdKVtDQEBIXShbT0hdKVtDQEhdMltPSF0=

> <s_epik_cmdline>
J2VwaWtfcHl0aG9uJywgJy1waCcsICc3LjAnLCAnLXRuJywgJzgnLCAnLW1hJywgJzIwMCcsICctbWV0YWxfYmluZGluZycsICctaW1hZScsICc8aW5maWxlLm1hZT4nLCAnLW9tYWUnLCAnPG91dGZpbGUubWFlPic=

> <r_lp_tautomer_probability>
4.77166e-05

> <r_epik_Ionization_Penalty>
0.104979

> <r_epik_Ionization_Penalty_Charging>
0.0999619

> <r_epik_Ionization_Penalty_Neutral>
0.00501745

> <r_epik_State_Penalty>
2.51541

> <r_epik_Charging_Adjusted_Penalty>
2.61537

> <i_epik_Tot_Q>
1

> <i_epik_Tot_abs_Q>
1

> <r_epik_Metal_State_Penalty>
3.53763

> <b_epik_Metal_Only>
0

> <s_epik_Chemistry_Notes>
This compound contains an acetal/aminal-like group ( X-CH(R)-Y where X, Y are N, S, or O) that may be acid/base labile, releasing an aldehyde.

> <s_lp_Force_Field>
OPLS_2005

> <r_lp_Energy>
39.1051

> <b_lp_Chiralities_Consistent>
1

> <s_lp_Variant>
AV-unprocessed.smi:72-45

> <Gold.Version>
5.8.1

> <Gold.Id.Protein>
6NUR|6NUR_protein|mol2

> <Gold.PLP.Fitness>
38.0127

> <Gold.PLP.PLP>
-24.0688

> <Gold.PLP.part.hbond>
-5.9037

> <Gold.PLP.part.metal>
0.0000

> <Gold.PLP.part.buried>
-0.3920

> <Gold.PLP.part.nonpolar>
-19.1693

> <Gold.PLP.part.repulsive>
1.1296

> <Gold.PLP.ligand.clash>
0.0000

> <Gold.PLP.ligand.torsion>
0.4472

> <Gold.PLP.Chemscore.Hbond>
4.8940

> <Gold.PLP.Chemscore.CHOScore>
0.0000

> <Gold.PLP.Chemscore.Metal>
0.0000

> <Gold.Chemscore.Hbonds>
donor molecule, donor type, donor heavy atom, donor atom, acceptor molecule, acceptor atom, score
      L1  H     1    22       P1 10175  1.00
      L1  H     3    30       P1  7948  2.00
      P1  H  7989  7998       L1     7  0.80
      P1  H  7997  8009       L1    10  0.88

> <Gold.PLP.Chemscore.Internal.Correction>
0.1563

> <Gold.Rescore>
     Score         DG    S(hbond)    S(metal)    S(lipo)     H(rot)  DE(clash)    DE(int)     intcor
      4.60      -5.50       2.26        0.00      24.98       4.08       0.29       0.61       ----

> <Gold.Chemscore.Fitness>
4.5975

> <Gold.Chemscore.DG>
-5.5012

> <Gold.Chemscore.ZeroCoef>
-5.4800

> <Gold.Chemscore.Hbond>
2.2570

> <Gold.Chemscore.Metal>
0.0000

> <Gold.Chemscore.Lipo>
24.9834

> <Gold.Chemscore.Internal_Hbond>
0.0000

> <Gold.Chemscore.DEClash>
0.2915

> <Gold.Chemscore.DEInternal>
0.6122

> <Gold.Chemscore.Rot>
4.0783

> <Gold.Chemscore.Internal.Correction>
   9.000000E+99

> <Gold.Chemscore.Hbonds>
donor molecule, donor type, donor heavy atom, donor atom, acceptor molecule, acceptor atom, score
      L1  H     1    22       P1 10175  0.92
      L1  H     3    30       P1  7948  0.96
      P1  H  7989  7998       L1     7  0.12
      P1  H  7997  8009       L1    10  0.28

> <Gold.Chemscore.Hbond.Weighted>
-7.5385

> <Gold.Chemscore.Metal.Weighted>
-0.0000

> <Gold.Chemscore.Lipo.Weighted>
-2.9231

> <Gold.Chemscore.Internal_Hbond.Weighted>
0.0000

> <Gold.Chemscore.DEClash.Weighted>
0.2915

> <Gold.Chemscore.DEInternal.Weighted>
0.6122

> <Gold.Chemscore.Rot.Weighted>
10.4404

> <Gold.Chemscore.Internal.Correction.Weighted>
   9.000000E+99

> <Gold.Protein.RotatedTorsions>
[ 6907 6896 6895 6894 ] final  108.39 input  -60.11 | X-H torsion
[ 7974 7965 7964 7962 ] final  -41.20 input  175.53 | X-H torsion
[ 8008 7997 7996 7995 ] final -112.31 input   59.86 | X-H torsion
[ 10167 10162 10161 10158 ] final  178.17 input  -65.29 | X-H torsion
[ 10718 10713 10712 10709 ] final   46.60 input   66.30 | X-H torsion
[ 10763 10752 10751 10750 ] final -164.26 input  -60.55 | X-H torsion
[ 11005 11000 10999 10996 ] final  -48.34 input  -57.11 | X-H torsion

> <Gold.Protein.ActiveResidues>
 VAL166  LYS551  ARG553  GLY616  TRP617  ASP618  TYR619  PRO620  LYS621  CYS622 
 ASP623  PHE694  ASN695  SER759  ASP760  ASP761  ALA762  ILE779  LEU786  VAL792 
 PHE793  MET794  SER795  GLU796  ALA797  LYS798  CYS799  TRP800  GLU811  SER814 

> <Gold.Protein.RotatedAtoms>
  152.5114  133.9095  159.7480 H   0  0  0  0  0  0  0  0  0  0  0  0  # atno 6907 bound_to 6896
  150.9492  133.6560  159.2782 H   0  0  0  0  0  0  0  0  0  0  0  0  # atno 6908 bound_to 6896
  151.3844  135.0950  159.9559 H   0  0  0  0  0  0  0  0  0  0  0  0  # atno 6909 bound_to 6896
  146.0234  140.6822  142.9167 H   0  0  0  0  0  0  0  0  0  0  0  0  # atno 7974 bound_to 7965
  155.0032  140.0394  157.2369 H   0  0  0  0  0  0  0  0  0  0  0  0  # atno 8008 bound_to 7997
  154.7525  140.2769  155.6258 H   0  0  0  0  0  0  0  0  0  0  0  0  # atno 8009 bound_to 7997
  156.2888  140.2644  156.2282 H   0  0  0  0  0  0  0  0  0  0  0  0  # atno 8010 bound_to 7997
  139.5283  144.2711  152.0627 H   0  0  0  0  0  0  0  0  0  0  0  0  # atno 10167 bound_to 10162
  157.4498  130.8131  149.7777 H   0  0  0  0  0  0  0  0  0  0  0  0  # atno 10718 bound_to 10713
  154.7045  135.2994  154.9291 H   0  0  0  0  0  0  0  0  0  0  0  0  # atno 10763 bound_to 10752
  154.0213  135.6682  153.4777 H   0  0  0  0  0  0  0  0  0  0  0  0  # atno 10764 bound_to 10752
  153.0706  135.5063  154.8207 H   0  0  0  0  0  0  0  0  0  0  0  0  # atno 10765 bound_to 10752
  141.0695  133.6683  156.3427 H   0  0  0  0  0  0  0  0  0  0  0  0  # atno 11005 bound_to 11000
  144.6999  140.3606  143.7164 LP  0  0  0  0  0  0  0  0  0  0  0  0  # atno 17320 bound_to 7965
  145.7157  139.1696  143.2513 LP  0  0  0  0  0  0  0  0  0  0  0  0  # atno 17321 bound_to 7965
  140.2171  144.4504  150.6359 LP  0  0  0  0  0  0  0  0  0  0  0  0  # atno 17342 bound_to 10162
  140.6443  143.2210  151.6221 LP  0  0  0  0  0  0  0  0  0  0  0  0  # atno 17343 bound_to 10162
  155.9982  130.3895  150.2710 LP  0  0  0  0  0  0  0  0  0  0  0  0  # atno 17370 bound_to 10713
  157.0881  131.0162  151.3132 LP  0  0  0  0  0  0  0  0  0  0  0  0  # atno 17371 bound_to 10713
  140.5704  134.5846  157.5456 LP  0  0  0  0  0  0  0  0  0  0  0  0  # atno 17394 bound_to 11000
  139.9509  134.7619  156.0451 LP  0  0  0  0  0  0  0  0  0  0  0  0  # atno 17395 bound_to 11000

$$$$
