AV-unprocessed.smi:40|AV-procd|sdf|379|dock2
  -GOLD-   2262016233D 1   1.00000     0.00000
 Structure written by MMmdl.
 47 48  0  0  0  0  0  0  0  0  1 V2000
  151.4545  145.4744  160.2535 C   0  0  0  0  0  0  0  0  0  0  0  0
  152.2435  145.0328  159.0159 C   0  0  0  0  0  0  0  0  0  0  0  0
  152.0754  143.5370  158.7158 C   0  0  0  0  0  0  0  0  0  0  0  0
  150.6859  143.1960  158.1512 C   0  0  0  0  0  0  0  0  0  0  0  0
  150.4529  141.6867  157.9923 C   0  0  0  0  0  0  0  0  0  0  0  0
  149.2553  141.4847  157.2617 O   0  0  0  0  0  0  0  0  0  0  0  0
  148.8551  140.2534  156.9075 C   0  0  0  0  0  0  0  0  0  0  0  0
  149.4324  139.2211  157.2482 O   0  0  0  0  0  0  0  0  0  0  0  0
  147.6619  140.2890  156.0711 N   0  0  0  0  0  0  0  0  0  0  0  0
  146.9476  139.2784  155.5093 C   0  0  0  0  0  0  0  0  0  0  0  0
  145.6372  139.1454  155.6411 N   0  0  0  0  0  0  0  0  0  0  0  0
  144.8986  138.1445  155.0727 C   0  0  0  0  0  0  0  0  0  0  0  0
  143.6792  138.1122  155.2187 O   0  0  0  0  0  0  0  0  0  0  0  0
  145.5970  137.1734  154.3144 N   0  0  0  0  0  0  0  0  0  0  0  0
  144.8561  136.0578  153.6049 C   0  0  2  0  0  0  0  0  0  0  0  0
  145.7847  135.1601  153.0807 O   0  0  0  0  0  0  0  0  0  0  0  0
  145.2428  134.5834  151.8998 C   0  0  2  0  0  0  0  0  0  0  0  0
  146.3424  133.9408  151.0415 C   0  0  0  0  0  0  0  0  0  0  0  0
  144.4381  135.7195  151.2477 C   0  0  2  0  0  0  0  0  0  0  0  0
  145.2447  136.5032  150.3865 O   0  0  0  0  0  0  0  0  0  0  0  0
  143.9168  136.4991  152.4564 C   0  0  2  0  0  0  0  0  0  0  0  0
  143.7960  137.8961  152.2452 O   0  0  0  0  0  0  0  0  0  0  0  0
  146.9676  137.2989  154.1492 C   0  0  0  0  0  0  0  0  0  0  0  0
  147.6687  138.3039  154.7178 C   0  0  0  0  0  0  0  0  0  0  0  0
  148.9990  138.3945  154.5448 F   0  0  0  0  0  0  0  0  0  0  0  0
  144.2996  135.5386  154.3863 H   0  0  0  0  0  0  0  0  0  0  0  0
  144.5444  133.8062  152.2150 H   0  0  0  0  0  0  0  0  0  0  0  0
  143.6149  135.3260  150.6505 H   0  0  0  0  0  0  0  0  0  0  0  0
  142.9244  136.1246  152.7100 H   0  0  0  0  0  0  0  0  0  0  0  0
  151.5926  146.5389  160.4430 H   0  0  0  0  0  0  0  0  0  0  0  0
  151.7827  144.9338  161.1422 H   0  0  0  0  0  0  0  0  0  0  0  0
  150.3869  145.2941  160.1255 H   0  0  0  0  0  0  0  0  0  0  0  0
  151.9242  145.6188  158.1535 H   0  0  0  0  0  0  0  0  0  0  0  0
  153.2996  145.2581  159.1698 H   0  0  0  0  0  0  0  0  0  0  0  0
  152.8443  143.2343  158.0042 H   0  0  0  0  0  0  0  0  0  0  0  0
  152.2526  142.9586  159.6232 H   0  0  0  0  0  0  0  0  0  0  0  0
  149.9189  143.6059  158.8089 H   0  0  0  0  0  0  0  0  0  0  0  0
  150.5528  143.6827  157.1842 H   0  0  0  0  0  0  0  0  0  0  0  0
  151.2896  141.2211  157.4699 H   0  0  0  0  0  0  0  0  0  0  0  0
  150.3742  141.2188  158.9746 H   0  0  0  0  0  0  0  0  0  0  0  0
  147.3075  141.2214  155.9139 H   0  0  0  0  0  0  0  0  0  0  0  0
  145.9310  133.5341  150.1175 H   0  0  0  0  0  0  0  0  0  0  0  0
  146.8244  133.1244  151.5795 H   0  0  0  0  0  0  0  0  0  0  0  0
  147.1182  134.6605  150.7783 H   0  0  0  0  0  0  0  0  0  0  0  0
  144.7237  137.2218  150.0620 H   0  0  0  0  0  0  0  0  0  0  0  0
  143.6594  138.0493  151.3230 H   0  0  0  0  0  0  0  0  0  0  0  0
  147.5068  136.5756  153.5545 H   0  0  0  0  0  0  0  0  0  0  0  0
  1  2  1  0  0  0  0
  1 30  1  0  0  0  0
  1 31  1  0  0  0  0
  1 32  1  0  0  0  0
  2  3  1  0  0  0  0
  2 33  1  0  0  0  0
  2 34  1  0  0  0  0
  3  4  1  0  0  0  0
  3 35  1  0  0  0  0
  3 36  1  0  0  0  0
  4  5  1  0  0  0  0
  4 37  1  0  0  0  0
  4 38  1  0  0  0  0
  5  6  1  0  0  0  0
  5 39  1  0  0  0  0
  5 40  1  0  0  0  0
  6  7  1  0  0  0  0
  7  8  2  0  0  0  0
  7  9  1  0  0  0  0
  9 10  1  0  0  0  0
  9 41  1  0  0  0  0
 10 24  1  0  0  0  0
 10 11  2  0  0  0  0
 11 12  1  0  0  0  0
 12 13  2  0  0  0  0
 12 14  1  0  0  0  0
 14 15  1  0  0  0  0
 14 23  1  0  0  0  0
 15 26  1  0  0  0  0
 15 21  1  0  0  0  0
 15 16  1  0  0  0  0
 16 17  1  0  0  0  0
 17 27  1  0  0  0  0
 17 18  1  0  0  0  0
 17 19  1  0  0  0  0
 18 42  1  0  0  0  0
 18 43  1  0  0  0  0
 18 44  1  0  0  0  0
 19 28  1  0  0  0  0
 19 20  1  0  0  0  0
 19 21  1  0  0  0  0
 20 45  1  0  0  0  0
 21 29  1  0  0  0  0
 21 22  1  0  0  0  0
 22 46  1  0  0  0  0
 23 24  2  0  0  0  0
 23 47  1  0  0  0  0
 24 25  1  0  0  0  0
M  END
> <s_m_source_file>
AV-unprocessed.smi

> <i_m_source_file_index>
40

> <i_lp_mmshare_version>
43012

> <i_f3d_flags>
0

> <s_epik_input>
W0NIM11bQ0gyXVtDSDJdW0NIMl1bQ0gyXU9DKD1PKVtOSF1jMW5jKD1PKW4oW2NIXWMxRilbQ0BASF0yT1tDQEhdKFtDSDNdKVtDQEBIXShbT0hdKVtDQEhdMltPSF0=

> <s_epik_cmdline>
J2VwaWtfcHl0aG9uJywgJy1waCcsICc3LjAnLCAnLXRuJywgJzgnLCAnLW1hJywgJzIwMCcsICctbWV0YWxfYmluZGluZycsICctaW1hZScsICc8aW5maWxlLm1hZT4nLCAnLW9tYWUnLCAnPG91dGZpbGUubWFlPic=

> <r_lp_tautomer_probability>
1

> <r_epik_Ionization_Penalty>
2.29506e-06

> <r_epik_Ionization_Penalty_Charging>
8.26867e-09

> <r_epik_Ionization_Penalty_Neutral>
2.2868e-06

> <r_epik_State_Penalty>
-0

> <r_epik_Charging_Adjusted_Penalty>
8.26867e-09

> <i_epik_Tot_Q>
0

> <i_epik_Tot_abs_Q>
0

> <r_epik_Metal_State_Penalty>
-0

> <b_epik_Metal_Only>
0

> <s_epik_Chemistry_Notes>
This compound has an ester and may undergo hydrolysis at high or low pH. This compound contains an acetal/aminal-like group ( X-CH(R)-Y where X, Y are N, S, or O) that may be acid/base labile, releasing an aldehyde.

> <s_lp_Force_Field>
OPLS_2005

> <r_lp_Energy>
38.6632

> <b_lp_Chiralities_Consistent>
1

> <s_lp_Variant>
AV-unprocessed.smi:40-13

> <Gold.Version>
5.8.1

> <Gold.Id.Protein>
6NUR|6NUR_protein|mol2

> <Gold.PLP.Fitness>
41.4342

> <Gold.PLP.PLP>
-33.5387

> <Gold.PLP.part.hbond>
-3.0000

> <Gold.PLP.part.metal>
0.0000

> <Gold.PLP.part.buried>
-6.4623

> <Gold.PLP.part.nonpolar>
-25.2520

> <Gold.PLP.part.repulsive>
0.2894

> <Gold.PLP.ligand.clash>
0.0000

> <Gold.PLP.ligand.torsion>
0.7130

> <Gold.PLP.Chemscore.Hbond>
2.0000

> <Gold.PLP.Chemscore.CHOScore>
1.0000

> <Gold.PLP.Chemscore.Metal>
0.0000

> <Gold.Chemscore.Hbonds>
donor molecule, donor type, donor heavy atom, donor atom, acceptor molecule, acceptor atom, score
      L1  H    20    45       P1 10171  1.00
      L1  H    22    46       P1 10171  1.00
      L1  C    23    47       P1  7948  1.00

> <Gold.PLP.Chemscore.Internal.Correction>
0.3213

> <Gold.Rescore>
     Score         DG    S(hbond)    S(metal)    S(lipo)     H(rot)  DE(clash)    DE(int)     intcor
     10.63     -11.62       1.99        0.00      76.60       3.70       0.03       0.96       ----

> <Gold.Chemscore.Fitness>
10.6304

> <Gold.Chemscore.DG>
-11.6195

> <Gold.Chemscore.ZeroCoef>
-5.4800

> <Gold.Chemscore.Hbond>
1.9876

> <Gold.Chemscore.Metal>
0.0000

> <Gold.Chemscore.Lipo>
76.5975

> <Gold.Chemscore.Internal_Hbond>
0.0000

> <Gold.Chemscore.DEClash>
0.0270

> <Gold.Chemscore.DEInternal>
0.9620

> <Gold.Chemscore.Rot>
3.6957

> <Gold.Chemscore.Internal.Correction>
   9.000000E+99

> <Gold.Chemscore.Hbonds>
donor molecule, donor type, donor heavy atom, donor atom, acceptor molecule, acceptor atom, score
      L1  H    20    45       P1 10171  0.99
      L1  H    22    46       P1 10171  0.94

> <Gold.Chemscore.Hbond.Weighted>
-6.6385

> <Gold.Chemscore.Metal.Weighted>
-0.0000

> <Gold.Chemscore.Lipo.Weighted>
-8.9619

> <Gold.Chemscore.Internal_Hbond.Weighted>
0.0000

> <Gold.Chemscore.DEClash.Weighted>
0.0270

> <Gold.Chemscore.DEInternal.Weighted>
0.9620

> <Gold.Chemscore.Rot.Weighted>
9.4610

> <Gold.Chemscore.Internal.Correction.Weighted>
   9.000000E+99

> <Gold.Protein.RotatedTorsions>
[ 6907 6896 6895 6894 ] final  -45.25 input  -60.11 | X-H torsion
[ 7974 7965 7964 7962 ] final   27.58 input  175.53 | X-H torsion
[ 8008 7997 7996 7995 ] final  159.06 input   59.86 | X-H torsion
[ 10167 10162 10161 10158 ] final  158.88 input  -65.29 | X-H torsion
[ 10718 10713 10712 10709 ] final  -14.33 input   66.30 | X-H torsion
[ 10763 10752 10751 10750 ] final  -25.60 input  -60.55 | X-H torsion
[ 11005 11000 10999 10996 ] final -115.03 input  -57.11 | X-H torsion

> <Gold.Protein.ActiveResidues>
 VAL166  LYS551  ARG553  GLY616  TRP617  ASP618  TYR619  PRO620  LYS621  CYS622 
 ASP623  PHE694  ASN695  SER759  ASP760  ASP761  ALA762  ILE779  LEU786  VAL792 
 PHE793  MET794  SER795  GLU796  ALA797  LYS798  CYS799  TRP800  GLU811  SER814 

> <Gold.Protein.RotatedAtoms>
  150.9240  134.8657  159.7507 H   0  0  0  0  0  0  0  0  0  0  0  0  # atno 6907 bound_to 6896
  152.5006  134.4176  159.9480 H   0  0  0  0  0  0  0  0  0  0  0  0  # atno 6908 bound_to 6896
  151.4208  133.3659  159.2791 H   0  0  0  0  0  0  0  0  0  0  0  0  # atno 6909 bound_to 6896
  146.1777  139.7173  142.8923 H   0  0  0  0  0  0  0  0  0  0  0  0  # atno 7974 bound_to 7965
  156.2263  140.1841  156.7355 H   0  0  0  0  0  0  0  0  0  0  0  0  # atno 8008 bound_to 7997
  154.5946  140.0645  156.9314 H   0  0  0  0  0  0  0  0  0  0  0  0  # atno 8009 bound_to 7997
  155.2277  140.3312  155.4310 H   0  0  0  0  0  0  0  0  0  0  0  0  # atno 8010 bound_to 7997
  139.4829  144.4782  151.8481 H   0  0  0  0  0  0  0  0  0  0  0  0  # atno 10167 bound_to 10162
  156.6175  130.4866  149.6177 H   0  0  0  0  0  0  0  0  0  0  0  0  # atno 10718 bound_to 10713
  153.7024  135.6955  153.5059 H   0  0  0  0  0  0  0  0  0  0  0  0  # atno 10763 bound_to 10752
  153.2333  135.4330  155.0618 H   0  0  0  0  0  0  0  0  0  0  0  0  # atno 10764 bound_to 10752
  154.8340  135.3489  154.6563 H   0  0  0  0  0  0  0  0  0  0  0  0  # atno 10765 bound_to 10752
  141.0514  133.9681  157.2830 H   0  0  0  0  0  0  0  0  0  0  0  0  # atno 11005 bound_to 11000
  145.4166  141.0402  143.2987 LP  0  0  0  0  0  0  0  0  0  0  0  0  # atno 17320 bound_to 7965
  144.8262  139.5705  143.6964 LP  0  0  0  0  0  0  0  0  0  0  0  0  # atno 17321 bound_to 7965
  140.4256  144.2184  150.5887 LP  0  0  0  0  0  0  0  0  0  0  0  0  # atno 17342 bound_to 10162
  140.4830  143.2372  151.8928 LP  0  0  0  0  0  0  0  0  0  0  0  0  # atno 17343 bound_to 10162
  156.2339  130.6811  151.1490 LP  0  0  0  0  0  0  0  0  0  0  0  0  # atno 17370 bound_to 10713
  157.7237  131.0664  150.6026 LP  0  0  0  0  0  0  0  0  0  0  0  0  # atno 17371 bound_to 10713
  139.9353  135.0197  156.8536 LP  0  0  0  0  0  0  0  0  0  0  0  0  # atno 17394 bound_to 11000
  140.6048  134.0137  155.7552 LP  0  0  0  0  0  0  0  0  0  0  0  0  # atno 17395 bound_to 11000

$$$$
