#       Name:                AV-unprocessed.smi:781
#       Creating user name   scv26
#       Creation time:       Fri Mar 27 01:13:56 2020


#       File generated by GOLD software.
#

@<TRIPOS>MOLECULE
AV-unprocessed.smi:781
    45    47     1
SMALL
NO_CHARGES


@<TRIPOS>ATOM
      1 ****        -6.6512   2.5281   0.4715 C.3            1 S1                 0.0000
      2 ****        -5.1977   2.1987   0.4874 C.2            1 S1                 0.0000
      3 ****        -4.5114   1.0171   0.5057 C.2            1 S1                 0.0000
      4 ****        -3.1541   1.4354   0.5103 C.2            1 S1                 0.0000
      5 ****        -2.1008   0.4862   0.5260 N.am           1 S1                 0.0000
      6 ****        -0.7789   0.7279   0.5101 C.2            1 S1                 0.0000
      7 ****        -0.2612   1.8448   0.4923 O.2            1 S1                 0.0000
      8 ****        -0.0769  -0.4139   0.5111 N.am           1 S1                 0.0000
      9 ****         1.3803  -0.5038   0.4629 C.3            1 S1                 0.0000
     10 ****         1.8460  -1.9251   0.8494 C.3            1 S1                 0.0000
     11 ****         3.3491  -1.8816   1.1776 C.3            1 S1                 0.0000
     12 ****         3.9875  -1.6993  -0.2121 C.3            1 S1                 0.0000
     13 ****         2.7637  -1.6459  -1.1521 C.3            1 S1                 0.0000
     14 ****         1.8433  -2.6616  -0.4875 C.3            1 S1                 0.0000
     15 ****         1.9459  -0.3423  -0.9722 C.3            1 S1                 0.0000
     16 ****         2.7089   0.9766  -1.2053 C.3            1 S1                 0.0000
     17 ****         3.2096   1.0295  -2.5245 O.3            1 S1                 0.0000
     18 ****        -3.0234   2.7532   0.4969 N.2            1 S1                 0.0000
     19 ****        -4.3326   3.2489   0.4822 O.3            1 S1                 0.0000
     20 ****        -7.2567   1.6216   0.4673 H              1 S1                 0.0000
     21 ****        -6.9064   3.1090  -0.4151 H              1 S1                 0.0000
     22 ****        -6.9241   3.1131   1.3499 H              1 S1                 0.0000
     23 ****        -4.9176   0.0168   0.5130 H              1 S1                 0.0000
     24 ****        -2.3846  -0.4821   0.5389 H              1 S1                 0.0000
     25 ****        -0.5844  -1.2863   0.5330 H              1 S1                 0.0000
     26 ****         1.8046   0.2297   1.1516 H              1 S1                 0.0000
     27 ****         1.2497  -2.3912   1.6350 H              1 S1                 0.0000
     28 ****         3.6047  -1.0738   1.8641 H              1 S1                 0.0000
     29 ****         3.6764  -2.8190   1.6291 H              1 S1                 0.0000
     30 ****         4.6220  -0.8164  -0.2737 H              1 S1                 0.0000
     31 ****         4.6128  -2.5598  -0.4538 H              1 S1                 0.0000
     32 ****         3.0040  -1.8676  -2.1923 H              1 S1                 0.0000
     33 ****         2.2707  -3.6645  -0.4310 H              1 S1                 0.0000
     34 ****         0.8562  -2.7219  -0.9493 H              1 S1                 0.0000
     35 ****         1.1219  -0.3737  -1.6885 H              1 S1                 0.0000
     36 ****         2.0378   1.8236  -1.0628 H              1 S1                 0.0000
     37 ****         3.5267   1.1074  -0.4978 H              1 S1                 0.0000
     38 ****         3.6401   1.8615  -2.6491 H              1 S1                 0.0000
     39 ****        -0.8366   2.6626   0.4888 LP             1 S1                 0.0000
     40 ****         0.7347   1.9342   0.4814 LP             1 S1                 0.0000
     41 ****         2.4557   0.9391  -3.1752 LP             1 S1                 0.0000
     42 ****         3.8637   0.2867  -2.6669 LP             1 S1                 0.0000
     43 ****        -2.1735   3.2802   0.4973 LP             1 S1                 0.0000
     44 ****        -4.4868   3.8157   1.2916 LP             1 S1                 0.0000
     45 ****        -4.4751   3.7980  -0.3413 LP             1 S1                 0.0000
@<TRIPOS>BOND
    1    1    2 1     
    2    1   20 1     
    3    1   21 1     
    4    1   22 1     
    5    2   19 1     
    6    2    3 2     
    7    3    4 1     
    8    3   23 1     
    9    4    5 1     
   10    4   18 2     
   11    5    6 am    
   12    5   24 1     
   13    6    7 2     
   14    6    8 am    
   15    8    9 1     
   16    8   25 1     
   17    9   15 1     
   18    9   10 1     
   19    9   26 1     
   20   10   14 1     
   21   10   11 1     
   22   10   27 1     
   23   11   12 1     
   24   11   28 1     
   25   11   29 1     
   26   12   13 1     
   27   12   30 1     
   28   12   31 1     
   29   13   14 1     
   30   13   15 1     
   31   13   32 1     
   32   14   33 1     
   33   14   34 1     
   34   15   16 1     
   35   15   35 1     
   36   16   17 1     
   37   16   36 1     
   38   16   37 1     
   39   17   38 1     
   40   18   19 1     
   41    7   39 1     
   42    7   40 1     
   43   17   41 1     
   44   17   42 1     
   45   18   43 1     
   46   19   44 1     
   47   19   45 1     
@<TRIPOS>SUBSTRUCTURE
      1 S1             1
@<TRIPOS>SET
LONE_PAIRS      STATIC     ATOMS    <user>   **** ""
7 39 40 41 42 43 44 45
DONOR_HYDROGENS      STATIC     ATOMS    <user>   **** ""
3 24 25 38
ATOM$BLUE        STATIC     ATOMS    COLORGROUP SYSTEM
7 39 40 41 42 43 44 45
ATOM$RED        STATIC     ATOMS    COLORGROUP SYSTEM
3 24 25 38
