AV-unprocessed.smi:332|AV-procd|sdf|2358|dock4
  -GOLD-   2262022273D 1   1.00000     0.00000
 Structure written by MMmdl.
 42 44  0  0  0  0  0  0  0  0  1 V2000
  151.4569  140.1181  158.7890 C   0  0  0  0  0  0  0  0  0  0  0  0
  152.5075  141.2261  158.9832 C   0  0  2  0  0  0  0  0  0  0  0  0
  153.4919  140.7747  159.9650 N   0  0  0  0  0  0  0  0  0  0  0  0
  154.3104  139.7209  159.8246 C   0  0  0  0  0  0  0  0  0  0  0  0
  154.2945  138.9762  158.8438 O   0  0  0  0  0  0  0  0  0  0  0  0
  155.2807  139.4648  160.9859 C   0  0  0  0  0  0  0  0  0  0  0  0
  154.7362  138.5441  161.9974 N   0  0  0  0  0  0  0  0  0  0  0  0
  153.7035  137.6769  161.5880 C   0  0  0  0  0  0  0  0  0  0  0  0
  153.1379  136.7986  162.4310 C   0  0  0  0  0  0  0  0  0  0  0  0
  153.6150  136.7556  163.7932 C   0  0  0  0  0  0  0  0  0  0  0  0
  154.6045  137.5785  164.1945 C   0  0  0  0  0  0  0  0  0  0  0  0
  155.2265  138.5394  163.2759 C   0  0  0  0  0  0  0  0  0  0  0  0
  156.1318  139.2940  163.6333 O   0  0  0  0  0  0  0  0  0  0  0  0
  151.8908  142.5675  159.4519 C   0  0  1  0  0  0  0  0  0  0  0  0
  152.9399  143.6808  159.7043 C   0  0  0  0  0  0  0  0  0  0  0  0
  152.4263  144.8543  158.8523 C   0  0  2  0  0  0  0  0  0  0  0  0
  151.1301  145.4117  159.4678 C   0  0  0  0  0  0  0  0  0  0  0  0
  150.1028  144.3110  159.1439 C   0  0  0  0  0  0  0  0  0  0  0  0
  150.9559  143.2506  158.4212 C   0  0  1  0  0  0  0  0  0  0  0  0
  151.9095  144.1293  157.6176 C   0  0  0  0  0  0  0  0  0  0  0  0
  150.7423  140.3684  158.0061 H   0  0  0  0  0  0  0  0  0  0  0  0
  150.8963  139.9376  159.7069 H   0  0  0  0  0  0  0  0  0  0  0  0
  151.9279  139.1783  158.4989 H   0  0  0  0  0  0  0  0  0  0  0  0
  153.0069  141.3949  158.0276 H   0  0  0  0  0  0  0  0  0  0  0  0
  153.5728  141.3239  160.8084 H   0  0  0  0  0  0  0  0  0  0  0  0
  156.2241  139.0750  160.5979 H   0  0  0  0  0  0  0  0  0  0  0  0
  155.5322  140.4267  161.4350 H   0  0  0  0  0  0  0  0  0  0  0  0
  153.4091  137.7669  160.5524 H   0  0  0  0  0  0  0  0  0  0  0  0
  152.3495  136.1394  162.0979 H   0  0  0  0  0  0  0  0  0  0  0  0
  153.1774  136.0590  164.4934 H   0  0  0  0  0  0  0  0  0  0  0  0
  154.9491  137.5316  165.2173 H   0  0  0  0  0  0  0  0  0  0  0  0
  151.3374  142.3772  160.3731 H   0  0  0  0  0  0  0  0  0  0  0  0
  153.0245  143.9390  160.7606 H   0  0  0  0  0  0  0  0  0  0  0  0
  153.9316  143.3855  159.3584 H   0  0  0  0  0  0  0  0  0  0  0  0
  153.1817  145.6160  158.6572 H   0  0  0  0  0  0  0  0  0  0  0  0
  151.2266  145.5899  160.5395 H   0  0  0  0  0  0  0  0  0  0  0  0
  150.8460  146.3527  158.9949 H   0  0  0  0  0  0  0  0  0  0  0  0
  149.6133  143.9195  160.0365 H   0  0  0  0  0  0  0  0  0  0  0  0
  149.3263  144.6976  158.4827 H   0  0  0  0  0  0  0  0  0  0  0  0
  150.3563  142.5663  157.8223 H   0  0  0  0  0  0  0  0  0  0  0  0
  151.4005  144.7876  156.9112 H   0  0  0  0  0  0  0  0  0  0  0  0
  152.6818  143.5684  157.0889 H   0  0  0  0  0  0  0  0  0  0  0  0
  1  2  1  0  0  0  0
  1 21  1  0  0  0  0
  1 22  1  0  0  0  0
  1 23  1  0  0  0  0
  2  3  1  0  0  0  0
  2 14  1  0  0  0  0
  2 24  1  0  0  0  0
  3  4  1  0  0  0  0
  3 25  1  0  0  0  0
  4  5  2  0  0  0  0
  4  6  1  0  0  0  0
  6  7  1  0  0  0  0
  6 26  1  0  0  0  0
  6 27  1  0  0  0  0
  7 12  1  0  0  0  0
  7  8  1  0  0  0  0
  8  9  2  0  0  0  0
  8 28  1  0  0  0  0
  9 10  1  0  0  0  0
  9 29  1  0  0  0  0
 10 11  2  0  0  0  0
 10 30  1  0  0  0  0
 11 12  1  0  0  0  0
 11 31  1  0  0  0  0
 12 13  2  0  0  0  0
 14 19  1  0  0  0  0
 14 15  1  0  0  0  0
 14 32  1  0  0  0  0
 15 16  1  0  0  0  0
 15 33  1  0  0  0  0
 15 34  1  0  0  0  0
 16 20  1  0  0  0  0
 16 17  1  0  0  0  0
 16 35  1  0  0  0  0
 17 18  1  0  0  0  0
 17 36  1  0  0  0  0
 17 37  1  0  0  0  0
 18 19  1  0  0  0  0
 18 38  1  0  0  0  0
 18 39  1  0  0  0  0
 19 20  1  0  0  0  0
 19 40  1  0  0  0  0
 20 41  1  0  0  0  0
 20 42  1  0  0  0  0
M  END
> <s_m_source_file>
AV-unprocessed.smi

> <i_m_source_file_index>
332

> <i_lp_mmshare_version>
43012

> <i_f3d_flags>
0

> <s_epik_input>
W0NIMl0xW0NIMl1bQ0BIXShbQ0gyXTIpW0NAQEhdKFtDSDJdW0NAQEhdMTIpW0NASF0oW0NIM10pW05IXUMoPU8pW0NIMl1uM1tjSF1bY0hdW2NIXVtjSF1jMz1P

> <s_epik_cmdline>
J2VwaWtfcHl0aG9uJywgJy1waCcsICc3LjAnLCAnLXRuJywgJzgnLCAnLW1hJywgJzIwMCcsICctbWV0YWxfYmluZGluZycsICctaW1hZScsICc8aW5maWxlLm1hZT4nLCAnLW9tYWUnLCAnPG91dGZpbGUubWFlPic=

> <r_lp_tautomer_probability>
1

> <r_epik_Ionization_Penalty>
4.05802e-07

> <r_epik_Ionization_Penalty_Charging>
3.84175e-07

> <r_epik_Ionization_Penalty_Neutral>
2.16269e-08

> <r_epik_State_Penalty>
-0

> <r_epik_Charging_Adjusted_Penalty>
3.84175e-07

> <i_epik_Tot_Q>
0

> <i_epik_Tot_abs_Q>
0

> <r_epik_Metal_State_Penalty>
-0

> <b_epik_Metal_Only>
0

> <s_lp_Force_Field>
OPLS_2005

> <r_lp_Energy>
59.8508

> <b_lp_Chiralities_Consistent>
1

> <s_lp_Variant>
AV-unprocessed.smi:332-7

> <Gold.Version>
5.8.1

> <Gold.Id.Protein>
6NUR|6NUR_protein|mol2

> <Gold.PLP.Fitness>
47.6475

> <Gold.PLP.PLP>
-46.0855

> <Gold.PLP.part.hbond>
-1.0000

> <Gold.PLP.part.metal>
0.0000

> <Gold.PLP.part.buried>
-6.0944

> <Gold.PLP.part.nonpolar>
-39.8546

> <Gold.PLP.part.repulsive>
0.0590

> <Gold.PLP.ligand.clash>
0.0000

> <Gold.PLP.ligand.torsion>
0.7361

> <Gold.PLP.Chemscore.Hbond>
1.0000

> <Gold.PLP.Chemscore.CHOScore>
0.0000

> <Gold.PLP.Chemscore.Metal>
0.0000

> <Gold.Chemscore.Hbonds>
donor molecule, donor type, donor heavy atom, donor atom, acceptor molecule, acceptor atom, score
      P1  H  7997  8008       L1     5  1.00

> <Gold.PLP.Chemscore.Internal.Correction>
0.0342

> <Gold.Rescore>
     Score         DG    S(hbond)    S(metal)    S(lipo)     H(rot)  DE(clash)    DE(int)     intcor
     19.03     -19.78       1.00        0.00     127.49       1.54       0.08       0.67       ----

> <Gold.Chemscore.Fitness>
19.0252

> <Gold.Chemscore.DG>
-19.7799

> <Gold.Chemscore.ZeroCoef>
-5.4800

> <Gold.Chemscore.Hbond>
0.9957

> <Gold.Chemscore.Metal>
0.0000

> <Gold.Chemscore.Lipo>
127.4870

> <Gold.Chemscore.Internal_Hbond>
0.0000

> <Gold.Chemscore.DEClash>
0.0820

> <Gold.Chemscore.DEInternal>
0.6727

> <Gold.Chemscore.Rot>
1.5398

> <Gold.Chemscore.Internal.Correction>
   9.000000E+99

> <Gold.Chemscore.Hbonds>
donor molecule, donor type, donor heavy atom, donor atom, acceptor molecule, acceptor atom, score
      P1  H  7997  8008       L1     5  0.68

> <Gold.Chemscore.Hbond.Weighted>
-3.3258

> <Gold.Chemscore.Metal.Weighted>
-0.0000

> <Gold.Chemscore.Lipo.Weighted>
-14.9160

> <Gold.Chemscore.Internal_Hbond.Weighted>
0.0000

> <Gold.Chemscore.DEClash.Weighted>
0.0820

> <Gold.Chemscore.DEInternal.Weighted>
0.6727

> <Gold.Chemscore.Rot.Weighted>
3.9419

> <Gold.Chemscore.Internal.Correction.Weighted>
   9.000000E+99

> <Gold.Protein.RotatedTorsions>
[ 6907 6896 6895 6894 ] final  117.13 input  -60.11 | X-H torsion
[ 7974 7965 7964 7962 ] final   18.51 input  175.53 | X-H torsion
[ 8008 7997 7996 7995 ] final -107.10 input   59.86 | X-H torsion
[ 10167 10162 10161 10158 ] final   45.52 input  -65.29 | X-H torsion
[ 10718 10713 10712 10709 ] final   12.42 input   66.30 | X-H torsion
[ 10763 10752 10751 10750 ] final -112.12 input  -60.55 | X-H torsion
[ 11005 11000 10999 10996 ] final  -76.37 input  -57.11 | X-H torsion

> <Gold.Protein.ActiveResidues>
 VAL166  LYS551  ARG553  GLY616  TRP617  ASP618  TYR619  PRO620  LYS621  CYS622 
 ASP623  PHE694  ASN695  SER759  ASP760  ASP761  ALA762  ILE779  LEU786  VAL792 
 PHE793  MET794  SER795  GLU796  ALA797  LYS798  CYS799  TRP800  GLU811  SER814 

> <Gold.Protein.RotatedAtoms>
  152.4632  133.7867  159.6879 H   0  0  0  0  0  0  0  0  0  0  0  0  # atno 6907 bound_to 6896
  150.8585  133.7669  159.3007 H   0  0  0  0  0  0  0  0  0  0  0  0  # atno 6908 bound_to 6896
  151.5242  135.1070  159.9938 H   0  0  0  0  0  0  0  0  0  0  0  0  # atno 6909 bound_to 6896
  146.2182  139.8447  142.8634 H   0  0  0  0  0  0  0  0  0  0  0  0  # atno 7974 bound_to 7965
  154.9243  140.0406  157.2014 H   0  0  0  0  0  0  0  0  0  0  0  0  # atno 8008 bound_to 7997
  154.8223  140.2885  155.5757 H   0  0  0  0  0  0  0  0  0  0  0  0  # atno 8009 bound_to 7997
  156.2981  140.2516  156.3133 H   0  0  0  0  0  0  0  0  0  0  0  0  # atno 8010 bound_to 7997
  140.3233  144.2678  150.6179 H   0  0  0  0  0  0  0  0  0  0  0  0  # atno 10167 bound_to 10162
  157.0098  130.6112  149.5706 H   0  0  0  0  0  0  0  0  0  0  0  0  # atno 10718 bound_to 10713
  154.8334  135.4502  154.1145 H   0  0  0  0  0  0  0  0  0  0  0  0  # atno 10763 bound_to 10752
  153.2398  135.6915  153.7802 H   0  0  0  0  0  0  0  0  0  0  0  0  # atno 10764 bound_to 10752
  153.7154  135.3350  155.3231 H   0  0  0  0  0  0  0  0  0  0  0  0  # atno 10765 bound_to 10752
  141.1653  133.6981  156.7658 H   0  0  0  0  0  0  0  0  0  0  0  0  # atno 11005 bound_to 11000
  145.2863  141.0154  143.3689 LP  0  0  0  0  0  0  0  0  0  0  0  0  # atno 17320 bound_to 7965
  144.9112  139.4527  143.6586 LP  0  0  0  0  0  0  0  0  0  0  0  0  # atno 17321 bound_to 7965
  140.5464  143.2214  151.8001 LP  0  0  0  0  0  0  0  0  0  0  0  0  # atno 17342 bound_to 10162
  139.4870  144.4534  151.9627 LP  0  0  0  0  0  0  0  0  0  0  0  0  # atno 17343 bound_to 10162
  156.0140  130.5233  150.8078 LP  0  0  0  0  0  0  0  0  0  0  0  0  # atno 17370 bound_to 10713
  157.5329  131.0937  150.9931 LP  0  0  0  0  0  0  0  0  0  0  0  0  # atno 17371 bound_to 10713
  140.2500  134.8547  157.3658 LP  0  0  0  0  0  0  0  0  0  0  0  0  # atno 17394 bound_to 11000
  140.1712  134.4607  155.7831 LP  0  0  0  0  0  0  0  0  0  0  0  0  # atno 17395 bound_to 11000

$$$$
