AV-unprocessed.smi:1240|AV-procd|sdf|5196|dock8
  -GOLD-   22720 4283D 1   1.00000     0.00000
 Structure written by MMmdl.
 47 49  0  0  0  0  0  0  0  0  1 V2000
  145.1175  136.3070  153.6222 O   0  0  0  0  0  0  0  0  0  0  0  0
  146.1853  136.3117  153.0105 C   0  0  0  0  0  0  0  0  0  0  0  0
  147.1547  137.2137  153.2200 N   0  0  0  0  0  0  0  0  0  0  0  0
  147.1034  138.3112  154.1824 C   0  0  0  0  0  0  0  0  0  0  0  0
  148.3916  139.1757  154.1325 C   0  0  1  0  0  0  0  0  0  0  0  0
  148.1024  140.6889  154.3864 C   0  0  2  0  0  0  0  0  0  0  0  0
  147.6821  141.0824  155.8060 C   0  0  0  0  0  0  0  0  0  0  0  0
  146.4207  141.9191  155.5980 C   0  0  0  0  0  0  0  0  0  0  0  0
  146.5620  142.4340  154.2845 O   0  0  0  0  0  0  0  0  0  0  0  0
  147.0697  141.3813  153.4805 C   0  0  0  0  0  0  0  0  0  0  0  0
  149.5430  138.6196  154.8735 N   0  0  0  0  0  0  0  0  0  0  0  0
  150.8322  139.1211  154.4015 C   0  0  0  0  0  0  0  0  0  0  0  0
  151.9919  138.6379  155.2875 C   0  0  0  0  0  0  0  0  0  0  0  0
  151.9904  137.2151  155.3286 O   0  0  0  0  0  0  0  0  0  0  0  0
  150.7710  136.6842  155.8364 C   0  0  0  0  0  0  0  0  0  0  0  0
  149.5872  137.1622  154.9768 C   0  0  0  0  0  0  0  0  0  0  0  0
  146.5337  135.4469  152.0417 N   0  0  0  0  0  0  0  0  0  0  0  0
  145.8038  134.3432  151.5212 C   0  0  0  0  0  0  0  0  0  0  0  0
  146.5367  133.2070  151.1200 C   0  0  0  0  0  0  0  0  0  0  0  0
  145.8400  132.0914  150.6145 C   0  0  0  0  0  0  0  0  0  0  0  0
  144.4963  132.0464  150.4990 N   0  0  0  0  0  0  0  0  0  0  0  0
  143.7948  133.1295  150.8946 C   0  0  0  0  0  0  0  0  0  0  0  0
  144.3925  134.2953  151.4138 C   0  0  0  0  0  0  0  0  0  0  0  0
  147.9955  137.1403  152.6662 H   0  0  0  0  0  0  0  0  0  0  0  0
  146.2241  138.9360  154.0220 H   0  0  0  0  0  0  0  0  0  0  0  0
  146.9754  137.8538  155.1622 H   0  0  0  0  0  0  0  0  0  0  0  0
  148.7006  139.1565  153.0861 H   0  0  0  0  0  0  0  0  0  0  0  0
  149.0405  141.2159  154.2052 H   0  0  0  0  0  0  0  0  0  0  0  0
  147.4953  140.2448  156.4771 H   0  0  0  0  0  0  0  0  0  0  0  0
  148.4626  141.6908  156.2647 H   0  0  0  0  0  0  0  0  0  0  0  0
  145.5284  141.2931  155.6466 H   0  0  0  0  0  0  0  0  0  0  0  0
  146.3188  142.7164  156.3343 H   0  0  0  0  0  0  0  0  0  0  0  0
  147.5165  141.7774  152.5686 H   0  0  0  0  0  0  0  0  0  0  0  0
  146.2525  140.7272  153.1839 H   0  0  0  0  0  0  0  0  0  0  0  0
  151.0188  138.7875  153.3811 H   0  0  0  0  0  0  0  0  0  0  0  0
  150.8244  140.2113  154.3817 H   0  0  0  0  0  0  0  0  0  0  0  0
  152.9452  138.9825  154.8863 H   0  0  0  0  0  0  0  0  0  0  0  0
  151.9035  139.0407  156.2976 H   0  0  0  0  0  0  0  0  0  0  0  0
  150.8266  135.5957  155.8321 H   0  0  0  0  0  0  0  0  0  0  0  0
  150.6394  136.9931  156.8747 H   0  0  0  0  0  0  0  0  0  0  0  0
  148.6777  136.7868  155.4376 H   0  0  0  0  0  0  0  0  0  0  0  0
  149.6582  136.7155  153.9846 H   0  0  0  0  0  0  0  0  0  0  0  0
  147.4162  135.6286  151.5869 H   0  0  0  0  0  0  0  0  0  0  0  0
  147.6145  133.1871  151.1920 H   0  0  0  0  0  0  0  0  0  0  0  0
  146.3776  131.2106  150.2961 H   0  0  0  0  0  0  0  0  0  0  0  0
  142.7209  133.0633  150.8004 H   0  0  0  0  0  0  0  0  0  0  0  0
  143.7600  135.1119  151.7247 H   0  0  0  0  0  0  0  0  0  0  0  0
  1  2  2  0  0  0  0
  2  3  1  0  0  0  0
  2 17  1  0  0  0  0
  3  4  1  0  0  0  0
  3 24  1  0  0  0  0
  4  5  1  0  0  0  0
  4 25  1  0  0  0  0
  4 26  1  0  0  0  0
  5  6  1  0  0  0  0
  5 11  1  0  0  0  0
  5 27  1  0  0  0  0
  6 10  1  0  0  0  0
  6  7  1  0  0  0  0
  6 28  1  0  0  0  0
  7  8  1  0  0  0  0
  7 29  1  0  0  0  0
  7 30  1  0  0  0  0
  8  9  1  0  0  0  0
  8 31  1  0  0  0  0
  8 32  1  0  0  0  0
  9 10  1  0  0  0  0
 10 33  1  0  0  0  0
 10 34  1  0  0  0  0
 11 16  1  0  0  0  0
 11 12  1  0  0  0  0
 12 13  1  0  0  0  0
 12 35  1  0  0  0  0
 12 36  1  0  0  0  0
 13 14  1  0  0  0  0
 13 37  1  0  0  0  0
 13 38  1  0  0  0  0
 14 15  1  0  0  0  0
 15 16  1  0  0  0  0
 15 39  1  0  0  0  0
 15 40  1  0  0  0  0
 16 41  1  0  0  0  0
 16 42  1  0  0  0  0
 17 18  1  0  0  0  0
 17 43  1  0  0  0  0
 18 23  1  0  0  0  0
 18 19  2  0  0  0  0
 19 20  1  0  0  0  0
 19 44  1  0  0  0  0
 20 21  2  0  0  0  0
 20 45  1  0  0  0  0
 21 22  1  0  0  0  0
 22 23  2  0  0  0  0
 22 46  1  0  0  0  0
 23 47  1  0  0  0  0
M  END
> <s_m_source_file>
AV-unprocessed.smi

> <i_m_source_file_index>
1240

> <i_lp_mmshare_version>
43012

> <i_f3d_flags>
0

> <s_epik_input>
W2NIXTFbY0hdbltjSF1bY0hdYzFbTkhdQyg9TylbTkhdW0NIMl1bQ0BIXShbQ0BASF0yW0NIMl1bQ0gyXU9bQ0gyXTIpTjNbQ0gyXVtDSDJdT1tDSDJdW0NIMl0z

> <s_epik_cmdline>
J2VwaWtfcHl0aG9uJywgJy1waCcsICc3LjAnLCAnLXRuJywgJzgnLCAnLW1hJywgJzIwMCcsICctbWV0YWxfYmluZGluZycsICctaW1hZScsICc8aW5maWxlLm1hZT4nLCAnLW9tYWUnLCAnPG91dGZpbGUubWFlPic=

> <r_epik_Ionization_Penalty>
0.238664

> <r_epik_Ionization_Penalty_Charging>
0

> <r_epik_Ionization_Penalty_Neutral>
0.238664

> <r_epik_State_Penalty>
0.217087

> <r_epik_Charging_Adjusted_Penalty>
0.217087

> <i_epik_Tot_Q>
0

> <i_epik_Tot_abs_Q>
0

> <r_epik_Metal_State_Penalty>
0.199194

> <b_epik_Metal_Only>
0

> <s_lp_Force_Field>
OPLS_2005

> <r_lp_Energy>
59.2824

> <b_lp_Chiralities_Consistent>
1

> <s_lp_Variant>
AV-unprocessed.smi:1240-2

> <Gold.Version>
5.8.1

> <Gold.Id.Protein>
6NUR|6NUR_protein|mol2

> <Gold.PLP.Fitness>
45.4463

> <Gold.PLP.PLP>
-33.1280

> <Gold.PLP.part.hbond>
-2.7089

> <Gold.PLP.part.metal>
0.0000

> <Gold.PLP.part.buried>
-6.2779

> <Gold.PLP.part.nonpolar>
-25.2892

> <Gold.PLP.part.repulsive>
0.6478

> <Gold.PLP.ligand.clash>
0.0000

> <Gold.PLP.ligand.torsion>
1.0504

> <Gold.PLP.Chemscore.Hbond>
2.8800

> <Gold.PLP.Chemscore.CHOScore>
1.8020

> <Gold.PLP.Chemscore.Metal>
0.0000

> <Gold.Chemscore.Hbonds>
donor molecule, donor type, donor heavy atom, donor atom, acceptor molecule, acceptor atom, score
      L1  H     3    24       P1  7948  0.96
      L1  H    17    43       P1  7948  0.90
      P1  H 10752 10765       L1    14  0.93
      L1  C    20    45       P1 10747  0.76
      L1  C    22    46       P1 10186  1.00

> <Gold.PLP.Chemscore.Internal.Correction>
0.3734

> <Gold.Rescore>
     Score         DG    S(hbond)    S(metal)    S(lipo)     H(rot)  DE(clash)    DE(int)     intcor
     18.10     -20.16       2.73        0.00      83.57       1.65       0.02       2.03       ----

> <Gold.Chemscore.Fitness>
18.1048

> <Gold.Chemscore.DG>
-20.1575

> <Gold.Chemscore.ZeroCoef>
-5.4800

> <Gold.Chemscore.Hbond>
2.7323

> <Gold.Chemscore.Metal>
0.0000

> <Gold.Chemscore.Lipo>
83.5707

> <Gold.Chemscore.Internal_Hbond>
0.0000

> <Gold.Chemscore.DEClash>
0.0231

> <Gold.Chemscore.DEInternal>
2.0295

> <Gold.Chemscore.Rot>
1.6508

> <Gold.Chemscore.Internal.Correction>
   9.000000E+99

> <Gold.Chemscore.Hbonds>
donor molecule, donor type, donor heavy atom, donor atom, acceptor molecule, acceptor atom, score
      L1  H     3    24       P1  7948  0.87
      L1  H    17    43       P1  7948  0.87
      P1  H 10752 10765       L1    14  0.39

> <Gold.Chemscore.Hbond.Weighted>
-9.1259

> <Gold.Chemscore.Metal.Weighted>
-0.0000

> <Gold.Chemscore.Lipo.Weighted>
-9.7778

> <Gold.Chemscore.Internal_Hbond.Weighted>
0.0000

> <Gold.Chemscore.DEClash.Weighted>
0.0231

> <Gold.Chemscore.DEInternal.Weighted>
2.0295

> <Gold.Chemscore.Rot.Weighted>
4.2262

> <Gold.Chemscore.Internal.Correction.Weighted>
   9.000000E+99

> <Gold.Protein.RotatedTorsions>
[ 6907 6896 6895 6894 ] final -123.45 input  -60.11 | X-H torsion
[ 7974 7965 7964 7962 ] final   51.41 input  175.53 | X-H torsion
[ 8008 7997 7996 7995 ] final  -75.25 input   59.86 | X-H torsion
[ 10167 10162 10161 10158 ] final  -92.28 input  -65.29 | X-H torsion
[ 10718 10713 10712 10709 ] final   32.87 input   66.30 | X-H torsion
[ 10763 10752 10751 10750 ] final -174.73 input  -60.55 | X-H torsion
[ 11005 11000 10999 10996 ] final  -99.23 input  -57.11 | X-H torsion

> <Gold.Protein.ActiveResidues>
 VAL166  LYS551  ARG553  GLY616  TRP617  ASP618  TYR619  PRO620  LYS621  CYS622 
 ASP623  PHE694  ASN695  SER759  ASP760  ASP761  ALA762  ILE779  LEU786  VAL792 
 PHE793  MET794  SER795  GLU796  ALA797  LYS798  CYS799  TRP800  GLU811  SER814 

> <Gold.Protein.RotatedAtoms>
  150.8672  133.7557  159.2972 H   0  0  0  0  0  0  0  0  0  0  0  0  # atno 6907 bound_to 6896
  151.5181  135.1065  159.9881 H   0  0  0  0  0  0  0  0  0  0  0  0  # atno 6908 bound_to 6896
  152.4669  133.7899  159.6952 H   0  0  0  0  0  0  0  0  0  0  0  0  # atno 6909 bound_to 6896
  145.9916  139.4345  143.0070 H   0  0  0  0  0  0  0  0  0  0  0  0  # atno 7974 bound_to 7965
  154.5401  140.0747  156.8494 H   0  0  0  0  0  0  0  0  0  0  0  0  # atno 8008 bound_to 7997
  155.3199  140.3395  155.4223 H   0  0  0  0  0  0  0  0  0  0  0  0  # atno 8009 bound_to 7997
  156.1866  140.1671  156.8160 H   0  0  0  0  0  0  0  0  0  0  0  0  # atno 8010 bound_to 7997
  140.3364  143.2966  151.9885 H   0  0  0  0  0  0  0  0  0  0  0  0  # atno 10167 bound_to 10162
  157.2907  130.7301  149.6609 H   0  0  0  0  0  0  0  0  0  0  0  0  # atno 10718 bound_to 10713
  154.5928  135.2847  155.0617 H   0  0  0  0  0  0  0  0  0  0  0  0  # atno 10763 bound_to 10752
  154.1912  135.6440  153.5064 H   0  0  0  0  0  0  0  0  0  0  0  0  # atno 10764 bound_to 10752
  153.0127  135.5446  154.6620 H   0  0  0  0  0  0  0  0  0  0  0  0  # atno 10765 bound_to 10752
  141.1316  133.8306  157.0944 H   0  0  0  0  0  0  0  0  0  0  0  0  # atno 11005 bound_to 11000
  145.7621  140.9931  143.1194 LP  0  0  0  0  0  0  0  0  0  0  0  0  # atno 17320 bound_to 7965
  144.6891  139.9343  143.7473 LP  0  0  0  0  0  0  0  0  0  0  0  0  # atno 17321 bound_to 7965
  139.4848  144.6193  151.7286 LP  0  0  0  0  0  0  0  0  0  0  0  0  # atno 17342 bound_to 10162
  140.5350  144.0670  150.6067 LP  0  0  0  0  0  0  0  0  0  0  0  0  # atno 17343 bound_to 10162
  155.9667  130.4309  150.4899 LP  0  0  0  0  0  0  0  0  0  0  0  0  # atno 17370 bound_to 10713
  157.2861  131.0617  151.2165 LP  0  0  0  0  0  0  0  0  0  0  0  0  # atno 17371 bound_to 10713
  140.0372  134.9872  157.0893 LP  0  0  0  0  0  0  0  0  0  0  0  0  # atno 17394 bound_to 11000
  140.4192  134.1899  155.7164 LP  0  0  0  0  0  0  0  0  0  0  0  0  # atno 17395 bound_to 11000

$$$$
