AV-unprocessed.smi:2999|AV-procd|sdf|11424|dock2
  -GOLD-   2272016343D 1   1.00000     0.00000
 Structure written by MMmdl.
 36 38  0  0  0  0  0  0  0  0  2 V2000
  152.7077  138.7070  163.5625 O   0  0  0  0  0  0  0  0  0  0  0  0
  153.1927  139.8362  163.4584 C   0  0  0  0  0  0  0  0  0  0  0  0
  153.5698  140.2903  162.2560 N   0  0  0  0  0  0  0  0  0  0  0  0
  153.4560  139.5473  161.0076 C   0  0  0  0  0  0  0  0  0  0  0  0
  152.3391  140.1243  160.1265 C   0  0  1  0  0  0  0  0  0  0  0  0
  152.2799  141.6623  160.2119 C   0  0  0  0  0  0  0  0  0  0  0  0
  151.2601  142.2185  159.3308 N   0  0  0  0  0  0  0  0  0  0  0  0
  151.2341  143.6711  159.4150 C   0  0  0  0  0  0  0  0  0  0  0  0
  152.5272  144.4410  159.3370 C   0  0  0  0  0  0  0  0  0  0  0  0
  151.7693  144.3506  160.6489 C   0  0  0  0  0  0  0  0  0  0  0  0
  151.5280  141.7770  157.9678 C   0  0  0  0  0  0  0  0  0  0  0  0
  151.5953  140.2437  157.8694 C   0  0  0  0  0  0  0  0  0  0  0  0
  152.5837  139.7541  158.7703 O   0  0  0  0  0  0  0  0  0  0  0  0
  153.4015  140.7151  164.4652 N   0  5  0  0  0  0  0  0  0  0  0  0
  153.0125  140.4087  165.7137 C   0  0  0  0  0  0  0  0  0  0  0  0
  152.8121  139.1524  166.1285 N   0  0  0  0  0  0  0  0  0  0  0  0
  152.4085  139.0658  167.4622 C   0  0  0  0  0  0  0  0  0  0  0  0
  152.2882  140.2855  168.0741 C   0  0  0  0  0  0  0  0  0  0  0  0
  152.6822  141.5868  166.9872 S   0  0  0  0  0  0  0  0  0  0  0  0
  153.9594  141.2203  162.2050 H   0  0  0  0  0  0  0  0  0  0  0  0
  154.4069  139.6000  160.4751 H   0  0  0  0  0  0  0  0  0  0  0  0
  153.2653  138.4954  161.2249 H   0  0  0  0  0  0  0  0  0  0  0  0
  151.3811  139.7086  160.4450 H   0  0  0  0  0  0  0  0  0  0  0  0
  152.0751  141.9595  161.2410 H   0  0  0  0  0  0  0  0  0  0  0  0
  153.2565  142.0778  159.9569 H   0  0  0  0  0  0  0  0  0  0  0  0
  150.3557  144.0990  158.9341 H   0  0  0  0  0  0  0  0  0  0  0  0
  153.4528  143.8749  159.2523 H   0  0  0  0  0  0  0  0  0  0  0  0
  152.5123  145.3940  158.8121 H   0  0  0  0  0  0  0  0  0  0  0  0
  151.2532  145.2441  160.9941 H   0  0  0  0  0  0  0  0  0  0  0  0
  152.1952  143.7249  161.4312 H   0  0  0  0  0  0  0  0  0  0  0  0
  150.7517  142.1507  157.2991 H   0  0  0  0  0  0  0  0  0  0  0  0
  152.4709  142.2009  157.6182 H   0  0  0  0  0  0  0  0  0  0  0  0
  150.6275  139.7973  158.1025 H   0  0  0  0  0  0  0  0  0  0  0  0
  151.8538  139.9387  156.8554 H   0  0  0  0  0  0  0  0  0  0  0  0
  152.2274  138.0931  167.8948 H   0  0  0  0  0  0  0  0  0  0  0  0
  151.9936  140.4975  169.0909 H   0  0  0  0  0  0  0  0  0  0  0  0
  1  2  2  0  0  0  0
  2  3  1  0  0  0  0
  2 14  1  0  0  0  0
  3  4  1  0  0  0  0
  3 20  1  0  0  0  0
  4  5  1  0  0  0  0
  4 21  1  0  0  0  0
  4 22  1  0  0  0  0
  5 13  1  0  0  0  0
  5  6  1  0  0  0  0
  5 23  1  0  0  0  0
  6  7  1  0  0  0  0
  6 24  1  0  0  0  0
  6 25  1  0  0  0  0
  7  8  1  0  0  0  0
  7 11  1  0  0  0  0
  8 10  1  0  0  0  0
  8  9  1  0  0  0  0
  8 26  1  0  0  0  0
  9 10  1  0  0  0  0
  9 27  1  0  0  0  0
  9 28  1  0  0  0  0
 10 29  1  0  0  0  0
 10 30  1  0  0  0  0
 11 12  1  0  0  0  0
 11 31  1  0  0  0  0
 11 32  1  0  0  0  0
 12 13  1  0  0  0  0
 12 33  1  0  0  0  0
 12 34  1  0  0  0  0
 14 15  1  0  0  0  0
 15 19  1  0  0  0  0
 15 16  2  0  0  0  0
 16 17  1  0  0  0  0
 17 18  2  0  0  0  0
 17 35  1  0  0  0  0
 18 19  1  0  0  0  0
 18 36  1  0  0  0  0
M  CHG  1  14  -1
M  END
> <s_m_source_file>
AV-unprocessed.smi

> <i_m_source_file_index>
2999

> <i_lp_mmshare_version>
43012

> <i_f3d_flags>
0

> <s_epik_input>
czFbY0hdW2NIXW5jMVtOSF1DKD1PKVtOSF1bQ0gyXVtDQEBIXTJbQ0gyXU4oW0NIMl1bQ0gyXU8yKVtDSF0zW0NIMl1bQ0gyXTM=

> <s_epik_cmdline>
J2VwaWtfcHl0aG9uJywgJy1waCcsICc3LjAnLCAnLXRuJywgJzgnLCAnLW1hJywgJzIwMCcsICctbWV0YWxfYmluZGluZycsICctaW1hZScsICc8aW5maWxlLm1hZT4nLCAnLW9tYWUnLCAnPG91dGZpbGUubWFlPic=

> <r_lp_tautomer_probability>
0.999

> <r_epik_Ionization_Penalty>
6.67591

> <r_epik_Ionization_Penalty_Charging>
5.6519

> <r_epik_Ionization_Penalty_Neutral>
1.024

> <r_epik_State_Penalty>
5.68985

> <r_epik_Charging_Adjusted_Penalty>
11.3418

> <i_epik_Tot_Q>
-1

> <i_epik_Tot_abs_Q>
1

> <r_epik_Metal_State_Penalty>
1.67789

> <b_epik_Metal_Only>
1

> <s_lp_Force_Field>
OPLS_2005

> <r_lp_Energy>
26.9989

> <b_lp_Chiralities_Consistent>
1

> <s_lp_Variant>
AV-unprocessed.smi:2999-8

> <Gold.Version>
5.8.1

> <Gold.Id.Protein>
6NUR|6NUR_protein|mol2

> <Gold.PLP.Fitness>
40.6949

> <Gold.PLP.PLP>
-38.5178

> <Gold.PLP.part.hbond>
-2.7981

> <Gold.PLP.part.metal>
0.0000

> <Gold.PLP.part.buried>
-4.7797

> <Gold.PLP.part.nonpolar>
-30.9995

> <Gold.PLP.part.repulsive>
0.0048

> <Gold.PLP.ligand.clash>
0.0000

> <Gold.PLP.ligand.torsion>
0.9823

> <Gold.PLP.Chemscore.Hbond>
1.0000

> <Gold.PLP.Chemscore.CHOScore>
0.0000

> <Gold.PLP.Chemscore.Metal>
0.0000

> <Gold.PLP.Chemscore.Internal.Correction>
1.1417

> <Gold.Rescore>
     Score         DG    S(hbond)    S(metal)    S(lipo)     H(rot)  DE(clash)    DE(int)     intcor
     11.84     -14.98       0.91        0.00      88.26       1.52       0.62       2.52       ----

> <Gold.Chemscore.Fitness>
11.8365

> <Gold.Chemscore.DG>
-14.9760

> <Gold.Chemscore.ZeroCoef>
-5.4800

> <Gold.Chemscore.Hbond>
0.9138

> <Gold.Chemscore.Metal>
0.0000

> <Gold.Chemscore.Lipo>
88.2622

> <Gold.Chemscore.Internal_Hbond>
0.0000

> <Gold.Chemscore.DEClash>
0.6182

> <Gold.Chemscore.DEInternal>
2.5213

> <Gold.Chemscore.Rot>
1.5167

> <Gold.Chemscore.Internal.Correction>
   9.000000E+99

> <Gold.Chemscore.Hbond.Weighted>
-3.0520

> <Gold.Chemscore.Metal.Weighted>
-0.0000

> <Gold.Chemscore.Lipo.Weighted>
-10.3267

> <Gold.Chemscore.Internal_Hbond.Weighted>
0.0000

> <Gold.Chemscore.DEClash.Weighted>
0.6182

> <Gold.Chemscore.DEInternal.Weighted>
2.5213

> <Gold.Chemscore.Rot.Weighted>
3.8827

> <Gold.Chemscore.Internal.Correction.Weighted>
   9.000000E+99

> <Gold.Protein.RotatedTorsions>
[ 6907 6896 6895 6894 ] final  126.28 input  -60.11 | X-H torsion
[ 7974 7965 7964 7962 ] final -172.98 input  175.53 | X-H torsion
[ 8008 7997 7996 7995 ] final   28.45 input   59.86 | X-H torsion
[ 10167 10162 10161 10158 ] final  -70.41 input  -65.29 | X-H torsion
[ 10718 10713 10712 10709 ] final   96.85 input   66.30 | X-H torsion
[ 10763 10752 10751 10750 ] final  -45.99 input  -60.55 | X-H torsion
[ 11005 11000 10999 10996 ] final  -18.77 input  -57.11 | X-H torsion

> <Gold.Protein.ActiveResidues>
 VAL166  LYS551  ARG553  GLY616  TRP617  ASP618  TYR619  PRO620  LYS621  CYS622 
 ASP623  PHE694  ASN695  SER759  ASP760  ASP761  ALA762  ILE779  LEU786  VAL792 
 PHE793  MET794  SER795  GLU796  ALA797  LYS798  CYS799  TRP800  GLU811  SER814 

> <Gold.Protein.RotatedAtoms>
  152.3917  133.6689  159.6243 H   0  0  0  0  0  0  0  0  0  0  0  0  # atno 6907 bound_to 6896
  150.7824  133.8942  159.3331 H   0  0  0  0  0  0  0  0  0  0  0  0  # atno 6908 bound_to 6896
  151.6727  135.0975  160.0252 H   0  0  0  0  0  0  0  0  0  0  0  0  # atno 6909 bound_to 6896
  144.7141  140.1691  143.6369 H   0  0  0  0  0  0  0  0  0  0  0  0  # atno 7974 bound_to 7965
  155.0589  140.3188  155.4667 H   0  0  0  0  0  0  0  0  0  0  0  0  # atno 8008 bound_to 7997
  156.2817  140.2132  156.5660 H   0  0  0  0  0  0  0  0  0  0  0  0  # atno 8009 bound_to 7997
  154.7148  140.0495  157.0572 H   0  0  0  0  0  0  0  0  0  0  0  0  # atno 8010 bound_to 7997
  140.5355  143.2318  151.7185 H   0  0  0  0  0  0  0  0  0  0  0  0  # atno 10167 bound_to 10162
  157.6921  131.0591  150.4554 H   0  0  0  0  0  0  0  0  0  0  0  0  # atno 10718 bound_to 10713
  154.0376  135.6648  153.4787 H   0  0  0  0  0  0  0  0  0  0  0  0  # atno 10763 bound_to 10752
  153.0515  135.5082  154.7873 H   0  0  0  0  0  0  0  0  0  0  0  0  # atno 10764 bound_to 10752
  154.6839  135.3049  154.9541 H   0  0  0  0  0  0  0  0  0  0  0  0  # atno 10765 bound_to 10752
  140.8300  133.8004  155.9749 H   0  0  0  0  0  0  0  0  0  0  0  0  # atno 11005 bound_to 11000
  145.8960  139.2403  143.1521 LP  0  0  0  0  0  0  0  0  0  0  0  0  # atno 17320 bound_to 7965
  145.9857  140.8645  143.0092 LP  0  0  0  0  0  0  0  0  0  0  0  0  # atno 17321 bound_to 7965
  139.4969  144.4050  152.0141 LP  0  0  0  0  0  0  0  0  0  0  0  0  # atno 17342 bound_to 10162
  140.3155  144.3489  150.6023 LP  0  0  0  0  0  0  0  0  0  0  0  0  # atno 17343 bound_to 10162
  156.4902  130.4093  149.6411 LP  0  0  0  0  0  0  0  0  0  0  0  0  # atno 17370 bound_to 10713
  156.3424  130.7389  151.2336 LP  0  0  0  0  0  0  0  0  0  0  0  0  # atno 17371 bound_to 10713
  140.9008  134.2381  157.5043 LP  0  0  0  0  0  0  0  0  0  0  0  0  # atno 17394 bound_to 11000
  139.8705  134.9705  156.4705 LP  0  0  0  0  0  0  0  0  0  0  0  0  # atno 17395 bound_to 11000

$$$$
