#       Name:                AV-unprocessed.smi:2824
#       Creating user name   scv26
#       Creation time:       Fri Mar 27 15:33:02 2020


#       File generated by GOLD software.
#

@<TRIPOS>MOLECULE
AV-unprocessed.smi:2824
    45    46     1
SMALL
NO_CHARGES


@<TRIPOS>ATOM
      1 ****        -2.4861   3.6093  -0.5278 C.3            1 S1                 0.0000
      2 ****        -3.4658   2.4512  -0.4920 C.ar           1 S1                 0.0000
      3 ****        -4.8430   2.6980  -0.6737 C.ar           1 S1                 0.0000
      4 ****        -5.7639   1.6353  -0.6444 C.ar           1 S1                 0.0000
      5 ****        -5.3091   0.3214  -0.4343 C.ar           1 S1                 0.0000
      6 ****        -3.9357   0.0695  -0.2529 C.ar           1 S1                 0.0000
      7 ****        -2.9975   1.1332  -0.2794 C.ar           1 S1                 0.0000
      8 ****        -1.6389   0.9610  -0.1105 O.3            1 S1                 0.0000
      9 ****        -1.1430  -0.3514   0.1173 C.3            1 S1                 0.0000
     10 ****         0.3851  -0.2824   0.2765 C.3            1 S1                 0.0000
     11 ****         0.6510   0.1381   1.6009 O.3            1 S1                 0.0000
     12 ****         1.0462  -1.6639   0.0747 C.3            1 S1                 0.0000
     13 ****         2.4882  -1.5543  -0.1774 N.am           1 S1                 0.0000
     14 ****         3.2727  -1.7768   0.9408 N.2            1 S1                 0.0000
     15 ****         4.5634  -1.7026   0.8830 C.2            1 S1                 0.0000
     16 ****         5.3311  -1.9527   2.1575 C.3            1 S1                 0.0000
     17 ****         6.6448  -1.8489   1.9554 F              1 S1                 0.0000
     18 ****         4.9745  -1.0665   3.0878 F              1 S1                 0.0000
     19 ****         5.0687  -3.1765   2.6177 F              1 S1                 0.0000
     20 ****         5.1960  -1.3867  -0.3870 C.2            1 S1                 0.0000
     21 ****         4.4285  -1.1716  -1.4769 C.2            1 S1                 0.0000
     22 ****         2.9708  -1.2468  -1.4169 C.2            1 S1                 0.0000
     23 ****         2.2438  -1.0480  -2.3898 O.2            1 S1                 0.0000
     24 ****        -2.9989   4.5633  -0.6525 H              1 S1                 0.0000
     25 ****        -1.7880   3.4881  -1.3564 H              1 S1                 0.0000
     26 ****        -1.9143   3.6518   0.3996 H              1 S1                 0.0000
     27 ****        -5.1995   3.7045  -0.8367 H              1 S1                 0.0000
     28 ****        -6.8174   1.8280  -0.7839 H              1 S1                 0.0000
     29 ****        -6.0143  -0.4964  -0.4128 H              1 S1                 0.0000
     30 ****        -3.6277  -0.9527  -0.0959 H              1 S1                 0.0000
     31 ****        -1.6051  -0.8130   0.9921 H              1 S1                 0.0000
     32 ****        -1.3898  -0.9624  -0.7525 H              1 S1                 0.0000
     33 ****         0.7911   0.4409  -0.4319 H              1 S1                 0.0000
     34 ****         0.2750  -0.4906   2.1977 H              1 S1                 0.0000
     35 ****         0.8476  -2.3125   0.9305 H              1 S1                 0.0000
     36 ****         0.5865  -2.1750  -0.7732 H              1 S1                 0.0000
     37 ****         6.2719  -1.3250  -0.4547 H              1 S1                 0.0000
     38 ****         4.9028  -0.9373  -2.4186 H              1 S1                 0.0000
     39 ****        -1.3661   1.5194   0.6729 LP             1 S1                 0.0000
     40 ****        -1.1931   1.3054  -0.9367 LP             1 S1                 0.0000
     41 ****         0.2425   1.0374   1.7574 LP             1 S1                 0.0000
     42 ****         1.6390   0.1911   1.7457 LP             1 S1                 0.0000
     43 ****         2.8333  -1.9994   1.8111 LP             1 S1                 0.0000
     44 ****         1.2504  -1.1089  -2.2924 LP             1 S1                 0.0000
     45 ****         2.6464  -0.8255  -3.2777 LP             1 S1                 0.0000
@<TRIPOS>BOND
    1    1    2 1     
    2    1   24 1     
    3    1   25 1     
    4    1   26 1     
    5    2    7 ar    
    6    2    3 ar    
    7    3    4 ar    
    8    3   27 1     
    9    4    5 ar    
   10    4   28 1     
   11    5    6 ar    
   12    5   29 1     
   13    6    7 ar    
   14    6   30 1     
   15    7    8 1     
   16    8    9 1     
   17    9   10 1     
   18    9   31 1     
   19    9   32 1     
   20   10   11 1     
   21   10   12 1     
   22   10   33 1     
   23   11   34 1     
   24   12   13 1     
   25   12   35 1     
   26   12   36 1     
   27   13   22 am    
   28   13   14 1     
   29   14   15 2     
   30   15   16 1     
   31   15   20 1     
   32   16   17 1     
   33   16   18 1     
   34   16   19 1     
   35   20   21 2     
   36   20   37 1     
   37   21   22 1     
   38   21   38 1     
   39   22   23 2     
   40    8   39 1     
   41    8   40 1     
   42   11   41 1     
   43   11   42 1     
   44   14   43 1     
   45   23   44 1     
   46   23   45 1     
@<TRIPOS>SUBSTRUCTURE
      1 S1             1
@<TRIPOS>SET
LONE_PAIRS      STATIC     ATOMS    <user>   **** ""
7 39 40 41 42 43 44 45
DONOR_HYDROGENS      STATIC     ATOMS    <user>   **** ""
1 34
ATOM$BLUE        STATIC     ATOMS    COLORGROUP SYSTEM
7 39 40 41 42 43 44 45
ATOM$RED        STATIC     ATOMS    COLORGROUP SYSTEM
1 34
