AV-unprocessed.smi:536|AV-procd|sdf|2863|dock9
  -GOLD-   2262023353D 1   1.00000     0.00000
 Structure written by MMmdl.
 45 47  0  0  0  0  0  0  0  0  2 V2000
  157.0748  140.0989  159.5164 C   0  0  0  0  0  0  0  0  0  0  0  0
  155.7000  140.4302  159.4457 O   0  0  0  0  0  0  0  0  0  0  0  0
  154.9988  140.1199  160.6381 C   0  0  0  0  0  0  0  0  0  0  0  0
  153.4978  140.4266  160.4913 C   0  0  0  0  0  0  0  0  0  0  0  0
  152.9120  139.9134  159.2536 N   0  0  0  0  0  0  0  0  0  0  0  0
  152.2525  140.6087  158.2884 C   0  0  0  0  0  0  0  0  0  0  0  0
  152.0750  141.9909  158.3604 N   0  0  0  0  0  0  0  0  0  0  0  0
  153.0787  142.9177  158.8730 C   0  0  0  0  0  0  0  0  0  0  0  0
  152.5726  143.8566  159.9848 C   0  0  0  0  0  0  0  0  0  0  0  0
  151.6691  144.9810  159.4566 C   0  0  0  0  0  0  0  0  0  0  0  0
  150.1945  144.5914  159.2481 C   0  0  0  0  0  0  0  0  0  0  0  0
  149.9275  143.1959  158.6530 C   0  0  0  0  0  0  0  0  0  0  0  0
  150.9913  142.6834  157.6692 C   0  0  0  0  0  0  0  0  0  0  0  0
  151.7665  139.8630  157.2949 N   0  0  0  0  0  0  0  0  0  0  0  0
  152.1662  138.5825  157.6446 C   0  0  0  0  0  0  0  0  0  0  0  0
  152.8481  138.5829  158.8217 C   0  0  0  0  0  0  0  0  0  0  0  0
  153.3734  137.3568  159.4658 C   0  0  0  0  0  0  0  0  0  0  0  0
  153.9644  137.4053  160.5427 O   0  0  0  0  0  0  0  0  0  0  0  0
  153.1129  136.2318  158.7274 N   0  5  0  0  0  0  0  0  0  0  0  0
  152.4333  136.1880  157.5295 C   0  0  0  0  0  0  0  0  0  0  0  0
  152.2417  135.1296  156.9289 O   0  0  0  0  0  0  0  0  0  0  0  0
  151.9499  137.3454  156.9784 N   0  0  0  0  0  0  0  0  0  0  0  0
  151.2175  137.3277  155.7090 C   0  0  0  0  0  0  0  0  0  0  0  0
  157.5612  140.3561  158.5754 H   0  0  0  0  0  0  0  0  0  0  0  0
  157.2149  139.0309  159.6873 H   0  0  0  0  0  0  0  0  0  0  0  0
  157.5726  140.6509  160.3148 H   0  0  0  0  0  0  0  0  0  0  0  0
  155.1285  139.0646  160.8815 H   0  0  0  0  0  0  0  0  0  0  0  0
  155.4246  140.6855  161.4646 H   0  0  0  0  0  0  0  0  0  0  0  0
  152.9489  140.0130  161.3356 H   0  0  0  0  0  0  0  0  0  0  0  0
  153.3253  141.4999  160.5513 H   0  0  0  0  0  0  0  0  0  0  0  0
  153.9227  142.3364  159.2422 H   0  0  0  0  0  0  0  0  0  0  0  0
  153.4792  143.5026  158.0441 H   0  0  0  0  0  0  0  0  0  0  0  0
  152.0817  143.3068  160.7870 H   0  0  0  0  0  0  0  0  0  0  0  0
  153.4481  144.3213  160.4392 H   0  0  0  0  0  0  0  0  0  0  0  0
  151.7009  145.8198  160.1528 H   0  0  0  0  0  0  0  0  0  0  0  0
  152.0828  145.3656  158.5236 H   0  0  0  0  0  0  0  0  0  0  0  0
  149.6666  144.6615  160.1998 H   0  0  0  0  0  0  0  0  0  0  0  0
  149.7367  145.3449  158.6064 H   0  0  0  0  0  0  0  0  0  0  0  0
  149.7996  142.4697  159.4570 H   0  0  0  0  0  0  0  0  0  0  0  0
  148.9639  143.2291  158.1438 H   0  0  0  0  0  0  0  0  0  0  0  0
  151.3731  143.4906  157.0431 H   0  0  0  0  0  0  0  0  0  0  0  0
  150.5205  141.9748  156.9870 H   0  0  0  0  0  0  0  0  0  0  0  0
  150.3384  136.6862  155.7835 H   0  0  0  0  0  0  0  0  0  0  0  0
  151.8523  136.9462  154.9079 H   0  0  0  0  0  0  0  0  0  0  0  0
  150.8719  138.3166  155.4080 H   0  0  0  0  0  0  0  0  0  0  0  0
  1  2  1  0  0  0  0
  1 24  1  0  0  0  0
  1 25  1  0  0  0  0
  1 26  1  0  0  0  0
  2  3  1  0  0  0  0
  3  4  1  0  0  0  0
  3 27  1  0  0  0  0
  3 28  1  0  0  0  0
  4  5  1  0  0  0  0
  4 29  1  0  0  0  0
  4 30  1  0  0  0  0
  5 16  1  0  0  0  0
  5  6  1  0  0  0  0
  6  7  1  0  0  0  0
  6 14  2  0  0  0  0
  7 13  1  0  0  0  0
  7  8  1  0  0  0  0
  8  9  1  0  0  0  0
  8 31  1  0  0  0  0
  8 32  1  0  0  0  0
  9 10  1  0  0  0  0
  9 33  1  0  0  0  0
  9 34  1  0  0  0  0
 10 11  1  0  0  0  0
 10 35  1  0  0  0  0
 10 36  1  0  0  0  0
 11 12  1  0  0  0  0
 11 37  1  0  0  0  0
 11 38  1  0  0  0  0
 12 13  1  0  0  0  0
 12 39  1  0  0  0  0
 12 40  1  0  0  0  0
 13 41  1  0  0  0  0
 13 42  1  0  0  0  0
 14 15  1  0  0  0  0
 15 22  1  0  0  0  0
 15 16  2  0  0  0  0
 16 17  1  0  0  0  0
 17 18  2  0  0  0  0
 17 19  1  0  0  0  0
 19 20  1  0  0  0  0
 20 21  2  0  0  0  0
 20 22  1  0  0  0  0
 22 23  1  0  0  0  0
 23 43  1  0  0  0  0
 23 44  1  0  0  0  0
 23 45  1  0  0  0  0
M  CHG  1  19  -1
M  END
> <s_m_source_file>
AV-unprocessed.smi

> <i_m_source_file_index>
536

> <i_lp_mmshare_version>
43012

> <i_f3d_flags>
0

> <s_epik_input>
W0NIM11uMWMoPU8pW25IXWMoPU8pYyhjMTIpbihbQ0gyXVtDSDJdT1tDSDNdKWMobjIpTjNbQ0gyXVtDSDJdW0NIMl1bQ0gyXVtDSDJdW0NIMl0z

> <s_epik_cmdline>
J2VwaWtfcHl0aG9uJywgJy1waCcsICc3LjAnLCAnLXRuJywgJzgnLCAnLW1hJywgJzIwMCcsICctbWV0YWxfYmluZGluZycsICctaW1hZScsICc8aW5maWxlLm1hZT4nLCAnLW9tYWUnLCAnPG91dGZpbGUubWFlPic=

> <r_lp_tautomer_probability>
1

> <r_epik_Ionization_Penalty>
6.16859

> <r_epik_Ionization_Penalty_Charging>
0.0798692

> <r_epik_Ionization_Penalty_Neutral>
6.08873

> <r_epik_State_Penalty>
6.08498

> <r_epik_Charging_Adjusted_Penalty>
6.16485

> <i_epik_Tot_Q>
-1

> <i_epik_Tot_abs_Q>
1

> <r_epik_Metal_State_Penalty>
2.03194

> <b_epik_Metal_Only>
1

> <s_lp_Force_Field>
OPLS_2005

> <r_lp_Energy>
48.7455

> <b_lp_Chiralities_Consistent>
1

> <s_lp_Variant>
AV-unprocessed.smi:536-2

> <Gold.Version>
5.8.1

> <Gold.Id.Protein>
6NUR|6NUR_protein|mol2

> <Gold.PLP.Fitness>
44.9849

> <Gold.PLP.PLP>
-37.2484

> <Gold.PLP.part.hbond>
-3.1948

> <Gold.PLP.part.metal>
0.0000

> <Gold.PLP.part.buried>
-6.0279

> <Gold.PLP.part.nonpolar>
-29.2239

> <Gold.PLP.part.repulsive>
0.0000

> <Gold.PLP.ligand.clash>
0.0000

> <Gold.PLP.ligand.torsion>
0.4318

> <Gold.PLP.Chemscore.Hbond>
2.5985

> <Gold.PLP.Chemscore.CHOScore>
0.0000

> <Gold.PLP.Chemscore.Metal>
0.0000

> <Gold.Chemscore.Hbonds>
donor molecule, donor type, donor heavy atom, donor atom, acceptor molecule, acceptor atom, score
      P1  H  6896  6907       L1    19  1.22
      P1  H  7997  8010       L1     2  0.39
      P1  H 10752 10763       L1    21  0.89

> <Gold.PLP.Chemscore.Internal.Correction>
0.8046

> <Gold.Rescore>
     Score         DG    S(hbond)    S(metal)    S(lipo)     H(rot)  DE(clash)    DE(int)     intcor
     14.99     -17.43       1.23        0.00      98.46       1.44       0.03       2.41       ----

> <Gold.Chemscore.Fitness>
14.9876

> <Gold.Chemscore.DG>
-17.4320

> <Gold.Chemscore.ZeroCoef>
-5.4800

> <Gold.Chemscore.Hbond>
1.2310

> <Gold.Chemscore.Metal>
0.0000

> <Gold.Chemscore.Lipo>
98.4590

> <Gold.Chemscore.Internal_Hbond>
0.0000

> <Gold.Chemscore.DEClash>
0.0344

> <Gold.Chemscore.DEInternal>
2.4100

> <Gold.Chemscore.Rot>
1.4372

> <Gold.Chemscore.Internal.Correction>
   9.000000E+99

> <Gold.Chemscore.Hbonds>
donor molecule, donor type, donor heavy atom, donor atom, acceptor molecule, acceptor atom, score
      P1  H  6896  6907       L1    19  0.28
      P1  H  7997  8010       L1     2  0.18
      P1  H 10752 10763       L1    21  0.37

> <Gold.Chemscore.Hbond.Weighted>
-4.1116

> <Gold.Chemscore.Metal.Weighted>
-0.0000

> <Gold.Chemscore.Lipo.Weighted>
-11.5197

> <Gold.Chemscore.Internal_Hbond.Weighted>
0.0000

> <Gold.Chemscore.DEClash.Weighted>
0.0344

> <Gold.Chemscore.DEInternal.Weighted>
2.4100

> <Gold.Chemscore.Rot.Weighted>
3.6793

> <Gold.Chemscore.Internal.Correction.Weighted>
   9.000000E+99

> <Gold.Protein.RotatedTorsions>
[ 6907 6896 6895 6894 ] final   51.80 input  -60.11 | X-H torsion
[ 7974 7965 7964 7962 ] final  109.76 input  175.53 | X-H torsion
[ 8008 7997 7996 7995 ] final   -1.46 input   59.86 | X-H torsion
[ 10167 10162 10161 10158 ] final  155.78 input  -65.29 | X-H torsion
[ 10718 10713 10712 10709 ] final  123.05 input   66.30 | X-H torsion
[ 10763 10752 10751 10750 ] final   92.36 input  -60.55 | X-H torsion
[ 11005 11000 10999 10996 ] final  123.10 input  -57.11 | X-H torsion

> <Gold.Protein.ActiveResidues>
 VAL166  LYS551  ARG553  GLY616  TRP617  ASP618  TYR619  PRO620  LYS621  CYS622 
 ASP623  PHE694  ASN695  SER759  ASP760  ASP761  ALA762  ILE779  LEU786  VAL792 
 PHE793  MET794  SER795  GLU796  ALA797  LYS798  CYS799  TRP800  GLU811  SER814 

> <Gold.Protein.RotatedAtoms>
  152.3165  134.7433  160.0323 H   0  0  0  0  0  0  0  0  0  0  0  0  # atno 6907 bound_to 6896
  151.7896  133.3352  159.3503 H   0  0  0  0  0  0  0  0  0  0  0  0  # atno 6908 bound_to 6896
  150.7347  134.5786  159.5971 H   0  0  0  0  0  0  0  0  0  0  0  0  # atno 6909 bound_to 6896
  145.2637  139.2692  143.4003 H   0  0  0  0  0  0  0  0  0  0  0  0  # atno 7974 bound_to 7965
  154.6465  140.2559  155.7262 H   0  0  0  0  0  0  0  0  0  0  0  0  # atno 8008 bound_to 7997
  156.2554  140.2876  156.0801 H   0  0  0  0  0  0  0  0  0  0  0  0  # atno 8009 bound_to 7997
  155.1516  140.0382  157.2812 H   0  0  0  0  0  0  0  0  0  0  0  0  # atno 8010 bound_to 7997
  139.4821  144.5068  151.8085 H   0  0  0  0  0  0  0  0  0  0  0  0  # atno 10167 bound_to 10162
  157.5695  131.1084  150.8393 H   0  0  0  0  0  0  0  0  0  0  0  0  # atno 10718 bound_to 10713
  153.2183  135.4364  155.0460 H   0  0  0  0  0  0  0  0  0  0  0  0  # atno 10763 bound_to 10752
  154.8237  135.3350  154.6965 H   0  0  0  0  0  0  0  0  0  0  0  0  # atno 10764 bound_to 10752
  153.7398  135.7005  153.5025 H   0  0  0  0  0  0  0  0  0  0  0  0  # atno 10765 bound_to 10752
  139.9298  134.9641  156.8209 H   0  0  0  0  0  0  0  0  0  0  0  0  # atno 11005 bound_to 11000
  146.3267  140.3061  142.8624 LP  0  0  0  0  0  0  0  0  0  0  0  0  # atno 17320 bound_to 7965
  144.9396  140.8064  143.5639 LP  0  0  0  0  0  0  0  0  0  0  0  0  # atno 17321 bound_to 7965
  140.4567  144.1779  150.5902 LP  0  0  0  0  0  0  0  0  0  0  0  0  # atno 17342 bound_to 10162
  140.4528  143.2480  151.9325 LP  0  0  0  0  0  0  0  0  0  0  0  0  # atno 17343 bound_to 10162
  156.8869  130.5199  149.5288 LP  0  0  0  0  0  0  0  0  0  0  0  0  # atno 17370 bound_to 10713
  156.0741  130.5767  150.9440 LP  0  0  0  0  0  0  0  0  0  0  0  0  # atno 17371 bound_to 10713
  140.6235  133.9972  155.7629 LP  0  0  0  0  0  0  0  0  0  0  0  0  # atno 17394 bound_to 11000
  141.0879  133.9962  157.3284 LP  0  0  0  0  0  0  0  0  0  0  0  0  # atno 17395 bound_to 11000

$$$$
