AV-unprocessed.smi:1325|AV-procd|sdf|5473|dock5
  -GOLD-   22720 5 43D 1   1.00000     0.00000
 Structure written by MMmdl.
 35 36  0  0  0  0  0  0  0  0  1 V2000
  152.5738  143.4218  159.2975 C   0  0  0  0  0  0  0  0  0  0  0  0
  152.4149  141.9350  159.1262 C   0  0  0  0  0  0  0  0  0  0  0  0
  151.5192  141.5399  158.2824 N   0  0  0  0  0  0  0  0  0  0  0  0
  151.2890  140.1982  158.0528 N   0  0  0  0  0  0  0  0  0  0  0  0
  150.2353  139.9356  157.0644 C   0  0  0  0  0  0  0  0  0  0  0  0
  150.4970  140.6491  155.7195 C   0  0  1  0  0  0  0  0  0  0  0  0
  151.6521  140.0893  155.1251 O   0  0  0  0  0  0  0  0  0  0  0  0
  149.2920  140.5338  154.7982 C   0  0  0  0  0  0  0  0  0  0  0  0
  148.8478  139.2701  154.3493 C   0  0  0  0  0  0  0  0  0  0  0  0
  147.7265  139.1706  153.5030 C   0  0  0  0  0  0  0  0  0  0  0  0
  147.0417  140.3335  153.1013 C   0  0  0  0  0  0  0  0  0  0  0  0
  147.4778  141.5957  153.5480 C   0  0  0  0  0  0  0  0  0  0  0  0
  148.5988  141.6955  154.3950 C   0  0  0  0  0  0  0  0  0  0  0  0
  151.9564  139.1796  158.6667 C   0  0  0  0  0  0  0  0  0  0  0  0
  151.7148  137.9939  158.4346 O   0  0  0  0  0  0  0  0  0  0  0  0
  152.9727  139.6337  159.6188 C   0  0  0  0  0  0  0  0  0  0  0  0
  153.6966  138.5987  160.2835 C   0  0  0  0  0  0  0  0  0  0  0  0
  154.2681  137.7561  160.8347 N   0  0  0  0  0  0  0  0  0  0  0  0
  153.2085  140.9489  159.8527 C   0  0  0  0  0  0  0  0  0  0  0  0
  154.2509  141.4729  160.8310 C   0  0  0  0  0  0  0  0  0  0  0  0
  152.4128  143.7118  160.3357 H   0  0  0  0  0  0  0  0  0  0  0  0
  151.8624  143.9803  158.6871 H   0  0  0  0  0  0  0  0  0  0  0  0
  153.5758  143.7393  159.0090 H   0  0  0  0  0  0  0  0  0  0  0  0
  150.1010  138.8632  156.9078 H   0  0  0  0  0  0  0  0  0  0  0  0
  149.2856  140.2793  157.4793 H   0  0  0  0  0  0  0  0  0  0  0  0
  150.6968  141.7079  155.8882 H   0  0  0  0  0  0  0  0  0  0  0  0
  152.4117  140.4221  155.5781 H   0  0  0  0  0  0  0  0  0  0  0  0
  149.3651  138.3724  154.6551 H   0  0  0  0  0  0  0  0  0  0  0  0
  147.3914  138.2019  153.1627 H   0  0  0  0  0  0  0  0  0  0  0  0
  146.1818  140.2571  152.4523 H   0  0  0  0  0  0  0  0  0  0  0  0
  146.9517  142.4879  153.2418 H   0  0  0  0  0  0  0  0  0  0  0  0
  148.9231  142.6684  154.7345 H   0  0  0  0  0  0  0  0  0  0  0  0
  154.8161  140.6693  161.3021 H   0  0  0  0  0  0  0  0  0  0  0  0
  153.7741  142.0479  161.6254 H   0  0  0  0  0  0  0  0  0  0  0  0
  154.9661  142.1180  160.3201 H   0  0  0  0  0  0  0  0  0  0  0  0
  1  2  1  0  0  0  0
  1 21  1  0  0  0  0
  1 22  1  0  0  0  0
  1 23  1  0  0  0  0
  2 19  1  0  0  0  0
  2  3  2  0  0  0  0
  3  4  1  0  0  0  0
  4  5  1  0  0  0  0
  4 14  1  0  0  0  0
  5  6  1  0  0  0  0
  5 24  1  0  0  0  0
  5 25  1  0  0  0  0
  6  7  1  0  0  0  0
  6  8  1  0  0  0  0
  6 26  1  0  0  0  0
  7 27  1  0  0  0  0
  8 13  1  0  0  0  0
  8  9  2  0  0  0  0
  9 10  1  0  0  0  0
  9 28  1  0  0  0  0
 10 11  2  0  0  0  0
 10 29  1  0  0  0  0
 11 12  1  0  0  0  0
 11 30  1  0  0  0  0
 12 13  2  0  0  0  0
 12 31  1  0  0  0  0
 13 32  1  0  0  0  0
 14 15  2  0  0  0  0
 14 16  1  0  0  0  0
 16 17  1  0  0  0  0
 16 19  2  0  0  0  0
 17 18  3  0  0  0  0
 19 20  1  0  0  0  0
 20 33  1  0  0  0  0
 20 34  1  0  0  0  0
 20 35  1  0  0  0  0
M  END
> <s_m_source_file>
AV-unprocessed.smi

> <i_m_source_file_index>
1325

> <i_lp_mmshare_version>
43012

> <i_f3d_flags>
0

> <s_epik_input>
TiNDYyhjMVtDSDNdKWMoPU8pbihuYzFbQ0gzXSlbQ0gyXVtDQEhdKFtPSF0pYzJbY0hdW2NIXVtjSF1bY0hdW2NIXTI=

> <s_epik_cmdline>
J2VwaWtfcHl0aG9uJywgJy1waCcsICc3LjAnLCAnLXRuJywgJzgnLCAnLW1hJywgJzIwMCcsICctbWV0YWxfYmluZGluZycsICctaW1hZScsICc8aW5maWxlLm1hZT4nLCAnLW9tYWUnLCAnPG91dGZpbGUubWFlPic=

> <r_lp_tautomer_probability>
1

> <r_epik_Ionization_Penalty>
7.1854e-08

> <r_epik_Ionization_Penalty_Charging>
1.40848e-10

> <r_epik_Ionization_Penalty_Neutral>
7.17131e-08

> <r_epik_State_Penalty>
-0

> <r_epik_Charging_Adjusted_Penalty>
1.40848e-10

> <i_epik_Tot_Q>
0

> <i_epik_Tot_abs_Q>
0

> <r_epik_Metal_State_Penalty>
-0

> <b_epik_Metal_Only>
0

> <s_lp_Force_Field>
OPLS_2005

> <r_lp_Energy>
28.0712

> <b_lp_Chiralities_Consistent>
1

> <s_lp_Variant>
AV-unprocessed.smi:1325-2

> <Gold.Version>
5.8.1

> <Gold.Id.Protein>
6NUR|6NUR_protein|mol2

> <Gold.PLP.Fitness>
41.7510

> <Gold.PLP.PLP>
-38.9043

> <Gold.PLP.part.hbond>
-1.0000

> <Gold.PLP.part.metal>
0.0000

> <Gold.PLP.part.buried>
-3.4173

> <Gold.PLP.part.nonpolar>
-33.8939

> <Gold.PLP.part.repulsive>
0.0025

> <Gold.PLP.ligand.clash>
0.0000

> <Gold.PLP.ligand.torsion>
0.0666

> <Gold.PLP.Chemscore.Hbond>
0.9920

> <Gold.PLP.Chemscore.CHOScore>
0.0000

> <Gold.PLP.Chemscore.Metal>
0.0000

> <Gold.Chemscore.Hbonds>
donor molecule, donor type, donor heavy atom, donor atom, acceptor molecule, acceptor atom, score
      P1  H  7989  7998       L1     7  0.99

> <Gold.PLP.Chemscore.Internal.Correction>
0.0039

> <Gold.Rescore>
     Score         DG    S(hbond)    S(metal)    S(lipo)     H(rot)  DE(clash)    DE(int)     intcor
     14.50     -14.66       0.74        0.00      99.08       1.90       0.07       0.09       ----

> <Gold.Chemscore.Fitness>
14.4971

> <Gold.Chemscore.DG>
-14.6580

> <Gold.Chemscore.ZeroCoef>
-5.4800

> <Gold.Chemscore.Hbond>
0.7371

> <Gold.Chemscore.Metal>
0.0000

> <Gold.Chemscore.Lipo>
99.0781

> <Gold.Chemscore.Internal_Hbond>
0.0000

> <Gold.Chemscore.DEClash>
0.0689

> <Gold.Chemscore.DEInternal>
0.0919

> <Gold.Chemscore.Rot>
1.9047

> <Gold.Chemscore.Internal.Correction>
   9.000000E+99

> <Gold.Chemscore.Hbonds>
donor molecule, donor type, donor heavy atom, donor atom, acceptor molecule, acceptor atom, score
      P1  H  7989  7998       L1     7  0.18

> <Gold.Chemscore.Hbond.Weighted>
-2.4619

> <Gold.Chemscore.Metal.Weighted>
-0.0000

> <Gold.Chemscore.Lipo.Weighted>
-11.5921

> <Gold.Chemscore.Internal_Hbond.Weighted>
0.0000

> <Gold.Chemscore.DEClash.Weighted>
0.0689

> <Gold.Chemscore.DEInternal.Weighted>
0.0919

> <Gold.Chemscore.Rot.Weighted>
4.8760

> <Gold.Chemscore.Internal.Correction.Weighted>
   9.000000E+99

> <Gold.Protein.RotatedTorsions>
[ 6907 6896 6895 6894 ] final -176.23 input  -60.11 | X-H torsion
[ 7974 7965 7964 7962 ] final  137.65 input  175.53 | X-H torsion
[ 8008 7997 7996 7995 ] final   90.65 input   59.86 | X-H torsion
[ 10167 10162 10161 10158 ] final  -31.85 input  -65.29 | X-H torsion
[ 10718 10713 10712 10709 ] final  106.61 input   66.30 | X-H torsion
[ 10763 10752 10751 10750 ] final   46.53 input  -60.55 | X-H torsion
[ 11005 11000 10999 10996 ] final  110.11 input  -57.11 | X-H torsion

> <Gold.Protein.ActiveResidues>
 VAL166  LYS551  ARG553  GLY616  TRP617  ASP618  TYR619  PRO620  LYS621  CYS622 
 ASP623  PHE694  ASN695  SER759  ASP760  ASP761  ALA762  ILE779  LEU786  VAL792 
 PHE793  MET794  SER795  GLU796  ALA797  LYS798  CYS799  TRP800  GLU811  SER814 

> <Gold.Protein.RotatedAtoms>
  151.6015  133.3356  159.3048 H   0  0  0  0  0  0  0  0  0  0  0  0  # atno 6907 bound_to 6896
  150.8205  134.7414  159.6780 H   0  0  0  0  0  0  0  0  0  0  0  0  # atno 6908 bound_to 6896
  152.4299  134.5803  159.9997 H   0  0  0  0  0  0  0  0  0  0  0  0  # atno 6909 bound_to 6896
  144.9447  139.4889  143.5555 H   0  0  0  0  0  0  0  0  0  0  0  0  # atno 7974 bound_to 7965
  156.0145  140.3347  155.6974 H   0  0  0  0  0  0  0  0  0  0  0  0  # atno 8008 bound_to 7997
  155.6111  140.0665  157.2723 H   0  0  0  0  0  0  0  0  0  0  0  0  # atno 8009 bound_to 7997
  154.4293  140.1793  156.1261 H   0  0  0  0  0  0  0  0  0  0  0  0  # atno 8010 bound_to 7997
  140.7230  143.3739  151.1726 H   0  0  0  0  0  0  0  0  0  0  0  0  # atno 10167 bound_to 10162
  157.6661  131.0854  150.6033 H   0  0  0  0  0  0  0  0  0  0  0  0  # atno 10718 bound_to 10713
  152.9810  135.6005  154.3615 H   0  0  0  0  0  0  0  0  0  0  0  0  # atno 10763 bound_to 10752
  154.3296  135.2768  155.2480 H   0  0  0  0  0  0  0  0  0  0  0  0  # atno 10764 bound_to 10752
  154.4610  135.5966  153.6311 H   0  0  0  0  0  0  0  0  0  0  0  0  # atno 10765 bound_to 10752
  139.8875  134.9475  156.6228 H   0  0  0  0  0  0  0  0  0  0  0  0  # atno 11005 bound_to 11000
  146.3299  139.8491  142.8876 LP  0  0  0  0  0  0  0  0  0  0  0  0  # atno 17320 bound_to 7965
  145.2936  141.0174  143.3649 LP  0  0  0  0  0  0  0  0  0  0  0  0  # atno 17321 bound_to 7965
  139.7315  143.9064  152.3021 LP  0  0  0  0  0  0  0  0  0  0  0  0  # atno 17342 bound_to 10162
  139.8855  144.6994  150.8829 LP  0  0  0  0  0  0  0  0  0  0  0  0  # atno 17343 bound_to 10162
  156.6334  130.4438  149.5778 LP  0  0  0  0  0  0  0  0  0  0  0  0  # atno 17370 bound_to 10713
  156.2265  130.6768  151.1420 LP  0  0  0  0  0  0  0  0  0  0  0  0  # atno 17371 bound_to 10713
  140.7726  133.8726  155.8503 LP  0  0  0  0  0  0  0  0  0  0  0  0  # atno 17394 bound_to 11000
  140.9829  134.1381  157.4478 LP  0  0  0  0  0  0  0  0  0  0  0  0  # atno 17395 bound_to 11000

$$$$
