AV-unprocessed.smi:295|AV-procd|sdf|2257|dock9
  -GOLD-   2262022143D 1   1.00000     0.00000
 Structure written by MMmdl.
 35 36  0  0  0  0  0  0  0  0  1 V2000
  153.1988  140.9963  159.3084 C   0  0  0  0  0  0  0  0  0  0  0  0
  152.3599  142.2172  159.7294 C   0  0  1  0  0  0  0  0  0  0  0  0
  152.9515  142.8767  160.9914 C   0  0  0  0  0  0  0  0  0  0  0  0
  152.1251  144.0911  161.4419 C   0  0  0  0  0  0  0  0  0  0  0  0
  151.9980  145.1215  160.3114 C   0  0  0  0  0  0  0  0  0  0  0  0
  151.3973  144.4828  159.0508 C   0  0  0  0  0  0  0  0  0  0  0  0
  152.2130  143.2572  158.5909 C   0  0  2  0  0  0  0  0  0  0  0  0
  151.5699  142.6451  157.4320 N   0  0  0  0  0  0  0  0  0  0  0  0
  150.3438  142.0987  157.4119 C   0  0  0  0  0  0  0  0  0  0  0  0
  149.6300  141.9969  158.4090 O   0  0  0  0  0  0  0  0  0  0  0  0
  149.8451  141.5815  156.0598 C   0  0  0  0  0  0  0  0  0  0  0  0
  150.5641  140.3905  155.6404 N   0  0  0  0  0  0  0  0  0  0  0  0
  150.4984  139.6934  154.5012 C   0  0  0  0  0  0  0  0  0  0  0  0
  151.2945  138.6321  154.4711 N   0  0  0  0  0  0  0  0  0  0  0  0
  151.8572  138.7547  155.7083 C   0  0  0  0  0  0  0  0  0  0  0  0
  152.8405  137.8010  156.1929 C   0  0  0  0  0  0  0  0  0  0  0  0
  153.6236  137.0414  156.5787 N   0  0  0  0  0  0  0  0  0  0  0  0
  151.4633  139.7849  156.4541 N   0  0  0  0  0  0  0  0  0  0  0  0
  154.2036  141.2929  159.0061 H   0  0  0  0  0  0  0  0  0  0  0  0
  152.7449  140.4615  158.4736 H   0  0  0  0  0  0  0  0  0  0  0  0
  153.2957  140.2866  160.1302 H   0  0  0  0  0  0  0  0  0  0  0  0
  151.3635  141.8537  159.9867 H   0  0  0  0  0  0  0  0  0  0  0  0
  153.0009  142.1508  161.8037 H   0  0  0  0  0  0  0  0  0  0  0  0
  153.9783  143.1898  160.7960 H   0  0  0  0  0  0  0  0  0  0  0  0
  151.1321  143.7638  161.7526 H   0  0  0  0  0  0  0  0  0  0  0  0
  152.5866  144.5518  162.3158 H   0  0  0  0  0  0  0  0  0  0  0  0
  151.3782  145.9577  160.6362 H   0  0  0  0  0  0  0  0  0  0  0  0
  152.9801  145.5356  160.0796 H   0  0  0  0  0  0  0  0  0  0  0  0
  150.3673  144.1856  159.2533 H   0  0  0  0  0  0  0  0  0  0  0  0
  151.3524  145.2245  158.2525 H   0  0  0  0  0  0  0  0  0  0  0  0
  153.2141  143.5926  158.3118 H   0  0  0  0  0  0  0  0  0  0  0  0
  152.0843  142.6769  156.5640 H   0  0  0  0  0  0  0  0  0  0  0  0
  148.7819  141.3481  156.1294 H   0  0  0  0  0  0  0  0  0  0  0  0
  149.9578  142.3517  155.2953 H   0  0  0  0  0  0  0  0  0  0  0  0
  149.8493  139.9641  153.6814 H   0  0  0  0  0  0  0  0  0  0  0  0
  1  2  1  0  0  0  0
  1 19  1  0  0  0  0
  1 20  1  0  0  0  0
  1 21  1  0  0  0  0
  2  7  1  0  0  0  0
  2  3  1  0  0  0  0
  2 22  1  0  0  0  0
  3  4  1  0  0  0  0
  3 23  1  0  0  0  0
  3 24  1  0  0  0  0
  4  5  1  0  0  0  0
  4 25  1  0  0  0  0
  4 26  1  0  0  0  0
  5  6  1  0  0  0  0
  5 27  1  0  0  0  0
  5 28  1  0  0  0  0
  6  7  1  0  0  0  0
  6 29  1  0  0  0  0
  6 30  1  0  0  0  0
  7  8  1  0  0  0  0
  7 31  1  0  0  0  0
  8  9  1  0  0  0  0
  8 32  1  0  0  0  0
  9 10  2  0  0  0  0
  9 11  1  0  0  0  0
 11 12  1  0  0  0  0
 11 33  1  0  0  0  0
 11 34  1  0  0  0  0
 12 18  1  0  0  0  0
 12 13  1  0  0  0  0
 13 14  2  0  0  0  0
 13 35  1  0  0  0  0
 14 15  1  0  0  0  0
 15 16  1  0  0  0  0
 15 18  2  0  0  0  0
 16 17  3  0  0  0  0
M  END
> <s_m_source_file>
AV-unprocessed.smi

> <i_m_source_file_index>
295

> <i_lp_mmshare_version>
43012

> <i_f3d_flags>
0

> <s_epik_input>
W0NIM11bQ0BASF0xW0NIMl1bQ0gyXVtDSDJdW0NIMl1bQ0BIXTFbTkhdQyg9TylbQ0gyXW4yW2NIXW5jKG4yKUMjTg==

> <s_epik_cmdline>
J2VwaWtfcHl0aG9uJywgJy1waCcsICc3LjAnLCAnLXRuJywgJzgnLCAnLW1hJywgJzIwMCcsICctbWV0YWxfYmluZGluZycsICctaW1hZScsICc8aW5maWxlLm1hZT4nLCAnLW9tYWUnLCAnPG91dGZpbGUubWFlPic=

> <r_lp_tautomer_probability>
1

> <r_epik_Ionization_Penalty>
5.31112e-08

> <r_epik_Ionization_Penalty_Charging>
0

> <r_epik_Ionization_Penalty_Neutral>
5.31112e-08

> <r_epik_State_Penalty>
-0

> <r_epik_Charging_Adjusted_Penalty>
0

> <i_epik_Tot_Q>
0

> <i_epik_Tot_abs_Q>
0

> <r_epik_Metal_State_Penalty>
-0

> <b_epik_Metal_Only>
0

> <s_lp_Force_Field>
OPLS_2005

> <r_lp_Energy>
13.6203

> <b_lp_Chiralities_Consistent>
1

> <s_lp_Variant>
AV-unprocessed.smi:295-4

> <Gold.Version>
5.8.1

> <Gold.Id.Protein>
6NUR|6NUR_protein|mol2

> <Gold.PLP.Fitness>
42.9894

> <Gold.PLP.PLP>
-38.1801

> <Gold.PLP.part.hbond>
-1.0000

> <Gold.PLP.part.metal>
0.0000

> <Gold.PLP.part.buried>
-2.3156

> <Gold.PLP.part.nonpolar>
-35.1971

> <Gold.PLP.part.repulsive>
0.2740

> <Gold.PLP.ligand.clash>
0.0000

> <Gold.PLP.ligand.torsion>
0.1337

> <Gold.PLP.Chemscore.Hbond>
0.6903

> <Gold.PLP.Chemscore.CHOScore>
1.0000

> <Gold.PLP.Chemscore.Metal>
0.0000

> <Gold.Chemscore.Hbonds>
donor molecule, donor type, donor heavy atom, donor atom, acceptor molecule, acceptor atom, score
      P1  H 10752 10765       L1    17  0.68
      L1  C    13    35       P1  7957  1.00

> <Gold.PLP.Chemscore.Internal.Correction>
0.0057

> <Gold.Rescore>
     Score         DG    S(hbond)    S(metal)    S(lipo)     H(rot)  DE(clash)    DE(int)     intcor
     12.18     -13.25       0.87        0.00      84.13       1.95       0.02       1.05       ----

> <Gold.Chemscore.Fitness>
12.1837

> <Gold.Chemscore.DG>
-13.2464

> <Gold.Chemscore.ZeroCoef>
-5.4800

> <Gold.Chemscore.Hbond>
0.8707

> <Gold.Chemscore.Metal>
0.0000

> <Gold.Chemscore.Lipo>
84.1320

> <Gold.Chemscore.Internal_Hbond>
0.0000

> <Gold.Chemscore.DEClash>
0.0164

> <Gold.Chemscore.DEInternal>
1.0463

> <Gold.Chemscore.Rot>
1.9474

> <Gold.Chemscore.Internal.Correction>
   9.000000E+99

> <Gold.Chemscore.Hbonds>
donor molecule, donor type, donor heavy atom, donor atom, acceptor molecule, acceptor atom, score
      P1  H 10752 10765       L1    17  0.51

> <Gold.Chemscore.Hbond.Weighted>
-2.9082

> <Gold.Chemscore.Metal.Weighted>
-0.0000

> <Gold.Chemscore.Lipo.Weighted>
-9.8434

> <Gold.Chemscore.Internal_Hbond.Weighted>
0.0000

> <Gold.Chemscore.DEClash.Weighted>
0.0164

> <Gold.Chemscore.DEInternal.Weighted>
1.0463

> <Gold.Chemscore.Rot.Weighted>
4.9852

> <Gold.Chemscore.Internal.Correction.Weighted>
   9.000000E+99

> <Gold.Protein.RotatedTorsions>
[ 6907 6896 6895 6894 ] final   72.89 input  -60.11 | X-H torsion
[ 7974 7965 7964 7962 ] final   20.12 input  175.53 | X-H torsion
[ 8008 7997 7996 7995 ] final -115.17 input   59.86 | X-H torsion
[ 10167 10162 10161 10158 ] final -162.07 input  -65.29 | X-H torsion
[ 10718 10713 10712 10709 ] final  -89.57 input   66.30 | X-H torsion
[ 10763 10752 10751 10750 ] final -113.59 input  -60.55 | X-H torsion
[ 11005 11000 10999 10996 ] final  -94.35 input  -57.11 | X-H torsion

> <Gold.Protein.ActiveResidues>
 VAL166  LYS551  ARG553  GLY616  TRP617  ASP618  TYR619  PRO620  LYS621  CYS622 
 ASP623  PHE694  ASN695  SER759  ASP760  ASP761  ALA762  ILE779  LEU786  VAL792 
 PHE793  MET794  SER795  GLU796  ALA797  LYS798  CYS799  TRP800  GLU811  SER814 

> <Gold.Protein.RotatedAtoms>
  152.4893  134.4503  159.9572 H   0  0  0  0  0  0  0  0  0  0  0  0  # atno 6907 bound_to 6896
  151.4494  133.3615  159.2801 H   0  0  0  0  0  0  0  0  0  0  0  0  # atno 6908 bound_to 6896
  150.9032  134.8470  159.7435 H   0  0  0  0  0  0  0  0  0  0  0  0  # atno 6909 bound_to 6896
  146.2124  139.8216  142.8678 H   0  0  0  0  0  0  0  0  0  0  0  0  # atno 7974 bound_to 7965
  155.0479  140.0392  157.2533 H   0  0  0  0  0  0  0  0  0  0  0  0  # atno 8008 bound_to 7997
  154.7162  140.2702  155.6559 H   0  0  0  0  0  0  0  0  0  0  0  0  # atno 8009 bound_to 7997
  156.2804  140.2712  156.1819 H   0  0  0  0  0  0  0  0  0  0  0  0  # atno 8010 bound_to 7997
  139.6419  144.0244  152.2098 H   0  0  0  0  0  0  0  0  0  0  0  0  # atno 10167 bound_to 10162
  155.9985  130.4877  150.5191 H   0  0  0  0  0  0  0  0  0  0  0  0  # atno 10718 bound_to 10713
  154.8403  135.4448  154.1374 H   0  0  0  0  0  0  0  0  0  0  0  0  # atno 10763 bound_to 10752
  153.2568  135.6932  153.7627 H   0  0  0  0  0  0  0  0  0  0  0  0  # atno 10764 bound_to 10752
  153.6918  135.3386  155.3179 H   0  0  0  0  0  0  0  0  0  0  0  0  # atno 10765 bound_to 10752
  141.1473  133.7950  157.0285 H   0  0  0  0  0  0  0  0  0  0  0  0  # atno 11005 bound_to 11000
  145.3090  141.0215  143.3565 LP  0  0  0  0  0  0  0  0  0  0  0  0  # atno 17320 bound_to 7965
  144.8949  139.4725  143.6660 LP  0  0  0  0  0  0  0  0  0  0  0  0  # atno 17321 bound_to 7965
  139.9936  144.6344  150.7792 LP  0  0  0  0  0  0  0  0  0  0  0  0  # atno 17342 bound_to 10162
  140.7495  143.2939  151.3256 LP  0  0  0  0  0  0  0  0  0  0  0  0  # atno 17343 bound_to 10162
  157.3154  131.0672  151.1970 LP  0  0  0  0  0  0  0  0  0  0  0  0  # atno 17370 bound_to 10713
  157.2902  130.6792  149.6110 LP  0  0  0  0  0  0  0  0  0  0  0  0  # atno 17371 bound_to 10713
  140.0769  134.9670  157.1560 LP  0  0  0  0  0  0  0  0  0  0  0  0  # atno 17394 bound_to 11000
  140.3631  134.2472  155.7185 LP  0  0  0  0  0  0  0  0  0  0  0  0  # atno 17395 bound_to 11000

$$$$
