AV-unprocessed.smi:1032|AV-procd|sdf|4489|dock6
  -GOLD-   22720 2473D 1   1.00000     0.00000
 Structure written by MMmdl.
 47 48  0  0  0  0  0  0  0  0  3 V2000
  151.3100  140.2159  156.2483 C   0  0  0  0  0  0  0  0  0  0  0  0
  151.1594  139.5185  154.8852 C   0  0  2  0  0  0  0  0  0  0  0  0
  149.7106  139.0875  154.5917 C   0  0  0  0  0  0  0  0  0  0  0  0
  149.2886  137.8575  155.4155 C   0  0  0  0  0  0  0  0  0  0  0  0
  150.2264  136.7230  155.2059 N   0  3  2  0  0  0  0  0  0  0  0  0
  149.7910  135.4696  155.8746 C   0  0  0  0  0  0  0  0  0  0  0  0
  150.6691  134.2596  155.4936 C   0  0  1  0  0  0  0  0  0  0  0  0
  151.0014  133.5965  156.6978 O   0  0  0  0  0  0  0  0  0  0  0  0
  149.9069  133.2717  154.5865 C   0  0  0  0  0  0  0  0  0  0  0  0
  148.9909  133.9554  153.6783 N   0  0  0  0  0  0  0  0  0  0  0  0
  147.8599  133.4299  153.1867 C   0  0  0  0  0  0  0  0  0  0  0  0
  147.4828  132.2846  153.4323 O   0  0  0  0  0  0  0  0  0  0  0  0
  147.2224  134.3020  152.3865 N   0  0  0  0  0  0  0  0  0  0  0  0
  145.9839  134.1368  151.7083 C   0  0  0  0  0  0  0  0  0  0  0  0
  145.3824  135.2882  151.1530 C   0  0  0  0  0  0  0  0  0  0  0  0
  144.1447  135.1743  150.4877 C   0  0  0  0  0  0  0  0  0  0  0  0
  143.5389  133.9712  150.3955 N   0  3  0  0  0  0  0  0  0  0  0  0
  144.0671  132.8457  150.9224 C   0  0  0  0  0  0  0  0  0  0  0  0
  145.3031  132.8972  151.5985 C   0  0  0  0  0  0  0  0  0  0  0  0
  151.6218  137.0949  155.5533 C   0  0  0  0  0  0  0  0  0  0  0  0
  152.0959  138.3065  154.7308 C   0  0  0  0  0  0  0  0  0  0  0  0
  151.0479  139.5604  157.0782 H   0  0  0  0  0  0  0  0  0  0  0  0
  150.6693  141.0962  156.3087 H   0  0  0  0  0  0  0  0  0  0  0  0
  152.3362  140.5497  156.4038 H   0  0  0  0  0  0  0  0  0  0  0  0
  151.4435  140.2534  154.1306 H   0  0  0  0  0  0  0  0  0  0  0  0
  149.0252  139.9155  154.7770 H   0  0  0  0  0  0  0  0  0  0  0  0
  149.6165  138.8500  153.5310 H   0  0  0  0  0  0  0  0  0  0  0  0
  149.2451  138.1068  156.4766 H   0  0  0  0  0  0  0  0  0  0  0  0
  148.2791  137.5703  155.1234 H   0  0  0  0  0  0  0  0  0  0  0  0
  149.8289  135.5940  156.9584 H   0  0  0  0  0  0  0  0  0  0  0  0
  148.7445  135.2796  155.6310 H   0  0  0  0  0  0  0  0  0  0  0  0
  151.5804  134.5887  154.9945 H   0  0  0  0  0  0  0  0  0  0  0  0
  151.7009  132.9845  156.5220 H   0  0  0  0  0  0  0  0  0  0  0  0
  150.5877  132.6094  154.0478 H   0  0  0  0  0  0  0  0  0  0  0  0
  149.2836  132.6224  155.2020 H   0  0  0  0  0  0  0  0  0  0  0  0
  149.2287  134.9023  153.4208 H   0  0  0  0  0  0  0  0  0  0  0  0
  147.7027  135.1715  152.2062 H   0  0  0  0  0  0  0  0  0  0  0  0
  145.8646  136.2521  151.2291 H   0  0  0  0  0  0  0  0  0  0  0  0
  143.6240  136.0040  150.0320 H   0  0  0  0  0  0  0  0  0  0  0  0
  143.4860  131.9440  150.7944 H   0  0  0  0  0  0  0  0  0  0  0  0
  145.6964  131.9893  152.0299 H   0  0  0  0  0  0  0  0  0  0  0  0
  151.6925  137.3017  156.6218 H   0  0  0  0  0  0  0  0  0  0  0  0
  152.2852  136.2530  155.3524 H   0  0  0  0  0  0  0  0  0  0  0  0
  152.1400  138.0221  153.6784 H   0  0  0  0  0  0  0  0  0  0  0  0
  153.1142  138.5764  155.0129 H   0  0  0  0  0  0  0  0  0  0  0  0
  150.2317  136.5219  154.2158 H   0  0  0  0  0  0  0  0  0  0  0  0
  142.6427  133.9106  149.9116 H   0  0  0  0  0  0  0  0  0  0  0  0
  1  2  1  0  0  0  0
  1 22  1  0  0  0  0
  1 23  1  0  0  0  0
  1 24  1  0  0  0  0
  2 21  1  0  0  0  0
  2  3  1  0  0  0  0
  2 25  1  0  0  0  0
  3  4  1  0  0  0  0
  3 26  1  0  0  0  0
  3 27  1  0  0  0  0
  4  5  1  0  0  0  0
  4 28  1  0  0  0  0
  4 29  1  0  0  0  0
  5  6  1  0  0  0  0
  5 20  1  0  0  0  0
  5 46  1  0  0  0  0
  6  7  1  0  0  0  0
  6 30  1  0  0  0  0
  6 31  1  0  0  0  0
  7  8  1  0  0  0  0
  7  9  1  0  0  0  0
  7 32  1  0  0  0  0
  8 33  1  0  0  0  0
  9 10  1  0  0  0  0
  9 34  1  0  0  0  0
  9 35  1  0  0  0  0
 10 11  1  0  0  0  0
 10 36  1  0  0  0  0
 11 12  2  0  0  0  0
 11 13  1  0  0  0  0
 13 14  1  0  0  0  0
 13 37  1  0  0  0  0
 14 19  1  0  0  0  0
 14 15  2  0  0  0  0
 15 16  1  0  0  0  0
 15 38  1  0  0  0  0
 16 17  2  0  0  0  0
 16 39  1  0  0  0  0
 17 18  1  0  0  0  0
 17 47  1  0  0  0  0
 18 19  2  0  0  0  0
 18 40  1  0  0  0  0
 19 41  1  0  0  0  0
 20 21  1  0  0  0  0
 20 42  1  0  0  0  0
 20 43  1  0  0  0  0
 21 44  1  0  0  0  0
 21 45  1  0  0  0  0
M  CHG  1   5   1
M  CHG  1  17   1
M  END
> <s_m_source_file>
AV-unprocessed.smi

> <i_m_source_file_index>
1032

> <i_lp_mmshare_version>
43012

> <i_f3d_flags>
0

> <s_epik_input>
W0NIM11bQ0hdMVtDSDJdW0NIMl1OKFtDSDJdW0NIMl0xKVtDSDJdW0NASF0oW09IXSlbQ0gyXVtOSF1DKD1PKVtOSF1jMltjSF1bY0hdbltjSF1bY0hdMg==

> <s_epik_cmdline>
J2VwaWtfcHl0aG9uJywgJy1waCcsICc3LjAnLCAnLXRuJywgJzgnLCAnLW1hJywgJzIwMCcsICctbWV0YWxfYmluZGluZycsICctaW1hZScsICc8aW5maWxlLm1hZT4nLCAnLW9tYWUnLCAnPG91dGZpbGUubWFlPic=

> <r_epik_Ionization_Penalty>
1.02509

> <r_epik_Ionization_Penalty_Charging>
1.02507

> <r_epik_Ionization_Penalty_Neutral>
1.85474e-05

> <r_epik_State_Penalty>
1.07411

> <r_epik_Charging_Adjusted_Penalty>
2.09917

> <i_epik_Tot_Q>
2

> <i_epik_Tot_abs_Q>
2

> <r_epik_Metal_State_Penalty>
1.1725

> <b_epik_Metal_Only>
0

> <s_lp_Force_Field>
OPLS_2005

> <r_lp_Energy>
32.8821

> <b_lp_Chiralities_Consistent>
1

> <s_lp_Variant>
AV-unprocessed.smi:1032-8

> <Gold.Version>
5.8.1

> <Gold.Id.Protein>
6NUR|6NUR_protein|mol2

> <Gold.PLP.Fitness>
46.6776

> <Gold.PLP.PLP>
-37.6305

> <Gold.PLP.part.hbond>
-3.7333

> <Gold.PLP.part.metal>
0.0000

> <Gold.PLP.part.buried>
-3.6198

> <Gold.PLP.part.nonpolar>
-31.3774

> <Gold.PLP.part.repulsive>
0.1621

> <Gold.PLP.ligand.clash>
0.0000

> <Gold.PLP.ligand.torsion>
1.2207

> <Gold.PLP.Chemscore.Hbond>
3.8090

> <Gold.PLP.Chemscore.CHOScore>
0.0000

> <Gold.PLP.Chemscore.Metal>
0.0000

> <Gold.Chemscore.Hbonds>
donor molecule, donor type, donor heavy atom, donor atom, acceptor molecule, acceptor atom, score
      L1  H    10    36       P1  7948  0.59
      L1  H    13    37       P1  7948  1.00
      L1  H    17    47       P1 10186  2.00

> <Gold.PLP.Chemscore.Internal.Correction>
0.0614

> <Gold.Rescore>
     Score         DG    S(hbond)    S(metal)    S(lipo)     H(rot)  DE(clash)    DE(int)     intcor
     13.30     -15.82       2.11        0.00      79.24       2.34       0.01       2.52       ----

> <Gold.Chemscore.Fitness>
13.2972

> <Gold.Chemscore.DG>
-15.8233

> <Gold.Chemscore.ZeroCoef>
-5.4800

> <Gold.Chemscore.Hbond>
2.1140

> <Gold.Chemscore.Metal>
0.0000

> <Gold.Chemscore.Lipo>
79.2402

> <Gold.Chemscore.Internal_Hbond>
0.0000

> <Gold.Chemscore.DEClash>
0.0090

> <Gold.Chemscore.DEInternal>
2.5171

> <Gold.Chemscore.Rot>
2.3393

> <Gold.Chemscore.Internal.Correction>
   9.000000E+99

> <Gold.Chemscore.Hbonds>
donor molecule, donor type, donor heavy atom, donor atom, acceptor molecule, acceptor atom, score
      L1  H    10    36       P1  7948  0.07
      L1  H    13    37       P1  7948  0.96
      L1  H    17    47       P1 10186  0.98

> <Gold.Chemscore.Hbond.Weighted>
-7.0608

> <Gold.Chemscore.Metal.Weighted>
-0.0000

> <Gold.Chemscore.Lipo.Weighted>
-9.2711

> <Gold.Chemscore.Internal_Hbond.Weighted>
0.0000

> <Gold.Chemscore.DEClash.Weighted>
0.0090

> <Gold.Chemscore.DEInternal.Weighted>
2.5171

> <Gold.Chemscore.Rot.Weighted>
5.9886

> <Gold.Chemscore.Internal.Correction.Weighted>
   9.000000E+99

> <Gold.Protein.RotatedTorsions>
[ 6907 6896 6895 6894 ] final  -14.81 input  -60.11 | X-H torsion
[ 7974 7965 7964 7962 ] final    9.24 input  175.53 | X-H torsion
[ 8008 7997 7996 7995 ] final -152.53 input   59.86 | X-H torsion
[ 10167 10162 10161 10158 ] final  167.10 input  -65.29 | X-H torsion
[ 10718 10713 10712 10709 ] final  -65.63 input   66.30 | X-H torsion
[ 10763 10752 10751 10750 ] final   62.73 input  -60.55 | X-H torsion
[ 11005 11000 10999 10996 ] final  -77.74 input  -57.11 | X-H torsion

> <Gold.Protein.ActiveResidues>
 VAL166  LYS551  ARG553  GLY616  TRP617  ASP618  TYR619  PRO620  LYS621  CYS622 
 ASP623  PHE694  ASN695  SER759  ASP760  ASP761  ALA762  ILE779  LEU786  VAL792 
 PHE793  MET794  SER795  GLU796  ALA797  LYS798  CYS799  TRP800  GLU811  SER814 

> <Gold.Protein.RotatedAtoms>
  151.3337  135.0847  159.9346 H   0  0  0  0  0  0  0  0  0  0  0  0  # atno 6907 bound_to 6896
  152.5228  133.9517  159.7685 H   0  0  0  0  0  0  0  0  0  0  0  0  # atno 6908 bound_to 6896
  150.9861  133.6144  159.2745 H   0  0  0  0  0  0  0  0  0  0  0  0  # atno 6909 bound_to 6896
  146.2406  139.9813  142.8436 H   0  0  0  0  0  0  0  0  0  0  0  0  # atno 7974 bound_to 7965
  155.6566  140.0718  157.2568 H   0  0  0  0  0  0  0  0  0  0  0  0  # atno 8008 bound_to 7997
  154.4151  140.1723  156.1782 H   0  0  0  0  0  0  0  0  0  0  0  0  # atno 8009 bound_to 7997
  155.9732  140.3360  155.6598 H   0  0  0  0  0  0  0  0  0  0  0  0  # atno 8010 bound_to 7997
  139.4938  144.3958  151.9466 H   0  0  0  0  0  0  0  0  0  0  0  0  # atno 10167 bound_to 10162
  156.0658  130.4250  150.1592 H   0  0  0  0  0  0  0  0  0  0  0  0  # atno 10718 bound_to 10713
  152.9993  135.5454  154.6240 H   0  0  0  0  0  0  0  0  0  0  0  0  # atno 10763 bound_to 10752
  154.5533  135.2828  155.0990 H   0  0  0  0  0  0  0  0  0  0  0  0  # atno 10764 bound_to 10752
  154.2222  135.6448  153.5201 H   0  0  0  0  0  0  0  0  0  0  0  0  # atno 10765 bound_to 10752
  141.1662  133.7034  156.7865 H   0  0  0  0  0  0  0  0  0  0  0  0  # atno 11005 bound_to 11000
  145.1589  140.9662  143.4388 LP  0  0  0  0  0  0  0  0  0  0  0  0  # atno 17320 bound_to 7965
  145.0134  139.3489  143.6108 LP  0  0  0  0  0  0  0  0  0  0  0  0  # atno 17321 bound_to 7965
  140.3396  144.3219  150.5970 LP  0  0  0  0  0  0  0  0  0  0  0  0  # atno 17342 bound_to 10162
  140.5577  143.2196  151.7819 LP  0  0  0  0  0  0  0  0  0  0  0  0  # atno 17343 bound_to 10162
  156.9652  130.9817  151.3470 LP  0  0  0  0  0  0  0  0  0  0  0  0  # atno 17370 bound_to 10713
  157.5699  130.8303  149.8377 LP  0  0  0  0  0  0  0  0  0  0  0  0  # atno 17371 bound_to 10713
  140.2356  134.8652  157.3521 LP  0  0  0  0  0  0  0  0  0  0  0  0  # atno 17394 bound_to 11000
  140.1847  134.4446  155.7751 LP  0  0  0  0  0  0  0  0  0  0  0  0  # atno 17395 bound_to 11000

$$$$
