AV-unprocessed.smi:1865|AV-procd|sdf|7555|dock6
  -GOLD-   22720 9273D 1   1.00000     0.00000
 Structure written by MMmdl.
 41 42  0  0  0  0  0  0  0  0  2 V2000
  150.3778  140.3770  155.0276 O   0  0  0  0  0  0  0  0  0  0  0  0
  150.0104  141.4111  155.5860 C   0  0  0  0  0  0  0  0  0  0  0  0
  150.9823  142.2148  156.4551 C   0  0  0  0  0  0  0  0  0  0  0  0
  151.3943  141.4744  157.7418 C   0  0  0  0  0  0  0  0  0  0  0  0
  152.2697  142.3297  158.6752 C   0  0  0  0  0  0  0  0  0  0  0  0
  152.5206  141.6825  160.0387 C   0  0  0  0  0  0  0  0  0  0  0  0
  152.9834  142.8343  160.9345 C   0  0  0  0  0  0  0  0  0  0  0  0
  152.3481  144.1056  160.3524 C   0  0  0  0  0  0  0  0  0  0  0  0
  151.6634  143.6887  159.0439 C   0  0  0  0  0  0  0  0  0  0  0  0
  148.7621  141.8938  155.4870 N   0  0  0  0  0  0  0  0  0  0  0  0
  147.6792  141.2658  154.7391 C   0  0  0  0  0  0  0  0  0  0  0  0
  147.2001  142.1490  153.5749 C   0  0  0  0  0  0  0  0  0  0  0  0
  146.1035  143.1055  154.0007 C   0  0  0  0  0  0  0  0  0  0  0  0
  145.6040  144.0750  153.1033 C   0  0  0  0  0  0  0  0  0  0  0  0
  144.5876  144.9546  153.5314 C   0  0  0  0  0  0  0  0  0  0  0  0
  144.0940  144.8448  154.8477 C   0  0  0  0  0  0  0  0  0  0  0  0
  144.5969  143.9051  155.6783 N   0  3  0  0  0  0  0  0  0  0  0  0
  145.5699  143.0444  155.3066 C   0  0  0  0  0  0  0  0  0  0  0  0
  151.8730  142.4570  155.8731 H   0  0  0  0  0  0  0  0  0  0  0  0
  150.5044  143.1627  156.7039 H   0  0  0  0  0  0  0  0  0  0  0  0
  150.5076  141.1393  158.2824 H   0  0  0  0  0  0  0  0  0  0  0  0
  151.9453  140.5720  157.4722 H   0  0  0  0  0  0  0  0  0  0  0  0
  153.2381  142.4997  158.2016 H   0  0  0  0  0  0  0  0  0  0  0  0
  151.5912  141.2671  160.4311 H   0  0  0  0  0  0  0  0  0  0  0  0
  153.2502  140.8736  159.9911 H   0  0  0  0  0  0  0  0  0  0  0  0
  152.7066  142.6739  161.9768 H   0  0  0  0  0  0  0  0  0  0  0  0
  154.0700  142.9185  160.8942 H   0  0  0  0  0  0  0  0  0  0  0  0
  151.6281  144.5457  161.0431 H   0  0  0  0  0  0  0  0  0  0  0  0
  153.1172  144.8554  160.1631 H   0  0  0  0  0  0  0  0  0  0  0  0
  151.7945  144.4309  158.2558 H   0  0  0  0  0  0  0  0  0  0  0  0
  150.5918  143.5817  159.2177 H   0  0  0  0  0  0  0  0  0  0  0  0
  148.5435  142.7480  155.9794 H   0  0  0  0  0  0  0  0  0  0  0  0
  148.0020  140.2897  154.3726 H   0  0  0  0  0  0  0  0  0  0  0  0
  146.8550  141.0811  155.4287 H   0  0  0  0  0  0  0  0  0  0  0  0
  148.0364  142.7197  153.1682 H   0  0  0  0  0  0  0  0  0  0  0  0
  146.8250  141.5310  152.7580 H   0  0  0  0  0  0  0  0  0  0  0  0
  145.9953  144.1474  152.0989 H   0  0  0  0  0  0  0  0  0  0  0  0
  144.1934  145.7032  152.8598 H   0  0  0  0  0  0  0  0  0  0  0  0
  143.3191  145.4757  155.2582 H   0  0  0  0  0  0  0  0  0  0  0  0
  145.8914  142.3400  156.0602 H   0  0  0  0  0  0  0  0  0  0  0  0
  144.2265  143.8433  156.6271 H   0  0  0  0  0  0  0  0  0  0  0  0
  1  2  2  0  0  0  0
  2  3  1  0  0  0  0
  2 10  1  0  0  0  0
  3  4  1  0  0  0  0
  3 19  1  0  0  0  0
  3 20  1  0  0  0  0
  4  5  1  0  0  0  0
  4 21  1  0  0  0  0
  4 22  1  0  0  0  0
  5  9  1  0  0  0  0
  5  6  1  0  0  0  0
  5 23  1  0  0  0  0
  6  7  1  0  0  0  0
  6 24  1  0  0  0  0
  6 25  1  0  0  0  0
  7  8  1  0  0  0  0
  7 26  1  0  0  0  0
  7 27  1  0  0  0  0
  8  9  1  0  0  0  0
  8 28  1  0  0  0  0
  8 29  1  0  0  0  0
  9 30  1  0  0  0  0
  9 31  1  0  0  0  0
 10 11  1  0  0  0  0
 10 32  1  0  0  0  0
 11 12  1  0  0  0  0
 11 33  1  0  0  0  0
 11 34  1  0  0  0  0
 12 13  1  0  0  0  0
 12 35  1  0  0  0  0
 12 36  1  0  0  0  0
 13 18  1  0  0  0  0
 13 14  2  0  0  0  0
 14 15  1  0  0  0  0
 14 37  1  0  0  0  0
 15 16  2  0  0  0  0
 15 38  1  0  0  0  0
 16 17  1  0  0  0  0
 16 39  1  0  0  0  0
 17 18  2  0  0  0  0
 17 41  1  0  0  0  0
 18 40  1  0  0  0  0
M  CHG  1  17   1
M  END
> <s_m_source_file>
AV-unprocessed.smi

> <i_m_source_file_index>
1865

> <i_lp_mmshare_version>
43012

> <i_f3d_flags>
0

> <s_epik_input>
W0NIMl0xW0NIMl1bQ0gyXVtDSDJdW0NIXTFbQ0gyXVtDSDJdQyg9TylbTkhdW0NIMl1bQ0gyXWMyW2NIXVtjSF1bY0hdbltjSF0y

> <s_epik_cmdline>
J2VwaWtfcHl0aG9uJywgJy1waCcsICc3LjAnLCAnLXRuJywgJzgnLCAnLW1hJywgJzIwMCcsICctbWV0YWxfYmluZGluZycsICctaW1hZScsICc8aW5maWxlLm1hZT4nLCAnLW9tYWUnLCAnPG91dGZpbGUubWFlPic=

> <r_epik_Ionization_Penalty>
2.25234

> <r_epik_Ionization_Penalty_Charging>
2.25234

> <r_epik_Ionization_Penalty_Neutral>
2.26352e-08

> <r_epik_State_Penalty>
2.39956

> <r_epik_Charging_Adjusted_Penalty>
4.6519

> <i_epik_Tot_Q>
1

> <i_epik_Tot_abs_Q>
1

> <r_epik_Metal_State_Penalty>
2.41271

> <b_epik_Metal_Only>
0

> <s_lp_Force_Field>
OPLS_2005

> <r_lp_Energy>
27.3415

> <b_lp_Chiralities_Consistent>
1

> <s_lp_Variant>
AV-unprocessed.smi:1865-2

> <Gold.Version>
5.8.1

> <Gold.Id.Protein>
6NUR|6NUR_protein|mol2

> <Gold.PLP.Fitness>
49.1820

> <Gold.PLP.PLP>
-44.6095

> <Gold.PLP.part.hbond>
-2.0000

> <Gold.PLP.part.metal>
0.0000

> <Gold.PLP.part.buried>
-7.4930

> <Gold.PLP.part.nonpolar>
-34.5949

> <Gold.PLP.part.repulsive>
0.1962

> <Gold.PLP.ligand.clash>
0.0000

> <Gold.PLP.ligand.torsion>
0.2979

> <Gold.PLP.Chemscore.Hbond>
1.7040

> <Gold.PLP.Chemscore.CHOScore>
0.0000

> <Gold.PLP.Chemscore.Metal>
0.0000

> <Gold.Chemscore.Hbonds>
donor molecule, donor type, donor heavy atom, donor atom, acceptor molecule, acceptor atom, score
      L1  H    10    32       P1  8028  0.70
      P1  H  7989  7998       L1     1  0.99

> <Gold.PLP.Chemscore.Internal.Correction>
0.0563

> <Gold.Rescore>
     Score         DG    S(hbond)    S(metal)    S(lipo)     H(rot)  DE(clash)    DE(int)     intcor
     19.53     -19.97       1.51        0.00     117.53       1.69       0.18       0.25       ----

> <Gold.Chemscore.Fitness>
19.5336

> <Gold.Chemscore.DG>
-19.9707

> <Gold.Chemscore.ZeroCoef>
-5.4800

> <Gold.Chemscore.Hbond>
1.5144

> <Gold.Chemscore.Metal>
0.0000

> <Gold.Chemscore.Lipo>
117.5280

> <Gold.Chemscore.Internal_Hbond>
0.0000

> <Gold.Chemscore.DEClash>
0.1832

> <Gold.Chemscore.DEInternal>
0.2538

> <Gold.Chemscore.Rot>
1.6868

> <Gold.Chemscore.Internal.Correction>
   9.000000E+99

> <Gold.Chemscore.Hbonds>
donor molecule, donor type, donor heavy atom, donor atom, acceptor molecule, acceptor atom, score
      L1  H    10    32       P1  8028  0.65
      P1  H  7989  7998       L1     1  0.58

> <Gold.Chemscore.Hbond.Weighted>
-5.0582

> <Gold.Chemscore.Metal.Weighted>
-0.0000

> <Gold.Chemscore.Lipo.Weighted>
-13.7508

> <Gold.Chemscore.Internal_Hbond.Weighted>
0.0000

> <Gold.Chemscore.DEClash.Weighted>
0.1832

> <Gold.Chemscore.DEInternal.Weighted>
0.2538

> <Gold.Chemscore.Rot.Weighted>
4.3183

> <Gold.Chemscore.Internal.Correction.Weighted>
   9.000000E+99

> <Gold.Protein.RotatedTorsions>
[ 6907 6896 6895 6894 ] final -127.88 input  -60.11 | X-H torsion
[ 7974 7965 7964 7962 ] final   26.29 input  175.53 | X-H torsion
[ 8008 7997 7996 7995 ] final -109.04 input   59.86 | X-H torsion
[ 10167 10162 10161 10158 ] final  -29.23 input  -65.29 | X-H torsion
[ 10718 10713 10712 10709 ] final   36.88 input   66.30 | X-H torsion
[ 10763 10752 10751 10750 ] final  117.76 input  -60.55 | X-H torsion
[ 11005 11000 10999 10996 ] final  -17.47 input  -57.11 | X-H torsion

> <Gold.Protein.ActiveResidues>
 VAL166  LYS551  ARG553  GLY616  TRP617  ASP618  TYR619  PRO620  LYS621  CYS622 
 ASP623  PHE694  ASN695  SER759  ASP760  ASP761  ALA762  ILE779  LEU786  VAL792 
 PHE793  MET794  SER795  GLU796  ALA797  LYS798  CYS799  TRP800  GLU811  SER814 

> <Gold.Protein.RotatedAtoms>
  150.9119  133.6986  159.2852 H   0  0  0  0  0  0  0  0  0  0  0  0  # atno 6907 bound_to 6896
  151.4470  135.1025  159.9696 H   0  0  0  0  0  0  0  0  0  0  0  0  # atno 6908 bound_to 6896
  152.4934  133.8514  159.7259 H   0  0  0  0  0  0  0  0  0  0  0  0  # atno 6909 bound_to 6896
  146.1845  139.7349  142.8876 H   0  0  0  0  0  0  0  0  0  0  0  0  # atno 7974 bound_to 7965
  154.9533  140.0400  157.2155 H   0  0  0  0  0  0  0  0  0  0  0  0  # atno 8008 bound_to 7997
  154.7957  140.2843  155.5936 H   0  0  0  0  0  0  0  0  0  0  0  0  # atno 8009 bound_to 7997
  156.2955  140.2564  156.2815 H   0  0  0  0  0  0  0  0  0  0  0  0  # atno 8010 bound_to 7997
  140.7262  143.3945  151.1371 H   0  0  0  0  0  0  0  0  0  0  0  0  # atno 10167 bound_to 10162
  157.3402  130.7544  149.6907 H   0  0  0  0  0  0  0  0  0  0  0  0  # atno 10718 bound_to 10713
  153.5572  135.3528  155.2784 H   0  0  0  0  0  0  0  0  0  0  0  0  # atno 10763 bound_to 10752
  154.8699  135.4128  154.2871 H   0  0  0  0  0  0  0  0  0  0  0  0  # atno 10764 bound_to 10752
  153.3609  135.7060  153.6782 H   0  0  0  0  0  0  0  0  0  0  0  0  # atno 10765 bound_to 10752
  140.8171  133.8096  155.9622 H   0  0  0  0  0  0  0  0  0  0  0  0  # atno 11005 bound_to 11000
  145.3979  141.0381  143.3087 LP  0  0  0  0  0  0  0  0  0  0  0  0  # atno 17320 bound_to 7965
  144.8373  139.5529  143.6916 LP  0  0  0  0  0  0  0  0  0  0  0  0  # atno 17321 bound_to 7965
  139.7555  143.8713  152.3088 LP  0  0  0  0  0  0  0  0  0  0  0  0  # atno 17342 bound_to 10162
  139.8581  144.7131  150.9132 LP  0  0  0  0  0  0  0  0  0  0  0  0  # atno 17343 bound_to 10162
  155.9707  130.4170  150.4256 LP  0  0  0  0  0  0  0  0  0  0  0  0  # atno 17370 bound_to 10713
  157.2303  131.0502  151.2496 LP  0  0  0  0  0  0  0  0  0  0  0  0  # atno 17371 bound_to 10713
  140.9137  134.2228  157.4970 LP  0  0  0  0  0  0  0  0  0  0  0  0  # atno 17394 bound_to 11000
  139.8710  134.9762  156.4911 LP  0  0  0  0  0  0  0  0  0  0  0  0  # atno 17395 bound_to 11000

$$$$
