#       Name:                AV-unprocessed.smi:1941
#       Creating user name   scv26
#       Creation time:       Fri Mar 27 09:59:10 2020


#       File generated by GOLD software.
#

@<TRIPOS>MOLECULE
AV-unprocessed.smi:1941
    45    46     1
SMALL
NO_CHARGES


@<TRIPOS>ATOM
      1 ****        -6.8096   0.2887   2.5704 C.3            1 S1                 0.0000
      2 ****        -5.8445   0.3267   1.4355 C.2            1 S1                 0.0000
      3 ****        -4.5186   0.2823   1.5897 N.2            1 S1                 0.0000
      4 ****        -3.8330   0.3344   0.3717 C.2            1 S1                 0.0000
      5 ****        -2.3351   0.2916   0.3512 C.3            1 S1                 0.0000
      6 ****        -1.7917  -1.1352   0.5376 C.3            1 S1                 0.0000
      7 ****        -0.3339  -1.1637   0.5081 N.am           1 S1                 0.0000
      8 ****         0.4090  -1.1402  -0.6071 C.2            1 S1                 0.0000
      9 ****        -0.0598  -1.1045  -1.7450 O.2            1 S1                 0.0000
     10 ****         1.7204  -1.1473  -0.3298 N.am           1 S1                 0.0000
     11 ****         2.8049  -1.0954  -1.3101 C.3            1 S1                 0.0000
     12 ****         3.6290  -2.3887  -1.2352 C.3            1 S1                 0.0000
     13 ****         3.6762   0.1592  -1.0947 C.3            1 S1                 0.0000
     14 ****         2.9590   1.5037  -1.2893 C.3            1 S1                 0.0000
     15 ****         3.5708   2.4136  -0.2320 C.3            1 S1                 0.0000
     16 ****         4.6361   1.5477   0.4369 C.3            1 S1                 0.0000
     17 ****         4.1701   0.2238   0.2361 O.3            1 S1                 0.0000
     18 ****        -4.6671   0.4162  -0.7154 C.2            1 S1                 0.0000
     19 ****        -6.3451   0.4336  -0.2476 S.3            1 S1                 0.0000
     20 ****        -6.2815   0.2834   3.5246 H              1 S1                 0.0000
     21 ****        -7.4248  -0.6088   2.5061 H              1 S1                 0.0000
     22 ****        -7.4594   1.1632   2.5355 H              1 S1                 0.0000
     23 ****        -1.9704   0.7043  -0.5904 H              1 S1                 0.0000
     24 ****        -1.9348   0.9379   1.1336 H              1 S1                 0.0000
     25 ****        -2.1188  -1.5360   1.4973 H              1 S1                 0.0000
     26 ****        -2.1929  -1.8000  -0.2294 H              1 S1                 0.0000
     27 ****         0.1408  -1.1937   1.3985 H              1 S1                 0.0000
     28 ****         1.9974  -1.1703   0.6408 H              1 S1                 0.0000
     29 ****         2.3950  -1.0361  -2.3198 H              1 S1                 0.0000
     30 ****         4.4281  -2.3876  -1.9770 H              1 S1                 0.0000
     31 ****         3.0056  -3.2628  -1.4265 H              1 S1                 0.0000
     32 ****         4.0870  -2.5140  -0.2534 H              1 S1                 0.0000
     33 ****         4.5349   0.1241  -1.7679 H              1 S1                 0.0000
     34 ****         3.1082   1.8873  -2.2989 H              1 S1                 0.0000
     35 ****         1.8839   1.4252  -1.1269 H              1 S1                 0.0000
     36 ****         3.9920   3.3268  -0.6535 H              1 S1                 0.0000
     37 ****         2.8088   2.6991   0.4941 H              1 S1                 0.0000
     38 ****         5.6021   1.6708  -0.0552 H              1 S1                 0.0000
     39 ****         4.7595   1.7749   1.4960 H              1 S1                 0.0000
     40 ****        -4.3961   0.4654  -1.7598 H              1 S1                 0.0000
     41 ****        -4.0655   0.2188   2.4789 LP             1 S1                 0.0000
     42 ****        -1.0510  -1.0914  -1.8772 LP             1 S1                 0.0000
     43 ****         0.5505  -1.0886  -2.5369 LP             1 S1                 0.0000
     44 ****         4.9197  -0.4270   0.3570 LP             1 S1                 0.0000
     45 ****         3.4388   0.0142   0.8852 LP             1 S1                 0.0000
@<TRIPOS>BOND
    1    1    2 1     
    2    1   20 1     
    3    1   21 1     
    4    1   22 1     
    5    2   19 1     
    6    2    3 2     
    7    3    4 1     
    8    4    5 1     
    9    4   18 2     
   10    5    6 1     
   11    5   23 1     
   12    5   24 1     
   13    6    7 1     
   14    6   25 1     
   15    6   26 1     
   16    7    8 am    
   17    7   27 1     
   18    8    9 2     
   19    8   10 am    
   20   10   11 1     
   21   10   28 1     
   22   11   12 1     
   23   11   13 1     
   24   11   29 1     
   25   12   30 1     
   26   12   31 1     
   27   12   32 1     
   28   13   17 1     
   29   13   14 1     
   30   13   33 1     
   31   14   15 1     
   32   14   34 1     
   33   14   35 1     
   34   15   16 1     
   35   15   36 1     
   36   15   37 1     
   37   16   17 1     
   38   16   38 1     
   39   16   39 1     
   40   18   19 1     
   41   18   40 1     
   42    3   41 1     
   43    9   42 1     
   44    9   43 1     
   45   17   44 1     
   46   17   45 1     
@<TRIPOS>SUBSTRUCTURE
      1 S1             1
@<TRIPOS>SET
LONE_PAIRS      STATIC     ATOMS    <user>   **** ""
5 41 42 43 44 45
DONOR_HYDROGENS      STATIC     ATOMS    <user>   **** ""
2 27 28
ATOM$BLUE        STATIC     ATOMS    COLORGROUP SYSTEM
5 41 42 43 44 45
ATOM$RED        STATIC     ATOMS    COLORGROUP SYSTEM
2 27 28
