AV-unprocessed.smi:21|AV-procd|sdf|138|dock1
  -GOLD-   2262015333D 1   1.00000     0.00000
 Structure written by MMmdl.
 62 65  0  0  0  0  0  0  0  0  2 V2000
  145.0367  130.8419  151.2352 C   0  0  0  0  0  0  0  0  0  0  0  0
  145.2132  132.1324  151.7983 O   0  0  0  0  0  0  0  0  0  0  0  0
  144.4500  133.1471  151.1581 C   0  0  2  0  0  0  0  0  0  0  0  0
  145.0267  134.5066  151.5310 C   0  0  0  0  0  0  0  0  0  0  0  0
  144.4310  134.8030  152.9143 C   0  0  1  0  0  0  0  0  0  0  0  0
  144.3767  136.3110  153.2651 C   0  0  0  0  0  0  0  0  0  0  0  0
  145.6036  137.0188  152.8946 N   0  0  0  0  0  0  0  0  0  0  0  0
  145.7782  137.4266  151.5064 C   0  0  0  0  0  0  0  0  0  0  0  0
  146.3525  137.6088  153.8659 C   0  0  0  0  0  0  0  0  0  0  0  0
  146.4838  136.9592  155.0524 N   0  0  0  0  0  0  0  0  0  0  0  0
  147.2065  137.4876  156.0435 C   0  0  0  0  0  0  0  0  0  0  0  0
  147.8687  138.6442  156.0660 N   0  0  0  0  0  0  0  0  0  0  0  0
  147.7377  139.3105  154.8841 C   0  0  0  0  0  0  0  0  0  0  0  0
  147.0078  138.8716  153.7410 C   0  0  0  0  0  0  0  0  0  0  0  0
  147.0975  139.8323  152.7383 N   0  0  0  0  0  0  0  0  0  0  0  0
  147.8452  140.7706  153.2504 C   0  0  0  0  0  0  0  0  0  0  0  0
  148.2758  140.5367  154.5349 N   0  0  0  0  0  0  0  0  0  0  0  0
  149.1118  141.4107  155.3384 C   0  0  0  0  0  0  0  0  0  0  0  0
  149.4087  140.8633  156.7595 C   0  0  2  0  0  0  0  0  0  0  0  0
  149.8173  141.9842  157.7496 C   0  0  0  0  0  0  0  0  0  0  0  0
  148.8467  143.0089  157.8159 O   0  0  0  0  0  0  0  0  0  0  0  0
  150.4936  139.7566  156.6984 C   0  0  2  0  0  0  0  0  0  0  0  0
  151.0754  139.3488  158.0425 C   0  0  0  0  0  0  0  0  0  0  0  0
  152.3705  138.6607  157.6330 C   0  0  0  0  0  0  0  0  0  0  0  0
  152.8427  139.4040  156.5179 O   0  0  0  0  0  0  0  0  0  0  0  0
  151.7728  140.1502  155.9444 C   0  0  0  0  0  0  0  0  0  0  0  0
  143.1276  134.0771  152.9530 N   0  3  1  0  0  0  0  0  0  0  0  0
  141.9009  134.8711  153.2000 C   0  0  0  0  0  0  0  0  0  0  0  0
  143.0365  133.2263  151.7431 C   0  0  0  0  0  0  0  0  0  0  0  0
  144.4495  133.0069  150.0756 H   0  0  0  0  0  0  0  0  0  0  0  0
  145.0525  134.3014  153.6574 H   0  0  0  0  0  0  0  0  0  0  0  0
  145.6474  130.1214  151.7790 H   0  0  0  0  0  0  0  0  0  0  0  0
  145.3497  130.8226  150.1906 H   0  0  0  0  0  0  0  0  0  0  0  0
  143.9999  130.5107  151.2942 H   0  0  0  0  0  0  0  0  0  0  0  0
  146.1173  134.5191  151.5259 H   0  0  0  0  0  0  0  0  0  0  0  0
  144.6838  135.2515  150.8114 H   0  0  0  0  0  0  0  0  0  0  0  0
  143.4993  136.7770  152.8166 H   0  0  0  0  0  0  0  0  0  0  0  0
  144.2573  136.4321  154.3419 H   0  0  0  0  0  0  0  0  0  0  0  0
  146.8355  137.5271  151.2592 H   0  0  0  0  0  0  0  0  0  0  0  0
  145.2804  138.3778  151.3169 H   0  0  0  0  0  0  0  0  0  0  0  0
  145.3515  136.6838  150.8321 H   0  0  0  0  0  0  0  0  0  0  0  0
  147.2624  136.8991  156.9476 H   0  0  0  0  0  0  0  0  0  0  0  0
  148.1073  141.6638  152.7021 H   0  0  0  0  0  0  0  0  0  0  0  0
  150.0378  141.5642  154.7846 H   0  0  0  0  0  0  0  0  0  0  0  0
  148.6309  142.3872  155.4062 H   0  0  0  0  0  0  0  0  0  0  0  0
  148.4969  140.3976  157.1374 H   0  0  0  0  0  0  0  0  0  0  0  0
  149.9241  141.5999  158.7629 H   0  0  0  0  0  0  0  0  0  0  0  0
  150.7826  142.4105  157.4753 H   0  0  0  0  0  0  0  0  0  0  0  0
  149.0272  143.6380  157.1339 H   0  0  0  0  0  0  0  0  0  0  0  0
  150.0742  138.8664  156.2264 H   0  0  0  0  0  0  0  0  0  0  0  0
  151.2944  140.2287  158.6491 H   0  0  0  0  0  0  0  0  0  0  0  0
  150.4221  138.6900  158.6153 H   0  0  0  0  0  0  0  0  0  0  0  0
  153.1059  138.6322  158.4373 H   0  0  0  0  0  0  0  0  0  0  0  0
  152.1732  137.6362  157.3142 H   0  0  0  0  0  0  0  0  0  0  0  0
  151.6985  139.9514  154.8750 H   0  0  0  0  0  0  0  0  0  0  0  0
  151.9928  141.2106  156.0738 H   0  0  0  0  0  0  0  0  0  0  0  0
  141.7472  135.6220  152.4239 H   0  0  0  0  0  0  0  0  0  0  0  0
  141.9399  135.3675  154.1694 H   0  0  0  0  0  0  0  0  0  0  0  0
  141.0293  134.2156  153.2097 H   0  0  0  0  0  0  0  0  0  0  0  0
  142.3849  133.7065  151.0109 H   0  0  0  0  0  0  0  0  0  0  0  0
  142.6022  132.2538  151.9737 H   0  0  0  0  0  0  0  0  0  0  0  0
  143.2064  133.4405  153.7336 H   0  0  0  0  0  0  0  0  0  0  0  0
  1  2  1  0  0  0  0
  1 32  1  0  0  0  0
  1 33  1  0  0  0  0
  1 34  1  0  0  0  0
  2  3  1  0  0  0  0
  3 30  1  0  0  0  0
  3 29  1  0  0  0  0
  3  4  1  0  0  0  0
  4  5  1  0  0  0  0
  4 35  1  0  0  0  0
  4 36  1  0  0  0  0
  5 31  1  0  0  0  0
  5  6  1  0  0  0  0
  5 27  1  0  0  0  0
  6  7  1  0  0  0  0
  6 37  1  0  0  0  0
  6 38  1  0  0  0  0
  7  8  1  0  0  0  0
  7  9  1  0  0  0  0
  8 39  1  0  0  0  0
  8 40  1  0  0  0  0
  8 41  1  0  0  0  0
  9 14  1  0  0  0  0
  9 10  2  0  0  0  0
 10 11  1  0  0  0  0
 11 12  2  0  0  0  0
 11 42  1  0  0  0  0
 12 13  1  0  0  0  0
 13 17  1  0  0  0  0
 13 14  2  0  0  0  0
 14 15  1  0  0  0  0
 15 16  2  0  0  0  0
 16 17  1  0  0  0  0
 16 43  1  0  0  0  0
 17 18  1  0  0  0  0
 18 19  1  0  0  0  0
 18 44  1  0  0  0  0
 18 45  1  0  0  0  0
 19 20  1  0  0  0  0
 19 22  1  0  0  0  0
 19 46  1  0  0  0  0
 20 21  1  0  0  0  0
 20 47  1  0  0  0  0
 20 48  1  0  0  0  0
 21 49  1  0  0  0  0
 22 26  1  0  0  0  0
 22 23  1  0  0  0  0
 22 50  1  0  0  0  0
 23 24  1  0  0  0  0
 23 51  1  0  0  0  0
 23 52  1  0  0  0  0
 24 25  1  0  0  0  0
 24 53  1  0  0  0  0
 24 54  1  0  0  0  0
 25 26  1  0  0  0  0
 26 55  1  0  0  0  0
 26 56  1  0  0  0  0
 27 28  1  0  0  0  0
 27 29  1  0  0  0  0
 27 62  1  0  0  0  0
 28 57  1  0  0  0  0
 28 58  1  0  0  0  0
 28 59  1  0  0  0  0
 29 60  1  0  0  0  0
 29 61  1  0  0  0  0
M  CHG  1  27   1
M  END
> <s_m_source_file>
AV-unprocessed.smi

> <i_m_source_file_index>
21

> <i_lp_mmshare_version>
43012

> <i_f3d_flags>
0

> <s_epik_input>
W0NIM11PW0NASF0xW0NIMl1bQ0BIXShOKFtDSDNdKVtDSDJdMSlbQ0gyXU4oW0NIM10pYyhuW2NIXW4yKWMoYzIzKW5bY0hdbjNbQ0gyXVtDQEhdKFtDSDJdW09IXSlbQ0BASF00W0NIMl1bQ0gyXU9bQ0gyXTQ=

> <s_epik_cmdline>
J2VwaWtfcHl0aG9uJywgJy1waCcsICc3LjAnLCAnLXRuJywgJzgnLCAnLW1hJywgJzIwMCcsICctbWV0YWxfYmluZGluZycsICctaW1hZScsICc8aW5maWxlLm1hZT4nLCAnLW9tYWUnLCAnPG91dGZpbGUubWFlPic=

> <r_lp_tautomer_probability>
1

> <r_epik_Ionization_Penalty>
0.0157465

> <r_epik_Ionization_Penalty_Charging>
0.015354

> <r_epik_Ionization_Penalty_Neutral>
0.000392529

> <r_epik_State_Penalty>
0.0120612

> <r_epik_Charging_Adjusted_Penalty>
0.0274152

> <i_epik_Tot_Q>
1

> <i_epik_Tot_abs_Q>
1

> <r_epik_Metal_State_Penalty>
0.0121253

> <b_epik_Metal_Only>
0

> <s_lp_Force_Field>
OPLS_2005

> <r_lp_Energy>
61.8504

> <b_lp_Chiralities_Consistent>
1

> <s_lp_Variant>
AV-unprocessed.smi:21-18

> <Gold.Version>
5.8.1

> <Gold.Id.Protein>
6NUR|6NUR_protein|mol2

> <Gold.PLP.Fitness>
45.9942

> <Gold.PLP.PLP>
-35.7625

> <Gold.PLP.part.hbond>
-3.5464

> <Gold.PLP.part.metal>
0.0000

> <Gold.PLP.part.buried>
-3.1505

> <Gold.PLP.part.nonpolar>
-31.9501

> <Gold.PLP.part.repulsive>
1.4943

> <Gold.PLP.ligand.clash>
0.0000

> <Gold.PLP.ligand.torsion>
1.2309

> <Gold.PLP.Chemscore.Hbond>
3.9500

> <Gold.PLP.Chemscore.CHOScore>
0.0664

> <Gold.PLP.Chemscore.Metal>
0.0000

> <Gold.Chemscore.Hbonds>
donor molecule, donor type, donor heavy atom, donor atom, acceptor molecule, acceptor atom, score
      L1  H    21    49       P1  8028  1.00
      L1  H    27    62       P1 10957  1.92
      P1  H  7997  8009       L1    25  1.00
      L1  C    16    43       P1  7957  0.09

> <Gold.PLP.Chemscore.Internal.Correction>
0.6443

> <Gold.Rescore>
     Score         DG    S(hbond)    S(metal)    S(lipo)     H(rot)  DE(clash)    DE(int)     intcor
      8.05     -16.37       2.55        0.00      87.62       3.08       2.38       5.94       ----

> <Gold.Chemscore.Fitness>
8.0490

> <Gold.Chemscore.DG>
-16.3662

> <Gold.Chemscore.ZeroCoef>
-5.4800

> <Gold.Chemscore.Hbond>
2.5476

> <Gold.Chemscore.Metal>
0.0000

> <Gold.Chemscore.Lipo>
87.6184

> <Gold.Chemscore.Internal_Hbond>
0.0000

> <Gold.Chemscore.DEClash>
2.3806

> <Gold.Chemscore.DEInternal>
5.9366

> <Gold.Chemscore.Rot>
3.0758

> <Gold.Chemscore.Internal.Correction>
   9.000000E+99

> <Gold.Chemscore.Hbonds>
donor molecule, donor type, donor heavy atom, donor atom, acceptor molecule, acceptor atom, score
      L1  H    21    49       P1  8028  0.45
      L1  H    27    62       P1 10957  0.88
      P1  H  7997  8009       L1    25  0.92

> <Gold.Chemscore.Hbond.Weighted>
-8.5090

> <Gold.Chemscore.Metal.Weighted>
-0.0000

> <Gold.Chemscore.Lipo.Weighted>
-10.2514

> <Gold.Chemscore.Internal_Hbond.Weighted>
0.0000

> <Gold.Chemscore.DEClash.Weighted>
2.3806

> <Gold.Chemscore.DEInternal.Weighted>
5.9366

> <Gold.Chemscore.Rot.Weighted>
7.8741

> <Gold.Chemscore.Internal.Correction.Weighted>
   9.000000E+99

> <Gold.Protein.RotatedTorsions>
[ 6907 6896 6895 6894 ] final  -90.66 input  -60.11 | X-H torsion
[ 7974 7965 7964 7962 ] final  -39.60 input  175.53 | X-H torsion
[ 8008 7997 7996 7995 ] final -167.48 input   59.86 | X-H torsion
[ 10167 10162 10161 10158 ] final  159.82 input  -65.29 | X-H torsion
[ 10718 10713 10712 10709 ] final  120.72 input   66.30 | X-H torsion
[ 10763 10752 10751 10750 ] final -169.04 input  -60.55 | X-H torsion
[ 11005 11000 10999 10996 ] final -135.71 input  -57.11 | X-H torsion

> <Gold.Protein.ActiveResidues>
 VAL166  LYS551  ARG553  GLY616  TRP617  ASP618  TYR619  PRO620  LYS621  CYS622 
 ASP623  PHE694  ASN695  SER759  ASP760  ASP761  ALA762  ILE779  LEU786  VAL792 
 PHE793  MET794  SER795  GLU796  ALA797  LYS798  CYS799  TRP800  GLU811  SER814 

> <Gold.Protein.RotatedAtoms>
  150.6884  134.2397  159.4467 H   0  0  0  0  0  0  0  0  0  0  0  0  # atno 6907 bound_to 6896
  152.0342  134.9747  160.0582 H   0  0  0  0  0  0  0  0  0  0  0  0  # atno 6908 bound_to 6896
  152.1274  133.4353  159.4741 H   0  0  0  0  0  0  0  0  0  0  0  0  # atno 6909 bound_to 6896
  146.0381  140.6644  142.9100 H   0  0  0  0  0  0  0  0  0  0  0  0  # atno 7974 bound_to 7965
  155.8782  140.1004  157.1503 H   0  0  0  0  0  0  0  0  0  0  0  0  # atno 8008 bound_to 7997
  154.4003  140.1334  156.4227 H   0  0  0  0  0  0  0  0  0  0  0  0  # atno 8009 bound_to 7997
  155.7673  140.3461  155.5231 H   0  0  0  0  0  0  0  0  0  0  0  0  # atno 8010 bound_to 7997
  139.4835  144.4693  151.8598 H   0  0  0  0  0  0  0  0  0  0  0  0  # atno 10167 bound_to 10162
  157.5870  131.1069  150.8074 H   0  0  0  0  0  0  0  0  0  0  0  0  # atno 10718 bound_to 10713
  154.6565  135.2919  154.9921 H   0  0  0  0  0  0  0  0  0  0  0  0  # atno 10763 bound_to 10752
  154.0996  135.6579  153.4870 H   0  0  0  0  0  0  0  0  0  0  0  0  # atno 10764 bound_to 10752
  153.0405  135.5239  154.7496 H   0  0  0  0  0  0  0  0  0  0  0  0  # atno 10765 bound_to 10752
  140.8873  134.1856  157.4551 H   0  0  0  0  0  0  0  0  0  0  0  0  # atno 11005 bound_to 11000
  144.7061  140.3858  143.7117 LP  0  0  0  0  0  0  0  0  0  0  0  0  # atno 17320 bound_to 7965
  145.6929  139.1643  143.2636 LP  0  0  0  0  0  0  0  0  0  0  0  0  # atno 17321 bound_to 7965
  140.4161  144.2305  150.5888 LP  0  0  0  0  0  0  0  0  0  0  0  0  # atno 17342 bound_to 10162
  140.4920  143.2344  151.8805 LP  0  0  0  0  0  0  0  0  0  0  0  0  # atno 17343 bound_to 10162
  156.8506  130.5079  149.5312 LP  0  0  0  0  0  0  0  0  0  0  0  0  # atno 17370 bound_to 10713
  156.0920  130.5903  150.9749 LP  0  0  0  0  0  0  0  0  0  0  0  0  # atno 17371 bound_to 10713
  139.8725  134.9843  156.5234 LP  0  0  0  0  0  0  0  0  0  0  0  0  # atno 17394 bound_to 11000
  140.8390  133.8220  155.9056 LP  0  0  0  0  0  0  0  0  0  0  0  0  # atno 17395 bound_to 11000

$$$$
