AV-unprocessed.smi:283|AV-procd|sdf|2155|dock2
  -GOLD-   2262021503D 1   1.00000     0.00000
 Structure written by MMmdl.
 48 51  0  0  0  0  0  0  0  0  1 V2000
  142.6180  136.8816  162.2100 C   0  0  0  0  0  0  0  0  0  0  0  0
  143.7764  137.0521  161.2183 C   0  0  2  0  0  0  0  0  0  0  0  0
  143.3509  136.6281  159.8853 N   0  0  0  0  0  0  0  0  0  0  0  0
  144.1913  136.7065  158.8297 C   0  0  0  0  0  0  0  0  0  0  0  0
  145.1498  137.6596  158.9119 N   0  0  0  0  0  0  0  0  0  0  0  0
  146.0066  137.8373  157.9026 C   0  0  0  0  0  0  0  0  0  0  0  0
  146.0723  137.1860  156.7403 N   0  0  0  0  0  0  0  0  0  0  0  0
  145.1158  136.2169  156.6529 C   0  0  0  0  0  0  0  0  0  0  0  0
  144.1553  135.8995  157.6547 C   0  0  0  0  0  0  0  0  0  0  0  0
  143.3850  134.8260  157.2252 N   0  0  0  0  0  0  0  0  0  0  0  0
  143.8480  134.5477  156.0384 C   0  0  0  0  0  0  0  0  0  0  0  0
  144.8625  135.3684  155.5943 N   0  0  0  0  0  0  0  0  0  0  0  0
  145.6068  135.3209  154.2924 C   0  0  1  0  0  0  0  0  0  0  0  0
  144.6849  135.0277  153.2818 O   0  0  0  0  0  0  0  0  0  0  0  0
  144.3430  136.1980  152.5414 C   0  0  1  0  0  0  0  0  0  0  0  0
  143.1300  136.9082  153.1760 C   0  0  0  0  0  0  0  0  0  0  0  0
  142.9430  138.1787  152.5903 O   0  0  0  0  0  0  0  0  0  0  0  0
  145.6330  137.0208  152.5818 C   0  0  2  0  0  0  0  0  0  0  0  0
  146.4617  136.6160  151.5054 O   0  0  0  0  0  0  0  0  0  0  0  0
  146.2235  136.6942  153.9531 C   0  0  2  0  0  0  0  0  0  0  0  0
  147.6387  136.6821  153.9361 O   0  0  0  0  0  0  0  0  0  0  0  0
  145.0350  136.3549  161.7454 C   0  0  0  0  0  0  0  0  0  0  0  0
  146.2046  137.1086  162.0004 C   0  0  0  0  0  0  0  0  0  0  0  0
  147.3652  136.4883  162.4992 C   0  0  0  0  0  0  0  0  0  0  0  0
  147.3730  135.1029  162.7404 C   0  0  0  0  0  0  0  0  0  0  0  0
  146.2217  134.3395  162.4740 C   0  0  0  0  0  0  0  0  0  0  0  0
  145.0571  134.9554  161.9736 C   0  0  0  0  0  0  0  0  0  0  0  0
  143.6781  133.9632  161.6512 Cl  0  0  0  0  0  0  0  0  0  0  0  0
  146.3282  134.5126  154.4181 H   0  0  0  0  0  0  0  0  0  0  0  0
  144.0813  135.9048  151.5232 H   0  0  0  0  0  0  0  0  0  0  0  0
  145.4458  138.0895  152.4693 H   0  0  0  0  0  0  0  0  0  0  0  0
  145.8801  137.4405  154.6708 H   0  0  0  0  0  0  0  0  0  0  0  0
  142.8815  137.2759  163.1917 H   0  0  0  0  0  0  0  0  0  0  0  0
  142.3526  135.8313  162.3340 H   0  0  0  0  0  0  0  0  0  0  0  0
  141.7281  137.4132  161.8716 H   0  0  0  0  0  0  0  0  0  0  0  0
  143.9686  138.1207  161.1413 H   0  0  0  0  0  0  0  0  0  0  0  0
  142.5415  136.0248  159.8752 H   0  0  0  0  0  0  0  0  0  0  0  0
  146.7383  138.6192  158.0424 H   0  0  0  0  0  0  0  0  0  0  0  0
  143.4447  133.7365  155.4503 H   0  0  0  0  0  0  0  0  0  0  0  0
  142.2246  136.3244  153.0088 H   0  0  0  0  0  0  0  0  0  0  0  0
  143.2463  137.0244  154.2536 H   0  0  0  0  0  0  0  0  0  0  0  0
  143.1896  138.1289  151.6792 H   0  0  0  0  0  0  0  0  0  0  0  0
  147.3627  136.6851  151.7823 H   0  0  0  0  0  0  0  0  0  0  0  0
  147.9234  136.5990  153.0387 H   0  0  0  0  0  0  0  0  0  0  0  0
  146.2165  138.1736  161.8205 H   0  0  0  0  0  0  0  0  0  0  0  0
  148.2492  137.0763  162.6972 H   0  0  0  0  0  0  0  0  0  0  0  0
  148.2625  134.6252  163.1242 H   0  0  0  0  0  0  0  0  0  0  0  0
  146.2336  133.2744  162.6534 H   0  0  0  0  0  0  0  0  0  0  0  0
  1  2  1  0  0  0  0
  1 33  1  0  0  0  0
  1 34  1  0  0  0  0
  1 35  1  0  0  0  0
  2  3  1  0  0  0  0
  2 22  1  0  0  0  0
  2 36  1  0  0  0  0
  3  4  1  0  0  0  0
  3 37  1  0  0  0  0
  4  9  1  0  0  0  0
  4  5  2  0  0  0  0
  5  6  1  0  0  0  0
  6  7  2  0  0  0  0
  6 38  1  0  0  0  0
  7  8  1  0  0  0  0
  8 12  1  0  0  0  0
  8  9  2  0  0  0  0
  9 10  1  0  0  0  0
 10 11  2  0  0  0  0
 11 12  1  0  0  0  0
 11 39  1  0  0  0  0
 12 13  1  0  0  0  0
 13 29  1  0  0  0  0
 13 20  1  0  0  0  0
 13 14  1  0  0  0  0
 14 15  1  0  0  0  0
 15 30  1  0  0  0  0
 15 16  1  0  0  0  0
 15 18  1  0  0  0  0
 16 17  1  0  0  0  0
 16 40  1  0  0  0  0
 16 41  1  0  0  0  0
 17 42  1  0  0  0  0
 18 31  1  0  0  0  0
 18 19  1  0  0  0  0
 18 20  1  0  0  0  0
 19 43  1  0  0  0  0
 20 32  1  0  0  0  0
 20 21  1  0  0  0  0
 21 44  1  0  0  0  0
 22 27  1  0  0  0  0
 22 23  2  0  0  0  0
 23 24  1  0  0  0  0
 23 45  1  0  0  0  0
 24 25  2  0  0  0  0
 24 46  1  0  0  0  0
 25 26  1  0  0  0  0
 25 47  1  0  0  0  0
 26 27  2  0  0  0  0
 26 48  1  0  0  0  0
 27 28  1  0  0  0  0
M  END
> <s_m_source_file>
AV-unprocessed.smi

> <i_m_source_file_index>
283

> <i_lp_mmshare_version>
43012

> <i_f3d_flags>
0

> <s_epik_input>
Q2xjMVtjSF1bY0hdW2NIXVtjSF1jMVtDQEhdKFtDSDNdKVtOSF1jKG5bY0hdbjIpYyhjMjMpbltjSF1uM1tDQEBIXTRPW0NASF0oW0NIMl1bT0hdKVtDQEBIXShbT0hdKVtDQEhdNFtPSF0=

> <s_epik_cmdline>
J2VwaWtfcHl0aG9uJywgJy1waCcsICc3LjAnLCAnLXRuJywgJzgnLCAnLW1hJywgJzIwMCcsICctbWV0YWxfYmluZGluZycsICctaW1hZScsICc8aW5maWxlLm1hZT4nLCAnLW9tYWUnLCAnPG91dGZpbGUubWFlPic=

> <r_lp_tautomer_probability>
1

> <r_epik_Ionization_Penalty>
0.000266407

> <r_epik_Ionization_Penalty_Charging>
0

> <r_epik_Ionization_Penalty_Neutral>
0.000266407

> <r_epik_State_Penalty>
-0

> <r_epik_Charging_Adjusted_Penalty>
0

> <i_epik_Tot_Q>
0

> <i_epik_Tot_abs_Q>
0

> <r_epik_Metal_State_Penalty>
-0

> <b_epik_Metal_Only>
0

> <s_epik_Chemistry_Notes>
This compound contains an acetal/aminal-like group ( X-CH(R)-Y where X, Y are N, S, or O) that may be acid/base labile, releasing an aldehyde.

> <s_lp_Force_Field>
OPLS_2005

> <r_lp_Energy>
45.281

> <b_lp_Chiralities_Consistent>
1

> <s_lp_Variant>
AV-unprocessed.smi:283-31

> <Gold.Version>
5.8.1

> <Gold.Id.Protein>
6NUR|6NUR_protein|mol2

> <Gold.PLP.Fitness>
44.2240

> <Gold.PLP.PLP>
-33.8708

> <Gold.PLP.part.hbond>
-4.1907

> <Gold.PLP.part.metal>
0.0000

> <Gold.PLP.part.buried>
-5.6519

> <Gold.PLP.part.nonpolar>
-23.4214

> <Gold.PLP.part.repulsive>
0.1170

> <Gold.PLP.ligand.clash>
0.0000

> <Gold.PLP.ligand.torsion>
0.8700

> <Gold.PLP.Chemscore.Hbond>
2.9588

> <Gold.PLP.Chemscore.CHOScore>
1.0000

> <Gold.PLP.Chemscore.Metal>
0.0000

> <Gold.Chemscore.Hbonds>
donor molecule, donor type, donor heavy atom, donor atom, acceptor molecule, acceptor atom, score
      L1  H    17    42       P1 10171  1.00
      L1  H    19    43       P1  7948  1.00
      L1  H    21    44       P1  7948  1.00
      L1  C    11    39       P1 10957  1.00

> <Gold.PLP.Chemscore.Internal.Correction>
0.2169

> <Gold.Rescore>
     Score         DG    S(hbond)    S(metal)    S(lipo)     H(rot)  DE(clash)    DE(int)     intcor
      9.80     -12.05       2.74        0.00      67.55       4.10       0.00       2.25       ----

> <Gold.Chemscore.Fitness>
9.8002

> <Gold.Chemscore.DG>
-12.0521

> <Gold.Chemscore.ZeroCoef>
-5.4800

> <Gold.Chemscore.Hbond>
2.7414

> <Gold.Chemscore.Metal>
0.0000

> <Gold.Chemscore.Lipo>
67.5539

> <Gold.Chemscore.Internal_Hbond>
0.0000

> <Gold.Chemscore.DEClash>
0.0000

> <Gold.Chemscore.DEInternal>
2.2518

> <Gold.Chemscore.Rot>
4.0968

> <Gold.Chemscore.Internal.Correction>
   9.000000E+99

> <Gold.Chemscore.Hbonds>
donor molecule, donor type, donor heavy atom, donor atom, acceptor molecule, acceptor atom, score
      L1  H    17    42       P1 10171  0.47
      L1  H    19    43       P1  7948  0.97
      L1  H    21    44       P1  7948  0.97

> <Gold.Chemscore.Hbond.Weighted>
-9.1562

> <Gold.Chemscore.Metal.Weighted>
-0.0000

> <Gold.Chemscore.Lipo.Weighted>
-7.9038

> <Gold.Chemscore.Internal_Hbond.Weighted>
0.0000

> <Gold.Chemscore.DEClash.Weighted>
0.0000

> <Gold.Chemscore.DEInternal.Weighted>
2.2518

> <Gold.Chemscore.Rot.Weighted>
10.4879

> <Gold.Chemscore.Internal.Correction.Weighted>
   9.000000E+99

> <Gold.Protein.RotatedTorsions>
[ 6907 6896 6895 6894 ] final  -57.57 input  -60.11 | X-H torsion
[ 7974 7965 7964 7962 ] final   14.20 input  175.53 | X-H torsion
[ 8008 7997 7996 7995 ] final -178.98 input   59.86 | X-H torsion
[ 10167 10162 10161 10158 ] final  135.52 input  -65.29 | X-H torsion
[ 10718 10713 10712 10709 ] final  -61.90 input   66.30 | X-H torsion
[ 10763 10752 10751 10750 ] final  -94.40 input  -60.55 | X-H torsion
[ 11005 11000 10999 10996 ] final   51.99 input  -57.11 | X-H torsion

> <Gold.Protein.ActiveResidues>
 VAL166  LYS551  ARG553  GLY616  TRP617  ASP618  TYR619  PRO620  LYS621  CYS622 
 ASP623  PHE694  ASN695  SER759  ASP760  ASP761  ALA762  ILE779  LEU786  VAL792 
 PHE793  MET794  SER795  GLU796  ALA797  LYS798  CYS799  TRP800  GLU811  SER814 

> <Gold.Protein.RotatedAtoms>
  150.8075  134.7209  159.6657 H   0  0  0  0  0  0  0  0  0  0  0  0  # atno 6907 bound_to 6896
  152.4195  134.5978  160.0001 H   0  0  0  0  0  0  0  0  0  0  0  0  # atno 6908 bound_to 6896
  151.6197  133.3303  159.3121 H   0  0  0  0  0  0  0  0  0  0  0  0  # atno 6909 bound_to 6896
  146.2311  139.9076  142.8529 H   0  0  0  0  0  0  0  0  0  0  0  0  # atno 7974 bound_to 7965
  156.0252  140.1270  157.0316 H   0  0  0  0  0  0  0  0  0  0  0  0  # atno 8008 bound_to 7997
  154.4327  140.1060  156.6091 H   0  0  0  0  0  0  0  0  0  0  0  0  # atno 8009 bound_to 7997
  155.5887  140.3469  155.4562 H   0  0  0  0  0  0  0  0  0  0  0  0  # atno 8010 bound_to 7997
  139.5214  144.6513  151.5295 H   0  0  0  0  0  0  0  0  0  0  0  0  # atno 10167 bound_to 10162
  156.0890  130.4203  150.1060 H   0  0  0  0  0  0  0  0  0  0  0  0  # atno 10718 bound_to 10713
  154.7051  135.5159  153.8583 H   0  0  0  0  0  0  0  0  0  0  0  0  # atno 10763 bound_to 10752
  153.0735  135.6609  154.0206 H   0  0  0  0  0  0  0  0  0  0  0  0  # atno 10764 bound_to 10752
  154.0058  135.3006  155.3377 H   0  0  0  0  0  0  0  0  0  0  0  0  # atno 10765 bound_to 10752
  140.0886  134.5240  155.8874 H   0  0  0  0  0  0  0  0  0  0  0  0  # atno 11005 bound_to 11000
  145.2261  140.9954  143.4017 LP  0  0  0  0  0  0  0  0  0  0  0  0  # atno 17320 bound_to 7965
  144.9569  139.4022  143.6375 LP  0  0  0  0  0  0  0  0  0  0  0  0  # atno 17321 bound_to 7965
  140.6318  143.9060  150.6612 LP  0  0  0  0  0  0  0  0  0  0  0  0  # atno 17342 bound_to 10162
  140.2367  143.3694  152.1521 LP  0  0  0  0  0  0  0  0  0  0  0  0  # atno 17343 bound_to 10162
  156.9074  130.9640  151.3568 LP  0  0  0  0  0  0  0  0  0  0  0  0  # atno 17370 bound_to 10713
  157.6034  130.8529  149.8837 LP  0  0  0  0  0  0  0  0  0  0  0  0  # atno 17371 bound_to 10713
  141.2071  133.6661  156.6282 LP  0  0  0  0  0  0  0  0  0  0  0  0  # atno 17394 bound_to 11000
  140.3384  134.7870  157.4379 LP  0  0  0  0  0  0  0  0  0  0  0  0  # atno 17395 bound_to 11000

$$$$
