#       Name:                AV-unprocessed.smi:281
#       Creating user name   scv26
#       Creation time:       Thu Mar 26 21:41:13 2020


#       File generated by GOLD software.
#

@<TRIPOS>MOLECULE
AV-unprocessed.smi:281
    67    71     1
SMALL
NO_CHARGES


@<TRIPOS>ATOM
      1 ****        -3.6611  -1.4996   2.2318 C.3            1 S1                 0.0000
      2 ****        -3.1865  -0.3930   1.2851 C.3            1 S1                 0.0000
      3 ****        -1.6654  -0.1903   1.3465 C.3            1 S1                 0.0000
      4 ****        -1.2873   0.9249   0.4894 N.3            1 S1                 0.0000
      5 ****         0.0343   1.0003   0.1897 C.ar           1 S1                 0.0000
      6 ****         0.7583   2.0852   0.5758 N.ar           1 S1                 0.0000
      7 ****         2.0609   2.1654   0.2893 C.ar           1 S1                 0.0000
      8 ****         2.8265   1.2903  -0.3647 N.ar           1 S1                 0.0000
      9 ****         2.1064   0.2017  -0.7602 C.ar           1 S1                 0.0000
     10 ****         0.7190  -0.0198  -0.5301 C.ar           1 S1                 0.0000
     11 ****         0.3337  -1.2278  -1.0999 N.2            1 S1                 0.0000
     12 ****         1.4313  -1.6968  -1.6273 C.2            1 S1                 0.0000
     13 ****         2.5473  -0.9079  -1.4608 N.pl3          1 S1                 0.0000
     14 ****         3.8934  -1.1825  -1.9416 C.3            1 S1                 0.0000
     15 ****         4.7738  -1.9471  -0.9243 C.3            1 S1                 0.0000
     16 ****         4.8841  -1.1828   0.2641 O.3            1 S1                 0.0000
     17 ****         6.1785  -2.2198  -1.4487 C.3            1 S1                 0.0000
     18 ****         6.5629  -3.5067  -0.7314 C.3            1 S1                 0.0000
     19 ****         5.3558  -4.2490  -0.7493 O.3            1 S1                 0.0000
     20 ****         4.2631  -3.3557  -0.5544 C.3            1 S1                 0.0000
     21 ****        -1.9893   2.1594   0.8260 C.3            1 S1                 0.0000
     22 ****        -3.5242   1.9477   0.8344 C.3            1 S1                 0.0000
     23 ****        -4.2240   3.1724   1.4018 C.3            1 S1                 0.0000
     24 ****        -4.3050   4.1049   0.1978 C.3            1 S1                 0.0000
     25 ****        -4.3746   3.2574  -0.9445 O.3            1 S1                 0.0000
     26 ****        -4.1388   1.8970  -0.5836 C.3            1 S1                 0.0000
     27 ****        -5.5071   1.1938  -0.6764 C.3            1 S1                 0.0000
     28 ****        -3.8465   0.8193   1.6539 O.3            1 S1                 0.0000
     29 ****        -3.1971  -2.4545   1.9833 H              1 S1                 0.0000
     30 ****        -4.7418  -1.6290   2.1678 H              1 S1                 0.0000
     31 ****        -3.4140  -1.2655   3.2676 H              1 S1                 0.0000
     32 ****        -3.4608  -0.6716   0.2677 H              1 S1                 0.0000
     33 ****        -1.3544   0.0274   2.3693 H              1 S1                 0.0000
     34 ****        -1.1622  -1.1105   1.0523 H              1 S1                 0.0000
     35 ****         2.5613   3.0584   0.6335 H              1 S1                 0.0000
     36 ****         1.4542  -2.6381  -2.1567 H              1 S1                 0.0000
     37 ****         3.8122  -1.7500  -2.8696 H              1 S1                 0.0000
     38 ****         4.3625  -0.2335  -2.2055 H              1 S1                 0.0000
     39 ****         5.4256  -1.6566   0.8765 H              1 S1                 0.0000
     40 ****         6.1515  -2.4074  -2.5229 H              1 S1                 0.0000
     41 ****         6.8804  -1.4033  -1.2730 H              1 S1                 0.0000
     42 ****         7.3729  -4.0425  -1.2267 H              1 S1                 0.0000
     43 ****         6.8578  -3.3088   0.3003 H              1 S1                 0.0000
     44 ****         3.9138  -3.4110   0.4779 H              1 S1                 0.0000
     45 ****         3.4440  -3.6827  -1.1940 H              1 S1                 0.0000
     46 ****        -1.6567   2.4868   1.8123 H              1 S1                 0.0000
     47 ****        -1.7213   2.9462   0.1195 H              1 S1                 0.0000
     48 ****        -5.2307   2.9131   1.7318 H              1 S1                 0.0000
     49 ****        -3.7068   3.6187   2.2517 H              1 S1                 0.0000
     50 ****        -5.1643   4.7739   0.2491 H              1 S1                 0.0000
     51 ****        -3.4055   4.7169   0.1235 H              1 S1                 0.0000
     52 ****        -3.4541   1.4371  -1.2971 H              1 S1                 0.0000
     53 ****        -5.4427   0.1339  -0.4354 H              1 S1                 0.0000
     54 ****        -5.9069   1.2688  -1.6877 H              1 S1                 0.0000
     55 ****        -6.2388   1.6405  -0.0033 H              1 S1                 0.0000
     56 ****        -1.6425   0.7182  -0.4222 LP             1 S1                 0.0000
     57 ****         0.3131   2.8272   1.0770 LP             1 S1                 0.0000
     58 ****         3.8026   1.4163  -0.5421 LP             1 S1                 0.0000
     59 ****        -0.5762  -1.6424  -1.1046 LP             1 S1                 0.0000
     60 ****         3.9763  -1.0388   0.6579 LP             1 S1                 0.0000
     61 ****         5.3024  -0.2980   0.0584 LP             1 S1                 0.0000
     62 ****         5.3687  -4.9289  -0.0161 LP             1 S1                 0.0000
     63 ****         5.2588  -4.7111  -1.6308 LP             1 S1                 0.0000
     64 ****        -3.6838   3.5447  -1.6081 LP             1 S1                 0.0000
     65 ****        -5.2833   3.3347  -1.3548 LP             1 S1                 0.0000
     66 ****        -3.5946   1.0369   2.5969 LP             1 S1                 0.0000
     67 ****        -4.8331   0.6661   1.5993 LP             1 S1                 0.0000
@<TRIPOS>BOND
    1    1    2 1     
    2    1   29 1     
    3    1   30 1     
    4    1   31 1     
    5    2   28 1     
    6    2    3 1     
    7    2   32 1     
    8    3    4 1     
    9    3   33 1     
   10    3   34 1     
   11    4    5 1     
   12    4   21 1     
   13    5   10 ar    
   14    5    6 ar    
   15    6    7 ar    
   16    7    8 ar    
   17    7   35 1     
   18    8    9 ar    
   19    9   13 1     
   20    9   10 ar    
   21   10   11 1     
   22   11   12 2     
   23   12   13 1     
   24   12   36 1     
   25   13   14 1     
   26   14   15 1     
   27   14   37 1     
   28   14   38 1     
   29   15   20 1     
   30   15   16 1     
   31   15   17 1     
   32   16   39 1     
   33   17   18 1     
   34   17   40 1     
   35   17   41 1     
   36   18   19 1     
   37   18   42 1     
   38   18   43 1     
   39   19   20 1     
   40   20   44 1     
   41   20   45 1     
   42   21   22 1     
   43   21   46 1     
   44   21   47 1     
   45   22   26 1     
   46   22   23 1     
   47   22   28 1     
   48   23   24 1     
   49   23   48 1     
   50   23   49 1     
   51   24   25 1     
   52   24   50 1     
   53   24   51 1     
   54   25   26 1     
   55   26   27 1     
   56   26   52 1     
   57   27   53 1     
   58   27   54 1     
   59   27   55 1     
   60    4   56 1     
   61    6   57 1     
   62    8   58 1     
   63   11   59 1     
   64   16   60 1     
   65   16   61 1     
   66   19   62 1     
   67   19   63 1     
   68   25   64 1     
   69   25   65 1     
   70   28   66 1     
   71   28   67 1     
@<TRIPOS>SUBSTRUCTURE
      1 S1             1
@<TRIPOS>SET
LONE_PAIRS      STATIC     ATOMS    <user>   **** ""
12 56 57 58 59 60 61 62 63 64 65 66 67
DONOR_HYDROGENS      STATIC     ATOMS    <user>   **** ""
1 39
ATOM$BLUE        STATIC     ATOMS    COLORGROUP SYSTEM
12 56 57 58 59 60 61 62 63 64 65 66 67
ATOM$RED        STATIC     ATOMS    COLORGROUP SYSTEM
1 39
