#       Name:                AV-unprocessed.smi:2491
#       Creating user name   scv26
#       Creation time:       Fri Mar 27 13:44:15 2020


#       File generated by GOLD software.
#

@<TRIPOS>MOLECULE
AV-unprocessed.smi:2491
    34    35     1
SMALL
NO_CHARGES


@<TRIPOS>ATOM
      1 ****        -2.3598  -0.4228   0.9401 N.am           1 S1                 0.0000
      2 ****        -1.5635   0.3836   1.6502 C.2            1 S1                 0.0000
      3 ****        -2.0209   1.2039   2.4428 O.2            1 S1                 0.0000
      4 ****        -0.0362   0.2760   1.4518 C.3            1 S1                 0.0000
      5 ****         0.5151  -0.5775   2.6207 C.3            1 S1                 0.0000
      6 ****         1.9220  -0.7433   2.5161 O.3            1 S1                 0.0000
      7 ****         2.2690  -1.4329   1.3260 C.3            1 S1                 0.0000
      8 ****         1.8500  -0.5796   0.1229 C.3            1 S1                 0.0000
      9 ****         0.4206  -0.2685   0.1578 N.3            1 S1                 0.0000
     10 ****        -0.0531   0.2669  -1.0390 C.ar           1 S1                 0.0000
     11 ****        -0.3126   1.5811  -1.0844 N.ar           1 S1                 0.0000
     12 ****        -0.7561   2.0847  -2.2564 C.ar           1 S1                 0.0000
     13 ****        -0.9343   1.2664  -3.3891 C.ar           1 S1                 0.0000
     14 ****        -1.4986   1.9032  -4.8897 Cl             1 S1                 0.0000
     15 ****        -0.6261  -0.0992  -3.2325 C.ar           1 S1                 0.0000
     16 ****        -0.1839  -0.5938  -2.0558 N.ar           1 S1                 0.0000
     17 ****        -3.3611  -0.3697   1.0579 H              1 S1                 0.0000
     18 ****        -1.9564  -1.0834   0.2914 H              1 S1                 0.0000
     19 ****         0.3784   1.2814   1.5462 H              1 S1                 0.0000
     20 ****         0.3034  -0.0954   3.5762 H              1 S1                 0.0000
     21 ****         0.0366  -1.5586   2.6533 H              1 S1                 0.0000
     22 ****         3.3467  -1.5967   1.3132 H              1 S1                 0.0000
     23 ****         1.7953  -2.4157   1.2983 H              1 S1                 0.0000
     24 ****         2.4149   0.3538   0.1157 H              1 S1                 0.0000
     25 ****         2.1097  -1.1105  -0.7940 H              1 S1                 0.0000
     26 ****        -0.9669   3.1435  -2.2890 H              1 S1                 0.0000
     27 ****        -0.7326  -0.7965  -4.0504 H              1 S1                 0.0000
     28 ****        -3.0100   1.2798   2.5686 LP             1 S1                 0.0000
     29 ****        -1.4039   1.7954   2.9619 LP             1 S1                 0.0000
     30 ****         2.2485  -1.2664   3.3034 LP             1 S1                 0.0000
     31 ****         2.3572   0.1570   2.5104 LP             1 S1                 0.0000
     32 ****        -0.0979  -1.1235   0.1671 LP             1 S1                 0.0000
     33 ****        -0.1831   2.1650  -0.2830 LP             1 S1                 0.0000
     34 ****         0.0367  -1.5633  -1.9487 LP             1 S1                 0.0000
@<TRIPOS>BOND
    1    1    2 am    
    2    1   17 1     
    3    1   18 1     
    4    2    3 2     
    5    2    4 1     
    6    4    9 1     
    7    4    5 1     
    8    4   19 1     
    9    5    6 1     
   10    5   20 1     
   11    5   21 1     
   12    6    7 1     
   13    7    8 1     
   14    7   22 1     
   15    7   23 1     
   16    8    9 1     
   17    8   24 1     
   18    8   25 1     
   19    9   10 1     
   20   10   16 ar    
   21   10   11 ar    
   22   11   12 ar    
   23   12   13 ar    
   24   12   26 1     
   25   13   14 1     
   26   13   15 ar    
   27   15   16 ar    
   28   15   27 1     
   29    3   28 1     
   30    3   29 1     
   31    6   30 1     
   32    6   31 1     
   33    9   32 1     
   34   11   33 1     
   35   16   34 1     
@<TRIPOS>SUBSTRUCTURE
      1 S1             1
@<TRIPOS>SET
LONE_PAIRS      STATIC     ATOMS    <user>   **** ""
7 28 29 30 31 32 33 34
DONOR_HYDROGENS      STATIC     ATOMS    <user>   **** ""
2 17 18
ATOM$BLUE        STATIC     ATOMS    COLORGROUP SYSTEM
7 28 29 30 31 32 33 34
ATOM$RED        STATIC     ATOMS    COLORGROUP SYSTEM
2 17 18
