#       Name:                AV-unprocessed.smi:2986
#       Creating user name   scv26
#       Creation time:       Fri Mar 27 16:30:13 2020


#       File generated by GOLD software.
#

@<TRIPOS>MOLECULE
AV-unprocessed.smi:2986
    50    52     1
SMALL
NO_CHARGES


@<TRIPOS>ATOM
      1 ****         1.4405   3.1061  -3.9575 C.3            1 S1                 0.0000
      2 ****         1.1353   2.5829  -2.6770 O.3            1 S1                 0.0000
      3 ****         0.5605   1.2894  -2.7428 C.3            1 S1                 0.0000
      4 ****         0.2637   0.8098  -1.3176 C.3            1 S1                 0.0000
      5 ****        -0.3173  -0.5229  -1.3102 N.pl3          1 S1                 0.0000
      6 ****         0.3285  -1.7143  -1.3020 C.2            1 S1                 0.0000
      7 ****         2.0895  -1.8198  -1.2982 S.3            1 S1                 0.0000
      8 ****         2.3070  -2.6487   0.3083 C.3            1 S1                 0.0000
      9 ****         1.7394  -1.8599   1.4909 C.2            1 S1                 0.0000
     10 ****         0.9724  -2.4186   2.2734 O.2            1 S1                 0.0000
     11 ****         2.1393  -0.5790   1.5905 N.am           1 S1                 0.0000
     12 ****         1.7257   0.4068   2.5218 C.2            1 S1                 0.0000
     13 ****         0.8531   0.2083   3.6310 C.2            1 S1                 0.0000
     14 ****         0.7810   1.4529   4.1900 C.2            1 S1                 0.0000
     15 ****         0.0566   1.9921   5.3752 C.3            1 S1                 0.0000
     16 ****         1.5412   2.3337   3.4853 O.3            1 S1                 0.0000
     17 ****         2.1432   1.6550   2.4195 N.2            1 S1                 0.0000
     18 ****        -0.4513  -2.7953  -1.2890 N.2            1 S1                 0.0000
     19 ****        -1.7221  -2.2541  -1.2921 C.ar           1 S1                 0.0000
     20 ****        -2.9885  -2.8815  -1.2829 C.ar           1 S1                 0.0000
     21 ****        -4.1680  -2.1083  -1.2929 C.ar           1 S1                 0.0000
     22 ****        -4.0985  -0.7001  -1.3127 C.ar           1 S1                 0.0000
     23 ****        -2.8470  -0.0547  -1.3205 C.ar           1 S1                 0.0000
     24 ****        -1.6731  -0.8313  -1.3092 C.ar           1 S1                 0.0000
     25 ****         1.8862   4.0952  -3.8522 H              1 S1                 0.0000
     26 ****         0.5412   3.2047  -4.5671 H              1 S1                 0.0000
     27 ****         2.1533   2.4703  -4.4842 H              1 S1                 0.0000
     28 ****        -0.3597   1.3166  -3.3290 H              1 S1                 0.0000
     29 ****         1.2481   0.6013  -3.2375 H              1 S1                 0.0000
     30 ****         1.1726   0.8116  -0.7164 H              1 S1                 0.0000
     31 ****        -0.4272   1.4954  -0.8261 H              1 S1                 0.0000
     32 ****         1.8399  -3.6335   0.2645 H              1 S1                 0.0000
     33 ****         3.3720  -2.8130   0.4734 H              1 S1                 0.0000
     34 ****         2.7815  -0.2583   0.8803 H              1 S1                 0.0000
     35 ****         0.3560  -0.6863   3.9742 H              1 S1                 0.0000
     36 ****        -0.4706   1.1977   5.9037 H              1 S1                 0.0000
     37 ****        -0.6757   2.7408   5.0729 H              1 S1                 0.0000
     38 ****         0.7513   2.4600   6.0730 H              1 S1                 0.0000
     39 ****        -3.0526  -3.9595  -1.2682 H              1 S1                 0.0000
     40 ****        -5.1306  -2.5982  -1.2855 H              1 S1                 0.0000
     41 ****        -5.0068  -0.1155  -1.3210 H              1 S1                 0.0000
     42 ****        -2.7907   1.0237  -1.3356 H              1 S1                 0.0000
     43 ****         0.4897   3.1981  -2.2246 LP             1 S1                 0.0000
     44 ****         1.9785   2.5324  -2.1418 LP             1 S1                 0.0000
     45 ****         0.7262  -3.3777   2.1332 LP             1 S1                 0.0000
     46 ****         0.5950  -1.9139   3.0498 LP             1 S1                 0.0000
     47 ****         2.2466   2.7199   4.0796 LP             1 S1                 0.0000
     48 ****         0.9634   3.0695   3.1322 LP             1 S1                 0.0000
     49 ****         2.7582   2.0345   1.7282 LP             1 S1                 0.0000
     50 ****        -0.1830  -3.7586  -1.2794 LP             1 S1                 0.0000
@<TRIPOS>BOND
    1    1    2 1     
    2    1   25 1     
    3    1   26 1     
    4    1   27 1     
    5    2    3 1     
    6    3    4 1     
    7    3   28 1     
    8    3   29 1     
    9    4    5 1     
   10    4   30 1     
   11    4   31 1     
   12    5   24 1     
   13    5    6 1     
   14    6    7 1     
   15    6   18 2     
   16    7    8 1     
   17    8    9 1     
   18    8   32 1     
   19    8   33 1     
   20    9   10 2     
   21    9   11 am    
   22   11   12 1     
   23   11   34 1     
   24   12   17 2     
   25   12   13 1     
   26   13   14 2     
   27   13   35 1     
   28   14   15 1     
   29   14   16 1     
   30   15   36 1     
   31   15   37 1     
   32   15   38 1     
   33   16   17 1     
   34   18   19 1     
   35   19   24 ar    
   36   19   20 ar    
   37   20   21 ar    
   38   20   39 1     
   39   21   22 ar    
   40   21   40 1     
   41   22   23 ar    
   42   22   41 1     
   43   23   24 ar    
   44   23   42 1     
   45    2   43 1     
   46    2   44 1     
   47   10   45 1     
   48   10   46 1     
   49   16   47 1     
   50   16   48 1     
   51   17   49 1     
   52   18   50 1     
@<TRIPOS>SUBSTRUCTURE
      1 S1             1
@<TRIPOS>SET
LONE_PAIRS      STATIC     ATOMS    <user>   **** ""
8 43 44 45 46 47 48 49 50
DONOR_HYDROGENS      STATIC     ATOMS    <user>   **** ""
1 34
ATOM$BLUE        STATIC     ATOMS    COLORGROUP SYSTEM
8 43 44 45 46 47 48 49 50
ATOM$RED        STATIC     ATOMS    COLORGROUP SYSTEM
1 34
