AV-unprocessed.smi:1116|AV-procd|sdf|4808|dock10
  -GOLD-   22720 3363D 1   1.00000     0.00000
 Structure written by MMmdl.
 36 37  0  0  0  0  0  0  0  0  1 V2000
  152.6410  142.8875  161.4628 C   0  0  0  0  0  0  0  0  0  0  0  0
  151.9505  142.7700  160.1471 C   0  0  0  0  0  0  0  0  0  0  0  0
  151.6286  141.6034  159.5822 N   0  0  0  0  0  0  0  0  0  0  0  0
  150.9841  141.7604  158.3511 C   0  0  0  0  0  0  0  0  0  0  0  0
  150.5500  140.5548  157.5736 C   0  0  0  0  0  0  0  0  0  0  0  0
  150.9103  140.6612  156.0821 C   0  0  0  0  0  0  0  0  0  0  0  0
  150.9727  139.3483  155.4496 N   0  0  0  0  0  0  0  0  0  0  0  0
  151.9754  138.9128  154.6717 C   0  0  0  0  0  0  0  0  0  0  0  0
  152.9616  139.5977  154.3986 O   0  0  0  0  0  0  0  0  0  0  0  0
  151.8409  137.4831  154.1368 C   0  0  0  0  0  0  0  0  0  0  0  0
  151.8077  136.4153  155.2482 C   0  0  0  0  0  0  0  0  0  0  0  0
  150.3836  136.1129  155.7540 C   0  0  1  0  0  0  0  0  0  0  0  0
  149.5704  135.4152  154.7723 N   0  0  0  0  0  0  0  0  0  0  0  0
  149.1437  134.2241  155.2136 C   0  0  0  0  0  0  0  0  0  0  0  0
  148.4389  133.4342  154.5903 O   0  0  0  0  0  0  0  0  0  0  0  0
  149.6201  134.0474  156.4506 N   0  0  0  0  0  0  0  0  0  0  0  0
  150.3609  135.0748  156.8621 C   0  0  0  0  0  0  0  0  0  0  0  0
  150.9367  135.1864  157.9426 O   0  0  0  0  0  0  0  0  0  0  0  0
  150.8229  143.0748  157.9891 C   0  0  0  0  0  0  0  0  0  0  0  0
  151.4758  144.1628  159.1830 S   0  0  0  0  0  0  0  0  0  0  0  0
  152.8563  141.9009  161.8742 H   0  0  0  0  0  0  0  0  0  0  0  0
  152.0100  143.4300  162.1670 H   0  0  0  0  0  0  0  0  0  0  0  0
  153.5797  143.4287  161.3436 H   0  0  0  0  0  0  0  0  0  0  0  0
  151.0056  139.6600  157.9998 H   0  0  0  0  0  0  0  0  0  0  0  0
  149.4730  140.4178  157.6762 H   0  0  0  0  0  0  0  0  0  0  0  0
  150.1550  141.2496  155.5605 H   0  0  0  0  0  0  0  0  0  0  0  0
  151.8579  141.1867  155.9512 H   0  0  0  0  0  0  0  0  0  0  0  0
  150.1998  138.7218  155.6223 H   0  0  0  0  0  0  0  0  0  0  0  0
  150.9280  137.4269  153.5430 H   0  0  0  0  0  0  0  0  0  0  0  0
  152.6698  137.2820  153.4568 H   0  0  0  0  0  0  0  0  0  0  0  0
  152.2768  135.4982  154.8863 H   0  0  0  0  0  0  0  0  0  0  0  0
  152.4107  136.7523  156.0932 H   0  0  0  0  0  0  0  0  0  0  0  0
  149.8767  137.0212  156.0826 H   0  0  0  0  0  0  0  0  0  0  0  0
  149.3497  135.8012  153.8658 H   0  0  0  0  0  0  0  0  0  0  0  0
  149.4454  133.2235  157.0069 H   0  0  0  0  0  0  0  0  0  0  0  0
  150.3613  143.4678  157.0954 H   0  0  0  0  0  0  0  0  0  0  0  0
  1  2  1  0  0  0  0
  1 21  1  0  0  0  0
  1 22  1  0  0  0  0
  1 23  1  0  0  0  0
  2 20  1  0  0  0  0
  2  3  2  0  0  0  0
  3  4  1  0  0  0  0
  4  5  1  0  0  0  0
  4 19  2  0  0  0  0
  5  6  1  0  0  0  0
  5 24  1  0  0  0  0
  5 25  1  0  0  0  0
  6  7  1  0  0  0  0
  6 26  1  0  0  0  0
  6 27  1  0  0  0  0
  7  8  1  0  0  0  0
  7 28  1  0  0  0  0
  8  9  2  0  0  0  0
  8 10  1  0  0  0  0
 10 11  1  0  0  0  0
 10 29  1  0  0  0  0
 10 30  1  0  0  0  0
 11 12  1  0  0  0  0
 11 31  1  0  0  0  0
 11 32  1  0  0  0  0
 12 17  1  0  0  0  0
 12 13  1  0  0  0  0
 12 33  1  0  0  0  0
 13 14  1  0  0  0  0
 13 34  1  0  0  0  0
 14 15  2  0  0  0  0
 14 16  1  0  0  0  0
 16 17  1  0  0  0  0
 16 35  1  0  0  0  0
 17 18  2  0  0  0  0
 19 20  1  0  0  0  0
 19 36  1  0  0  0  0
M  END
> <s_m_source_file>
AV-unprocessed.smi

> <i_m_source_file_index>
1116

> <i_lp_mmshare_version>
43012

> <i_f3d_flags>
0

> <s_epik_input>
W0NIM11jMW5jKFtjSF1zMSlbQ0gyXVtDSDJdW05IXUMoPU8pW0NIMl1bQ0gyXVtDQEBIXTJbTkhdQyg9TylbTkhdQzI9Tw==

> <s_epik_cmdline>
J2VwaWtfcHl0aG9uJywgJy1waCcsICc3LjAnLCAnLXRuJywgJzgnLCAnLW1hJywgJzIwMCcsICctbWV0YWxfYmluZGluZycsICctaW1hZScsICc8aW5maWxlLm1hZT4nLCAnLW9tYWUnLCAnPG91dGZpbGUubWFlPic=

> <r_lp_tautomer_probability>
1

> <r_epik_Ionization_Penalty>
0.00889251

> <r_epik_Ionization_Penalty_Charging>
0

> <r_epik_Ionization_Penalty_Neutral>
0.00889251

> <r_epik_State_Penalty>
0.00583796

> <r_epik_Charging_Adjusted_Penalty>
0.00583796

> <i_epik_Tot_Q>
0

> <i_epik_Tot_abs_Q>
0

> <r_epik_Metal_State_Penalty>
0.408839

> <b_epik_Metal_Only>
0

> <s_lp_Force_Field>
OPLS_2005

> <r_lp_Energy>
13.0769

> <b_lp_Chiralities_Consistent>
1

> <s_lp_Variant>
AV-unprocessed.smi:1116-2

> <Gold.Version>
5.8.1

> <Gold.Id.Protein>
6NUR|6NUR_protein|mol2

> <Gold.PLP.Fitness>
46.3714

> <Gold.PLP.PLP>
-36.4136

> <Gold.PLP.part.hbond>
-4.4346

> <Gold.PLP.part.metal>
0.0000

> <Gold.PLP.part.buried>
-4.7414

> <Gold.PLP.part.nonpolar>
-28.4444

> <Gold.PLP.part.repulsive>
0.2362

> <Gold.PLP.ligand.clash>
0.0000

> <Gold.PLP.ligand.torsion>
0.5650

> <Gold.PLP.Chemscore.Hbond>
2.6808

> <Gold.PLP.Chemscore.CHOScore>
0.9941

> <Gold.PLP.Chemscore.Metal>
0.0000

> <Gold.Chemscore.Hbonds>
donor molecule, donor type, donor heavy atom, donor atom, acceptor molecule, acceptor atom, score
      L1  H    13    34       P1  7948  0.93
      P1  H  6896  6907       L1    18  0.18
      P1  H  7989  7998       L1     9  0.12
      P1  H  7997  8010       L1     9  0.63
      L1  C    19    36       P1  8028  1.00

> <Gold.PLP.Chemscore.Internal.Correction>
0.0632

> <Gold.Rescore>
     Score         DG    S(hbond)    S(metal)    S(lipo)     H(rot)  DE(clash)    DE(int)     intcor
     14.00     -14.93       2.00        0.00      85.65       2.83       0.02       0.90       ----

> <Gold.Chemscore.Fitness>
13.9992

> <Gold.Chemscore.DG>
-14.9253

> <Gold.Chemscore.ZeroCoef>
-5.4800

> <Gold.Chemscore.Hbond>
1.9985

> <Gold.Chemscore.Metal>
0.0000

> <Gold.Chemscore.Lipo>
85.6530

> <Gold.Chemscore.Internal_Hbond>
0.0000

> <Gold.Chemscore.DEClash>
0.0237

> <Gold.Chemscore.DEInternal>
0.9024

> <Gold.Chemscore.Rot>
2.8324

> <Gold.Chemscore.Internal.Correction>
   9.000000E+99

> <Gold.Chemscore.Hbonds>
donor molecule, donor type, donor heavy atom, donor atom, acceptor molecule, acceptor atom, score
      L1  H    13    34       P1  7948  0.58
      P1  H  6896  6907       L1    18  0.17
      P1  H  7997  8010       L1     9  0.62

> <Gold.Chemscore.Hbond.Weighted>
-6.6749

> <Gold.Chemscore.Metal.Weighted>
-0.0000

> <Gold.Chemscore.Lipo.Weighted>
-10.0214

> <Gold.Chemscore.Internal_Hbond.Weighted>
0.0000

> <Gold.Chemscore.DEClash.Weighted>
0.0237

> <Gold.Chemscore.DEInternal.Weighted>
0.9024

> <Gold.Chemscore.Rot.Weighted>
7.2510

> <Gold.Chemscore.Internal.Correction.Weighted>
   9.000000E+99

> <Gold.Protein.RotatedTorsions>
[ 6907 6896 6895 6894 ] final  -41.60 input  -60.11 | X-H torsion
[ 7974 7965 7964 7962 ] final   27.14 input  175.53 | X-H torsion
[ 8008 7997 7996 7995 ] final  106.99 input   59.86 | X-H torsion
[ 10167 10162 10161 10158 ] final -152.50 input  -65.29 | X-H torsion
[ 10718 10713 10712 10709 ] final   41.40 input   66.30 | X-H torsion
[ 10763 10752 10751 10750 ] final  119.19 input  -60.55 | X-H torsion
[ 11005 11000 10999 10996 ] final  -93.38 input  -57.11 | X-H torsion

> <Gold.Protein.ActiveResidues>
 VAL166  LYS551  ARG553  GLY616  TRP617  ASP618  TYR619  PRO620  LYS621  CYS622 
 ASP623  PHE694  ASN695  SER759  ASP760  ASP761  ALA762  ILE779  LEU786  VAL792 
 PHE793  MET794  SER795  GLU796  ALA797  LYS798  CYS799  TRP800  GLU811  SER814 

> <Gold.Protein.RotatedAtoms>
  150.9649  134.9031  159.7752 H   0  0  0  0  0  0  0  0  0  0  0  0  # atno 6907 bound_to 6896
  152.5170  134.3621  159.9298 H   0  0  0  0  0  0  0  0  0  0  0  0  # atno 6908 bound_to 6896
  151.3632  133.3841  159.2726 H   0  0  0  0  0  0  0  0  0  0  0  0  # atno 6909 bound_to 6896
  146.1800  139.7232  142.8907 H   0  0  0  0  0  0  0  0  0  0  0  0  # atno 7974 bound_to 7965
  156.1788  140.3103  155.9109 H   0  0  0  0  0  0  0  0  0  0  0  0  # atno 8008 bound_to 7997
  155.3429  140.0467  157.3062 H   0  0  0  0  0  0  0  0  0  0  0  0  # atno 8009 bound_to 7997
  154.5319  140.2233  155.8799 H   0  0  0  0  0  0  0  0  0  0  0  0  # atno 8010 bound_to 7997
  139.7176  143.9009  152.2491 H   0  0  0  0  0  0  0  0  0  0  0  0  # atno 10167 bound_to 10162
  157.3931  130.7818  149.7286 H   0  0  0  0  0  0  0  0  0  0  0  0  # atno 10718 bound_to 10713
  153.5792  135.3487  155.2868 H   0  0  0  0  0  0  0  0  0  0  0  0  # atno 10763 bound_to 10752
  154.8670  135.4178  154.2639 H   0  0  0  0  0  0  0  0  0  0  0  0  # atno 10764 bound_to 10752
  153.3421  135.7050  153.6928 H   0  0  0  0  0  0  0  0  0  0  0  0  # atno 10765 bound_to 10752
  141.1498  133.7884  157.0152 H   0  0  0  0  0  0  0  0  0  0  0  0  # atno 11005 bound_to 11000
  145.4103  141.0395  143.3021 LP  0  0  0  0  0  0  0  0  0  0  0  0  # atno 17320 bound_to 7965
  144.8299  139.5646  143.6948 LP  0  0  0  0  0  0  0  0  0  0  0  0  # atno 17321 bound_to 7965
  139.8895  144.6973  150.8786 LP  0  0  0  0  0  0  0  0  0  0  0  0  # atno 17342 bound_to 10162
  140.7747  143.3597  151.1852 LP  0  0  0  0  0  0  0  0  0  0  0  0  # atno 17343 bound_to 10162
  155.9803  130.4030  150.3534 LP  0  0  0  0  0  0  0  0  0  0  0  0  # atno 17370 bound_to 10713
  157.1652  131.0355  151.2822 LP  0  0  0  0  0  0  0  0  0  0  0  0  # atno 17371 bound_to 10713
  140.0852  134.9625  157.1688 LP  0  0  0  0  0  0  0  0  0  0  0  0  # atno 17394 bound_to 11000
  140.3522  134.2586  155.7197 LP  0  0  0  0  0  0  0  0  0  0  0  0  # atno 17395 bound_to 11000

$$$$
