AV-unprocessed.smi:3181|AV-procd|sdf|12150|dock4
  -GOLD-   2272017583D 1   1.00000     0.00000
 Structure written by MMmdl.
 42 43  0  0  0  0  0  0  0  0  2 V2000
  147.6946  141.5286  155.5043 C   0  0  0  0  0  0  0  0  0  0  0  0
  149.1049  140.9170  155.5363 C   0  0  1  0  0  0  0  0  0  0  0  0
  149.4535  140.1442  154.2463 C   0  0  0  0  0  0  0  0  0  0  0  0
  150.5721  139.2358  154.4177 N   0  0  0  0  0  0  0  0  0  0  0  0
  150.6358  137.9083  154.3032 C   0  0  0  0  0  0  0  0  0  0  0  0
  151.8420  137.4091  154.5327 N   0  0  0  0  0  0  0  0  0  0  0  0
  152.5191  138.5637  154.8072 C   0  0  0  0  0  0  0  0  0  0  0  0
  151.8033  139.6871  154.7529 N   0  0  0  0  0  0  0  0  0  0  0  0
  150.1001  141.9893  155.7639 N   0  3  0  0  0  0  0  0  0  0  0  0
  150.5829  142.1513  157.1547 C   0  0  1  0  0  0  0  0  0  0  0  0
  151.3732  140.9177  157.6379 C   0  0  0  0  0  0  0  0  0  0  0  0
  151.9325  141.1224  159.0548 C   0  0  0  0  0  0  0  0  0  0  0  0
  152.7998  142.3933  159.1450 C   0  0  2  0  0  0  0  0  0  0  0  0
  153.4299  142.5577  160.5378 C   0  0  0  0  0  0  0  0  0  0  0  0
  152.0235  143.6479  158.6692 C   0  0  2  0  0  0  0  0  0  0  0  0
  150.9307  144.1263  159.6464 C   0  0  0  0  0  0  0  0  0  0  0  0
  151.4586  143.4167  157.2518 C   0  0  0  0  0  0  0  0  0  0  0  0
  146.9252  140.7602  155.4249 H   0  0  0  0  0  0  0  0  0  0  0  0
  147.5754  142.2080  154.6599 H   0  0  0  0  0  0  0  0  0  0  0  0
  147.4919  142.0916  156.4161 H   0  0  0  0  0  0  0  0  0  0  0  0
  149.1306  140.2194  156.3749 H   0  0  0  0  0  0  0  0  0  0  0  0
  148.5889  139.5739  153.9020 H   0  0  0  0  0  0  0  0  0  0  0  0
  149.7058  140.8349  153.4413 H   0  0  0  0  0  0  0  0  0  0  0  0
  149.7844  137.2956  154.0453 H   0  0  0  0  0  0  0  0  0  0  0  0
  153.5703  138.5767  155.0551 H   0  0  0  0  0  0  0  0  0  0  0  0
  150.8900  141.8420  155.1520 H   0  0  0  0  0  0  0  0  0  0  0  0
  149.7086  142.2876  157.7924 H   0  0  0  0  0  0  0  0  0  0  0  0
  150.7405  140.0301  157.6351 H   0  0  0  0  0  0  0  0  0  0  0  0
  152.1952  140.7136  156.9505 H   0  0  0  0  0  0  0  0  0  0  0  0
  151.1108  141.1761  159.7696 H   0  0  0  0  0  0  0  0  0  0  0  0
  152.5233  140.2505  159.3377 H   0  0  0  0  0  0  0  0  0  0  0  0
  153.6312  142.2581  158.4513 H   0  0  0  0  0  0  0  0  0  0  0  0
  152.6734  142.6105  161.3210 H   0  0  0  0  0  0  0  0  0  0  0  0
  154.0336  143.4638  160.5921 H   0  0  0  0  0  0  0  0  0  0  0  0
  154.0815  141.7154  160.7721 H   0  0  0  0  0  0  0  0  0  0  0  0
  152.7424  144.4653  158.5933 H   0  0  0  0  0  0  0  0  0  0  0  0
  150.1884  143.3545  159.8468 H   0  0  0  0  0  0  0  0  0  0  0  0
  150.4035  144.9924  159.2452 H   0  0  0  0  0  0  0  0  0  0  0  0
  151.3560  144.4320  160.6020 H   0  0  0  0  0  0  0  0  0  0  0  0
  152.2910  143.3301  156.5516 H   0  0  0  0  0  0  0  0  0  0  0  0
  150.8900  144.2914  156.9328 H   0  0  0  0  0  0  0  0  0  0  0  0
  149.6594  142.8598  155.5027 H   0  0  0  0  0  0  0  0  0  0  0  0
  1  2  1  0  0  0  0
  1 18  1  0  0  0  0
  1 19  1  0  0  0  0
  1 20  1  0  0  0  0
  2  3  1  0  0  0  0
  2  9  1  0  0  0  0
  2 21  1  0  0  0  0
  3  4  1  0  0  0  0
  3 22  1  0  0  0  0
  3 23  1  0  0  0  0
  4  8  1  0  0  0  0
  4  5  1  0  0  0  0
  5  6  2  0  0  0  0
  5 24  1  0  0  0  0
  6  7  1  0  0  0  0
  7  8  2  0  0  0  0
  7 25  1  0  0  0  0
  9 10  1  0  0  0  0
  9 26  1  0  0  0  0
  9 42  1  0  0  0  0
 10 17  1  0  0  0  0
 10 11  1  0  0  0  0
 10 27  1  0  0  0  0
 11 12  1  0  0  0  0
 11 28  1  0  0  0  0
 11 29  1  0  0  0  0
 12 13  1  0  0  0  0
 12 30  1  0  0  0  0
 12 31  1  0  0  0  0
 13 14  1  0  0  0  0
 13 15  1  0  0  0  0
 13 32  1  0  0  0  0
 14 33  1  0  0  0  0
 14 34  1  0  0  0  0
 14 35  1  0  0  0  0
 15 16  1  0  0  0  0
 15 17  1  0  0  0  0
 15 36  1  0  0  0  0
 16 37  1  0  0  0  0
 16 38  1  0  0  0  0
 16 39  1  0  0  0  0
 17 40  1  0  0  0  0
 17 41  1  0  0  0  0
M  CHG  1   9   1
M  END
> <s_m_source_file>
AV-unprocessed.smi

> <i_m_source_file_index>
3181

> <i_lp_mmshare_version>
43012

> <i_f3d_flags>
0

> <s_epik_input>
bjFbY0hdbltjSF1uMVtDSDJdW0NAQEhdKFtDSDNdKVtOSF1bQ0BASF0yW0NIMl1bQ0gyXVtDQEBIXShbQ0gzXSlbQ0BASF0oW0NIM10pW0NIMl0y

> <s_epik_cmdline>
J2VwaWtfcHl0aG9uJywgJy1waCcsICc3LjAnLCAnLXRuJywgJzgnLCAnLW1hJywgJzIwMCcsICctbWV0YWxfYmluZGluZycsICctaW1hZScsICc8aW5maWxlLm1hZT4nLCAnLW9tYWUnLCAnPG91dGZpbGUubWFlPic=

> <r_lp_tautomer_probability>
1

> <r_epik_Ionization_Penalty>
0.000617007

> <r_epik_Ionization_Penalty_Charging>
0.000616215

> <r_epik_Ionization_Penalty_Neutral>
7.92544e-07

> <r_epik_State_Penalty>
0.000388807

> <r_epik_Charging_Adjusted_Penalty>
0.00100502

> <i_epik_Tot_Q>
1

> <i_epik_Tot_abs_Q>
1

> <r_epik_Metal_State_Penalty>
-0

> <b_epik_Metal_Only>
0

> <s_lp_Force_Field>
OPLS_2005

> <r_lp_Energy>
21.8546

> <b_lp_Chiralities_Consistent>
1

> <s_lp_Variant>
AV-unprocessed.smi:3181-16

> <Gold.Version>
5.8.1

> <Gold.Id.Protein>
6NUR|6NUR_protein|mol2

> <Gold.PLP.Fitness>
51.7242

> <Gold.PLP.PLP>
-40.2867

> <Gold.PLP.part.hbond>
-3.0000

> <Gold.PLP.part.metal>
0.0000

> <Gold.PLP.part.buried>
-3.7163

> <Gold.PLP.part.nonpolar>
-34.1759

> <Gold.PLP.part.repulsive>
0.3409

> <Gold.PLP.ligand.clash>
0.0000

> <Gold.PLP.ligand.torsion>
0.7371

> <Gold.PLP.Chemscore.Hbond>
3.3080

> <Gold.PLP.Chemscore.CHOScore>
0.9864

> <Gold.PLP.Chemscore.Metal>
0.0000

> <Gold.Chemscore.Hbonds>
donor molecule, donor type, donor heavy atom, donor atom, acceptor molecule, acceptor atom, score
      L1  H     9    42       P1  8028  2.00
      P1  H  7989  7998       L1     8  0.45
      P1  H 10752 10764       L1     6  0.86
      L1  C     5    24       P1  7948  0.99

> <Gold.PLP.Chemscore.Internal.Correction>
0.0283

> <Gold.Rescore>
     Score         DG    S(hbond)    S(metal)    S(lipo)     H(rot)  DE(clash)    DE(int)     intcor
     15.09     -17.35       1.82        0.00      95.52       2.11       0.04       2.22       ----

> <Gold.Chemscore.Fitness>
15.0863

> <Gold.Chemscore.DG>
-17.3509

> <Gold.Chemscore.ZeroCoef>
-5.4800

> <Gold.Chemscore.Hbond>
1.8250

> <Gold.Chemscore.Metal>
0.0000

> <Gold.Chemscore.Lipo>
95.5193

> <Gold.Chemscore.Internal_Hbond>
0.0000

> <Gold.Chemscore.DEClash>
0.0428

> <Gold.Chemscore.DEInternal>
2.2219

> <Gold.Chemscore.Rot>
2.1095

> <Gold.Chemscore.Internal.Correction>
   9.000000E+99

> <Gold.Chemscore.Hbonds>
donor molecule, donor type, donor heavy atom, donor atom, acceptor molecule, acceptor atom, score
      L1  H     9    42       P1  8028  0.94
      P1  H  7989  7998       L1     8  0.02
      P1  H 10752 10764       L1     6  0.77

> <Gold.Chemscore.Hbond.Weighted>
-6.0955

> <Gold.Chemscore.Metal.Weighted>
-0.0000

> <Gold.Chemscore.Lipo.Weighted>
-11.1758

> <Gold.Chemscore.Internal_Hbond.Weighted>
0.0000

> <Gold.Chemscore.DEClash.Weighted>
0.0428

> <Gold.Chemscore.DEInternal.Weighted>
2.2219

> <Gold.Chemscore.Rot.Weighted>
5.4003

> <Gold.Chemscore.Internal.Correction.Weighted>
   9.000000E+99

> <Gold.Protein.RotatedTorsions>
[ 6907 6896 6895 6894 ] final -143.89 input  -60.11 | X-H torsion
[ 7974 7965 7964 7962 ] final  104.72 input  175.53 | X-H torsion
[ 8008 7997 7996 7995 ] final  133.54 input   59.86 | X-H torsion
[ 10167 10162 10161 10158 ] final  -43.82 input  -65.29 | X-H torsion
[ 10718 10713 10712 10709 ] final  145.90 input   66.30 | X-H torsion
[ 10763 10752 10751 10750 ] final  -73.68 input  -60.55 | X-H torsion
[ 11005 11000 10999 10996 ] final  -43.10 input  -57.11 | X-H torsion

> <Gold.Protein.ActiveResidues>
 VAL166  LYS551  ARG553  GLY616  TRP617  ASP618  TYR619  PRO620  LYS621  CYS622 
 ASP623  PHE694  ASN695  SER759  ASP760  ASP761  ALA762  ILE779  LEU786  VAL792 
 PHE793  MET794  SER795  GLU796  ALA797  LYS798  CYS799  TRP800  GLU811  SER814 

> <Gold.Protein.RotatedAtoms>
  151.1066  133.5204  159.2607 H   0  0  0  0  0  0  0  0  0  0  0  0  # atno 6907 bound_to 6896
  151.2014  135.0443  159.8884 H   0  0  0  0  0  0  0  0  0  0  0  0  # atno 6908 bound_to 6896
  152.5447  134.0893  159.8323 H   0  0  0  0  0  0  0  0  0  0  0  0  # atno 6909 bound_to 6896
  145.3291  139.2491  143.3670 H   0  0  0  0  0  0  0  0  0  0  0  0  # atno 7974 bound_to 7965
  156.2993  140.2519  156.3269 H   0  0  0  0  0  0  0  0  0  0  0  0  # atno 8008 bound_to 7997
  154.9182  140.0401  157.2002 H   0  0  0  0  0  0  0  0  0  0  0  0  # atno 8009 bound_to 7997
  154.8338  140.2880  155.5709 H   0  0  0  0  0  0  0  0  0  0  0  0  # atno 8010 bound_to 7997
  140.6920  143.2962  151.3407 H   0  0  0  0  0  0  0  0  0  0  0  0  # atno 10167 bound_to 10162
  157.3397  131.0933  151.1093 H   0  0  0  0  0  0  0  0  0  0  0  0  # atno 10718 bound_to 10713
  154.4627  135.5889  153.6267 H   0  0  0  0  0  0  0  0  0  0  0  0  # atno 10763 bound_to 10752
  152.9825  135.6048  154.3466 H   0  0  0  0  0  0  0  0  0  0  0  0  # atno 10764 bound_to 10752
  154.3339  135.2842  155.2436 H   0  0  0  0  0  0  0  0  0  0  0  0  # atno 10765 bound_to 10752
  141.0361  133.6799  156.2686 H   0  0  0  0  0  0  0  0  0  0  0  0  # atno 11005 bound_to 11000
  146.3052  140.3865  142.8689 LP  0  0  0  0  0  0  0  0  0  0  0  0  # atno 17320 bound_to 7965
  144.8878  140.7485  143.5946 LP  0  0  0  0  0  0  0  0  0  0  0  0  # atno 17321 bound_to 7965
  139.6332  144.0680  152.2494 LP  0  0  0  0  0  0  0  0  0  0  0  0  # atno 17342 bound_to 10162
  140.0161  144.6187  150.7606 LP  0  0  0  0  0  0  0  0  0  0  0  0  # atno 17343 bound_to 10162
  157.2310  130.6525  149.5849 LP  0  0  0  0  0  0  0  0  0  0  0  0  # atno 17370 bound_to 10713
  155.9706  130.4599  150.6052 LP  0  0  0  0  0  0  0  0  0  0  0  0  # atno 17371 bound_to 10713
  140.6320  134.5255  157.5560 LP  0  0  0  0  0  0  0  0  0  0  0  0  # atno 17394 bound_to 11000
  139.9242  134.8089  156.1120 LP  0  0  0  0  0  0  0  0  0  0  0  0  # atno 17395 bound_to 11000

$$$$
