AV-unprocessed.smi:1486|AV-procd|sdf|6006|dock10
  -GOLD-   22720 6103D 1   1.00000     0.00000
 Structure written by MMmdl.
 39 40  0  0  0  0  0  0  0  0  1 V2000
  147.1203  143.7711  159.9378 C   0  0  0  0  0  0  0  0  0  0  0  0
  146.9559  142.5334  159.2683 O   0  0  0  0  0  0  0  0  0  0  0  0
  146.1830  142.6546  158.0848 C   0  0  0  0  0  0  0  0  0  0  0  0
  146.7379  141.7054  157.0120 C   0  0  1  0  0  0  0  0  0  0  0  0
  145.8348  141.6705  155.7688 C   0  0  0  0  0  0  0  0  0  0  0  0
  148.0869  142.1217  156.6382 N   0  0  0  0  0  0  0  0  0  0  0  0
  149.1932  141.3718  156.7644 C   0  0  0  0  0  0  0  0  0  0  0  0
  149.1910  140.2290  157.2220 O   0  0  0  0  0  0  0  0  0  0  0  0
  150.5046  142.0051  156.2987 C   0  0  0  0  0  0  0  0  0  0  0  0
  151.2432  142.5907  157.4676 C   0  0  0  0  0  0  0  0  0  0  0  0
  151.3047  143.9163  157.8238 C   0  0  0  0  0  0  0  0  0  0  0  0
  152.2759  144.1672  159.2476 S   0  0  0  0  0  0  0  0  0  0  0  0
  152.5787  142.4281  159.3063 C   0  0  0  0  0  0  0  0  0  0  0  0
  153.3797  141.7412  160.2670 N   0  0  0  0  0  0  0  0  0  0  0  0
  153.6354  142.2962  161.5928 C   0  0  0  0  0  0  0  0  0  0  0  0
  154.3145  141.1792  162.3925 C   0  0  0  0  0  0  0  0  0  0  0  0
  154.7679  140.1575  161.3520 C   0  0  0  0  0  0  0  0  0  0  0  0
  154.0054  140.5621  160.1010 C   0  0  0  0  0  0  0  0  0  0  0  0
  154.0050  139.8565  159.0935 O   0  0  0  0  0  0  0  0  0  0  0  0
  151.9748  141.7560  158.3197 N   0  0  0  0  0  0  0  0  0  0  0  0
  147.7175  143.6248  160.8378 H   0  0  0  0  0  0  0  0  0  0  0  0
  146.1581  144.1884  160.2370 H   0  0  0  0  0  0  0  0  0  0  0  0
  147.6349  144.4961  159.3058 H   0  0  0  0  0  0  0  0  0  0  0  0
  145.1454  142.3973  158.3045 H   0  0  0  0  0  0  0  0  0  0  0  0
  146.1947  143.6855  157.7266 H   0  0  0  0  0  0  0  0  0  0  0  0
  146.7746  140.7015  157.4393 H   0  0  0  0  0  0  0  0  0  0  0  0
  144.8247  141.3524  156.0277 H   0  0  0  0  0  0  0  0  0  0  0  0
  146.2152  140.9728  155.0218 H   0  0  0  0  0  0  0  0  0  0  0  0
  145.7648  142.6532  155.3012 H   0  0  0  0  0  0  0  0  0  0  0  0
  148.1861  143.0509  156.2555 H   0  0  0  0  0  0  0  0  0  0  0  0
  151.1086  141.2545  155.7865 H   0  0  0  0  0  0  0  0  0  0  0  0
  150.2865  142.7781  155.5609 H   0  0  0  0  0  0  0  0  0  0  0  0
  150.8338  144.7573  157.3363 H   0  0  0  0  0  0  0  0  0  0  0  0
  154.2960  143.1592  161.4971 H   0  0  0  0  0  0  0  0  0  0  0  0
  152.7148  142.6248  162.0772 H   0  0  0  0  0  0  0  0  0  0  0  0
  155.1456  141.5545  162.9904 H   0  0  0  0  0  0  0  0  0  0  0  0
  153.5991  140.7183  163.0752 H   0  0  0  0  0  0  0  0  0  0  0  0
  155.8391  140.2323  161.1619 H   0  0  0  0  0  0  0  0  0  0  0  0
  154.5353  139.1346  161.6498 H   0  0  0  0  0  0  0  0  0  0  0  0
  1  2  1  0  0  0  0
  1 21  1  0  0  0  0
  1 22  1  0  0  0  0
  1 23  1  0  0  0  0
  2  3  1  0  0  0  0
  3  4  1  0  0  0  0
  3 24  1  0  0  0  0
  3 25  1  0  0  0  0
  4  5  1  0  0  0  0
  4  6  1  0  0  0  0
  4 26  1  0  0  0  0
  5 27  1  0  0  0  0
  5 28  1  0  0  0  0
  5 29  1  0  0  0  0
  6  7  1  0  0  0  0
  6 30  1  0  0  0  0
  7  8  2  0  0  0  0
  7  9  1  0  0  0  0
  9 10  1  0  0  0  0
  9 31  1  0  0  0  0
  9 32  1  0  0  0  0
 10 20  1  0  0  0  0
 10 11  2  0  0  0  0
 11 12  1  0  0  0  0
 11 33  1  0  0  0  0
 12 13  1  0  0  0  0
 13 14  1  0  0  0  0
 13 20  2  0  0  0  0
 14 18  1  0  0  0  0
 14 15  1  0  0  0  0
 15 16  1  0  0  0  0
 15 34  1  0  0  0  0
 15 35  1  0  0  0  0
 16 17  1  0  0  0  0
 16 36  1  0  0  0  0
 16 37  1  0  0  0  0
 17 18  1  0  0  0  0
 17 38  1  0  0  0  0
 17 39  1  0  0  0  0
 18 19  2  0  0  0  0
M  END
> <s_m_source_file>
AV-unprocessed.smi

> <i_m_source_file_index>
1486

> <i_lp_mmshare_version>
43012

> <i_f3d_flags>
0

> <s_epik_input>
W0NIM11PW0NIMl1bQ0BIXShbQ0gzXSlbTkhdQyg9TylbQ0gyXWMxW2NIXXNjKG4xKU4yW0NIMl1bQ0gyXVtDSDJdQzI9Tw==

> <s_epik_cmdline>
J2VwaWtfcHl0aG9uJywgJy1waCcsICc3LjAnLCAnLXRuJywgJzgnLCAnLW1hJywgJzIwMCcsICctbWV0YWxfYmluZGluZycsICctaW1hZScsICc8aW5maWxlLm1hZT4nLCAnLW9tYWUnLCAnPG91dGZpbGUubWFlPic=

> <r_lp_tautomer_probability>
1

> <r_epik_Ionization_Penalty>
3.00988e-05

> <r_epik_Ionization_Penalty_Charging>
0

> <r_epik_Ionization_Penalty_Neutral>
3.00988e-05

> <r_epik_State_Penalty>
-0

> <r_epik_Charging_Adjusted_Penalty>
0

> <i_epik_Tot_Q>
0

> <i_epik_Tot_abs_Q>
0

> <r_epik_Metal_State_Penalty>
-0

> <b_epik_Metal_Only>
0

> <s_lp_Force_Field>
OPLS_2005

> <r_lp_Energy>
17.9426

> <b_lp_Chiralities_Consistent>
1

> <s_lp_Variant>
AV-unprocessed.smi:1486-2

> <Gold.Version>
5.8.1

> <Gold.Id.Protein>
6NUR|6NUR_protein|mol2

> <Gold.PLP.Fitness>
47.4011

> <Gold.PLP.PLP>
-38.9531

> <Gold.PLP.part.hbond>
-3.0000

> <Gold.PLP.part.metal>
0.0000

> <Gold.PLP.part.buried>
-2.9049

> <Gold.PLP.part.nonpolar>
-33.3171

> <Gold.PLP.part.repulsive>
0.0710

> <Gold.PLP.ligand.clash>
0.0000

> <Gold.PLP.ligand.torsion>
1.1041

> <Gold.PLP.Chemscore.Hbond>
2.5616

> <Gold.PLP.Chemscore.CHOScore>
0.9722

> <Gold.PLP.Chemscore.Metal>
0.0000

> <Gold.Chemscore.Hbonds>
donor molecule, donor type, donor heavy atom, donor atom, acceptor molecule, acceptor atom, score
      L1  H     6    30       P1  8028  1.00
      P1  H  6934  6946       L1     2  0.47
      P1  H  7997  8008       L1    19  0.96
      L1  C    11    33       P1  8028  0.99

> <Gold.PLP.Chemscore.Internal.Correction>
0.0548

> <Gold.Rescore>
     Score         DG    S(hbond)    S(metal)    S(lipo)     H(rot)  DE(clash)    DE(int)     intcor
     14.72     -17.25       2.24        0.00      79.04       1.94       0.12       2.41       ----

> <Gold.Chemscore.Fitness>
14.7247

> <Gold.Chemscore.DG>
-17.2472

> <Gold.Chemscore.ZeroCoef>
-5.4800

> <Gold.Chemscore.Hbond>
2.2394

> <Gold.Chemscore.Metal>
0.0000

> <Gold.Chemscore.Lipo>
79.0353

> <Gold.Chemscore.Internal_Hbond>
0.0000

> <Gold.Chemscore.DEClash>
0.1174

> <Gold.Chemscore.DEInternal>
2.4051

> <Gold.Chemscore.Rot>
1.9373

> <Gold.Chemscore.Internal.Correction>
   9.000000E+99

> <Gold.Chemscore.Hbonds>
donor molecule, donor type, donor heavy atom, donor atom, acceptor molecule, acceptor atom, score
      L1  H     6    30       P1  8028  0.65
      P1  H  6934  6946       L1     2  0.37
      P1  H  7997  8008       L1    19  0.90

> <Gold.Chemscore.Hbond.Weighted>
-7.4795

> <Gold.Chemscore.Metal.Weighted>
-0.0000

> <Gold.Chemscore.Lipo.Weighted>
-9.2471

> <Gold.Chemscore.Internal_Hbond.Weighted>
0.0000

> <Gold.Chemscore.DEClash.Weighted>
0.1174

> <Gold.Chemscore.DEInternal.Weighted>
2.4051

> <Gold.Chemscore.Rot.Weighted>
4.9594

> <Gold.Chemscore.Internal.Correction.Weighted>
   9.000000E+99

> <Gold.Protein.RotatedTorsions>
[ 6907 6896 6895 6894 ] final   45.40 input  -60.11 | X-H torsion
[ 7974 7965 7964 7962 ] final  -82.74 input  175.53 | X-H torsion
[ 8008 7997 7996 7995 ] final -104.80 input   59.86 | X-H torsion
[ 10167 10162 10161 10158 ] final   98.78 input  -65.29 | X-H torsion
[ 10718 10713 10712 10709 ] final  174.55 input   66.30 | X-H torsion
[ 10763 10752 10751 10750 ] final -152.84 input  -60.55 | X-H torsion
[ 11005 11000 10999 10996 ] final  -50.36 input  -57.11 | X-H torsion

> <Gold.Protein.ActiveResidues>
 VAL166  LYS551  ARG553  GLY616  TRP617  ASP618  TYR619  PRO620  LYS621  CYS622 
 ASP623  PHE694  ASN695  SER759  ASP760  ASP761  ALA762  ILE779  LEU786  VAL792 
 PHE793  MET794  SER795  GLU796  ALA797  LYS798  CYS799  TRP800  GLU811  SER814 

> <Gold.Protein.RotatedAtoms>
  152.2441  134.8199  160.0455 H   0  0  0  0  0  0  0  0  0  0  0  0  # atno 6907 bound_to 6896
  151.8902  133.3509  159.3804 H   0  0  0  0  0  0  0  0  0  0  0  0  # atno 6908 bound_to 6896
  150.7063  134.4857  159.5536 H   0  0  0  0  0  0  0  0  0  0  0  0  # atno 6909 bound_to 6896
  145.5292  140.9523  143.1612 H   0  0  0  0  0  0  0  0  0  0  0  0  # atno 7974 bound_to 7965
  154.8906  140.0416  157.1836 H   0  0  0  0  0  0  0  0  0  0  0  0  # atno 8008 bound_to 7997
  154.8545  140.2934  155.5556 H   0  0  0  0  0  0  0  0  0  0  0  0  # atno 8009 bound_to 7997
  156.2997  140.2458  156.3509 H   0  0  0  0  0  0  0  0  0  0  0  0  # atno 8010 bound_to 7997
  139.7677  144.6933  151.0201 H   0  0  0  0  0  0  0  0  0  0  0  0  # atno 10167 bound_to 10162
  156.9479  131.0022  151.2955 H   0  0  0  0  0  0  0  0  0  0  0  0  # atno 10718 bound_to 10713
  154.7967  135.3226  154.7649 H   0  0  0  0  0  0  0  0  0  0  0  0  # atno 10763 bound_to 10752
  153.8325  135.6878  153.4817 H   0  0  0  0  0  0  0  0  0  0  0  0  # atno 10764 bound_to 10752
  153.1663  135.4641  154.9783 H   0  0  0  0  0  0  0  0  0  0  0  0  # atno 10765 bound_to 10752
  141.0811  133.6653  156.3720 H   0  0  0  0  0  0  0  0  0  0  0  0  # atno 11005 bound_to 11000
  144.7635  139.6901  143.7224 LP  0  0  0  0  0  0  0  0  0  0  0  0  # atno 17320 bound_to 7965
  146.2055  139.5377  142.9715 LP  0  0  0  0  0  0  0  0  0  0  0  0  # atno 17321 bound_to 7965
  140.7812  143.4624  151.0259 LP  0  0  0  0  0  0  0  0  0  0  0  0  # atno 17342 bound_to 10162
  139.8308  143.7693  152.3179 LP  0  0  0  0  0  0  0  0  0  0  0  0  # atno 17343 bound_to 10162
  157.5741  130.8331  149.8432 LP  0  0  0  0  0  0  0  0  0  0  0  0  # atno 17370 bound_to 10713
  156.0375  130.3747  150.1521 LP  0  0  0  0  0  0  0  0  0  0  0  0  # atno 17371 bound_to 10713
  140.5465  134.6069  157.5395 LP  0  0  0  0  0  0  0  0  0  0  0  0  # atno 17394 bound_to 11000
  139.9626  134.7427  156.0206 LP  0  0  0  0  0  0  0  0  0  0  0  0  # atno 17395 bound_to 11000

$$$$
