AV-unprocessed.smi:1881|AV-procd|sdf|7639|dock1
  -GOLD-   22720 9363D 1   1.00000     0.00000
 Structure written by MMmdl.
 50 51  0  0  0  0  0  0  0  0  1 V2000
  152.0121  141.4491  159.1193 C   0  0  0  0  0  0  0  0  0  0  0  0
  151.1884  141.6399  157.8247 C   0  0  0  0  0  0  0  0  0  0  0  0
  149.6988  141.5131  158.2449 C   0  0  0  0  0  0  0  0  0  0  0  0
  151.3370  143.0637  157.2306 C   0  0  0  0  0  0  0  0  0  0  0  0
  151.5230  140.5245  156.7806 C   0  0  0  0  0  0  0  0  0  0  0  0
  152.4069  139.7167  157.0764 O   0  0  0  0  0  0  0  0  0  0  0  0
  150.8805  140.4146  155.5828 N   0  0  0  0  0  0  0  0  0  0  0  0
  151.1397  139.2926  154.6642 C   0  0  0  0  0  0  0  0  0  0  0  0
  149.9049  138.3728  154.6391 C   0  0  0  0  0  0  0  0  0  0  0  0
  148.6412  139.1526  154.2081 C   0  0  0  0  0  0  0  0  0  0  0  0
  147.3831  138.2809  154.3183 C   0  0  0  0  0  0  0  0  0  0  0  0
  146.5142  138.5446  155.1501 O   0  0  0  0  0  0  0  0  0  0  0  0
  147.2985  137.2446  153.4701 N   0  0  0  0  0  0  0  0  0  0  0  0
  146.1887  136.3011  153.4044 C   0  0  0  0  0  0  0  0  0  0  0  0
  145.5483  136.2773  152.0068 C   0  0  0  0  0  0  0  0  0  0  0  0
  145.2984  134.8646  151.5136 C   0  0  0  0  0  0  0  0  0  0  0  0
  146.3581  133.9377  151.4163 C   0  0  0  0  0  0  0  0  0  0  0  0
  146.0723  132.6369  150.9586 C   0  0  0  0  0  0  0  0  0  0  0  0
  144.7447  132.3141  150.6179 C   0  0  0  0  0  0  0  0  0  0  0  0
  143.7575  133.3109  150.7522 C   0  0  0  0  0  0  0  0  0  0  0  0
  144.0209  134.5610  151.1903 N   0  0  0  0  0  0  0  0  0  0  0  0
  148.4913  140.4505  155.0339 C   0  0  0  0  0  0  0  0  0  0  0  0
  149.8040  141.2550  155.0409 C   0  0  0  0  0  0  0  0  0  0  0  0
  151.7137  142.1720  159.8793 H   0  0  0  0  0  0  0  0  0  0  0  0
  153.0836  141.5676  158.9823 H   0  0  0  0  0  0  0  0  0  0  0  0
  151.8554  140.4557  159.5420 H   0  0  0  0  0  0  0  0  0  0  0  0
  149.4829  140.5466  158.7033 H   0  0  0  0  0  0  0  0  0  0  0  0
  149.0263  141.6353  157.3940 H   0  0  0  0  0  0  0  0  0  0  0  0
  149.4244  142.2720  158.9789 H   0  0  0  0  0  0  0  0  0  0  0  0
  150.7032  143.7805  157.7536 H   0  0  0  0  0  0  0  0  0  0  0  0
  151.0445  143.0953  156.1801 H   0  0  0  0  0  0  0  0  0  0  0  0
  152.3444  143.4646  157.3119 H   0  0  0  0  0  0  0  0  0  0  0  0
  151.3404  139.6775  153.6633 H   0  0  0  0  0  0  0  0  0  0  0  0
  152.0226  138.7084  154.9255 H   0  0  0  0  0  0  0  0  0  0  0  0
  150.0805  137.5403  153.9569 H   0  0  0  0  0  0  0  0  0  0  0  0
  149.7661  137.9368  155.6297 H   0  0  0  0  0  0  0  0  0  0  0  0
  148.7721  139.4395  153.1630 H   0  0  0  0  0  0  0  0  0  0  0  0
  148.0584  137.1001  152.8211 H   0  0  0  0  0  0  0  0  0  0  0  0
  146.5256  135.3025  153.6883 H   0  0  0  0  0  0  0  0  0  0  0  0
  145.4494  136.6012  154.1475 H   0  0  0  0  0  0  0  0  0  0  0  0
  144.6018  136.8200  152.0190 H   0  0  0  0  0  0  0  0  0  0  0  0
  146.1882  136.7957  151.2913 H   0  0  0  0  0  0  0  0  0  0  0  0
  147.3665  134.2153  151.6869 H   0  0  0  0  0  0  0  0  0  0  0  0
  146.8571  131.9002  150.8710 H   0  0  0  0  0  0  0  0  0  0  0  0
  144.4886  131.3268  150.2627 H   0  0  0  0  0  0  0  0  0  0  0  0
  142.7290  133.0979  150.5012 H   0  0  0  0  0  0  0  0  0  0  0  0
  147.6885  141.0634  154.6223 H   0  0  0  0  0  0  0  0  0  0  0  0
  148.2043  140.2170  156.0601 H   0  0  0  0  0  0  0  0  0  0  0  0
  149.6608  142.1936  155.5591 H   0  0  0  0  0  0  0  0  0  0  0  0
  150.0593  141.5470  154.0212 H   0  0  0  0  0  0  0  0  0  0  0  0
  1  2  1  0  0  0  0
  1 24  1  0  0  0  0
  1 25  1  0  0  0  0
  1 26  1  0  0  0  0
  2  3  1  0  0  0  0
  2  4  1  0  0  0  0
  2  5  1  0  0  0  0
  3 27  1  0  0  0  0
  3 28  1  0  0  0  0
  3 29  1  0  0  0  0
  4 30  1  0  0  0  0
  4 31  1  0  0  0  0
  4 32  1  0  0  0  0
  5  6  2  0  0  0  0
  5  7  1  0  0  0  0
  7 23  1  0  0  0  0
  7  8  1  0  0  0  0
  8  9  1  0  0  0  0
  8 33  1  0  0  0  0
  8 34  1  0  0  0  0
  9 10  1  0  0  0  0
  9 35  1  0  0  0  0
  9 36  1  0  0  0  0
 10 11  1  0  0  0  0
 10 22  1  0  0  0  0
 10 37  1  0  0  0  0
 11 12  2  0  0  0  0
 11 13  1  0  0  0  0
 13 14  1  0  0  0  0
 13 38  1  0  0  0  0
 14 15  1  0  0  0  0
 14 39  1  0  0  0  0
 14 40  1  0  0  0  0
 15 16  1  0  0  0  0
 15 41  1  0  0  0  0
 15 42  1  0  0  0  0
 16 21  1  0  0  0  0
 16 17  2  0  0  0  0
 17 18  1  0  0  0  0
 17 43  1  0  0  0  0
 18 19  2  0  0  0  0
 18 44  1  0  0  0  0
 19 20  1  0  0  0  0
 19 45  1  0  0  0  0
 20 21  2  0  0  0  0
 20 46  1  0  0  0  0
 22 23  1  0  0  0  0
 22 47  1  0  0  0  0
 22 48  1  0  0  0  0
 23 49  1  0  0  0  0
 23 50  1  0  0  0  0
M  END
> <s_m_source_file>
AV-unprocessed.smi

> <i_m_source_file_index>
1881

> <i_lp_mmshare_version>
43012

> <i_f3d_flags>
0

> <s_epik_input>
W0NIM11DKFtDSDNdKShbQ0gzXSlDKD1PKU4xW0NIMl1bQ0gyXVtDSF0oW0NIMl1bQ0gyXTEpQyg9TylbTkhdW0NIMl1bQ0gyXWMyW2NIXVtjSF1bY0hdW2NIXW4y

> <s_epik_cmdline>
J2VwaWtfcHl0aG9uJywgJy1waCcsICc3LjAnLCAnLXRuJywgJzgnLCAnLW1hJywgJzIwMCcsICctbWV0YWxfYmluZGluZycsICctaW1hZScsICc8aW5maWxlLm1hZT4nLCAnLW9tYWUnLCAnPG91dGZpbGUubWFlPic=

> <r_epik_Ionization_Penalty>
0.0268423

> <r_epik_Ionization_Penalty_Charging>
0

> <r_epik_Ionization_Penalty_Neutral>
0.0268423

> <r_epik_State_Penalty>
0.0219354

> <r_epik_Charging_Adjusted_Penalty>
0.0219354

> <i_epik_Tot_Q>
0

> <i_epik_Tot_abs_Q>
0

> <r_epik_Metal_State_Penalty>
0.0209813

> <b_epik_Metal_Only>
0

> <s_lp_Force_Field>
OPLS_2005

> <r_lp_Energy>
36.1076

> <b_lp_Chiralities_Consistent>
1

> <s_lp_Variant>
AV-unprocessed.smi:1881-1

> <Gold.Version>
5.8.1

> <Gold.Id.Protein>
6NUR|6NUR_protein|mol2

> <Gold.PLP.Fitness>
48.0418

> <Gold.PLP.PLP>
-39.9674

> <Gold.PLP.part.hbond>
-1.8767

> <Gold.PLP.part.metal>
0.0000

> <Gold.PLP.part.buried>
-3.2237

> <Gold.PLP.part.nonpolar>
-34.7884

> <Gold.PLP.part.repulsive>
0.2255

> <Gold.PLP.ligand.clash>
0.0000

> <Gold.PLP.ligand.torsion>
0.5251

> <Gold.PLP.Chemscore.Hbond>
2.0000

> <Gold.PLP.Chemscore.CHOScore>
1.0000

> <Gold.PLP.Chemscore.Metal>
0.0000

> <Gold.Chemscore.Hbonds>
donor molecule, donor type, donor heavy atom, donor atom, acceptor molecule, acceptor atom, score
      L1  H    13    38       P1  7948  1.00
      P1  H  7997  8010       L1     6  0.94
      L1  C    20    46       P1 10186  1.00

> <Gold.PLP.Chemscore.Internal.Correction>
0.1246

> <Gold.Rescore>
     Score         DG    S(hbond)    S(metal)    S(lipo)     H(rot)  DE(clash)    DE(int)     intcor
     19.15     -19.73       1.95        0.00     100.15       1.55       0.05       0.53       ----

> <Gold.Chemscore.Fitness>
19.1533

> <Gold.Chemscore.DG>
-19.7346

> <Gold.Chemscore.ZeroCoef>
-5.4800

> <Gold.Chemscore.Hbond>
1.9479

> <Gold.Chemscore.Metal>
0.0000

> <Gold.Chemscore.Lipo>
100.1481

> <Gold.Chemscore.Internal_Hbond>
0.0000

> <Gold.Chemscore.DEClash>
0.0529

> <Gold.Chemscore.DEInternal>
0.5284

> <Gold.Chemscore.Rot>
1.5503

> <Gold.Chemscore.Internal.Correction>
   9.000000E+99

> <Gold.Chemscore.Hbonds>
donor molecule, donor type, donor heavy atom, donor atom, acceptor molecule, acceptor atom, score
      L1  H    13    38       P1  7948  0.95
      P1  H  7997  8010       L1     6  0.89

> <Gold.Chemscore.Hbond.Weighted>
-6.5060

> <Gold.Chemscore.Metal.Weighted>
-0.0000

> <Gold.Chemscore.Lipo.Weighted>
-11.7173

> <Gold.Chemscore.Internal_Hbond.Weighted>
0.0000

> <Gold.Chemscore.DEClash.Weighted>
0.0529

> <Gold.Chemscore.DEInternal.Weighted>
0.5284

> <Gold.Chemscore.Rot.Weighted>
3.9687

> <Gold.Chemscore.Internal.Correction.Weighted>
   9.000000E+99

> <Gold.Protein.RotatedTorsions>
[ 6907 6896 6895 6894 ] final   97.00 input  -60.11 | X-H torsion
[ 7974 7965 7964 7962 ] final -138.08 input  175.53 | X-H torsion
[ 8008 7997 7996 7995 ] final   56.28 input   59.86 | X-H torsion
[ 10167 10162 10161 10158 ] final  -62.43 input  -65.29 | X-H torsion
[ 10718 10713 10712 10709 ] final  140.17 input   66.30 | X-H torsion
[ 10763 10752 10751 10750 ] final  -41.50 input  -60.55 | X-H torsion
[ 11005 11000 10999 10996 ] final -168.04 input  -57.11 | X-H torsion

> <Gold.Protein.ActiveResidues>
 VAL166  LYS551  ARG553  GLY616  TRP617  ASP618  TYR619  PRO620  LYS621  CYS622 
 ASP623  PHE694  ASN695  SER759  ASP760  ASP761  ALA762  ILE779  LEU786  VAL792 
 PHE793  MET794  SER795  GLU796  ALA797  LYS798  CYS799  TRP800  GLU811  SER814 

> <Gold.Protein.RotatedAtoms>
  152.5429  134.0800  159.8230 H   0  0  0  0  0  0  0  0  0  0  0  0  # atno 6907 bound_to 6896
  151.0903  133.5314  159.2622 H   0  0  0  0  0  0  0  0  0  0  0  0  # atno 6908 bound_to 6896
  151.2108  135.0489  159.8964 H   0  0  0  0  0  0  0  0  0  0  0  0  # atno 6909 bound_to 6896
  144.8788  140.6476  143.5219 H   0  0  0  0  0  0  0  0  0  0  0  0  # atno 7974 bound_to 7965
  155.5150  140.3478  155.4395 H   0  0  0  0  0  0  0  0  0  0  0  0  # atno 8008 bound_to 7997
  156.0824  140.1390  156.9723 H   0  0  0  0  0  0  0  0  0  0  0  0  # atno 8009 bound_to 7997
  154.4587  140.0943  156.6808 H   0  0  0  0  0  0  0  0  0  0  0  0  # atno 8010 bound_to 7997
  140.5940  143.2347  151.6077 H   0  0  0  0  0  0  0  0  0  0  0  0  # atno 10167 bound_to 10162
  157.4063  131.1023  151.0500 H   0  0  0  0  0  0  0  0  0  0  0  0  # atno 10718 bound_to 10713
  153.9635  135.6737  153.4745 H   0  0  0  0  0  0  0  0  0  0  0  0  # atno 10763 bound_to 10752
  153.0827  135.4915  154.8531 H   0  0  0  0  0  0  0  0  0  0  0  0  # atno 10764 bound_to 10752
  154.7259  135.3127  154.8931 H   0  0  0  0  0  0  0  0  0  0  0  0  # atno 10765 bound_to 10752
  140.5464  134.5471  157.5112 H   0  0  0  0  0  0  0  0  0  0  0  0  # atno 11005 bound_to 11000
  145.3993  139.1601  143.4186 LP  0  0  0  0  0  0  0  0  0  0  0  0  # atno 17320 bound_to 7965
  146.2980  140.4089  142.8714 LP  0  0  0  0  0  0  0  0  0  0  0  0  # atno 17321 bound_to 7965
  139.5246  144.3100  152.1001 LP  0  0  0  0  0  0  0  0  0  0  0  0  # atno 17342 bound_to 10162
  140.2269  144.4409  150.6317 LP  0  0  0  0  0  0  0  0  0  0  0  0  # atno 17343 bound_to 10162
  157.1481  130.6172  149.5574 LP  0  0  0  0  0  0  0  0  0  0  0  0  # atno 17370 bound_to 10713
  155.9837  130.4858  150.6948 LP  0  0  0  0  0  0  0  0  0  0  0  0  # atno 17371 bound_to 10713
  139.9477  134.7672  156.0522 LP  0  0  0  0  0  0  0  0  0  0  0  0  # atno 17394 bound_to 11000
  141.1197  133.6616  156.3184 LP  0  0  0  0  0  0  0  0  0  0  0  0  # atno 17395 bound_to 11000

$$$$
