#       Name:                AV-unprocessed.smi:1686
#       Creating user name   scv26
#       Creation time:       Fri Mar 27 07:52:27 2020


#       File generated by GOLD software.
#

@<TRIPOS>MOLECULE
AV-unprocessed.smi:1686
    46    48     1
SMALL
NO_CHARGES


@<TRIPOS>ATOM
      1 ****        -3.0602   3.3137   3.0324 C.3            1 S1                 0.0000
      2 ****        -3.2076   3.6621   1.5791 C.2            1 S1                 0.0000
      3 ****        -3.6409   4.8712   1.2471 N.2            1 S1                 0.0000
      4 ****        -3.6676   4.9103  -0.1517 O.3            1 S1                 0.0000
      5 ****        -3.2431   3.7030  -0.5898 C.2            1 S1                 0.0000
      6 ****        -3.1153   3.3233  -2.2617 Cl             1 S1                 0.0000
      7 ****        -2.9364   2.8550   0.4350 C.2            1 S1                 0.0000
      8 ****        -2.4323   1.4327   0.3804 C.3            1 S1                 0.0000
      9 ****        -0.9007   1.3682   0.4253 C.2            1 S1                 0.0000
     10 ****        -0.2152   2.3908   0.3733 O.2            1 S1                 0.0000
     11 ****        -0.3760   0.1370   0.5200 N.am           1 S1                 0.0000
     12 ****         1.0501  -0.1807   0.5557 C.3            1 S1                 0.0000
     13 ****         1.5492  -0.0929   2.0095 C.3            1 S1                 0.0000
     14 ****         1.2928  -1.5787  -0.0642 C.3            1 S1                 0.0000
     15 ****         2.7911  -1.9429  -0.2082 C.3            1 S1                 0.0000
     16 ****         2.9239  -2.3230  -1.6934 C.3            1 S1                 0.0000
     17 ****         2.1890  -3.6504  -1.9537 C.3            1 S1                 0.0000
     18 ****         0.7079  -3.2384  -1.8642 C.3            1 S1                 0.0000
     19 ****         0.7918  -1.7379  -1.5239 C.3            1 S1                 0.0000
     20 ****         1.9988  -1.3087  -2.3516 C.3            1 S1                 0.0000
     21 ****        -2.6654   2.3067   3.1650 H              1 S1                 0.0000
     22 ****        -4.0203   3.3628   3.5465 H              1 S1                 0.0000
     23 ****        -2.3781   4.0016   3.5327 H              1 S1                 0.0000
     24 ****        -2.8301   0.8461   1.2089 H              1 S1                 0.0000
     25 ****        -2.7672   0.9326  -0.5288 H              1 S1                 0.0000
     26 ****        -1.0137  -0.6449   0.5570 H              1 S1                 0.0000
     27 ****         1.5904   0.5575  -0.0396 H              1 S1                 0.0000
     28 ****         2.6199  -0.2825   2.0796 H              1 S1                 0.0000
     29 ****         1.0417  -0.8178   2.6469 H              1 S1                 0.0000
     30 ****         1.3709   0.8982   2.4281 H              1 S1                 0.0000
     31 ****         0.7959  -2.3166   0.5681 H              1 S1                 0.0000
     32 ****         3.4341  -1.0892   0.0094 H              1 S1                 0.0000
     33 ****         3.0864  -2.7552   0.4571 H              1 S1                 0.0000
     34 ****         3.9518  -2.3125  -2.0569 H              1 S1                 0.0000
     35 ****         2.4204  -4.0376  -2.9467 H              1 S1                 0.0000
     36 ****         2.4529  -4.4171  -1.2244 H              1 S1                 0.0000
     37 ****         0.2116  -3.3890  -2.8237 H              1 S1                 0.0000
     38 ****         0.1596  -3.8095  -1.1143 H              1 S1                 0.0000
     39 ****        -0.1295  -1.2022  -1.7524 H              1 S1                 0.0000
     40 ****         2.2989  -0.2733  -2.1830 H              1 S1                 0.0000
     41 ****         1.8694  -1.4722  -3.4231 H              1 S1                 0.0000
     42 ****        -3.8975   5.6084   1.8721 LP             1 S1                 0.0000
     43 ****        -3.0598   5.6303  -0.4867 LP             1 S1                 0.0000
     44 ****        -4.5986   5.0841  -0.4726 LP             1 S1                 0.0000
     45 ****        -0.6563   3.2853   0.3003 LP             1 S1                 0.0000
     46 ****         0.7823   2.3262   0.4040 LP             1 S1                 0.0000
@<TRIPOS>BOND
    1    1    2 1     
    2    1   21 1     
    3    1   22 1     
    4    1   23 1     
    5    2    7 1     
    6    2    3 2     
    7    3    4 1     
    8    4    5 1     
    9    5    6 1     
   10    5    7 2     
   11    7    8 1     
   12    8    9 1     
   13    8   24 1     
   14    8   25 1     
   15    9   10 2     
   16    9   11 am    
   17   11   12 1     
   18   11   26 1     
   19   12   13 1     
   20   12   14 1     
   21   12   27 1     
   22   13   28 1     
   23   13   29 1     
   24   13   30 1     
   25   14   19 1     
   26   14   15 1     
   27   14   31 1     
   28   15   16 1     
   29   15   32 1     
   30   15   33 1     
   31   16   20 1     
   32   16   17 1     
   33   16   34 1     
   34   17   18 1     
   35   17   35 1     
   36   17   36 1     
   37   18   19 1     
   38   18   37 1     
   39   18   38 1     
   40   19   20 1     
   41   19   39 1     
   42   20   40 1     
   43   20   41 1     
   44    3   42 1     
   45    4   43 1     
   46    4   44 1     
   47   10   45 1     
   48   10   46 1     
@<TRIPOS>SUBSTRUCTURE
      1 S1             1
@<TRIPOS>SET
LONE_PAIRS      STATIC     ATOMS    <user>   **** ""
5 42 43 44 45 46
DONOR_HYDROGENS      STATIC     ATOMS    <user>   **** ""
1 26
ATOM$BLUE        STATIC     ATOMS    COLORGROUP SYSTEM
5 42 43 44 45 46
ATOM$RED        STATIC     ATOMS    COLORGROUP SYSTEM
1 26
