AV-unprocessed.smi:2090|AV-procd|sdf|8537|dock4
  -GOLD-   2272011253D 1   1.00000     0.00000
 Structure written by MMmdl.
 41 42  0  0  0  0  0  0  0  0  3 V2000
  144.7136  135.7644  152.0008 C   0  0  0  0  0  0  0  0  0  0  0  0
  145.5890  136.9681  151.9242 C   0  0  0  0  0  0  0  0  0  0  0  0
  146.0907  137.8134  152.8730 C   0  0  0  0  0  0  0  0  0  0  0  0
  146.8434  138.7444  152.1087 C   0  0  0  0  0  0  0  0  0  0  0  0
  147.5381  139.8080  152.7433 N   0  0  0  0  0  0  0  0  0  0  0  0
  147.2216  140.4653  153.8739 C   0  0  0  0  0  0  0  0  0  0  0  0
  146.2046  140.1627  154.5096 O   0  0  0  0  0  0  0  0  0  0  0  0
  148.1253  141.4392  154.1746 N   0  5  0  0  0  0  0  0  0  0  0  0
  149.2451  141.2797  155.1009 C   0  0  0  0  0  0  0  0  0  0  0  0
  148.7952  141.5893  156.5436 C   0  0  0  0  0  0  0  0  0  0  0  0
  149.5401  142.7400  157.1200 N   0  3  2  0  0  0  0  0  0  0  0  0
  151.0010  142.7051  156.8319 C   0  0  0  0  0  0  0  0  0  0  0  0
  151.6925  143.9929  157.3135 C   0  0  0  0  0  0  0  0  0  0  0  0
  151.4437  144.2624  158.8089 C   0  0  2  0  0  0  0  0  0  0  0  0
  152.2489  143.3243  159.7251 C   0  0  0  0  0  0  0  0  0  0  0  0
  149.9311  144.2181  159.0934 C   0  0  0  0  0  0  0  0  0  0  0  0
  149.2758  142.9272  158.5703 C   0  0  0  0  0  0  0  0  0  0  0  0
  146.8051  138.4881  150.8093 N   0  0  0  0  0  0  0  0  0  0  0  0
  146.0002  137.3495  150.6846 O   0  0  0  0  0  0  0  0  0  0  0  0
  144.8297  135.2609  152.9606 H   0  0  0  0  0  0  0  0  0  0  0  0
  144.9611  135.0513  151.2143 H   0  0  0  0  0  0  0  0  0  0  0  0
  143.6655  136.0425  151.8887 H   0  0  0  0  0  0  0  0  0  0  0  0
  145.9412  137.7718  153.9417 H   0  0  0  0  0  0  0  0  0  0  0  0
  148.3852  140.1093  152.2849 H   0  0  0  0  0  0  0  0  0  0  0  0
  149.6680  140.2750  155.0632 H   0  0  0  0  0  0  0  0  0  0  0  0
  150.0669  141.9473  154.8408 H   0  0  0  0  0  0  0  0  0  0  0  0
  147.7267  141.8105  156.5227 H   0  0  0  0  0  0  0  0  0  0  0  0
  148.9060  140.7162  157.1889 H   0  0  0  0  0  0  0  0  0  0  0  0
  151.4481  141.8313  157.3075 H   0  0  0  0  0  0  0  0  0  0  0  0
  151.1688  142.5925  155.7604 H   0  0  0  0  0  0  0  0  0  0  0  0
  152.7628  143.9412  157.1103 H   0  0  0  0  0  0  0  0  0  0  0  0
  151.3151  144.8347  156.7311 H   0  0  0  0  0  0  0  0  0  0  0  0
  151.7899  145.2742  159.0237 H   0  0  0  0  0  0  0  0  0  0  0  0
  151.9754  142.2784  159.5877 H   0  0  0  0  0  0  0  0  0  0  0  0
  152.0873  143.5713  160.7748 H   0  0  0  0  0  0  0  0  0  0  0  0
  153.3181  143.4131  159.5306 H   0  0  0  0  0  0  0  0  0  0  0  0
  149.7439  144.3270  160.1622 H   0  0  0  0  0  0  0  0  0  0  0  0
  149.4532  145.0743  158.6150 H   0  0  0  0  0  0  0  0  0  0  0  0
  148.2002  142.9850  158.7410 H   0  0  0  0  0  0  0  0  0  0  0  0
  149.6358  142.0592  159.1241 H   0  0  0  0  0  0  0  0  0  0  0  0
  149.1696  143.5600  156.6612 H   0  0  0  0  0  0  0  0  0  0  0  0
  1  2  1  0  0  0  0
  1 20  1  0  0  0  0
  1 21  1  0  0  0  0
  1 22  1  0  0  0  0
  2 19  1  0  0  0  0
  2  3  2  0  0  0  0
  3  4  1  0  0  0  0
  3 23  1  0  0  0  0
  4  5  1  0  0  0  0
  4 18  2  0  0  0  0
  5  6  1  0  0  0  0
  5 24  1  0  0  0  0
  6  7  2  0  0  0  0
  6  8  1  0  0  0  0
  8  9  1  0  0  0  0
  9 10  1  0  0  0  0
  9 25  1  0  0  0  0
  9 26  1  0  0  0  0
 10 11  1  0  0  0  0
 10 27  1  0  0  0  0
 10 28  1  0  0  0  0
 11 17  1  0  0  0  0
 11 12  1  0  0  0  0
 11 41  1  0  0  0  0
 12 13  1  0  0  0  0
 12 29  1  0  0  0  0
 12 30  1  0  0  0  0
 13 14  1  0  0  0  0
 13 31  1  0  0  0  0
 13 32  1  0  0  0  0
 14 15  1  0  0  0  0
 14 16  1  0  0  0  0
 14 33  1  0  0  0  0
 15 34  1  0  0  0  0
 15 35  1  0  0  0  0
 15 36  1  0  0  0  0
 16 17  1  0  0  0  0
 16 37  1  0  0  0  0
 16 38  1  0  0  0  0
 17 39  1  0  0  0  0
 17 40  1  0  0  0  0
 18 19  1  0  0  0  0
M  CHG  1   8  -1
M  CHG  1  11   1
M  END
> <s_m_source_file>
AV-unprocessed.smi

> <i_m_source_file_index>
2090

> <i_lp_mmshare_version>
43012

> <i_f3d_flags>
0

> <s_epik_input>
W0NIM11jMVtjSF1jKG5vMSlbTkhdQyg9TylbTkhdW0NIMl1bQ0gyXU4yW0NIMl1bQ0gyXVtDSF0oW0NIM10pW0NIMl1bQ0gyXTI=

> <s_epik_cmdline>
J2VwaWtfcHl0aG9uJywgJy1waCcsICc3LjAnLCAnLXRuJywgJzgnLCAnLW1hJywgJzIwMCcsICctbWV0YWxfYmluZGluZycsICctaW1hZScsICc8aW5maWxlLm1hZT4nLCAnLW9tYWUnLCAnPG91dGZpbGUubWFlPic=

> <r_epik_Ionization_Penalty>
6.7721

> <r_epik_Ionization_Penalty_Charging>
6.7721

> <r_epik_Ionization_Penalty_Neutral>
5.78572e-06

> <r_epik_State_Penalty>
6.79704

> <r_epik_Charging_Adjusted_Penalty>
13.5691

> <i_epik_Tot_Q>
0

> <i_epik_Tot_abs_Q>
2

> <r_epik_Metal_State_Penalty>
2.73105

> <b_epik_Metal_Only>
1

> <s_lp_Force_Field>
OPLS_2005

> <r_lp_Energy>
13.6419

> <b_lp_Chiralities_Consistent>
1

> <s_lp_Variant>
AV-unprocessed.smi:2090-6

> <Gold.Version>
5.8.1

> <Gold.Id.Protein>
6NUR|6NUR_protein|mol2

> <Gold.PLP.Fitness>
40.6684

> <Gold.PLP.PLP>
-31.7693

> <Gold.PLP.part.hbond>
-3.0590

> <Gold.PLP.part.metal>
0.0000

> <Gold.PLP.part.buried>
-6.5543

> <Gold.PLP.part.nonpolar>
-27.9626

> <Gold.PLP.part.repulsive>
4.1199

> <Gold.PLP.ligand.clash>
0.0000

> <Gold.PLP.ligand.torsion>
1.5795

> <Gold.PLP.Chemscore.Hbond>
4.0000

> <Gold.PLP.Chemscore.CHOScore>
0.0000

> <Gold.PLP.Chemscore.Metal>
0.0000

> <Gold.Chemscore.Hbonds>
donor molecule, donor type, donor heavy atom, donor atom, acceptor molecule, acceptor atom, score
      L1  H     5    24       P1  7957  1.00
      L1  H    11    41       P1  8028  2.00
      P1  H  7954  7966       L1    18  0.83

> <Gold.PLP.Chemscore.Internal.Correction>
0.0581

> <Gold.Rescore>
     Score         DG    S(hbond)    S(metal)    S(lipo)     H(rot)  DE(clash)    DE(int)     intcor
     14.71     -19.81       2.65        0.00      80.52       1.54       2.18       2.92       ----

> <Gold.Chemscore.Fitness>
14.7126

> <Gold.Chemscore.DG>
-19.8142

> <Gold.Chemscore.ZeroCoef>
-5.4800

> <Gold.Chemscore.Hbond>
2.6522

> <Gold.Chemscore.Metal>
0.0000

> <Gold.Chemscore.Lipo>
80.5182

> <Gold.Chemscore.Internal_Hbond>
0.0000

> <Gold.Chemscore.DEClash>
2.1801

> <Gold.Chemscore.DEInternal>
2.9215

> <Gold.Chemscore.Rot>
1.5409

> <Gold.Chemscore.Internal.Correction>
   9.000000E+99

> <Gold.Chemscore.Hbonds>
donor molecule, donor type, donor heavy atom, donor atom, acceptor molecule, acceptor atom, score
      L1  H     5    24       P1  7957  0.98
      L1  H    11    41       P1  8028  0.90
      P1  H  7954  7966       L1    18  0.14

> <Gold.Chemscore.Hbond.Weighted>
-8.8582

> <Gold.Chemscore.Metal.Weighted>
-0.0000

> <Gold.Chemscore.Lipo.Weighted>
-9.4206

> <Gold.Chemscore.Internal_Hbond.Weighted>
0.0000

> <Gold.Chemscore.DEClash.Weighted>
2.1801

> <Gold.Chemscore.DEInternal.Weighted>
2.9215

> <Gold.Chemscore.Rot.Weighted>
3.9446

> <Gold.Chemscore.Internal.Correction.Weighted>
   9.000000E+99

> <Gold.Protein.RotatedTorsions>
[ 6907 6896 6895 6894 ] final -134.22 input  -60.11 | X-H torsion
[ 7974 7965 7964 7962 ] final -160.10 input  175.53 | X-H torsion
[ 8008 7997 7996 7995 ] final   45.53 input   59.86 | X-H torsion
[ 10167 10162 10161 10158 ] final -173.86 input  -65.29 | X-H torsion
[ 10718 10713 10712 10709 ] final   14.62 input   66.30 | X-H torsion
[ 10763 10752 10751 10750 ] final -103.16 input  -60.55 | X-H torsion
[ 11005 11000 10999 10996 ] final   61.31 input  -57.11 | X-H torsion

> <Gold.Protein.ActiveResidues>
 VAL166  LYS551  ARG553  GLY616  TRP617  ASP618  TYR619  PRO620  LYS621  CYS622 
 ASP623  PHE694  ASN695  SER759  ASP760  ASP761  ALA762  ILE779  LEU786  VAL792 
 PHE793  MET794  SER795  GLU796  ALA797  LYS798  CYS799  TRP800  GLU811  SER814 

> <Gold.Protein.RotatedAtoms>
  150.9833  133.6223  159.2719 H   0  0  0  0  0  0  0  0  0  0  0  0  # atno 6907 bound_to 6896
  151.3470  135.0875  159.9400 H   0  0  0  0  0  0  0  0  0  0  0  0  # atno 6908 bound_to 6896
  152.5222  133.9433  159.7691 H   0  0  0  0  0  0  0  0  0  0  0  0  # atno 6909 bound_to 6896
  144.7440  140.3590  143.6100 H   0  0  0  0  0  0  0  0  0  0  0  0  # atno 7974 bound_to 7965
  155.3375  140.3406  155.4239 H   0  0  0  0  0  0  0  0  0  0  0  0  # atno 8008 bound_to 7997
  156.1830  140.1670  156.8274 H   0  0  0  0  0  0  0  0  0  0  0  0  # atno 8009 bound_to 7997
  154.5355  140.0736  156.8403 H   0  0  0  0  0  0  0  0  0  0  0  0  # atno 8010 bound_to 7997
  139.5665  144.1742  152.1320 H   0  0  0  0  0  0  0  0  0  0  0  0  # atno 10167 bound_to 10162
  157.0417  130.6234  149.5752 H   0  0  0  0  0  0  0  0  0  0  0  0  # atno 10718 bound_to 10713
  154.7787  135.4834  153.9798 H   0  0  0  0  0  0  0  0  0  0  0  0  # atno 10763 bound_to 10752
  153.1463  135.6782  153.8956 H   0  0  0  0  0  0  0  0  0  0  0  0  # atno 10764 bound_to 10752
  153.8615  135.3155  155.3416 H   0  0  0  0  0  0  0  0  0  0  0  0  # atno 10765 bound_to 10752
  140.0170  134.6210  155.9695 H   0  0  0  0  0  0  0  0  0  0  0  0  # atno 11005 bound_to 11000
  145.7197  139.1706  143.2492 LP  0  0  0  0  0  0  0  0  0  0  0  0  # atno 17320 bound_to 7965
  146.1286  140.7215  142.9423 LP  0  0  0  0  0  0  0  0  0  0  0  0  # atno 17321 bound_to 7965
  140.1266  144.5325  150.6828 LP  0  0  0  0  0  0  0  0  0  0  0  0  # atno 17342 bound_to 10162
  140.6949  143.2398  151.5029 LP  0  0  0  0  0  0  0  0  0  0  0  0  # atno 17343 bound_to 10162
  156.0036  130.5119  150.7751 LP  0  0  0  0  0  0  0  0  0  0  0  0  # atno 17370 bound_to 10713
  157.5099  131.0925  151.0211 LP  0  0  0  0  0  0  0  0  0  0  0  0  # atno 17371 bound_to 10713
  141.1749  133.6539  156.4791 LP  0  0  0  0  0  0  0  0  0  0  0  0  # atno 17394 bound_to 11000
  140.4454  134.6977  157.5013 LP  0  0  0  0  0  0  0  0  0  0  0  0  # atno 17395 bound_to 11000

$$$$
