AV-unprocessed.smi:2716|AV-procd|sdf|10483|dock8
  -GOLD-   2272014523D 1   1.00000     0.00000
 Structure written by MMmdl.
 19 19  0  0  0  0  0  0  0  0  1 V2000
  154.7664  139.6810  161.4259 N   0  0  0  0  0  0  0  0  0  0  0  0
  154.3376  140.2763  160.3095 C   0  0  0  0  0  0  0  0  0  0  0  0
  154.5294  139.7985  159.1930 O   0  0  0  0  0  0  0  0  0  0  0  0
  153.6159  141.5610  160.5206 C   0  0  0  0  0  0  0  0  0  0  0  0
  153.1891  142.4122  159.5403 C   0  0  0  0  0  0  0  0  0  0  0  0
  152.5914  143.4387  160.2417 N   0  0  0  0  0  0  0  0  0  0  0  0
  151.9521  144.6355  159.7251 C   0  0  0  0  0  0  0  0  0  0  0  0
  150.4833  144.7595  160.1638 C   0  0  0  0  0  0  0  0  0  0  0  0
  150.3499  144.5363  161.5526 O   0  0  0  0  0  0  0  0  0  0  0  0
  152.6435  143.2239  161.5781 N   0  0  0  0  0  0  0  0  0  0  0  0
  153.2593  142.0982  161.7607 N   0  0  0  0  0  0  0  0  0  0  0  0
  155.2663  138.8058  161.3704 H   0  0  0  0  0  0  0  0  0  0  0  0
  154.5876  140.1133  162.3209 H   0  0  0  0  0  0  0  0  0  0  0  0
  153.2585  142.3809  158.4630 H   0  0  0  0  0  0  0  0  0  0  0  0
  152.5199  145.5048  160.0596 H   0  0  0  0  0  0  0  0  0  0  0  0
  152.0177  144.6199  158.6364 H   0  0  0  0  0  0  0  0  0  0  0  0
  150.1055  145.7551  159.9310 H   0  0  0  0  0  0  0  0  0  0  0  0
  149.8584  144.0455  159.6263 H   0  0  0  0  0  0  0  0  0  0  0  0
  149.5074  144.1398  161.7141 H   0  0  0  0  0  0  0  0  0  0  0  0
  1  2  1  0  0  0  0
  1 12  1  0  0  0  0
  1 13  1  0  0  0  0
  2  3  2  0  0  0  0
  2  4  1  0  0  0  0
  4 11  1  0  0  0  0
  4  5  2  0  0  0  0
  5  6  1  0  0  0  0
  5 14  1  0  0  0  0
  6  7  1  0  0  0  0
  6 10  1  0  0  0  0
  7  8  1  0  0  0  0
  7 15  1  0  0  0  0
  7 16  1  0  0  0  0
  8  9  1  0  0  0  0
  8 17  1  0  0  0  0
  8 18  1  0  0  0  0
  9 19  1  0  0  0  0
 10 11  2  0  0  0  0
M  END
> <s_m_source_file>
AV-unprocessed.smi

> <i_m_source_file_index>
2716

> <i_lp_mmshare_version>
43012

> <i_f3d_flags>
0

> <s_epik_input>
W05IMl1DKD1PKWMxW2NIXW4obm4xKVtDSDJdW0NIMl1bT0hd

> <s_epik_cmdline>
J2VwaWtfcHl0aG9uJywgJy1waCcsICc3LjAnLCAnLXRuJywgJzgnLCAnLW1hJywgJzIwMCcsICctbWV0YWxfYmluZGluZycsICctaW1hZScsICc8aW5maWxlLm1hZT4nLCAnLW9tYWUnLCAnPG91dGZpbGUubWFlPic=

> <r_lp_tautomer_probability>
1

> <r_epik_Ionization_Penalty>
2.94119e-06

> <r_epik_Ionization_Penalty_Charging>
0

> <r_epik_Ionization_Penalty_Neutral>
2.94119e-06

> <r_epik_State_Penalty>
-0

> <r_epik_Charging_Adjusted_Penalty>
0

> <i_epik_Tot_Q>
0

> <i_epik_Tot_abs_Q>
0

> <r_epik_Metal_State_Penalty>
-0

> <b_epik_Metal_Only>
0

> <s_lp_Force_Field>
OPLS_2005

> <r_lp_Energy>
2.94202

> <b_lp_Chiralities_Consistent>
1

> <s_lp_Variant>
AV-unprocessed.smi:2716-1

> <Gold.Version>
5.8.1

> <Gold.Id.Protein>
6NUR|6NUR_protein|mol2

> <Gold.PLP.Fitness>
30.5769

> <Gold.PLP.PLP>
-27.6881

> <Gold.PLP.part.hbond>
-3.8746

> <Gold.PLP.part.metal>
0.0000

> <Gold.PLP.part.buried>
-4.8790

> <Gold.PLP.part.nonpolar>
-18.8783

> <Gold.PLP.part.repulsive>
0.1276

> <Gold.PLP.ligand.clash>
0.0000

> <Gold.PLP.ligand.torsion>
0.0558

> <Gold.PLP.Chemscore.Hbond>
1.0000

> <Gold.PLP.Chemscore.CHOScore>
0.0000

> <Gold.PLP.Chemscore.Metal>
0.0000

> <Gold.Chemscore.Hbonds>
donor molecule, donor type, donor heavy atom, donor atom, acceptor molecule, acceptor atom, score
      P1  H  7997  8008       L1     3  0.99

> <Gold.PLP.Chemscore.Internal.Correction>
0.0003

> <Gold.Rescore>
     Score         DG    S(hbond)    S(metal)    S(lipo)     H(rot)  DE(clash)    DE(int)     intcor
      6.81      -8.19       0.98        0.00      42.06       2.14       0.08       1.31       ----

> <Gold.Chemscore.Fitness>
6.8130

> <Gold.Chemscore.DG>
-8.1948

> <Gold.Chemscore.ZeroCoef>
-5.4800

> <Gold.Chemscore.Hbond>
0.9795

> <Gold.Chemscore.Metal>
0.0000

> <Gold.Chemscore.Lipo>
42.0590

> <Gold.Chemscore.Internal_Hbond>
0.0000

> <Gold.Chemscore.DEClash>
0.0756

> <Gold.Chemscore.DEInternal>
1.3062

> <Gold.Chemscore.Rot>
2.1398

> <Gold.Chemscore.Internal.Correction>
   9.000000E+99

> <Gold.Chemscore.Hbonds>
donor molecule, donor type, donor heavy atom, donor atom, acceptor molecule, acceptor atom, score
      P1  H  7997  8008       L1     3  0.90

> <Gold.Chemscore.Hbond.Weighted>
-3.2717

> <Gold.Chemscore.Metal.Weighted>
-0.0000

> <Gold.Chemscore.Lipo.Weighted>
-4.9209

> <Gold.Chemscore.Internal_Hbond.Weighted>
0.0000

> <Gold.Chemscore.DEClash.Weighted>
0.0756

> <Gold.Chemscore.DEInternal.Weighted>
1.3062

> <Gold.Chemscore.Rot.Weighted>
5.4778

> <Gold.Chemscore.Internal.Correction.Weighted>
   9.000000E+99

> <Gold.Protein.RotatedTorsions>
[ 6907 6896 6895 6894 ] final  165.70 input  -60.11 | X-H torsion
[ 7974 7965 7964 7962 ] final  177.95 input  175.53 | X-H torsion
[ 8008 7997 7996 7995 ] final -132.59 input   59.86 | X-H torsion
[ 10167 10162 10161 10158 ] final -177.60 input  -65.29 | X-H torsion
[ 10718 10713 10712 10709 ] final   46.60 input   66.30 | X-H torsion
[ 10763 10752 10751 10750 ] final  -78.27 input  -60.55 | X-H torsion
[ 11005 11000 10999 10996 ] final   71.55 input  -57.11 | X-H torsion

> <Gold.Protein.ActiveResidues>
 VAL166  LYS551  ARG553  GLY616  TRP617  ASP618  TYR619  PRO620  LYS621  CYS622 
 ASP623  PHE694  ASN695  SER759  ASP760  ASP761  ALA762  ILE779  LEU786  VAL792 
 PHE793  MET794  SER795  GLU796  ALA797  LYS798  CYS799  TRP800  GLU811  SER814 

> <Gold.Protein.RotatedAtoms>
  151.8903  133.3514  159.3795 H   0  0  0  0  0  0  0  0  0  0  0  0  # atno 6907 bound_to 6896
  150.7105  134.4930  159.5534 H   0  0  0  0  0  0  0  0  0  0  0  0  # atno 6908 bound_to 6896
  152.2499  134.8144  160.0498 H   0  0  0  0  0  0  0  0  0  0  0  0  # atno 6909 bound_to 6896
  144.7162  140.0325  143.6439 H   0  0  0  0  0  0  0  0  0  0  0  0  # atno 7974 bound_to 7965
  155.3315  140.0467  157.3042 H   0  0  0  0  0  0  0  0  0  0  0  0  # atno 8008 bound_to 7997
  154.5326  140.2262  155.8744 H   0  0  0  0  0  0  0  0  0  0  0  0  # atno 8009 bound_to 7997
  156.1803  140.3075  155.9142 H   0  0  0  0  0  0  0  0  0  0  0  0  # atno 8010 bound_to 7997
  139.5472  144.2203  152.1011 H   0  0  0  0  0  0  0  0  0  0  0  0  # atno 10167 bound_to 10162
  157.4498  130.8131  149.7777 H   0  0  0  0  0  0  0  0  0  0  0  0  # atno 10718 bound_to 10713
  154.5238  135.5735  153.6702 H   0  0  0  0  0  0  0  0  0  0  0  0  # atno 10763 bound_to 10752
  152.9923  135.6188  154.2720 H   0  0  0  0  0  0  0  0  0  0  0  0  # atno 10764 bound_to 10752
  154.2642  135.2855  155.2745 H   0  0  0  0  0  0  0  0  0  0  0  0  # atno 10765 bound_to 10752
  139.9537  134.7181  156.0802 H   0  0  0  0  0  0  0  0  0  0  0  0  # atno 11005 bound_to 11000
  146.0091  139.3154  143.0881 LP  0  0  0  0  0  0  0  0  0  0  0  0  # atno 17320 bound_to 7965
  145.8703  140.9423  143.0654 LP  0  0  0  0  0  0  0  0  0  0  0  0  # atno 17321 bound_to 7965
  140.1692  144.4952  150.6589 LP  0  0  0  0  0  0  0  0  0  0  0  0  # atno 17342 bound_to 10162
  140.6724  143.2291  151.5591 LP  0  0  0  0  0  0  0  0  0  0  0  0  # atno 17343 bound_to 10162
  155.9982  130.3895  150.2710 LP  0  0  0  0  0  0  0  0  0  0  0  0  # atno 17370 bound_to 10713
  157.0880  131.0162  151.3132 LP  0  0  0  0  0  0  0  0  0  0  0  0  # atno 17371 bound_to 10713
  141.1205  133.6614  156.3202 LP  0  0  0  0  0  0  0  0  0  0  0  0  # atno 17394 bound_to 11000
  140.5659  134.5889  157.5445 LP  0  0  0  0  0  0  0  0  0  0  0  0  # atno 17395 bound_to 11000

$$$$
