AV-unprocessed.smi:1527|AV-procd|sdf|6147|dock7
  -GOLD-   22720 6293D 1   1.00000     0.00000
 Structure written by MMmdl.
 30 30  0  0  0  0  0  0  0  0  2 V2000
  150.9290  139.3364  155.0017 C   0  0  0  0  0  0  0  0  0  0  0  0
  149.4300  139.5993  155.2063 C   0  0  0  0  0  0  0  0  0  0  0  0
  149.0355  139.8267  156.6780 C   0  0  2  0  0  0  0  0  0  0  0  0
  149.6454  141.1246  157.2316 C   0  0  0  0  0  0  0  0  0  0  0  0
  149.4525  138.6888  157.4942 N   0  0  0  0  0  0  0  0  0  0  0  0
  148.6676  138.0095  158.3445 C   0  0  0  0  0  0  0  0  0  0  0  0
  147.4799  138.2811  158.5279 O   0  0  0  0  0  0  0  0  0  0  0  0
  149.3397  136.8400  159.0810 C   0  0  0  0  0  0  0  0  0  0  0  0
  148.4891  136.2040  160.0978 N   0  0  0  0  0  0  0  0  0  0  0  0
  147.9820  137.1298  161.1069 N   0  5  0  0  0  0  0  0  0  0  0  0
  147.2026  136.6514  162.1128 C   0  0  0  0  0  0  0  0  0  0  0  0
  146.7549  137.3661  163.0067 O   0  0  0  0  0  0  0  0  0  0  0  0
  146.8875  135.2324  162.1185 C   0  0  0  0  0  0  0  0  0  0  0  0
  147.3477  134.4057  161.1589 C   0  0  0  0  0  0  0  0  0  0  0  0
  148.1903  134.8738  160.0651 C   0  0  0  0  0  0  0  0  0  0  0  0
  148.6051  134.1261  159.1789 O   0  0  0  0  0  0  0  0  0  0  0  0
  151.1464  139.1372  153.9523 H   0  0  0  0  0  0  0  0  0  0  0  0
  151.2584  138.4720  155.5786 H   0  0  0  0  0  0  0  0  0  0  0  0
  151.5324  140.1923  155.3053 H   0  0  0  0  0  0  0  0  0  0  0  0
  149.1295  140.4585  154.6054 H   0  0  0  0  0  0  0  0  0  0  0  0
  148.8727  138.7474  154.8150 H   0  0  0  0  0  0  0  0  0  0  0  0
  147.9483  139.9157  156.7211 H   0  0  0  0  0  0  0  0  0  0  0  0
  149.3312  141.9869  156.6432 H   0  0  0  0  0  0  0  0  0  0  0  0
  150.7353  141.0898  157.2155 H   0  0  0  0  0  0  0  0  0  0  0  0
  149.3333  141.3009  158.2615 H   0  0  0  0  0  0  0  0  0  0  0  0
  150.4129  138.3914  157.4025 H   0  0  0  0  0  0  0  0  0  0  0  0
  149.6536  136.1091  158.3337 H   0  0  0  0  0  0  0  0  0  0  0  0
  150.2602  137.1920  159.5498 H   0  0  0  0  0  0  0  0  0  0  0  0
  146.2684  134.8329  162.9081 H   0  0  0  0  0  0  0  0  0  0  0  0
  147.0870  133.3588  161.2015 H   0  0  0  0  0  0  0  0  0  0  0  0
  1  2  1  0  0  0  0
  1 17  1  0  0  0  0
  1 18  1  0  0  0  0
  1 19  1  0  0  0  0
  2  3  1  0  0  0  0
  2 20  1  0  0  0  0
  2 21  1  0  0  0  0
  3  4  1  0  0  0  0
  3  5  1  0  0  0  0
  3 22  1  0  0  0  0
  4 23  1  0  0  0  0
  4 24  1  0  0  0  0
  4 25  1  0  0  0  0
  5  6  1  0  0  0  0
  5 26  1  0  0  0  0
  6  7  2  0  0  0  0
  6  8  1  0  0  0  0
  8 27  1  0  0  0  0
  8 28  1  0  0  0  0
  8  9  1  0  0  0  0
  9 10  1  0  0  0  0
  9 15  1  0  0  0  0
 10 11  1  0  0  0  0
 11 12  2  0  0  0  0
 11 13  1  0  0  0  0
 13 29  1  0  0  0  0
 13 14  2  0  0  0  0
 14 30  1  0  0  0  0
 14 15  1  0  0  0  0
 15 16  2  0  0  0  0
M  CHG  1  10  -1
M  END
> <s_m_source_file>
AV-unprocessed.smi

> <i_m_source_file_index>
1527

> <i_lp_mmshare_version>
43012

> <i_f3d_flags>
0

> <s_epik_input>
W0NIM11bQ0gyXVtDQEhdKFtDSDNdKVtOSF1DKD1PKVtDSDJdbjFbbkhdYyg9TylbY0hdW2NIXWMxPU8=

> <s_epik_cmdline>
J2VwaWtfcHl0aG9uJywgJy1waCcsICc3LjAnLCAnLXRuJywgJzgnLCAnLW1hJywgJzIwMCcsICctbWV0YWxfYmluZGluZycsICctaW1hZScsICc8aW5maWxlLm1hZT4nLCAnLW9tYWUnLCAnPG91dGZpbGUubWFlPic=

> <r_lp_tautomer_probability>
1

> <r_epik_Ionization_Penalty>
0.0984334

> <r_epik_Ionization_Penalty_Charging>
0.0984334

> <r_epik_Ionization_Penalty_Neutral>
1.93017e-08

> <r_epik_State_Penalty>
0.0346952

> <r_epik_Charging_Adjusted_Penalty>
0.133129

> <i_epik_Tot_Q>
-1

> <i_epik_Tot_abs_Q>
1

> <r_epik_Metal_State_Penalty>
0.0346952

> <b_epik_Metal_Only>
0

> <s_lp_Force_Field>
OPLS_2005

> <r_lp_Energy>
18.7632

> <b_lp_Chiralities_Consistent>
1

> <s_lp_Variant>
AV-unprocessed.smi:1527-1

> <Gold.Version>
5.8.1

> <Gold.Id.Protein>
6NUR|6NUR_protein|mol2

> <Gold.PLP.Fitness>
36.8645

> <Gold.PLP.PLP>
-23.7194

> <Gold.PLP.part.hbond>
-4.1140

> <Gold.PLP.part.metal>
0.0000

> <Gold.PLP.part.buried>
-2.4713

> <Gold.PLP.part.nonpolar>
-18.2874

> <Gold.PLP.part.repulsive>
0.0676

> <Gold.PLP.ligand.clash>
0.0000

> <Gold.PLP.ligand.torsion>
0.1661

> <Gold.PLP.Chemscore.Hbond>
4.4880

> <Gold.PLP.Chemscore.CHOScore>
0.0000

> <Gold.PLP.Chemscore.Metal>
0.0000

> <Gold.Chemscore.Hbonds>
donor molecule, donor type, donor heavy atom, donor atom, acceptor molecule, acceptor atom, score
      P1  H  6896  6909       L1    16  0.96
      P1  H  6931  6943       L1    10  2.00
      P1  H  6934  6947       L1    10  1.39

> <Gold.PLP.Chemscore.Internal.Correction>
0.0133

> <Gold.Rescore>
     Score         DG    S(hbond)    S(metal)    S(lipo)     H(rot)  DE(clash)    DE(int)     intcor
      9.47     -10.88       1.92        0.00      33.92       1.94       0.00       1.41       ----

> <Gold.Chemscore.Fitness>
9.4674

> <Gold.Chemscore.DG>
-10.8759

> <Gold.Chemscore.ZeroCoef>
-5.4800

> <Gold.Chemscore.Hbond>
1.9181

> <Gold.Chemscore.Metal>
0.0000

> <Gold.Chemscore.Lipo>
33.9190

> <Gold.Chemscore.Internal_Hbond>
0.0000

> <Gold.Chemscore.DEClash>
0.0000

> <Gold.Chemscore.DEInternal>
1.4085

> <Gold.Chemscore.Rot>
1.9449

> <Gold.Chemscore.Internal.Correction>
   9.000000E+99

> <Gold.Chemscore.Hbonds>
donor molecule, donor type, donor heavy atom, donor atom, acceptor molecule, acceptor atom, score
      P1  H  6896  6909       L1    16  0.47
      P1  H  6931  6943       L1    10  0.42
      P1  H  6934  6947       L1    10  0.17

> <Gold.Chemscore.Hbond.Weighted>
-6.4064

> <Gold.Chemscore.Metal.Weighted>
-0.0000

> <Gold.Chemscore.Lipo.Weighted>
-3.9685

> <Gold.Chemscore.Internal_Hbond.Weighted>
0.0000

> <Gold.Chemscore.DEClash.Weighted>
0.0000

> <Gold.Chemscore.DEInternal.Weighted>
1.4085

> <Gold.Chemscore.Rot.Weighted>
4.9791

> <Gold.Chemscore.Internal.Correction.Weighted>
   9.000000E+99

> <Gold.Protein.RotatedTorsions>
[ 6907 6896 6895 6894 ] final   18.21 input  -60.11 | X-H torsion
[ 7974 7965 7964 7962 ] final -155.43 input  175.53 | X-H torsion
[ 8008 7997 7996 7995 ] final   -1.92 input   59.86 | X-H torsion
[ 10167 10162 10161 10158 ] final  -48.66 input  -65.29 | X-H torsion
[ 10718 10713 10712 10709 ] final -173.26 input   66.30 | X-H torsion
[ 10763 10752 10751 10750 ] final   30.33 input  -60.55 | X-H torsion
[ 11005 11000 10999 10996 ] final -164.62 input  -57.11 | X-H torsion

> <Gold.Protein.ActiveResidues>
 VAL166  LYS551  ARG553  GLY616  TRP617  ASP618  TYR619  PRO620  LYS621  CYS622 
 ASP623  PHE694  ASN695  SER759  ASP760  ASP761  ALA762  ILE779  LEU786  VAL792 
 PHE793  MET794  SER795  GLU796  ALA797  LYS798  CYS799  TRP800  GLU811  SER814 

> <Gold.Protein.RotatedAtoms>
  151.8617  135.0522  160.0469 H   0  0  0  0  0  0  0  0  0  0  0  0  # atno 6907 bound_to 6896
  152.2658  133.5333  159.5417 H   0  0  0  0  0  0  0  0  0  0  0  0  # atno 6908 bound_to 6896
  150.7133  134.0683  159.3898 H   0  0  0  0  0  0  0  0  0  0  0  0  # atno 6909 bound_to 6896
  144.7640  140.4250  143.5955 H   0  0  0  0  0  0  0  0  0  0  0  0  # atno 7974 bound_to 7965
  154.6415  140.2547  155.7317 H   0  0  0  0  0  0  0  0  0  0  0  0  # atno 8008 bound_to 7997
  156.2531  140.2886  156.0731 H   0  0  0  0  0  0  0  0  0  0  0  0  # atno 8009 bound_to 7997
  155.1590  140.0384  157.2828 H   0  0  0  0  0  0  0  0  0  0  0  0  # atno 8010 bound_to 7997
  140.6721  143.2730  151.4103 H   0  0  0  0  0  0  0  0  0  0  0  0  # atno 10167 bound_to 10162
  156.7676  130.9437  151.3119 H   0  0  0  0  0  0  0  0  0  0  0  0  # atno 10718 bound_to 10713
  153.0378  135.6467  154.1027 H   0  0  0  0  0  0  0  0  0  0  0  0  # atno 10763 bound_to 10752
  154.0739  135.2878  155.3304 H   0  0  0  0  0  0  0  0  0  0  0  0  # atno 10764 bound_to 10752
  154.6575  135.5403  153.8042 H   0  0  0  0  0  0  0  0  0  0  0  0  # atno 10765 bound_to 10752
  140.5848  134.5105  157.5184 H   0  0  0  0  0  0  0  0  0  0  0  0  # atno 11005 bound_to 11000
  145.6527  139.1568  143.2853 LP  0  0  0  0  0  0  0  0  0  0  0  0  # atno 17320 bound_to 7965
  146.1731  140.6615  142.9224 LP  0  0  0  0  0  0  0  0  0  0  0  0  # atno 17321 bound_to 7965
  139.5994  144.1328  152.2181 LP  0  0  0  0  0  0  0  0  0  0  0  0  # atno 17342 bound_to 10162
  140.0707  144.5781  150.7193 LP  0  0  0  0  0  0  0  0  0  0  0  0  # atno 17343 bound_to 10162
  157.6706  130.9047  150.0031 LP  0  0  0  0  0  0  0  0  0  0  0  0  # atno 17370 bound_to 10713
  156.1298  130.3643  149.9750 LP  0  0  0  0  0  0  0  0  0  0  0  0  # atno 17371 bound_to 10713
  139.9301  134.7981  156.0956 LP  0  0  0  0  0  0  0  0  0  0  0  0  # atno 17394 bound_to 11000
  141.0973  133.6691  156.2674 LP  0  0  0  0  0  0  0  0  0  0  0  0  # atno 17395 bound_to 11000

$$$$
