AV-unprocessed.smi:1747|AV-procd|sdf|7035|dock2
  -GOLD-   22720 8253D 1   1.00000     0.00000
 Structure written by MMmdl.
 40 41  0  0  0  0  0  0  0  0  1 V2000
  150.0326  144.9490  160.3197 C   0  0  0  0  0  0  0  0  0  0  0  0
  151.4312  144.3279  160.3361 C   0  0  0  0  0  0  0  0  0  0  0  0
  152.1981  144.6580  161.2407 O   0  0  0  0  0  0  0  0  0  0  0  0
  151.7782  143.4481  159.3658 N   0  0  0  0  0  0  0  0  0  0  0  0
  153.0709  142.7520  159.2672 C   0  0  0  0  0  0  0  0  0  0  0  0
  152.8356  141.2348  159.4048 C   0  0  0  0  0  0  0  0  0  0  0  0
  151.9092  140.7969  158.3424 N   0  0  0  0  0  0  0  0  0  0  0  0
  152.1939  139.9539  157.3172 C   0  0  0  0  0  0  0  0  0  0  0  0
  153.1542  139.1825  157.3208 O   0  0  0  0  0  0  0  0  0  0  0  0
  151.3499  140.0302  156.2770 N   0  0  0  0  0  0  0  0  0  0  0  0
  151.4716  139.2682  155.0404 C   0  0  0  0  0  0  0  0  0  0  0  0
  150.1003  139.0123  154.3894 C   0  0  0  0  0  0  0  0  0  0  0  0
  149.0959  140.0965  154.6588 C   0  0  0  0  0  0  0  0  0  0  0  0
  148.3446  140.7703  153.7286 C   0  0  0  0  0  0  0  0  0  0  0  0
  147.3239  141.9748  154.4655 S   0  0  0  0  0  0  0  0  0  0  0  0
  147.9647  141.5123  156.0369 C   0  0  0  0  0  0  0  0  0  0  0  0
  147.5451  142.1591  157.3119 C   0  0  0  0  0  0  0  0  0  0  0  0
  148.8653  140.5292  155.9694 N   0  0  0  0  0  0  0  0  0  0  0  0
  150.6158  141.4893  158.4499 C   0  0  0  0  0  0  0  0  0  0  0  0
  150.8433  143.0087  158.3187 C   0  0  0  0  0  0  0  0  0  0  0  0
  149.8687  145.5072  159.3976 H   0  0  0  0  0  0  0  0  0  0  0  0
  149.9105  145.6419  161.1529 H   0  0  0  0  0  0  0  0  0  0  0  0
  149.2653  144.1796  160.4121 H   0  0  0  0  0  0  0  0  0  0  0  0
  153.5221  142.9751  158.2990 H   0  0  0  0  0  0  0  0  0  0  0  0
  153.7987  143.0719  160.0108 H   0  0  0  0  0  0  0  0  0  0  0  0
  153.7965  140.7207  159.3999 H   0  0  0  0  0  0  0  0  0  0  0  0
  152.3929  141.0110  160.3767 H   0  0  0  0  0  0  0  0  0  0  0  0
  150.5830  140.6849  156.3345 H   0  0  0  0  0  0  0  0  0  0  0  0
  152.1057  139.8239  154.3478 H   0  0  0  0  0  0  0  0  0  0  0  0
  151.9723  138.3199  155.2403 H   0  0  0  0  0  0  0  0  0  0  0  0
  150.2355  138.8910  153.3142 H   0  0  0  0  0  0  0  0  0  0  0  0
  149.7120  138.0563  154.7432 H   0  0  0  0  0  0  0  0  0  0  0  0
  148.3348  140.6362  152.6571 H   0  0  0  0  0  0  0  0  0  0  0  0
  148.0056  141.6608  158.1655 H   0  0  0  0  0  0  0  0  0  0  0  0
  146.4616  142.1054  157.4186 H   0  0  0  0  0  0  0  0  0  0  0  0
  147.8471  143.2064  157.3141 H   0  0  0  0  0  0  0  0  0  0  0  0
  149.8972  141.1639  157.6965 H   0  0  0  0  0  0  0  0  0  0  0  0
  150.1621  141.2568  159.4146 H   0  0  0  0  0  0  0  0  0  0  0  0
  149.8828  143.5235  158.3655 H   0  0  0  0  0  0  0  0  0  0  0  0
  151.2632  143.2452  157.3399 H   0  0  0  0  0  0  0  0  0  0  0  0
  1  2  1  0  0  0  0
  1 21  1  0  0  0  0
  1 22  1  0  0  0  0
  1 23  1  0  0  0  0
  2  3  2  0  0  0  0
  2  4  1  0  0  0  0
  4 20  1  0  0  0  0
  4  5  1  0  0  0  0
  5  6  1  0  0  0  0
  5 24  1  0  0  0  0
  5 25  1  0  0  0  0
  6  7  1  0  0  0  0
  6 26  1  0  0  0  0
  6 27  1  0  0  0  0
  7  8  1  0  0  0  0
  7 19  1  0  0  0  0
  8  9  2  0  0  0  0
  8 10  1  0  0  0  0
 10 11  1  0  0  0  0
 10 28  1  0  0  0  0
 11 12  1  0  0  0  0
 11 29  1  0  0  0  0
 11 30  1  0  0  0  0
 12 13  1  0  0  0  0
 12 31  1  0  0  0  0
 12 32  1  0  0  0  0
 13 18  1  0  0  0  0
 13 14  2  0  0  0  0
 14 15  1  0  0  0  0
 14 33  1  0  0  0  0
 15 16  1  0  0  0  0
 16 17  1  0  0  0  0
 16 18  2  0  0  0  0
 17 34  1  0  0  0  0
 17 35  1  0  0  0  0
 17 36  1  0  0  0  0
 19 20  1  0  0  0  0
 19 37  1  0  0  0  0
 19 38  1  0  0  0  0
 20 39  1  0  0  0  0
 20 40  1  0  0  0  0
M  END
> <s_m_source_file>
AV-unprocessed.smi

> <i_m_source_file_index>
1747

> <i_lp_mmshare_version>
43012

> <i_f3d_flags>
0

> <s_epik_input>
W0NIM11DKD1PKU4xW0NIMl1bQ0gyXU4oW0NIMl1bQ0gyXTEpQyg9TylbTkhdW0NIMl1bQ0gyXWMyW2NIXXNjKG4yKVtDSDNd

> <s_epik_cmdline>
J2VwaWtfcHl0aG9uJywgJy1waCcsICc3LjAnLCAnLXRuJywgJzgnLCAnLW1hJywgJzIwMCcsICctbWV0YWxfYmluZGluZycsICctaW1hZScsICc8aW5maWxlLm1hZT4nLCAnLW9tYWUnLCAnPG91dGZpbGUubWFlPic=

> <r_epik_Ionization_Penalty>
0.00199956

> <r_epik_Ionization_Penalty_Charging>
0

> <r_epik_Ionization_Penalty_Neutral>
0.00199956

> <r_epik_State_Penalty>
0.00133382

> <r_epik_Charging_Adjusted_Penalty>
0.00133382

> <i_epik_Tot_Q>
0

> <i_epik_Tot_abs_Q>
0

> <r_epik_Metal_State_Penalty>
-0

> <b_epik_Metal_Only>
0

> <s_lp_Force_Field>
OPLS_2005

> <r_lp_Energy>
44.3218

> <b_lp_Chiralities_Consistent>
1

> <s_lp_Variant>
AV-unprocessed.smi:1747-1

> <Gold.Version>
5.8.1

> <Gold.Id.Protein>
6NUR|6NUR_protein|mol2

> <Gold.PLP.Fitness>
42.0425

> <Gold.PLP.PLP>
-38.2936

> <Gold.PLP.part.hbond>
-1.0000

> <Gold.PLP.part.metal>
0.0000

> <Gold.PLP.part.buried>
-1.9427

> <Gold.PLP.part.nonpolar>
-35.4598

> <Gold.PLP.part.repulsive>
0.3558

> <Gold.PLP.ligand.clash>
1.1451

> <Gold.PLP.ligand.torsion>
0.5704

> <Gold.PLP.Chemscore.Hbond>
1.0000

> <Gold.PLP.Chemscore.CHOScore>
1.0000

> <Gold.PLP.Chemscore.Metal>
0.0000

> <Gold.Chemscore.Hbonds>
donor molecule, donor type, donor heavy atom, donor atom, acceptor molecule, acceptor atom, score
      P1  H  7997  8008       L1     9  1.00
      L1  C    14    33       P1  7957  1.00

> <Gold.PLP.Chemscore.Internal.Correction>
0.0349

> <Gold.Rescore>
     Score         DG    S(hbond)    S(metal)    S(lipo)     H(rot)  DE(clash)    DE(int)     intcor
     11.67     -14.06       0.77        0.00      81.61       1.38       0.12       2.27       ----

> <Gold.Chemscore.Fitness>
11.6706

> <Gold.Chemscore.DG>
-14.0632

> <Gold.Chemscore.ZeroCoef>
-5.4800

> <Gold.Chemscore.Hbond>
0.7677

> <Gold.Chemscore.Metal>
0.0000

> <Gold.Chemscore.Lipo>
81.6081

> <Gold.Chemscore.Internal_Hbond>
0.0000

> <Gold.Chemscore.DEClash>
0.1213

> <Gold.Chemscore.DEInternal>
2.2712

> <Gold.Chemscore.Rot>
1.3786

> <Gold.Chemscore.Internal.Correction>
   9.000000E+99

> <Gold.Chemscore.Hbonds>
donor molecule, donor type, donor heavy atom, donor atom, acceptor molecule, acceptor atom, score
      P1  H  7997  8008       L1     9  0.39

> <Gold.Chemscore.Hbond.Weighted>
-2.5642

> <Gold.Chemscore.Metal.Weighted>
-0.0000

> <Gold.Chemscore.Lipo.Weighted>
-9.5481

> <Gold.Chemscore.Internal_Hbond.Weighted>
0.0000

> <Gold.Chemscore.DEClash.Weighted>
0.1213

> <Gold.Chemscore.DEInternal.Weighted>
2.2712

> <Gold.Chemscore.Rot.Weighted>
3.5291

> <Gold.Chemscore.Internal.Correction.Weighted>
   9.000000E+99

> <Gold.Protein.RotatedTorsions>
[ 6907 6896 6895 6894 ] final -168.50 input  -60.11 | X-H torsion
[ 7974 7965 7964 7962 ] final   52.51 input  175.53 | X-H torsion
[ 8008 7997 7996 7995 ] final  -54.10 input   59.86 | X-H torsion
[ 10167 10162 10161 10158 ] final -119.03 input  -65.29 | X-H torsion
[ 10718 10713 10712 10709 ] final  -52.02 input   66.30 | X-H torsion
[ 10763 10752 10751 10750 ] final    4.75 input  -60.55 | X-H torsion
[ 11005 11000 10999 10996 ] final   76.30 input  -57.11 | X-H torsion

> <Gold.Protein.ActiveResidues>
 VAL166  LYS551  ARG553  GLY616  TRP617  ASP618  TYR619  PRO620  LYS621  CYS622 
 ASP623  PHE694  ASN695  SER759  ASP760  ASP761  ALA762  ILE779  LEU786  VAL792 
 PHE793  MET794  SER795  GLU796  ALA797  LYS798  CYS799  TRP800  GLU811  SER814 

> <Gold.Protein.RotatedAtoms>
  151.4766  133.3556  159.2831 H   0  0  0  0  0  0  0  0  0  0  0  0  # atno 6907 bound_to 6896
  150.8925  134.8332  159.7314 H   0  0  0  0  0  0  0  0  0  0  0  0  # atno 6908 bound_to 6896
  152.4832  134.4677  159.9677 H   0  0  0  0  0  0  0  0  0  0  0  0  # atno 6909 bound_to 6896
  145.9806  139.4239  143.0134 H   0  0  0  0  0  0  0  0  0  0  0  0  # atno 7974 bound_to 7965
  154.4152  140.1184  156.5261 H   0  0  0  0  0  0  0  0  0  0  0  0  # atno 8008 bound_to 7997
  155.6653  140.3496  155.4779 H   0  0  0  0  0  0  0  0  0  0  0  0  # atno 8009 bound_to 7997
  155.9678  140.1135  157.0829 H   0  0  0  0  0  0  0  0  0  0  0  0  # atno 8010 bound_to 7997
  140.0510  143.5059  152.2081 H   0  0  0  0  0  0  0  0  0  0  0  0  # atno 10167 bound_to 10162
  156.1658  130.4149  149.9722 H   0  0  0  0  0  0  0  0  0  0  0  0  # atno 10718 bound_to 10713
  153.2675  135.6929  153.7514 H   0  0  0  0  0  0  0  0  0  0  0  0  # atno 10763 bound_to 10752
  153.6550  135.3370  155.3111 H   0  0  0  0  0  0  0  0  0  0  0  0  # atno 10764 bound_to 10752
  154.8452  135.4463  154.1687 H   0  0  0  0  0  0  0  0  0  0  0  0  # atno 10765 bound_to 10752
  139.9304  134.7590  156.1379 H   0  0  0  0  0  0  0  0  0  0  0  0  # atno 11005 bound_to 11000
  145.7774  140.9871  143.1117 LP  0  0  0  0  0  0  0  0  0  0  0  0  # atno 17320 bound_to 7965
  144.6860  139.9522  143.7478 LP  0  0  0  0  0  0  0  0  0  0  0  0  # atno 17321 bound_to 7965
  139.5953  144.7564  151.3302 LP  0  0  0  0  0  0  0  0  0  0  0  0  # atno 17342 bound_to 10162
  140.7216  143.7119  150.7763 LP  0  0  0  0  0  0  0  0  0  0  0  0  # atno 17343 bound_to 10162
  156.7538  130.9125  151.3638 LP  0  0  0  0  0  0  0  0  0  0  0  0  # atno 17370 bound_to 10713
  157.6767  130.9101  150.0167 LP  0  0  0  0  0  0  0  0  0  0  0  0  # atno 17371 bound_to 10713
  141.0889  133.6722  156.2497 LP  0  0  0  0  0  0  0  0  0  0  0  0  # atno 17394 bound_to 11000
  140.6217  134.5354  157.5548 LP  0  0  0  0  0  0  0  0  0  0  0  0  # atno 17395 bound_to 11000

$$$$
