#       Name:                AV-unprocessed.smi:1194
#       Creating user name   scv26
#       Creation time:       Fri Mar 27 03:59:27 2020


#       File generated by GOLD software.
#

@<TRIPOS>MOLECULE
AV-unprocessed.smi:1194
    52    53     1
SMALL
NO_CHARGES


@<TRIPOS>ATOM
      1 ****        -2.6178   3.7246   1.2942 C.3            1 S1                 0.0000
      2 ****        -2.3673   2.2151   1.2069 C.3            1 S1                 0.0000
      3 ****        -1.7730   1.7963  -0.1517 C.3            1 S1                 0.0000
      4 ****        -1.4795   0.2888  -0.2700 C.2            1 S1                 0.0000
      5 ****        -1.8078  -0.4441   0.6652 O.2            1 S1                 0.0000
      6 ****        -0.8549  -0.1902  -1.3810 N.am           1 S1                 0.0000
      7 ****        -0.3791   0.6820  -2.4816 C.3            1 S1                 0.0000
      8 ****        -0.6969   0.0979  -3.8663 C.3            1 S1                 0.0000
      9 ****        -0.1837  -1.3368  -3.9938 C.3            1 S1                 0.0000
     10 ****        -0.7791  -2.1847  -2.8667 C.3            1 S1                 0.0000
     11 ****        -0.4646  -1.6260  -1.4570 C.3            1 S1                 0.0000
     12 ****         1.0072  -1.8935  -1.0608 C.2            1 S1                 0.0000
     13 ****         1.4641  -3.0329  -1.1504 O.2            1 S1                 0.0000
     14 ****         1.7260  -0.8704  -0.5702 N.am           1 S1                 0.0000
     15 ****         3.0671  -0.9667  -0.0059 C.3            1 S1                 0.0000
     16 ****         3.0532  -1.5240   1.4320 C.3            1 S1                 0.0000
     17 ****         1.9967  -0.8822   2.3176 C.ar           1 S1                 0.0000
     18 ****         2.1687   0.4311   2.8076 C.ar           1 S1                 0.0000
     19 ****         1.1562   1.0118   3.5998 C.ar           1 S1                 0.0000
     20 ****        -0.0049   0.2650   3.8861 C.ar           1 S1                 0.0000
     21 ****        -0.1331  -0.9898   3.4027 N.pl3          1 S1                 1.0000
     22 ****         0.8128  -1.5811   2.6412 C.ar           1 S1                 0.0000
     23 ****        -3.0368   3.9935   2.2641 H              1 S1                 0.0000
     24 ****        -3.3193   4.0525   0.5266 H              1 S1                 0.0000
     25 ****        -1.6919   4.2856   1.1648 H              1 S1                 0.0000
     26 ****        -1.6934   1.9227   2.0130 H              1 S1                 0.0000
     27 ****        -3.3074   1.6898   1.3804 H              1 S1                 0.0000
     28 ****        -2.4624   2.0827  -0.9470 H              1 S1                 0.0000
     29 ****        -0.8452   2.3484  -0.3064 H              1 S1                 0.0000
     30 ****        -0.8058   1.6825  -2.4614 H              1 S1                 0.0000
     31 ****         0.6972   0.8227  -2.3852 H              1 S1                 0.0000
     32 ****        -1.7753   0.1169  -4.0307 H              1 S1                 0.0000
     33 ****        -0.2550   0.7214  -4.6441 H              1 S1                 0.0000
     34 ****        -0.4634  -1.7505  -4.9630 H              1 S1                 0.0000
     35 ****         0.9060  -1.3530  -3.9489 H              1 S1                 0.0000
     36 ****        -1.8618  -2.2275  -2.9931 H              1 S1                 0.0000
     37 ****        -0.4367  -3.2160  -2.9618 H              1 S1                 0.0000
     38 ****        -1.0599  -2.2287  -0.7696 H              1 S1                 0.0000
     39 ****         1.2833   0.0364  -0.5328 H              1 S1                 0.0000
     40 ****         3.7178  -1.5637  -0.6468 H              1 S1                 0.0000
     41 ****         3.4825   0.0413   0.0019 H              1 S1                 0.0000
     42 ****         2.8785  -2.6005   1.4015 H              1 S1                 0.0000
     43 ****         4.0338  -1.3912   1.8903 H              1 S1                 0.0000
     44 ****         3.0621   0.9912   2.5725 H              1 S1                 0.0000
     45 ****         1.2675   2.0167   3.9803 H              1 S1                 0.0000
     46 ****        -0.8298   0.6315   4.4795 H              1 S1                 0.0000
     47 ****         0.5882  -2.5826   2.3036 H              1 S1                 0.0000
     48 ****        -0.9839  -1.5113   3.6161 H              1 S1                 0.0000
     49 ****        -2.2520  -0.0558   1.4726 LP             1 S1                 0.0000
     50 ****        -1.6299  -1.4270   0.6164 LP             1 S1                 0.0000
     51 ****         0.8850  -3.7795  -1.4778 LP             1 S1                 0.0000
     52 ****         2.4145  -3.2120  -0.8959 LP             1 S1                 0.0000
@<TRIPOS>BOND
    1    1    2 1     
    2    1   23 1     
    3    1   24 1     
    4    1   25 1     
    5    2    3 1     
    6    2   26 1     
    7    2   27 1     
    8    3    4 1     
    9    3   28 1     
   10    3   29 1     
   11    4    5 2     
   12    4    6 am    
   13    6   11 1     
   14    6    7 1     
   15    7    8 1     
   16    7   30 1     
   17    7   31 1     
   18    8    9 1     
   19    8   32 1     
   20    8   33 1     
   21    9   10 1     
   22    9   34 1     
   23    9   35 1     
   24   10   11 1     
   25   10   36 1     
   26   10   37 1     
   27   11   12 1     
   28   11   38 1     
   29   12   13 2     
   30   12   14 am    
   31   14   15 1     
   32   14   39 1     
   33   15   16 1     
   34   15   40 1     
   35   15   41 1     
   36   16   17 1     
   37   16   42 1     
   38   16   43 1     
   39   17   22 ar    
   40   17   18 ar    
   41   18   19 ar    
   42   18   44 1     
   43   19   20 ar    
   44   19   45 1     
   45   20   21 ar    
   46   20   46 1     
   47   21   22 ar    
   48   21   48 1     
   49   22   47 1     
   50    5   49 1     
   51    5   50 1     
   52   13   51 1     
   53   13   52 1     
@<TRIPOS>SUBSTRUCTURE
      1 S1             1
@<TRIPOS>SET
LONE_PAIRS      STATIC     ATOMS    <user>   **** ""
4 49 50 51 52
DONOR_HYDROGENS      STATIC     ATOMS    <user>   **** ""
2 39 48
ATOM$BLUE        STATIC     ATOMS    COLORGROUP SYSTEM
4 49 50 51 52
ATOM$RED        STATIC     ATOMS    COLORGROUP SYSTEM
2 39 48
