AV-unprocessed.smi:565|AV-procd|sdf|2953|dock8
  -GOLD-   2262023453D 1   1.00000     0.00000
 Structure written by MMmdl.
 50 51  0  0  0  0  0  0  0  0  2 V2000
  152.6625  140.2722  159.0454 C   0  0  0  0  0  0  0  0  0  0  0  0
  152.3300  141.6412  159.5662 C   0  0  0  0  0  0  0  0  0  0  0  0
  152.7319  141.9916  160.7765 N   0  0  0  0  0  0  0  0  0  0  0  0
  152.2881  143.2549  160.9341 N   0  0  0  0  0  0  0  0  0  0  0  0
  152.5619  143.9567  162.1729 C   0  0  0  0  0  0  0  0  0  0  0  0
  151.6033  143.7028  159.8215 C   0  0  0  0  0  0  0  0  0  0  0  0
  151.0188  145.0767  159.7472 C   0  0  0  0  0  0  0  0  0  0  0  0
  151.6068  142.6803  158.9102 C   0  0  0  0  0  0  0  0  0  0  0  0
  151.0017  142.6436  157.5301 C   0  0  0  0  0  0  0  0  0  0  0  0
  149.6929  141.8528  157.5644 C   0  0  0  0  0  0  0  0  0  0  0  0
  149.6405  140.7703  158.1486 O   0  0  0  0  0  0  0  0  0  0  0  0
  148.6396  142.4063  156.9440 N   0  0  0  0  0  0  0  0  0  0  0  0
  147.2951  141.8432  156.9134 C   0  0  0  0  0  0  0  0  0  0  0  0
  146.2119  142.9380  156.8349 C   0  0  0  0  0  0  0  0  0  0  0  0
  146.1532  143.7701  158.0630 N   0  3  1  0  0  0  0  0  0  0  0  0
  144.8709  144.5121  158.1750 C   0  0  0  0  0  0  0  0  0  0  0  0
  144.8967  145.4885  159.3615 C   0  0  0  0  0  0  0  0  0  0  0  0
  145.2247  144.7567  160.6707 C   0  0  0  0  0  0  0  0  0  0  0  0
  146.5187  143.9322  160.5411 C   0  0  2  0  0  0  0  0  0  0  0  0
  147.7854  144.8063  160.5447 C   0  0  0  0  0  0  0  0  0  0  0  0
  146.4511  143.0084  159.3073 C   0  0  0  0  0  0  0  0  0  0  0  0
  153.1677  140.3347  158.0817 H   0  0  0  0  0  0  0  0  0  0  0  0
  151.7586  139.6785  158.9087 H   0  0  0  0  0  0  0  0  0  0  0  0
  153.3176  139.7270  159.7260 H   0  0  0  0  0  0  0  0  0  0  0  0
  151.6237  144.1803  162.6809 H   0  0  0  0  0  0  0  0  0  0  0  0
  153.0826  144.8902  161.9587 H   0  0  0  0  0  0  0  0  0  0  0  0
  153.1850  143.3499  162.8311 H   0  0  0  0  0  0  0  0  0  0  0  0
  150.5381  145.2522  158.7851 H   0  0  0  0  0  0  0  0  0  0  0  0
  151.7927  145.8339  159.8729 H   0  0  0  0  0  0  0  0  0  0  0  0
  150.2707  145.2223  160.5265 H   0  0  0  0  0  0  0  0  0  0  0  0
  150.8187  143.6510  157.1536 H   0  0  0  0  0  0  0  0  0  0  0  0
  151.6727  142.1741  156.8106 H   0  0  0  0  0  0  0  0  0  0  0  0
  148.7733  143.2991  156.4909 H   0  0  0  0  0  0  0  0  0  0  0  0
  147.2291  141.1500  156.0748 H   0  0  0  0  0  0  0  0  0  0  0  0
  147.1578  141.2502  157.8180 H   0  0  0  0  0  0  0  0  0  0  0  0
  146.4411  143.5756  155.9796 H   0  0  0  0  0  0  0  0  0  0  0  0
  145.2271  142.5098  156.6427 H   0  0  0  0  0  0  0  0  0  0  0  0
  144.6846  145.0730  157.2584 H   0  0  0  0  0  0  0  0  0  0  0  0
  144.0478  143.8042  158.2863 H   0  0  0  0  0  0  0  0  0  0  0  0
  145.6323  146.2721  159.1773 H   0  0  0  0  0  0  0  0  0  0  0  0
  143.9329  145.9907  159.4504 H   0  0  0  0  0  0  0  0  0  0  0  0
  145.3032  145.4680  161.4938 H   0  0  0  0  0  0  0  0  0  0  0  0
  144.3983  144.0901  160.9215 H   0  0  0  0  0  0  0  0  0  0  0  0
  146.5857  143.2939  161.4231 H   0  0  0  0  0  0  0  0  0  0  0  0
  147.8245  145.4724  159.6829 H   0  0  0  0  0  0  0  0  0  0  0  0
  148.6855  144.1909  160.5250 H   0  0  0  0  0  0  0  0  0  0  0  0
  147.8318  145.4232  161.4425 H   0  0  0  0  0  0  0  0  0  0  0  0
  145.6770  142.2532  159.4545 H   0  0  0  0  0  0  0  0  0  0  0  0
  147.3925  142.4683  159.2167 H   0  0  0  0  0  0  0  0  0  0  0  0
  146.8752  144.4698  157.9677 H   0  0  0  0  0  0  0  0  0  0  0  0
  1  2  1  0  0  0  0
  1 22  1  0  0  0  0
  1 23  1  0  0  0  0
  1 24  1  0  0  0  0
  2  8  1  0  0  0  0
  2  3  2  0  0  0  0
  3  4  1  0  0  0  0
  4  5  1  0  0  0  0
  4  6  1  0  0  0  0
  5 25  1  0  0  0  0
  5 26  1  0  0  0  0
  5 27  1  0  0  0  0
  6  7  1  0  0  0  0
  6  8  2  0  0  0  0
  7 28  1  0  0  0  0
  7 29  1  0  0  0  0
  7 30  1  0  0  0  0
  8  9  1  0  0  0  0
  9 10  1  0  0  0  0
  9 31  1  0  0  0  0
  9 32  1  0  0  0  0
 10 11  2  0  0  0  0
 10 12  1  0  0  0  0
 12 13  1  0  0  0  0
 12 33  1  0  0  0  0
 13 14  1  0  0  0  0
 13 34  1  0  0  0  0
 13 35  1  0  0  0  0
 14 15  1  0  0  0  0
 14 36  1  0  0  0  0
 14 37  1  0  0  0  0
 15 21  1  0  0  0  0
 15 16  1  0  0  0  0
 15 50  1  0  0  0  0
 16 17  1  0  0  0  0
 16 38  1  0  0  0  0
 16 39  1  0  0  0  0
 17 18  1  0  0  0  0
 17 40  1  0  0  0  0
 17 41  1  0  0  0  0
 18 19  1  0  0  0  0
 18 42  1  0  0  0  0
 18 43  1  0  0  0  0
 19 20  1  0  0  0  0
 19 21  1  0  0  0  0
 19 44  1  0  0  0  0
 20 45  1  0  0  0  0
 20 46  1  0  0  0  0
 20 47  1  0  0  0  0
 21 48  1  0  0  0  0
 21 49  1  0  0  0  0
M  CHG  1  15   1
M  END
> <s_m_source_file>
AV-unprocessed.smi

> <i_m_source_file_index>
565

> <i_lp_mmshare_version>
43012

> <i_f3d_flags>
0

> <s_epik_input>
W0NIM11jMW5uKFtDSDNdKWMoW0NIM10pYzFbQ0gyXUMoPU8pW05IXVtDSDJdW0NIMl1OMltDSDJdW0NIMl1bQ0gyXVtDQEBIXShbQ0gzXSlbQ0gyXTI=

> <s_epik_cmdline>
J2VwaWtfcHl0aG9uJywgJy1waCcsICc3LjAnLCAnLXRuJywgJzgnLCAnLW1hJywgJzIwMCcsICctbWV0YWxfYmluZGluZycsICctaW1hZScsICc8aW5maWxlLm1hZT4nLCAnLW9tYWUnLCAnPG91dGZpbGUubWFlPic=

> <r_lp_tautomer_probability>
1

> <r_epik_Ionization_Penalty>
0.00411138

> <r_epik_Ionization_Penalty_Charging>
0.0019503

> <r_epik_Ionization_Penalty_Neutral>
0.00216107

> <r_epik_State_Penalty>
-0

> <r_epik_Charging_Adjusted_Penalty>
0.0019503

> <i_epik_Tot_Q>
1

> <i_epik_Tot_abs_Q>
1

> <r_epik_Metal_State_Penalty>
-0

> <b_epik_Metal_Only>
0

> <s_lp_Force_Field>
OPLS_2005

> <r_lp_Energy>
13.161

> <b_lp_Chiralities_Consistent>
1

> <s_lp_Variant>
AV-unprocessed.smi:565-3

> <Gold.Version>
5.8.1

> <Gold.Id.Protein>
6NUR|6NUR_protein|mol2

> <Gold.PLP.Fitness>
46.4322

> <Gold.PLP.PLP>
-39.0547

> <Gold.PLP.part.hbond>
-2.0000

> <Gold.PLP.part.metal>
0.0000

> <Gold.PLP.part.buried>
-6.1204

> <Gold.PLP.part.nonpolar>
-29.8576

> <Gold.PLP.part.repulsive>
0.0343

> <Gold.PLP.ligand.clash>
0.0000

> <Gold.PLP.ligand.torsion>
0.8225

> <Gold.PLP.Chemscore.Hbond>
3.0000

> <Gold.PLP.Chemscore.CHOScore>
0.0000

> <Gold.PLP.Chemscore.Metal>
0.0000

> <Gold.Chemscore.Hbonds>
donor molecule, donor type, donor heavy atom, donor atom, acceptor molecule, acceptor atom, score
      L1  H    12    33       P1  8028  1.00
      L1  H    15    50       P1  8029  2.00

> <Gold.PLP.Chemscore.Internal.Correction>
0.0224

> <Gold.Rescore>
     Score         DG    S(hbond)    S(metal)    S(lipo)     H(rot)  DE(clash)    DE(int)     intcor
     17.29     -18.24       1.64        0.00      97.64       1.61       0.17       0.78       ----

> <Gold.Chemscore.Fitness>
17.2935

> <Gold.Chemscore.DG>
-18.2404

> <Gold.Chemscore.ZeroCoef>
-5.4800

> <Gold.Chemscore.Hbond>
1.6376

> <Gold.Chemscore.Metal>
0.0000

> <Gold.Chemscore.Lipo>
97.6355

> <Gold.Chemscore.Internal_Hbond>
0.0000

> <Gold.Chemscore.DEClash>
0.1712

> <Gold.Chemscore.DEInternal>
0.7756

> <Gold.Chemscore.Rot>
1.6142

> <Gold.Chemscore.Internal.Correction>
   9.000000E+99

> <Gold.Chemscore.Hbonds>
donor molecule, donor type, donor heavy atom, donor atom, acceptor molecule, acceptor atom, score
      L1  H    12    33       P1  8028  0.90
      L1  H    15    50       P1  8029  0.44

> <Gold.Chemscore.Hbond.Weighted>
-5.4694

> <Gold.Chemscore.Metal.Weighted>
-0.0000

> <Gold.Chemscore.Lipo.Weighted>
-11.4234

> <Gold.Chemscore.Internal_Hbond.Weighted>
0.0000

> <Gold.Chemscore.DEClash.Weighted>
0.1712

> <Gold.Chemscore.DEInternal.Weighted>
0.7756

> <Gold.Chemscore.Rot.Weighted>
4.1324

> <Gold.Chemscore.Internal.Correction.Weighted>
   9.000000E+99

> <Gold.Protein.RotatedTorsions>
[ 6907 6896 6895 6894 ] final   26.69 input  -60.11 | X-H torsion
[ 7974 7965 7964 7962 ] final  103.43 input  175.53 | X-H torsion
[ 8008 7997 7996 7995 ] final  -64.00 input   59.86 | X-H torsion
[ 10167 10162 10161 10158 ] final  162.42 input  -65.29 | X-H torsion
[ 10718 10713 10712 10709 ] final  -73.10 input   66.30 | X-H torsion
[ 10763 10752 10751 10750 ] final -138.16 input  -60.55 | X-H torsion
[ 11005 11000 10999 10996 ] final -148.82 input  -57.11 | X-H torsion

> <Gold.Protein.ActiveResidues>
 VAL166  LYS551  ARG553  GLY616  TRP617  ASP618  TYR619  PRO620  LYS621  CYS622 
 ASP623  PHE694  ASN695  SER759  ASP760  ASP761  ALA762  ILE779  LEU786  VAL792 
 PHE793  MET794  SER795  GLU796  ALA797  LYS798  CYS799  TRP800  GLU811  SER814 

> <Gold.Protein.RotatedAtoms>
  151.9912  134.9978  160.0561 H   0  0  0  0  0  0  0  0  0  0  0  0  # atno 6907 bound_to 6896
  152.1606  133.4575  159.4867 H   0  0  0  0  0  0  0  0  0  0  0  0  # atno 6908 bound_to 6896
  150.6887  134.1994  159.4359 H   0  0  0  0  0  0  0  0  0  0  0  0  # atno 6909 bound_to 6896
  145.3460  139.2450  143.3583 H   0  0  0  0  0  0  0  0  0  0  0  0  # atno 7974 bound_to 7965
  154.4586  140.0963  156.6830 H   0  0  0  0  0  0  0  0  0  0  0  0  # atno 8008 bound_to 7997
  155.5061  140.3475  155.4361 H   0  0  0  0  0  0  0  0  0  0  0  0  # atno 8009 bound_to 7997
  156.0827  140.1377  156.9680 H   0  0  0  0  0  0  0  0  0  0  0  0  # atno 8010 bound_to 7997
  139.4860  144.4439  151.8917 H   0  0  0  0  0  0  0  0  0  0  0  0  # atno 10167 bound_to 10162
  156.0294  130.4386  150.2691 H   0  0  0  0  0  0  0  0  0  0  0  0  # atno 10718 bound_to 10713
  154.8644  135.3620  154.5340 H   0  0  0  0  0  0  0  0  0  0  0  0  # atno 10763 bound_to 10752
  153.5964  135.7014  153.5407 H   0  0  0  0  0  0  0  0  0  0  0  0  # atno 10764 bound_to 10752
  153.3328  135.4119  155.1471 H   0  0  0  0  0  0  0  0  0  0  0  0  # atno 10765 bound_to 10752
  140.7572  134.3340  157.5111 H   0  0  0  0  0  0  0  0  0  0  0  0  # atno 11005 bound_to 11000
  146.2988  140.4067  142.8712 LP  0  0  0  0  0  0  0  0  0  0  0  0  # atno 17320 bound_to 7965
  144.8754  140.7328  143.6020 LP  0  0  0  0  0  0  0  0  0  0  0  0  # atno 17321 bound_to 7965
  140.3892  144.2637  150.5901 LP  0  0  0  0  0  0  0  0  0  0  0  0  # atno 17342 bound_to 10162
  140.5162  143.2277  151.8460 LP  0  0  0  0  0  0  0  0  0  0  0  0  # atno 17343 bound_to 10162
  157.0794  131.0139  151.3162 LP  0  0  0  0  0  0  0  0  0  0  0  0  # atno 17370 bound_to 10713
  157.4939  130.7838  149.7535 LP  0  0  0  0  0  0  0  0  0  0  0  0  # atno 17371 bound_to 10713
  139.8777  134.9179  156.3190 LP  0  0  0  0  0  0  0  0  0  0  0  0  # atno 17394 bound_to 11000
  140.9697  133.7335  156.0517 LP  0  0  0  0  0  0  0  0  0  0  0  0  # atno 17395 bound_to 11000

$$$$
