AV-unprocessed.smi:1803|AV-procd|sdf|7288|dock7
  -GOLD-   22720 8543D 1   1.00000     0.00000
 Structure written by MMmdl.
 35 37  0  0  0  0  0  0  0  0  3 V2000
  149.4821  133.1522  154.8038 O   0  0  0  0  0  0  0  0  0  0  0  0
  148.7988  134.1527  154.5894 C   0  0  0  0  0  0  0  0  0  0  0  0
  148.8721  135.2824  155.3397 N   0  5  0  0  0  0  0  0  0  0  0  0
  150.0053  135.6750  155.9510 C   0  0  0  0  0  0  0  0  0  0  0  0
  151.2109  135.1854  155.6181 N   0  0  0  0  0  0  0  0  0  0  0  0
  152.2463  135.7315  156.3640 N   0  0  0  0  0  0  0  0  0  0  0  0
  151.7915  136.6125  157.2548 C   0  0  0  0  0  0  0  0  0  0  0  0
  150.0580  136.8603  157.2577 S   0  0  0  0  0  0  0  0  0  0  0  0
  147.9388  134.1416  153.5530 N   0  0  0  0  0  0  0  0  0  0  0  0
  147.7606  133.0476  152.6036 C   0  0  1  0  0  0  0  0  0  0  0  0
  147.0194  131.8446  153.2016 C   0  0  0  0  0  0  0  0  0  0  0  0
  146.2225  131.2426  152.0307 C   0  0  0  0  0  0  0  0  0  0  0  0
  146.5057  132.0981  150.8569 N   0  3  1  0  0  0  0  0  0  0  0  0
  145.4801  132.1100  149.7828 C   0  0  0  0  0  0  0  0  0  0  0  0
  144.2737  133.0019  150.1216 C   0  0  0  0  0  0  0  0  0  0  0  0
  144.7334  134.4127  150.5024 C   0  0  0  0  0  0  0  0  0  0  0  0
  145.7036  134.3336  151.6856 C   0  0  0  0  0  0  0  0  0  0  0  0
  146.9183  133.4219  151.3728 C   0  0  1  0  0  0  0  0  0  0  0  0
  152.4807  137.1206  157.9125 H   0  0  0  0  0  0  0  0  0  0  0  0
  147.3900  134.9746  153.3973 H   0  0  0  0  0  0  0  0  0  0  0  0
  148.7403  132.7024  152.2659 H   0  0  0  0  0  0  0  0  0  0  0  0
  147.7120  131.1263  153.6413 H   0  0  0  0  0  0  0  0  0  0  0  0
  146.3322  132.1609  153.9881 H   0  0  0  0  0  0  0  0  0  0  0  0
  146.5166  130.2134  151.8231 H   0  0  0  0  0  0  0  0  0  0  0  0
  145.1578  131.2436  152.2667 H   0  0  0  0  0  0  0  0  0  0  0  0
  145.9546  132.4817  148.8739 H   0  0  0  0  0  0  0  0  0  0  0  0
  145.1583  131.0902  149.5685 H   0  0  0  0  0  0  0  0  0  0  0  0
  143.5974  133.0494  149.2676 H   0  0  0  0  0  0  0  0  0  0  0  0
  143.7011  132.5669  150.9415 H   0  0  0  0  0  0  0  0  0  0  0  0
  145.2202  134.8912  149.6517 H   0  0  0  0  0  0  0  0  0  0  0  0
  143.8743  135.0316  150.7622 H   0  0  0  0  0  0  0  0  0  0  0  0
  146.0434  135.3374  151.9429 H   0  0  0  0  0  0  0  0  0  0  0  0
  145.1670  133.9615  152.5592 H   0  0  0  0  0  0  0  0  0  0  0  0
  147.5400  133.9132  150.6229 H   0  0  0  0  0  0  0  0  0  0  0  0
  147.3397  131.7027  150.4467 H   0  0  0  0  0  0  0  0  0  0  0  0
  1  2  2  0  0  0  0
  2  3  1  0  0  0  0
  2  9  1  0  0  0  0
  3  4  1  0  0  0  0
  4  8  1  0  0  0  0
  4  5  2  0  0  0  0
  5  6  1  0  0  0  0
  6  7  2  0  0  0  0
  7  8  1  0  0  0  0
  7 19  1  0  0  0  0
  9 10  1  0  0  0  0
  9 20  1  0  0  0  0
 10 18  1  0  0  0  0
 10 11  1  0  0  0  0
 10 21  1  0  0  0  0
 11 12  1  0  0  0  0
 11 22  1  0  0  0  0
 11 23  1  0  0  0  0
 12 13  1  0  0  0  0
 12 24  1  0  0  0  0
 12 25  1  0  0  0  0
 13 18  1  0  0  0  0
 13 14  1  0  0  0  0
 13 35  1  0  0  0  0
 14 15  1  0  0  0  0
 14 26  1  0  0  0  0
 14 27  1  0  0  0  0
 15 16  1  0  0  0  0
 15 28  1  0  0  0  0
 15 29  1  0  0  0  0
 16 17  1  0  0  0  0
 16 30  1  0  0  0  0
 16 31  1  0  0  0  0
 17 18  1  0  0  0  0
 17 32  1  0  0  0  0
 17 33  1  0  0  0  0
 18 34  1  0  0  0  0
M  CHG  1   3  -1
M  CHG  1  13   1
M  END
> <s_m_source_file>
AV-unprocessed.smi

> <i_m_source_file_index>
1803

> <i_lp_mmshare_version>
43012

> <i_f3d_flags>
0

> <s_epik_input>
czFbY0hdbm5jMVtOSF1DKD1PKVtOSF1bQ0BIXShbQ0gyXVtDSDJdMilbQ0BASF0oTjIzKVtDSDJdW0NIMl1bQ0gyXVtDSDJdMw==

> <s_epik_cmdline>
J2VwaWtfcHl0aG9uJywgJy1waCcsICc3LjAnLCAnLXRuJywgJzgnLCAnLW1hJywgJzIwMCcsICctbWV0YWxfYmluZGluZycsICctaW1hZScsICc8aW5maWxlLm1hZT4nLCAnLW9tYWUnLCAnPG91dGZpbGUubWFlPic=

> <r_lp_tautomer_probability>
1

> <r_epik_Ionization_Penalty>
3.78828

> <r_epik_Ionization_Penalty_Charging>
3.7591

> <r_epik_Ionization_Penalty_Neutral>
0.0291838

> <r_epik_State_Penalty>
3.757

> <r_epik_Charging_Adjusted_Penalty>
7.51609

> <i_epik_Tot_Q>
0

> <i_epik_Tot_abs_Q>
2

> <r_epik_Metal_State_Penalty>
0.558016

> <b_epik_Metal_Only>
1

> <s_lp_Force_Field>
OPLS_2005

> <r_lp_Energy>
30.1197

> <b_lp_Chiralities_Consistent>
1

> <s_lp_Variant>
AV-unprocessed.smi:1803-10

> <Gold.Version>
5.8.1

> <Gold.Id.Protein>
6NUR|6NUR_protein|mol2

> <Gold.PLP.Fitness>
33.9948

> <Gold.PLP.PLP>
-29.0948

> <Gold.PLP.part.hbond>
-4.0000

> <Gold.PLP.part.metal>
0.0000

> <Gold.PLP.part.buried>
-4.9961

> <Gold.PLP.part.nonpolar>
-20.7642

> <Gold.PLP.part.repulsive>
0.2678

> <Gold.PLP.ligand.clash>
0.0000

> <Gold.PLP.ligand.torsion>
0.3959

> <Gold.PLP.Chemscore.Hbond>
1.8960

> <Gold.PLP.Chemscore.CHOScore>
0.0000

> <Gold.PLP.Chemscore.Metal>
0.0000

> <Gold.Chemscore.Hbonds>
donor molecule, donor type, donor heavy atom, donor atom, acceptor molecule, acceptor atom, score
      L1  H    13    35       P1 10747  1.00
      P1  H 10752 10763       L1     6  0.90

> <Gold.PLP.Chemscore.Internal.Correction>
0.0038

> <Gold.Rescore>
     Score         DG    S(hbond)    S(metal)    S(lipo)     H(rot)  DE(clash)    DE(int)     intcor
     14.24     -16.17       1.65        0.00      66.02       1.00       0.12       1.81       ----

> <Gold.Chemscore.Fitness>
14.2395

> <Gold.Chemscore.DG>
-16.1684

> <Gold.Chemscore.ZeroCoef>
-5.4800

> <Gold.Chemscore.Hbond>
1.6539

> <Gold.Chemscore.Metal>
0.0000

> <Gold.Chemscore.Lipo>
66.0211

> <Gold.Chemscore.Internal_Hbond>
0.0000

> <Gold.Chemscore.DEClash>
0.1206

> <Gold.Chemscore.DEInternal>
1.8082

> <Gold.Chemscore.Rot>
1.0000

> <Gold.Chemscore.Internal.Correction>
   9.000000E+99

> <Gold.Chemscore.Hbonds>
donor molecule, donor type, donor heavy atom, donor atom, acceptor molecule, acceptor atom, score
      L1  H    13    35       P1 10747  1.00
      P1  H 10752 10763       L1     6  0.23

> <Gold.Chemscore.Hbond.Weighted>
-5.5239

> <Gold.Chemscore.Metal.Weighted>
-0.0000

> <Gold.Chemscore.Lipo.Weighted>
-7.7245

> <Gold.Chemscore.Internal_Hbond.Weighted>
0.0000

> <Gold.Chemscore.DEClash.Weighted>
0.1206

> <Gold.Chemscore.DEInternal.Weighted>
1.8082

> <Gold.Chemscore.Rot.Weighted>
2.5600

> <Gold.Chemscore.Internal.Correction.Weighted>
   9.000000E+99

> <Gold.Protein.RotatedTorsions>
[ 6907 6896 6895 6894 ] final  113.03 input  -60.11 | X-H torsion
[ 7974 7965 7964 7962 ] final  -95.30 input  175.53 | X-H torsion
[ 8008 7997 7996 7995 ] final -170.71 input   59.86 | X-H torsion
[ 10167 10162 10161 10158 ] final   -2.04 input  -65.29 | X-H torsion
[ 10718 10713 10712 10709 ] final -116.76 input   66.30 | X-H torsion
[ 10763 10752 10751 10750 ] final  121.47 input  -60.55 | X-H torsion
[ 11005 11000 10999 10996 ] final  -53.63 input  -57.11 | X-H torsion

> <Gold.Protein.ActiveResidues>
 VAL166  LYS551  ARG553  GLY616  TRP617  ASP618  TYR619  PRO620  LYS621  CYS622 
 ASP623  PHE694  ASN695  SER759  ASP760  ASP761  ALA762  ILE779  LEU786  VAL792 
 PHE793  MET794  SER795  GLU796  ALA797  LYS798  CYS799  TRP800  GLU811  SER814 

> <Gold.Protein.RotatedAtoms>
  152.4883  133.8432  159.7163 H   0  0  0  0  0  0  0  0  0  0  0  0  # atno 6907 bound_to 6896
  150.8990  133.7134  159.2891 H   0  0  0  0  0  0  0  0  0  0  0  0  # atno 6908 bound_to 6896
  151.4582  135.1040  159.9769 H   0  0  0  0  0  0  0  0  0  0  0  0  # atno 6909 bound_to 6896
  145.3619  140.9493  143.2496 H   0  0  0  0  0  0  0  0  0  0  0  0  # atno 7974 bound_to 7965
  155.9219  140.1075  157.1200 H   0  0  0  0  0  0  0  0  0  0  0  0  # atno 8008 bound_to 7997
  154.4055  140.1254  156.4755 H   0  0  0  0  0  0  0  0  0  0  0  0  # atno 8009 bound_to 7997
  155.7186  140.3470  155.5008 H   0  0  0  0  0  0  0  0  0  0  0  0  # atno 8010 bound_to 7997
  140.6835  143.6704  150.8190 H   0  0  0  0  0  0  0  0  0  0  0  0  # atno 10167 bound_to 10162
  156.0986  130.6153  150.9077 H   0  0  0  0  0  0  0  0  0  0  0  0  # atno 10718 bound_to 10713
  153.6146  135.3424  155.2990 H   0  0  0  0  0  0  0  0  0  0  0  0  # atno 10763 bound_to 10752
  154.8612  135.4258  154.2273 H   0  0  0  0  0  0  0  0  0  0  0  0  # atno 10764 bound_to 10752
  153.3132  135.7033  153.7169 H   0  0  0  0  0  0  0  0  0  0  0  0  # atno 10765 bound_to 10752
  141.0985  133.6621  156.4200 H   0  0  0  0  0  0  0  0  0  0  0  0  # atno 11005 bound_to 11000
  144.8640  139.5135  143.6799 LP  0  0  0  0  0  0  0  0  0  0  0  0  # atno 17320 bound_to 7965
  146.2923  139.7176  142.9152 LP  0  0  0  0  0  0  0  0  0  0  0  0  # atno 17321 bound_to 7965
  140.0408  143.5348  152.2719 LP  0  0  0  0  0  0  0  0  0  0  0  0  # atno 17342 bound_to 10162
  139.6175  144.7622  151.2814 LP  0  0  0  0  0  0  0  0  0  0  0  0  # atno 17343 bound_to 10162
  157.6152  131.0934  150.8724 LP  0  0  0  0  0  0  0  0  0  0  0  0  # atno 17370 bound_to 10713
  156.8856  130.5195  149.5288 LP  0  0  0  0  0  0  0  0  0  0  0  0  # atno 17371 bound_to 10713
  140.5080  134.6422  157.5273 LP  0  0  0  0  0  0  0  0  0  0  0  0  # atno 17394 bound_to 11000
  139.9829  134.7108  155.9826 LP  0  0  0  0  0  0  0  0  0  0  0  0  # atno 17395 bound_to 11000

$$$$
