AV-unprocessed.smi:2780|AV-procd|sdf|10714|dock4
  -GOLD-   2272015153D 1   1.00000     0.00000
 Structure written by MMmdl.
 47 49  0  0  0  0  0  0  0  0  2 V2000
  147.2599  139.3257  153.4295 C   0  0  0  0  0  0  0  0  0  0  0  0
  148.5188  139.7074  154.1908 C   0  0  0  0  0  0  0  0  0  0  0  0
  148.6583  140.9603  154.6645 C   0  0  0  0  0  0  0  0  0  0  0  0
  149.8921  141.4725  155.3709 C   0  0  0  0  0  0  0  0  0  0  0  0
  151.1101  140.6041  155.0487 C   0  0  0  0  0  0  0  0  0  0  0  0
  150.8045  139.1101  155.2454 C   0  0  2  0  0  0  0  0  0  0  0  0
  152.0852  138.2899  154.9955 C   0  0  0  0  0  0  0  0  0  0  0  0
  149.6070  138.6284  154.3687 C   0  0  1  0  0  0  0  0  0  0  0  0
  149.0431  137.2931  154.9233 C   0  0  0  0  0  0  0  0  0  0  0  0
  149.8128  136.1141  154.4756 N   0  3  0  0  0  0  0  0  0  0  0  0
  149.4061  134.8491  155.1162 C   0  0  0  0  0  0  0  0  0  0  0  0
  150.0259  133.6451  154.3944 C   0  0  0  0  0  0  0  0  0  0  0  0
  149.0144  132.8327  153.7435 N   0  0  0  0  0  0  0  0  0  0  0  0
  148.1259  133.2018  152.8079 C   0  0  0  0  0  0  0  0  0  0  0  0
  147.3225  132.2303  152.3781 N   0  0  0  0  0  0  0  0  0  0  0  0
  147.7180  131.1137  153.0873 N   0  0  0  0  0  0  0  0  0  0  0  0
  148.7095  131.5260  153.8856 C   0  0  0  0  0  0  0  0  0  0  0  0
  149.4601  130.6194  154.8085 C   0  0  0  0  0  0  0  0  0  0  0  0
  150.9713  130.5482  154.7825 C   0  0  0  0  0  0  0  0  0  0  0  0
  150.1568  129.3802  154.2910 C   0  0  0  0  0  0  0  0  0  0  0  0
  147.5148  138.8592  152.4778 H   0  0  0  0  0  0  0  0  0  0  0  0
  146.6471  140.2017  153.2131 H   0  0  0  0  0  0  0  0  0  0  0  0
  146.6463  138.6376  154.0108 H   0  0  0  0  0  0  0  0  0  0  0  0
  147.8602  141.6776  154.5366 H   0  0  0  0  0  0  0  0  0  0  0  0
  150.0808  142.5010  155.0615 H   0  0  0  0  0  0  0  0  0  0  0  0
  149.6992  141.4903  156.4440 H   0  0  0  0  0  0  0  0  0  0  0  0
  151.4196  140.7806  154.0174 H   0  0  0  0  0  0  0  0  0  0  0  0
  151.9473  140.9097  155.6776 H   0  0  0  0  0  0  0  0  0  0  0  0
  150.5286  138.9815  156.2933 H   0  0  0  0  0  0  0  0  0  0  0  0
  152.4083  138.3687  153.9570 H   0  0  0  0  0  0  0  0  0  0  0  0
  151.9555  137.2328  155.2219 H   0  0  0  0  0  0  0  0  0  0  0  0
  152.9044  138.6473  155.6201 H   0  0  0  0  0  0  0  0  0  0  0  0
  149.9973  138.4442  153.3665 H   0  0  0  0  0  0  0  0  0  0  0  0
  149.0546  137.2828  156.0120 H   0  0  0  0  0  0  0  0  0  0  0  0
  147.9984  137.1847  154.6281 H   0  0  0  0  0  0  0  0  0  0  0  0
  149.6925  136.0187  153.4772 H   0  0  0  0  0  0  0  0  0  0  0  0
  149.7128  134.8616  156.1624 H   0  0  0  0  0  0  0  0  0  0  0  0
  148.3177  134.7755  155.1005 H   0  0  0  0  0  0  0  0  0  0  0  0
  150.7323  133.9819  153.6346 H   0  0  0  0  0  0  0  0  0  0  0  0
  150.5889  133.0250  155.0926 H   0  0  0  0  0  0  0  0  0  0  0  0
  148.0671  134.2108  152.4262 H   0  0  0  0  0  0  0  0  0  0  0  0
  148.9658  130.5617  155.7762 H   0  0  0  0  0  0  0  0  0  0  0  0
  151.4967  131.1410  154.0360 H   0  0  0  0  0  0  0  0  0  0  0  0
  151.4843  130.4386  155.7356 H   0  0  0  0  0  0  0  0  0  0  0  0
  150.1258  128.4896  154.9150 H   0  0  0  0  0  0  0  0  0  0  0  0
  150.1525  129.1994  153.2182 H   0  0  0  0  0  0  0  0  0  0  0  0
  150.7908  136.2764  154.6686 H   0  0  0  0  0  0  0  0  0  0  0  0
  1  2  1  0  0  0  0
  1 21  1  0  0  0  0
  1 22  1  0  0  0  0
  1 23  1  0  0  0  0
  2  8  1  0  0  0  0
  2  3  2  0  0  0  0
  3  4  1  0  0  0  0
  3 24  1  0  0  0  0
  4  5  1  0  0  0  0
  4 25  1  0  0  0  0
  4 26  1  0  0  0  0
  5  6  1  0  0  0  0
  5 27  1  0  0  0  0
  5 28  1  0  0  0  0
  6  7  1  0  0  0  0
  6  8  1  0  0  0  0
  6 29  1  0  0  0  0
  7 30  1  0  0  0  0
  7 31  1  0  0  0  0
  7 32  1  0  0  0  0
  8  9  1  0  0  0  0
  8 33  1  0  0  0  0
  9 10  1  0  0  0  0
  9 34  1  0  0  0  0
  9 35  1  0  0  0  0
 10 11  1  0  0  0  0
 10 36  1  0  0  0  0
 10 47  1  0  0  0  0
 11 12  1  0  0  0  0
 11 37  1  0  0  0  0
 11 38  1  0  0  0  0
 12 13  1  0  0  0  0
 12 39  1  0  0  0  0
 12 40  1  0  0  0  0
 13 17  1  0  0  0  0
 13 14  1  0  0  0  0
 14 15  2  0  0  0  0
 14 41  1  0  0  0  0
 15 16  1  0  0  0  0
 16 17  2  0  0  0  0
 17 18  1  0  0  0  0
 18 20  1  0  0  0  0
 18 19  1  0  0  0  0
 18 42  1  0  0  0  0
 19 20  1  0  0  0  0
 19 43  1  0  0  0  0
 19 44  1  0  0  0  0
 20 45  1  0  0  0  0
 20 46  1  0  0  0  0
M  CHG  1  10   1
M  END
> <s_m_source_file>
AV-unprocessed.smi

> <i_m_source_file_index>
2780

> <i_lp_mmshare_version>
43012

> <i_f3d_flags>
0

> <s_epik_input>
W0NIM11DMT1bQ0hdW0NIMl1bQ0gyXVtDQEBIXShbQ0gzXSlbQ0BIXTFbQ0gyXVtOSF1bQ0gyXVtDSDJdbjJbY0hdbm5jMltDSF0zW0NIMl1bQ0gyXTM=

> <s_epik_cmdline>
J2VwaWtfcHl0aG9uJywgJy1waCcsICc3LjAnLCAnLXRuJywgJzgnLCAnLW1hJywgJzIwMCcsICctbWV0YWxfYmluZGluZycsICctaW1hZScsICc8aW5maWxlLm1hZT4nLCAnLW9tYWUnLCAnPG91dGZpbGUubWFlPic=

> <r_lp_tautomer_probability>
1

> <r_epik_Ionization_Penalty>
0.00176214

> <r_epik_Ionization_Penalty_Charging>
0.00175191

> <r_epik_Ionization_Penalty_Neutral>
1.02377e-05

> <r_epik_State_Penalty>
-0

> <r_epik_Charging_Adjusted_Penalty>
0.00175191

> <i_epik_Tot_Q>
1

> <i_epik_Tot_abs_Q>
1

> <r_epik_Metal_State_Penalty>
-0

> <b_epik_Metal_Only>
0

> <s_lp_Force_Field>
OPLS_2005

> <r_lp_Energy>
22.2191

> <b_lp_Chiralities_Consistent>
1

> <s_lp_Variant>
AV-unprocessed.smi:2780-2

> <Gold.Version>
5.8.1

> <Gold.Id.Protein>
6NUR|6NUR_protein|mol2

> <Gold.PLP.Fitness>
43.9461

> <Gold.PLP.PLP>
-36.2854

> <Gold.PLP.part.hbond>
-1.0000

> <Gold.PLP.part.metal>
0.0000

> <Gold.PLP.part.buried>
-1.9146

> <Gold.PLP.part.nonpolar>
-34.1113

> <Gold.PLP.part.repulsive>
0.7614

> <Gold.PLP.ligand.clash>
0.0000

> <Gold.PLP.ligand.torsion>
0.7926

> <Gold.PLP.Chemscore.Hbond>
2.0000

> <Gold.PLP.Chemscore.CHOScore>
1.0000

> <Gold.PLP.Chemscore.Metal>
0.0000

> <Gold.Chemscore.Hbonds>
donor molecule, donor type, donor heavy atom, donor atom, acceptor molecule, acceptor atom, score
      L1  H    10    36       P1  7948  1.80
      L1  C    14    41       P1  7948  0.89

> <Gold.PLP.Chemscore.Internal.Correction>
0.2459

> <Gold.Rescore>
     Score         DG    S(hbond)    S(metal)    S(lipo)     H(rot)  DE(clash)    DE(int)     intcor
     10.72     -11.79       0.78        0.00      74.99       1.98       0.03       1.04       ----

> <Gold.Chemscore.Fitness>
10.7209

> <Gold.Chemscore.DG>
-11.7932

> <Gold.Chemscore.ZeroCoef>
-5.4800

> <Gold.Chemscore.Hbond>
0.7808

> <Gold.Chemscore.Metal>
0.0000

> <Gold.Chemscore.Lipo>
74.9887

> <Gold.Chemscore.Internal_Hbond>
0.0000

> <Gold.Chemscore.DEClash>
0.0274

> <Gold.Chemscore.DEInternal>
1.0449

> <Gold.Chemscore.Rot>
1.9799

> <Gold.Chemscore.Internal.Correction>
   9.000000E+99

> <Gold.Chemscore.Hbonds>
donor molecule, donor type, donor heavy atom, donor atom, acceptor molecule, acceptor atom, score
      L1  H    10    36       P1  7948  0.18

> <Gold.Chemscore.Hbond.Weighted>
-2.6080

> <Gold.Chemscore.Metal.Weighted>
-0.0000

> <Gold.Chemscore.Lipo.Weighted>
-8.7737

> <Gold.Chemscore.Internal_Hbond.Weighted>
0.0000

> <Gold.Chemscore.DEClash.Weighted>
0.0274

> <Gold.Chemscore.DEInternal.Weighted>
1.0449

> <Gold.Chemscore.Rot.Weighted>
5.0685

> <Gold.Chemscore.Internal.Correction.Weighted>
   9.000000E+99

> <Gold.Protein.RotatedTorsions>
[ 6907 6896 6895 6894 ] final -129.83 input  -60.11 | X-H torsion
[ 7974 7965 7964 7962 ] final  178.19 input  175.53 | X-H torsion
[ 8008 7997 7996 7995 ] final   24.73 input   59.86 | X-H torsion
[ 10167 10162 10161 10158 ] final  -16.87 input  -65.29 | X-H torsion
[ 10718 10713 10712 10709 ] final -177.81 input   66.30 | X-H torsion
[ 10763 10752 10751 10750 ] final  -28.67 input  -60.55 | X-H torsion
[ 11005 11000 10999 10996 ] final  124.01 input  -57.11 | X-H torsion

> <Gold.Protein.ActiveResidues>
 VAL166  LYS551  ARG553  GLY616  TRP617  ASP618  TYR619  PRO620  LYS621  CYS622 
 ASP623  PHE694  ASN695  SER759  ASP760  ASP761  ALA762  ILE779  LEU786  VAL792 
 PHE793  MET794  SER795  GLU796  ALA797  LYS798  CYS799  TRP800  GLU811  SER814 

> <Gold.Protein.RotatedAtoms>
  150.9330  133.6745  159.2806 H   0  0  0  0  0  0  0  0  0  0  0  0  # atno 6907 bound_to 6896
  151.4160  135.0990  159.9609 H   0  0  0  0  0  0  0  0  0  0  0  0  # atno 6908 bound_to 6896
  152.5034  133.8792  159.7392 H   0  0  0  0  0  0  0  0  0  0  0  0  # atno 6909 bound_to 6896
  144.7159  140.0360  143.6438 H   0  0  0  0  0  0  0  0  0  0  0  0  # atno 7974 bound_to 7965
  155.0008  140.3125  155.4868 H   0  0  0  0  0  0  0  0  0  0  0  0  # atno 8008 bound_to 7997
  156.2925  140.2232  156.5059 H   0  0  0  0  0  0  0  0  0  0  0  0  # atno 8009 bound_to 7997
  154.7620  140.0458  157.0969 H   0  0  0  0  0  0  0  0  0  0  0  0  # atno 8010 bound_to 7997
  140.7240  143.5072  150.9795 H   0  0  0  0  0  0  0  0  0  0  0  0  # atno 10167 bound_to 10162
  156.8350  130.9666  151.3104 H   0  0  0  0  0  0  0  0  0  0  0  0  # atno 10718 bound_to 10713
  153.7521  135.6925  153.4943 H   0  0  0  0  0  0  0  0  0  0  0  0  # atno 10763 bound_to 10752
  153.1996  135.4441  155.0249 H   0  0  0  0  0  0  0  0  0  0  0  0  # atno 10764 bound_to 10752
  154.8184  135.3410  154.7041 H   0  0  0  0  0  0  0  0  0  0  0  0  # atno 10765 bound_to 10752
  139.9339  134.9640  156.8345 H   0  0  0  0  0  0  0  0  0  0  0  0  # atno 11005 bound_to 11000
  146.0063  139.3132  143.0897 LP  0  0  0  0  0  0  0  0  0  0  0  0  # atno 17320 bound_to 7965
  145.8735  140.9406  143.0638 LP  0  0  0  0  0  0  0  0  0  0  0  0  # atno 17321 bound_to 7965
  139.8784  143.7103  152.3159 LP  0  0  0  0  0  0  0  0  0  0  0  0  # atno 17342 bound_to 10162
  139.7377  144.7567  151.0702 LP  0  0  0  0  0  0  0  0  0  0  0  0  # atno 17343 bound_to 10162
  157.6386  130.8787  149.9406 LP  0  0  0  0  0  0  0  0  0  0  0  0  # atno 17370 bound_to 10713
  156.0913  130.3663  150.0390 LP  0  0  0  0  0  0  0  0  0  0  0  0  # atno 17371 bound_to 10713
  140.6128  134.0066  155.7584 LP  0  0  0  0  0  0  0  0  0  0  0  0  # atno 17394 bound_to 11000
  141.0942  133.9869  157.3187 LP  0  0  0  0  0  0  0  0  0  0  0  0  # atno 17395 bound_to 11000

$$$$
