AV-unprocessed.smi:3158|AV-procd|sdf|12048|dock2
  -GOLD-   2272017473D 1   1.00000     0.00000
 Structure written by MMmdl.
 39 39  0  0  0  0  0  0  0  0  1 V2000
  153.3164  138.6211  154.8619 C   0  0  0  0  0  0  0  0  0  0  0  0
  152.5889  137.2836  155.0612 C   0  0  0  0  0  0  0  0  0  0  0  0
  151.0667  137.3580  154.8306 C   0  0  1  0  0  0  0  0  0  0  0  0
  150.6782  138.5903  154.0022 C   0  0  0  0  0  0  0  0  0  0  0  0
  150.5848  136.1576  154.1502 N   0  0  0  0  0  0  0  0  0  0  0  0
  150.6727  134.8992  154.6108 C   0  0  0  0  0  0  0  0  0  0  0  0
  151.1945  134.6046  155.6866 O   0  0  0  0  0  0  0  0  0  0  0  0
  150.0467  133.8045  153.7303 C   0  0  1  0  0  0  0  0  0  0  0  0
  150.2445  132.4158  154.3601 C   0  0  0  0  0  0  0  0  0  0  0  0
  148.6159  134.0277  153.4541 N   0  0  0  0  0  0  0  0  0  0  0  0
  147.9803  132.9652  152.6827 C   0  0  0  0  0  0  0  0  0  0  0  0
  147.7558  133.4445  151.2421 C   0  0  0  0  0  0  0  0  0  0  0  0
  146.4032  133.1713  150.7968 N   0  0  0  0  0  0  0  0  0  0  0  0
  145.8961  132.0063  150.2611 C   0  0  0  0  0  0  0  0  0  0  0  0
  144.5730  132.2216  150.0012 C   0  0  0  0  0  0  0  0  0  0  0  0
  144.3609  133.5656  150.4178 C   0  0  0  0  0  0  0  0  0  0  0  0
  145.4580  134.1310  150.8947 N   0  0  0  0  0  0  0  0  0  0  0  0
  154.3934  138.4958  154.9745 H   0  0  0  0  0  0  0  0  0  0  0  0
  152.9954  139.3655  155.5906 H   0  0  0  0  0  0  0  0  0  0  0  0
  153.1308  139.0247  153.8661 H   0  0  0  0  0  0  0  0  0  0  0  0
  153.0170  136.5536  154.3733 H   0  0  0  0  0  0  0  0  0  0  0  0
  152.7936  136.9086  156.0649 H   0  0  0  0  0  0  0  0  0  0  0  0
  150.5806  137.4585  155.8026 H   0  0  0  0  0  0  0  0  0  0  0  0
  150.9956  139.5099  154.4945 H   0  0  0  0  0  0  0  0  0  0  0  0
  149.5974  138.6469  153.8665 H   0  0  0  0  0  0  0  0  0  0  0  0
  151.1374  138.5664  153.0134 H   0  0  0  0  0  0  0  0  0  0  0  0
  150.1317  136.2966  153.2587 H   0  0  0  0  0  0  0  0  0  0  0  0
  150.5727  133.8008  152.7737 H   0  0  0  0  0  0  0  0  0  0  0  0
  151.2990  132.2162  154.5549 H   0  0  0  0  0  0  0  0  0  0  0  0
  149.8832  131.6312  153.6945 H   0  0  0  0  0  0  0  0  0  0  0  0
  149.7070  132.3193  155.3045 H   0  0  0  0  0  0  0  0  0  0  0  0
  148.4580  134.9197  153.0073 H   0  0  0  0  0  0  0  0  0  0  0  0
  148.6031  132.0699  152.6723 H   0  0  0  0  0  0  0  0  0  0  0  0
  147.0270  132.6986  153.1415 H   0  0  0  0  0  0  0  0  0  0  0  0
  147.9410  134.5167  151.1587 H   0  0  0  0  0  0  0  0  0  0  0  0
  148.4497  132.9483  150.5620 H   0  0  0  0  0  0  0  0  0  0  0  0
  146.5115  131.1310  150.1130 H   0  0  0  0  0  0  0  0  0  0  0  0
  143.8644  131.5251  149.5784 H   0  0  0  0  0  0  0  0  0  0  0  0
  143.4486  134.1430  150.3885 H   0  0  0  0  0  0  0  0  0  0  0  0
  1  2  1  0  0  0  0
  1 18  1  0  0  0  0
  1 19  1  0  0  0  0
  1 20  1  0  0  0  0
  2  3  1  0  0  0  0
  2 21  1  0  0  0  0
  2 22  1  0  0  0  0
  3  4  1  0  0  0  0
  3  5  1  0  0  0  0
  3 23  1  0  0  0  0
  4 24  1  0  0  0  0
  4 25  1  0  0  0  0
  4 26  1  0  0  0  0
  5  6  1  0  0  0  0
  5 27  1  0  0  0  0
  6  7  2  0  0  0  0
  6  8  1  0  0  0  0
  8  9  1  0  0  0  0
  8 10  1  0  0  0  0
  8 28  1  0  0  0  0
  9 29  1  0  0  0  0
  9 30  1  0  0  0  0
  9 31  1  0  0  0  0
 10 11  1  0  0  0  0
 10 32  1  0  0  0  0
 11 12  1  0  0  0  0
 11 33  1  0  0  0  0
 11 34  1  0  0  0  0
 12 13  1  0  0  0  0
 12 35  1  0  0  0  0
 12 36  1  0  0  0  0
 13 17  1  0  0  0  0
 13 14  1  0  0  0  0
 14 15  2  0  0  0  0
 14 37  1  0  0  0  0
 15 16  1  0  0  0  0
 15 38  1  0  0  0  0
 16 17  2  0  0  0  0
 16 39  1  0  0  0  0
M  END
> <s_m_source_file>
AV-unprocessed.smi

> <i_m_source_file_index>
3158

> <i_lp_mmshare_version>
43012

> <i_f3d_flags>
0

> <s_epik_input>
W0NIM11bQ0gyXVtDQEhdKFtDSDNdKVtOSF1DKD1PKVtDQEhdKFtDSDNdKVtOSF1bQ0gyXVtDSDJdbjFbY0hdW2NIXVtjSF1uMQ==

> <s_epik_cmdline>
J2VwaWtfcHl0aG9uJywgJy1waCcsICc3LjAnLCAnLXRuJywgJzgnLCAnLW1hJywgJzIwMCcsICctbWV0YWxfYmluZGluZycsICctaW1hZScsICc8aW5maWxlLm1hZT4nLCAnLW9tYWUnLCAnPG91dGZpbGUubWFlPic=

> <r_lp_tautomer_probability>
1

> <r_epik_Ionization_Penalty>
0.724013

> <r_epik_Ionization_Penalty_Charging>
0

> <r_epik_Ionization_Penalty_Neutral>
0.724013

> <r_epik_State_Penalty>
0.74758

> <r_epik_Charging_Adjusted_Penalty>
0.74758

> <i_epik_Tot_Q>
0

> <i_epik_Tot_abs_Q>
0

> <r_epik_Metal_State_Penalty>
0.746846

> <b_epik_Metal_Only>
0

> <s_lp_Force_Field>
OPLS_2005

> <r_lp_Energy>
5.19136

> <b_lp_Chiralities_Consistent>
1

> <s_lp_Variant>
AV-unprocessed.smi:3158-8

> <Gold.Version>
5.8.1

> <Gold.Id.Protein>
6NUR|6NUR_protein|mol2

> <Gold.PLP.Fitness>
41.4969

> <Gold.PLP.PLP>
-33.7732

> <Gold.PLP.part.hbond>
-2.5961

> <Gold.PLP.part.metal>
0.0000

> <Gold.PLP.part.buried>
-1.7739

> <Gold.PLP.part.nonpolar>
-28.0798

> <Gold.PLP.part.repulsive>
0.1997

> <Gold.PLP.ligand.clash>
0.0000

> <Gold.PLP.ligand.torsion>
1.5966

> <Gold.PLP.Chemscore.Hbond>
1.6100

> <Gold.PLP.Chemscore.CHOScore>
1.9843

> <Gold.PLP.Chemscore.Metal>
0.0000

> <Gold.Chemscore.Hbonds>
donor molecule, donor type, donor heavy atom, donor atom, acceptor molecule, acceptor atom, score
      L1  H     5    27       P1  7948  0.35
      L1  H    10    32       P1  7948  0.99
      L1  C    14    37       P1 10747  1.00
      L1  C    16    39       P1 10186  0.85

> <Gold.PLP.Chemscore.Internal.Correction>
0.1341

> <Gold.Rescore>
     Score         DG    S(hbond)    S(metal)    S(lipo)     H(rot)  DE(clash)    DE(int)     intcor
     10.72     -12.47       0.90        0.00      80.36       2.12       0.09       1.65       ----

> <Gold.Chemscore.Fitness>
10.7220

> <Gold.Chemscore.DG>
-12.4668

> <Gold.Chemscore.ZeroCoef>
-5.4800

> <Gold.Chemscore.Hbond>
0.9043

> <Gold.Chemscore.Metal>
0.0000

> <Gold.Chemscore.Lipo>
80.3621

> <Gold.Chemscore.Internal_Hbond>
0.0000

> <Gold.Chemscore.DEClash>
0.0910

> <Gold.Chemscore.DEInternal>
1.6537

> <Gold.Chemscore.Rot>
2.1234

> <Gold.Chemscore.Internal.Correction>
   9.000000E+99

> <Gold.Chemscore.Hbonds>
donor molecule, donor type, donor heavy atom, donor atom, acceptor molecule, acceptor atom, score
      L1  H     5    27       P1  7948  0.01
      L1  H    10    32       P1  7948  0.62

> <Gold.Chemscore.Hbond.Weighted>
-3.0203

> <Gold.Chemscore.Metal.Weighted>
-0.0000

> <Gold.Chemscore.Lipo.Weighted>
-9.4024

> <Gold.Chemscore.Internal_Hbond.Weighted>
0.0000

> <Gold.Chemscore.DEClash.Weighted>
0.0910

> <Gold.Chemscore.DEInternal.Weighted>
1.6537

> <Gold.Chemscore.Rot.Weighted>
5.4359

> <Gold.Chemscore.Internal.Correction.Weighted>
   9.000000E+99

> <Gold.Protein.RotatedTorsions>
[ 6907 6896 6895 6894 ] final  -83.64 input  -60.11 | X-H torsion
[ 7974 7965 7964 7962 ] final  -31.37 input  175.53 | X-H torsion
[ 8008 7997 7996 7995 ] final  -44.90 input   59.86 | X-H torsion
[ 10167 10162 10161 10158 ] final -111.16 input  -65.29 | X-H torsion
[ 10718 10713 10712 10709 ] final    6.08 input   66.30 | X-H torsion
[ 10763 10752 10751 10750 ] final    8.12 input  -60.55 | X-H torsion
[ 11005 11000 10999 10996 ] final   99.11 input  -57.11 | X-H torsion

> <Gold.Protein.ActiveResidues>
 VAL166  LYS551  ARG553  GLY616  TRP617  ASP618  TYR619  PRO620  LYS621  CYS622 
 ASP623  PHE694  ASN695  SER759  ASP760  ASP761  ALA762  ILE779  LEU786  VAL792 
 PHE793  MET794  SER795  GLU796  ALA797  LYS798  CYS799  TRP800  GLU811  SER814 

> <Gold.Protein.RotatedAtoms>
  150.6883  134.3481  159.4896 H   0  0  0  0  0  0  0  0  0  0  0  0  # atno 6907 bound_to 6896
  152.1325  134.9121  160.0567 H   0  0  0  0  0  0  0  0  0  0  0  0  # atno 6908 bound_to 6896
  152.0285  133.3893  159.4324 H   0  0  0  0  0  0  0  0  0  0  0  0  # atno 6909 bound_to 6896
  146.1072  140.5659  142.8794 H   0  0  0  0  0  0  0  0  0  0  0  0  # atno 7974 bound_to 7965
  154.3999  140.1410  156.3759 H   0  0  0  0  0  0  0  0  0  0  0  0  # atno 8008 bound_to 7997
  155.8049  140.3474  155.5403 H   0  0  0  0  0  0  0  0  0  0  0  0  # atno 8009 bound_to 7997
  155.8445  140.0932  157.1704 H   0  0  0  0  0  0  0  0  0  0  0  0  # atno 8010 bound_to 7997
  140.1366  143.4314  152.1591 H   0  0  0  0  0  0  0  0  0  0  0  0  # atno 10167 bound_to 10162
  156.9170  130.5777  149.5647 H   0  0  0  0  0  0  0  0  0  0  0  0  # atno 10718 bound_to 10713
  153.2286  135.6890  153.7916 H   0  0  0  0  0  0  0  0  0  0  0  0  # atno 10763 bound_to 10752
  153.7089  135.3285  155.3242 H   0  0  0  0  0  0  0  0  0  0  0  0  # atno 10764 bound_to 10752
  154.8303  135.4585  154.1162 H   0  0  0  0  0  0  0  0  0  0  0  0  # atno 10765 bound_to 10752
  139.8771  134.9080  156.4557 H   0  0  0  0  0  0  0  0  0  0  0  0  # atno 11005 bound_to 11000
  144.7481  140.5120  143.6821 LP  0  0  0  0  0  0  0  0  0  0  0  0  # atno 17320 bound_to 7965
  145.5737  139.1485  143.3274 LP  0  0  0  0  0  0  0  0  0  0  0  0  # atno 17321 bound_to 7965
  139.5493  144.7324  151.4486 LP  0  0  0  0  0  0  0  0  0  0  0  0  # atno 17342 bound_to 10162
  140.6785  143.8135  150.7090 LP  0  0  0  0  0  0  0  0  0  0  0  0  # atno 17343 bound_to 10162
  156.0509  130.5578  150.8987 LP  0  0  0  0  0  0  0  0  0  0  0  0  # atno 17370 bound_to 10713
  157.5932  131.0944  150.9084 LP  0  0  0  0  0  0  0  0  0  0  0  0  # atno 17371 bound_to 10713
  140.8900  133.7855  155.9561 LP  0  0  0  0  0  0  0  0  0  0  0  0  # atno 17394 bound_to 11000
  140.8763  134.2665  157.5166 LP  0  0  0  0  0  0  0  0  0  0  0  0  # atno 17395 bound_to 11000

$$$$
