#       Name:                AV-unprocessed.smi:1123
#       Creating user name   scv26
#       Creation time:       Fri Mar 27 03:39:20 2020


#       File generated by GOLD software.
#

@<TRIPOS>MOLECULE
AV-unprocessed.smi:1123
    44    45     1
SMALL
NO_CHARGES


@<TRIPOS>ATOM
      1 ****        -3.8406  -2.4763  -0.5102 C.3            1 S1                 0.0000
      2 ****        -3.0928  -1.4966   0.4170 C.3            1 S1                 0.0000
      3 ****        -1.6078  -1.3302   0.0473 C.2            1 S1                 0.0000
      4 ****        -1.0880  -2.0393  -0.8154 O.2            1 S1                 0.0000
      5 ****        -0.9331  -0.3695   0.6998 N.am           1 S1                 0.0000
      6 ****         0.4725  -0.0446   0.4885 C.3            1 S1                 0.0000
      7 ****         0.6560   0.8717  -0.7364 C.3            1 S1                 0.0000
      8 ****         2.0813   1.1769  -1.0176 N.4            1 S1                 1.0000
      9 ****         2.2840   1.6776  -2.3986 C.3            1 S1                 0.0000
     10 ****         3.7761   1.9342  -2.6685 C.3            1 S1                 0.0000
     11 ****         4.2787   2.8579  -1.7117 O.3            1 S1                 0.0000
     12 ****         4.1761   2.3556  -0.3855 C.3            1 S1                 0.0000
     13 ****         2.6987   2.1041  -0.0364 C.3            1 S1                 0.0000
     14 ****        -3.2423  -1.8650   1.8200 N.pl3          1 S1                 0.0000
     15 ****        -3.6349  -1.1312   2.8635 C.2            1 S1                 0.0000
     16 ****        -3.6275  -1.7863   4.0157 N.2            1 S1                 0.0000
     17 ****        -3.1844  -3.0040   3.5832 C.2            1 S1                 0.0000
     18 ****        -2.9307  -3.1031   2.2785 N.2            1 S1                 0.0000
     19 ****        -3.7853  -2.1555  -1.5509 H              1 S1                 0.0000
     20 ****        -4.8964  -2.5332  -0.2438 H              1 S1                 0.0000
     21 ****        -3.4315  -3.4858  -0.4525 H              1 S1                 0.0000
     22 ****        -3.5566  -0.5167   0.2927 H              1 S1                 0.0000
     23 ****        -1.4281   0.1694   1.3959 H              1 S1                 0.0000
     24 ****         0.8291   0.4419   1.3954 H              1 S1                 0.0000
     25 ****         1.0569  -0.9596   0.3754 H              1 S1                 0.0000
     26 ****         0.2301   0.3717  -1.6077 H              1 S1                 0.0000
     27 ****         0.0969   1.8002  -0.6098 H              1 S1                 0.0000
     28 ****         1.9031   0.9511  -3.1173 H              1 S1                 0.0000
     29 ****         1.7157   2.5983  -2.5411 H              1 S1                 0.0000
     30 ****         4.3461   1.0045  -2.6312 H              1 S1                 0.0000
     31 ****         3.9112   2.3508  -3.6668 H              1 S1                 0.0000
     32 ****         4.7614   1.4402  -0.2840 H              1 S1                 0.0000
     33 ****         4.6047   3.0853   0.3017 H              1 S1                 0.0000
     34 ****         2.1524   3.0487  -0.0304 H              1 S1                 0.0000
     35 ****         2.6376   1.6925   0.9701 H              1 S1                 0.0000
     36 ****        -3.9306  -0.0957   2.7791 H              1 S1                 0.0000
     37 ****        -3.0401  -3.8409   4.2506 H              1 S1                 0.0000
     38 ****         2.5830   0.3022  -0.9573 H              1 S1                 0.0000
     39 ****        -1.6319  -2.7342  -1.2859 LP             1 S1                 0.0000
     40 ****        -0.1222  -1.9201  -1.0454 LP             1 S1                 0.0000
     41 ****         3.7557   3.7077  -1.7770 LP             1 S1                 0.0000
     42 ****         5.2405   3.0420  -1.9143 LP             1 S1                 0.0000
     43 ****        -3.8745  -1.4786   4.9345 LP             1 S1                 0.0000
     44 ****        -2.5946  -3.8930   1.7656 LP             1 S1                 0.0000
@<TRIPOS>BOND
    1    1    2 1     
    2    1   19 1     
    3    1   20 1     
    4    1   21 1     
    5    2    3 1     
    6    2   14 1     
    7    2   22 1     
    8    3    4 2     
    9    3    5 am    
   10    5    6 1     
   11    5   23 1     
   12    6    7 1     
   13    6   24 1     
   14    6   25 1     
   15    7    8 1     
   16    7   26 1     
   17    7   27 1     
   18    8   13 1     
   19    8    9 1     
   20    8   38 1     
   21    9   10 1     
   22    9   28 1     
   23    9   29 1     
   24   10   11 1     
   25   10   30 1     
   26   10   31 1     
   27   11   12 1     
   28   12   13 1     
   29   12   32 1     
   30   12   33 1     
   31   13   34 1     
   32   13   35 1     
   33   14   18 1     
   34   14   15 1     
   35   15   16 2     
   36   15   36 1     
   37   16   17 1     
   38   17   18 2     
   39   17   37 1     
   40    4   39 1     
   41    4   40 1     
   42   11   41 1     
   43   11   42 1     
   44   16   43 1     
   45   18   44 1     
@<TRIPOS>SUBSTRUCTURE
      1 S1             1
@<TRIPOS>SET
LONE_PAIRS      STATIC     ATOMS    <user>   **** ""
6 39 40 41 42 43 44
DONOR_HYDROGENS      STATIC     ATOMS    <user>   **** ""
2 23 38
ATOM$BLUE        STATIC     ATOMS    COLORGROUP SYSTEM
6 39 40 41 42 43 44
ATOM$RED        STATIC     ATOMS    COLORGROUP SYSTEM
2 23 38
