AV-unprocessed.smi:1873|AV-procd|sdf|7609|dock4
  -GOLD-   22720 9333D 1   1.00000     0.00000
 Structure written by MMmdl.
 37 39  0  0  0  0  0  0  0  0  2 V2000
  153.2012  139.0929  155.5492 O   0  0  0  0  0  0  0  0  0  0  0  0
  151.8379  138.9161  155.8837 C   0  0  2  0  0  0  0  0  0  0  0  0
  151.5470  139.5893  157.2397 C   0  0  0  0  0  0  0  0  0  0  0  0
  151.1275  140.9890  157.0975 N   0  0  0  0  0  0  0  0  0  0  0  0
  150.2765  141.5615  156.2036 C   0  0  0  0  0  0  0  0  0  0  0  0
  150.2079  142.8903  156.4952 N   0  3  0  0  0  0  0  0  0  0  0  0
  151.0281  143.1706  157.5906 C   0  0  0  0  0  0  0  0  0  0  0  0
  151.2888  144.3657  158.2539 C   0  0  0  0  0  0  0  0  0  0  0  0
  152.1825  144.3029  159.3436 C   0  0  0  0  0  0  0  0  0  0  0  0
  152.7780  143.0865  159.7368 C   0  0  0  0  0  0  0  0  0  0  0  0
  152.5055  141.8804  159.0580 C   0  0  0  0  0  0  0  0  0  0  0  0
  151.6223  141.9522  157.9817 C   0  0  0  0  0  0  0  0  0  0  0  0
  151.4311  137.4517  155.8931 C   0  0  0  0  0  0  0  0  0  0  0  0
  152.0942  136.5248  156.7252 C   0  0  0  0  0  0  0  0  0  0  0  0
  151.7039  135.1717  156.7316 C   0  0  0  0  0  0  0  0  0  0  0  0
  150.6428  134.7267  155.9177 C   0  0  0  0  0  0  0  0  0  0  0  0
  150.3161  133.3902  155.9585 O   0  0  0  0  0  0  0  0  0  0  0  0
  150.3501  132.6619  154.8110 C   0  0  0  0  0  0  0  0  0  0  0  0
  150.3481  131.3354  155.0913 F   0  0  0  0  0  0  0  0  0  0  0  0
  149.2474  132.9245  154.0690 F   0  0  0  0  0  0  0  0  0  0  0  0
  149.9848  135.6568  155.0777 C   0  0  0  0  0  0  0  0  0  0  0  0
  150.3742  137.0099  155.0706 C   0  0  0  0  0  0  0  0  0  0  0  0
  153.3558  138.6973  154.7048 H   0  0  0  0  0  0  0  0  0  0  0  0
  151.2620  139.4221  155.1079 H   0  0  0  0  0  0  0  0  0  0  0  0
  150.7705  139.0513  157.7851 H   0  0  0  0  0  0  0  0  0  0  0  0
  152.4356  139.5756  157.8725 H   0  0  0  0  0  0  0  0  0  0  0  0
  149.7467  141.0522  155.4113 H   0  0  0  0  0  0  0  0  0  0  0  0
  150.8338  145.2989  157.9555 H   0  0  0  0  0  0  0  0  0  0  0  0
  152.4155  145.2061  159.8889 H   0  0  0  0  0  0  0  0  0  0  0  0
  153.4581  143.0779  160.5764 H   0  0  0  0  0  0  0  0  0  0  0  0
  152.9653  140.9532  159.3664 H   0  0  0  0  0  0  0  0  0  0  0  0
  152.9041  136.8481  157.3627 H   0  0  0  0  0  0  0  0  0  0  0  0
  152.2203  134.4702  157.3704 H   0  0  0  0  0  0  0  0  0  0  0  0
  151.2239  132.9036  154.2051 H   0  0  0  0  0  0  0  0  0  0  0  0
  149.1808  135.3443  154.4280 H   0  0  0  0  0  0  0  0  0  0  0  0
  149.8575  137.7068  154.4272 H   0  0  0  0  0  0  0  0  0  0  0  0
  149.6404  143.5537  155.9834 H   0  0  0  0  0  0  0  0  0  0  0  0
  1  2  1  0  0  0  0
  1 23  1  0  0  0  0
  2  3  1  0  0  0  0
  2 13  1  0  0  0  0
  2 24  1  0  0  0  0
  3  4  1  0  0  0  0
  3 25  1  0  0  0  0
  3 26  1  0  0  0  0
  4 12  1  0  0  0  0
  4  5  1  0  0  0  0
  5  6  2  0  0  0  0
  5 27  1  0  0  0  0
  6  7  1  0  0  0  0
  6 37  1  0  0  0  0
  7 12  2  0  0  0  0
  7  8  1  0  0  0  0
  8  9  2  0  0  0  0
  8 28  1  0  0  0  0
  9 10  1  0  0  0  0
  9 29  1  0  0  0  0
 10 11  2  0  0  0  0
 10 30  1  0  0  0  0
 11 12  1  0  0  0  0
 11 31  1  0  0  0  0
 13 22  1  0  0  0  0
 13 14  2  0  0  0  0
 14 15  1  0  0  0  0
 14 32  1  0  0  0  0
 15 16  2  0  0  0  0
 15 33  1  0  0  0  0
 16 17  1  0  0  0  0
 16 21  1  0  0  0  0
 17 18  1  0  0  0  0
 18 19  1  0  0  0  0
 18 20  1  0  0  0  0
 18 34  1  0  0  0  0
 21 22  2  0  0  0  0
 21 35  1  0  0  0  0
 22 36  1  0  0  0  0
M  CHG  1   6   1
M  END
> <s_m_source_file>
AV-unprocessed.smi

> <i_m_source_file_index>
1873

> <i_lp_mmshare_version>
43012

> <i_f3d_flags>
0

> <s_epik_input>
RltDSF0oRilPYyhbY0hdW2NIXTEpW2NIXVtjSF1jMVtDQEhdKFtPSF0pW0NIMl1uKFtjSF1uMiljKGMyMylbY0hdW2NIXVtjSF1bY0hdMw==

> <s_epik_cmdline>
J2VwaWtfcHl0aG9uJywgJy1waCcsICc3LjAnLCAnLXRuJywgJzgnLCAnLW1hJywgJzIwMCcsICctbWV0YWxfYmluZGluZycsICctaW1hZScsICc8aW5maWxlLm1hZT4nLCAnLW9tYWUnLCAnPG91dGZpbGUubWFlPic=

> <r_lp_tautomer_probability>
1

> <r_epik_Ionization_Penalty>
1.3029

> <r_epik_Ionization_Penalty_Charging>
1.3029

> <r_epik_Ionization_Penalty_Neutral>
2.50501e-07

> <r_epik_State_Penalty>
1.377

> <r_epik_Charging_Adjusted_Penalty>
2.6799

> <i_epik_Tot_Q>
1

> <i_epik_Tot_abs_Q>
1

> <r_epik_Metal_State_Penalty>
5.40879

> <b_epik_Metal_Only>
0

> <s_lp_Force_Field>
OPLS_2005

> <r_lp_Energy>
14.9016

> <b_lp_Chiralities_Consistent>
1

> <s_lp_Variant>
AV-unprocessed.smi:1873-3

> <Gold.Version>
5.8.1

> <Gold.Id.Protein>
6NUR|6NUR_protein|mol2

> <Gold.PLP.Fitness>
53.2310

> <Gold.PLP.PLP>
-45.8586

> <Gold.PLP.part.hbond>
-2.0000

> <Gold.PLP.part.metal>
0.0000

> <Gold.PLP.part.buried>
-5.2257

> <Gold.PLP.part.nonpolar>
-39.9682

> <Gold.PLP.part.repulsive>
0.0949

> <Gold.PLP.ligand.clash>
0.0000

> <Gold.PLP.ligand.torsion>
0.8658

> <Gold.PLP.Chemscore.Hbond>
3.0000

> <Gold.PLP.Chemscore.CHOScore>
0.0000

> <Gold.PLP.Chemscore.Metal>
0.0000

> <Gold.Chemscore.Hbonds>
donor molecule, donor type, donor heavy atom, donor atom, acceptor molecule, acceptor atom, score
      L1  H     6    37       P1  8028  1.46
      P1  H  7997  8008       L1     1  1.00

> <Gold.PLP.Chemscore.Internal.Correction>
0.1040

> <Gold.Rescore>
     Score         DG    S(hbond)    S(metal)    S(lipo)     H(rot)  DE(clash)    DE(int)     intcor
     17.69     -18.66       1.94        0.00     111.23       2.47       0.00       0.97       ----

> <Gold.Chemscore.Fitness>
17.6907

> <Gold.Chemscore.DG>
-18.6587

> <Gold.Chemscore.ZeroCoef>
-5.4800

> <Gold.Chemscore.Hbond>
1.9402

> <Gold.Chemscore.Metal>
0.0000

> <Gold.Chemscore.Lipo>
111.2274

> <Gold.Chemscore.Internal_Hbond>
0.0000

> <Gold.Chemscore.DEClash>
0.0000

> <Gold.Chemscore.DEInternal>
0.9680

> <Gold.Chemscore.Rot>
2.4668

> <Gold.Chemscore.Internal.Correction>
   9.000000E+99

> <Gold.Chemscore.Hbonds>
donor molecule, donor type, donor heavy atom, donor atom, acceptor molecule, acceptor atom, score
      L1  H     6    37       P1  8028  0.73
      P1  H  7997  8008       L1     1  0.96

> <Gold.Chemscore.Hbond.Weighted>
-6.4802

> <Gold.Chemscore.Metal.Weighted>
-0.0000

> <Gold.Chemscore.Lipo.Weighted>
-13.0136

> <Gold.Chemscore.Internal_Hbond.Weighted>
0.0000

> <Gold.Chemscore.DEClash.Weighted>
0.0000

> <Gold.Chemscore.DEInternal.Weighted>
0.9680

> <Gold.Chemscore.Rot.Weighted>
6.3151

> <Gold.Chemscore.Internal.Correction.Weighted>
   9.000000E+99

> <Gold.Protein.RotatedTorsions>
[ 6907 6896 6895 6894 ] final -121.27 input  -60.11 | X-H torsion
[ 7974 7965 7964 7962 ] final -172.01 input  175.53 | X-H torsion
[ 8008 7997 7996 7995 ] final  -40.80 input   59.86 | X-H torsion
[ 10167 10162 10161 10158 ] final   72.48 input  -65.29 | X-H torsion
[ 10718 10713 10712 10709 ] final   -2.94 input   66.30 | X-H torsion
[ 10763 10752 10751 10750 ] final  -38.44 input  -60.55 | X-H torsion
[ 11005 11000 10999 10996 ] final    8.67 input  -57.11 | X-H torsion

> <Gold.Protein.ActiveResidues>
 VAL166  LYS551  ARG553  GLY616  TRP617  ASP618  TYR619  PRO620  LYS621  CYS622 
 ASP623  PHE694  ASN695  SER759  ASP760  ASP761  ALA762  ILE779  LEU786  VAL792 
 PHE793  MET794  SER795  GLU796  ALA797  LYS798  CYS799  TRP800  GLU811  SER814 

> <Gold.Protein.RotatedAtoms>
  150.8468  133.7849  159.3039 H   0  0  0  0  0  0  0  0  0  0  0  0  # atno 6907 bound_to 6896
  151.5533  135.1065  159.9964 H   0  0  0  0  0  0  0  0  0  0  0  0  # atno 6908 bound_to 6896
  152.4520  133.7605  159.6800 H   0  0  0  0  0  0  0  0  0  0  0  0  # atno 6909 bound_to 6896
  144.7150  140.1836  143.6356 H   0  0  0  0  0  0  0  0  0  0  0  0  # atno 7974 bound_to 7965
  154.4009  140.1516  156.3086 H   0  0  0  0  0  0  0  0  0  0  0  0  # atno 8008 bound_to 7997
  155.8636  140.3452  155.5751 H   0  0  0  0  0  0  0  0  0  0  0  0  # atno 8009 bound_to 7997
  155.7853  140.0849  157.2028 H   0  0  0  0  0  0  0  0  0  0  0  0  # atno 8010 bound_to 7997
  140.0349  144.5436  150.7479 H   0  0  0  0  0  0  0  0  0  0  0  0  # atno 10167 bound_to 10162
  156.7835  130.5338  149.5747 H   0  0  0  0  0  0  0  0  0  0  0  0  # atno 10718 bound_to 10713
  153.9128  135.6790  153.4750 H   0  0  0  0  0  0  0  0  0  0  0  0  # atno 10763 bound_to 10752
  153.1069  135.4801  154.8965 H   0  0  0  0  0  0  0  0  0  0  0  0  # atno 10764 bound_to 10752
  154.7518  135.3187  154.8499 H   0  0  0  0  0  0  0  0  0  0  0  0  # atno 10765 bound_to 10752
  140.5343  134.0436  155.7883 H   0  0  0  0  0  0  0  0  0  0  0  0  # atno 11005 bound_to 11000
  145.8834  139.2335  143.1592 LP  0  0  0  0  0  0  0  0  0  0  0  0  # atno 17320 bound_to 7965
  145.9973  140.8551  143.0036 LP  0  0  0  0  0  0  0  0  0  0  0  0  # atno 17321 bound_to 7965
  140.7286  143.2663  151.4033 LP  0  0  0  0  0  0  0  0  0  0  0  0  # atno 17342 bound_to 10162
  139.6052  144.1212  152.2241 LP  0  0  0  0  0  0  0  0  0  0  0  0  # atno 17343 bound_to 10162
  156.1203  130.6105  151.0184 LP  0  0  0  0  0  0  0  0  0  0  0  0  # atno 17370 bound_to 10713
  157.6635  131.0876  150.7783 LP  0  0  0  0  0  0  0  0  0  0  0  0  # atno 17371 bound_to 10713
  141.1263  133.9377  157.2628 LP  0  0  0  0  0  0  0  0  0  0  0  0  # atno 17394 bound_to 11000
  139.9537  135.0170  156.9068 LP  0  0  0  0  0  0  0  0  0  0  0  0  # atno 17395 bound_to 11000

$$$$
