AV-unprocessed.smi:234|AV-procd|sdf|1792|dock2
  -GOLD-   2262020353D 1   1.00000     0.00000
 Structure written by MMmdl.
 59 62  0  0  0  0  0  0  0  0  1 V2000
  147.0515  128.8467  152.1095 C   0  0  0  0  0  0  0  0  0  0  0  0
  147.3003  130.1883  152.8110 C   0  0  0  0  0  0  0  0  0  0  0  0
  146.9307  131.2785  151.9785 O   0  0  0  0  0  0  0  0  0  0  0  0
  145.5937  131.7321  152.1677 C   0  0  1  0  0  0  0  0  0  0  0  0
  145.5340  132.9621  153.0805 C   0  0  0  0  0  0  0  0  0  0  0  0
  145.7254  133.7932  151.8055 C   0  0  2  0  0  0  0  0  0  0  0  0
  144.9644  135.0434  151.7752 N   0  0  0  0  0  0  0  0  0  0  0  0
  144.9398  135.7522  150.5028 C   0  0  0  0  0  0  0  0  0  0  0  0
  145.2426  135.8864  152.7935 C   0  0  0  0  0  0  0  0  0  0  0  0
  144.8365  135.5178  154.0331 N   0  0  0  0  0  0  0  0  0  0  0  0
  145.0984  136.3046  155.0814 C   0  0  0  0  0  0  0  0  0  0  0  0
  145.7382  137.4760  155.1079 N   0  0  0  0  0  0  0  0  0  0  0  0
  146.1410  137.8515  153.8598 C   0  0  0  0  0  0  0  0  0  0  0  0
  145.9297  137.1254  152.6546 C   0  0  0  0  0  0  0  0  0  0  0  0
  146.4639  137.8240  151.5790 N   0  0  0  0  0  0  0  0  0  0  0  0
  146.9686  138.8992  152.1185 C   0  0  0  0  0  0  0  0  0  0  0  0
  146.8353  138.9894  153.4862 N   0  0  0  0  0  0  0  0  0  0  0  0
  147.3188  140.0645  154.3392 C   0  0  0  0  0  0  0  0  0  0  0  0
  148.8528  140.2700  154.2681 C   0  0  2  0  0  0  0  0  0  0  0  0
  149.1379  141.1245  153.1737 O   0  0  0  0  0  0  0  0  0  0  0  0
  149.5995  138.9502  154.0489 C   0  0  0  0  0  0  0  0  0  0  0  0
  150.3048  138.7009  155.3765 C   0  0  0  0  0  0  0  0  0  0  0  0
  150.6155  140.0108  155.8159 O   0  0  0  0  0  0  0  0  0  0  0  0
  149.4637  140.8105  155.5887 C   0  0  1  0  0  0  0  0  0  0  0  0
  149.8276  142.3042  155.6330 C   0  0  0  0  0  0  0  0  0  0  0  0
  145.0957  132.6249  151.0013 C   0  0  0  0  0  0  0  0  0  0  0  0
  145.7025  132.3379  149.6255 C   0  0  0  0  0  0  0  0  0  0  0  0
  143.5684  132.6213  150.8214 C   0  0  0  0  0  0  0  0  0  0  0  0
  147.3969  128.0183  152.7282 H   0  0  0  0  0  0  0  0  0  0  0  0
  147.5870  128.7988  151.1613 H   0  0  0  0  0  0  0  0  0  0  0  0
  145.9937  128.6843  151.9055 H   0  0  0  0  0  0  0  0  0  0  0  0
  146.7863  130.2296  153.7722 H   0  0  0  0  0  0  0  0  0  0  0  0
  148.3650  130.2821  153.0243 H   0  0  0  0  0  0  0  0  0  0  0  0
  144.8920  130.9410  152.4343 H   0  0  0  0  0  0  0  0  0  0  0  0
  144.5598  133.0925  153.5545 H   0  0  0  0  0  0  0  0  0  0  0  0
  146.3464  133.0514  153.8019 H   0  0  0  0  0  0  0  0  0  0  0  0
  146.7828  133.9183  151.5651 H   0  0  0  0  0  0  0  0  0  0  0  0
  144.3299  136.6542  150.5682 H   0  0  0  0  0  0  0  0  0  0  0  0
  144.5182  135.1247  149.7189 H   0  0  0  0  0  0  0  0  0  0  0  0
  145.9473  136.0396  150.1999 H   0  0  0  0  0  0  0  0  0  0  0  0
  144.7482  135.9421  156.0364 H   0  0  0  0  0  0  0  0  0  0  0  0
  147.4639  139.6565  151.5284 H   0  0  0  0  0  0  0  0  0  0  0  0
  146.8053  140.9820  154.0487 H   0  0  0  0  0  0  0  0  0  0  0  0
  147.0103  139.8553  155.3646 H   0  0  0  0  0  0  0  0  0  0  0  0
  148.9957  140.6425  152.3734 H   0  0  0  0  0  0  0  0  0  0  0  0
  148.9478  138.1225  153.7667 H   0  0  0  0  0  0  0  0  0  0  0  0
  150.3526  139.0504  153.2653 H   0  0  0  0  0  0  0  0  0  0  0  0
  149.6361  138.2194  156.0920 H   0  0  0  0  0  0  0  0  0  0  0  0
  151.1993  138.0868  155.2713 H   0  0  0  0  0  0  0  0  0  0  0  0
  148.7843  140.5949  156.4144 H   0  0  0  0  0  0  0  0  0  0  0  0
  148.9575  142.9295  155.4302 H   0  0  0  0  0  0  0  0  0  0  0  0
  150.5987  142.5519  154.9031 H   0  0  0  0  0  0  0  0  0  0  0  0
  150.2086  142.5782  156.6169 H   0  0  0  0  0  0  0  0  0  0  0  0
  145.3425  133.0376  148.8710 H   0  0  0  0  0  0  0  0  0  0  0  0
  145.4570  131.3316  149.2853 H   0  0  0  0  0  0  0  0  0  0  0  0
  146.7895  132.4188  149.6394 H   0  0  0  0  0  0  0  0  0  0  0  0
  143.2436  133.3535  150.0822 H   0  0  0  0  0  0  0  0  0  0  0  0
  143.0442  132.8505  151.7492 H   0  0  0  0  0  0  0  0  0  0  0  0
  143.2128  131.6461  150.4876 H   0  0  0  0  0  0  0  0  0  0  0  0
  1  2  1  0  0  0  0
  1 29  1  0  0  0  0
  1 30  1  0  0  0  0
  1 31  1  0  0  0  0
  2  3  1  0  0  0  0
  2 32  1  0  0  0  0
  2 33  1  0  0  0  0
  3  4  1  0  0  0  0
  4 26  1  0  0  0  0
  4  5  1  0  0  0  0
  4 34  1  0  0  0  0
  5  6  1  0  0  0  0
  5 35  1  0  0  0  0
  5 36  1  0  0  0  0
  6  7  1  0  0  0  0
  6 26  1  0  0  0  0
  6 37  1  0  0  0  0
  7  8  1  0  0  0  0
  7  9  1  0  0  0  0
  8 38  1  0  0  0  0
  8 39  1  0  0  0  0
  8 40  1  0  0  0  0
  9 14  1  0  0  0  0
  9 10  2  0  0  0  0
 10 11  1  0  0  0  0
 11 12  2  0  0  0  0
 11 41  1  0  0  0  0
 12 13  1  0  0  0  0
 13 17  1  0  0  0  0
 13 14  2  0  0  0  0
 14 15  1  0  0  0  0
 15 16  2  0  0  0  0
 16 17  1  0  0  0  0
 16 42  1  0  0  0  0
 17 18  1  0  0  0  0
 18 19  1  0  0  0  0
 18 43  1  0  0  0  0
 18 44  1  0  0  0  0
 19 24  1  0  0  0  0
 19 20  1  0  0  0  0
 19 21  1  0  0  0  0
 20 45  1  0  0  0  0
 21 22  1  0  0  0  0
 21 46  1  0  0  0  0
 21 47  1  0  0  0  0
 22 23  1  0  0  0  0
 22 48  1  0  0  0  0
 22 49  1  0  0  0  0
 23 24  1  0  0  0  0
 24 25  1  0  0  0  0
 24 50  1  0  0  0  0
 25 51  1  0  0  0  0
 25 52  1  0  0  0  0
 25 53  1  0  0  0  0
 26 27  1  0  0  0  0
 26 28  1  0  0  0  0
 27 54  1  0  0  0  0
 27 55  1  0  0  0  0
 27 56  1  0  0  0  0
 28 57  1  0  0  0  0
 28 58  1  0  0  0  0
 28 59  1  0  0  0  0
M  END
> <s_m_source_file>
AV-unprocessed.smi

> <i_m_source_file_index>
234

> <i_lp_mmshare_version>
43012

> <i_f3d_flags>
0

> <s_epik_input>
W0NIM11bQ0gyXU9bQ0BASF0oQzEoW0NIM10pW0NIM10pW0NIMl1bQ0BIXTFOKFtDSDNdKWMobltjSF1uMiljKGMyMyluW2NIXW4zW0NIMl1bQ0BAXTQoW09IXSlbQ0gyXVtDSDJdT1tDQEhdNFtDSDNd

> <s_epik_cmdline>
J2VwaWtfcHl0aG9uJywgJy1waCcsICc3LjAnLCAnLXRuJywgJzgnLCAnLW1hJywgJzIwMCcsICctbWV0YWxfYmluZGluZycsICctaW1hZScsICc8aW5maWxlLm1hZT4nLCAnLW9tYWUnLCAnPG91dGZpbGUubWFlPic=

> <r_lp_tautomer_probability>
1

> <r_epik_Ionization_Penalty>
0.00349132

> <r_epik_Ionization_Penalty_Charging>
0

> <r_epik_Ionization_Penalty_Neutral>
0.00349132

> <r_epik_State_Penalty>
0.00242418

> <r_epik_Charging_Adjusted_Penalty>
0.00242418

> <i_epik_Tot_Q>
0

> <i_epik_Tot_abs_Q>
0

> <r_epik_Metal_State_Penalty>
-0

> <b_epik_Metal_Only>
0

> <s_lp_Force_Field>
OPLS_2005

> <r_lp_Energy>
49.6192

> <b_lp_Chiralities_Consistent>
1

> <s_lp_Variant>
AV-unprocessed.smi:234-8

> <Gold.Version>
5.8.1

> <Gold.Id.Protein>
6NUR|6NUR_protein|mol2

> <Gold.PLP.Fitness>
41.3327

> <Gold.PLP.PLP>
-36.7375

> <Gold.PLP.part.hbond>
-2.2246

> <Gold.PLP.part.metal>
0.0000

> <Gold.PLP.part.buried>
0.5028

> <Gold.PLP.part.nonpolar>
-36.8708

> <Gold.PLP.part.repulsive>
3.3411

> <Gold.PLP.ligand.clash>
0.4412

> <Gold.PLP.ligand.torsion>
1.5999

> <Gold.PLP.Chemscore.Hbond>
1.4286

> <Gold.PLP.Chemscore.CHOScore>
1.0000

> <Gold.PLP.Chemscore.Metal>
0.0000

> <Gold.Chemscore.Hbonds>
donor molecule, donor type, donor heavy atom, donor atom, acceptor molecule, acceptor atom, score
      L1  H    20    45       P1  7957  0.83
      P1  H  7954  7966       L1    15  0.05
      P1  H  8011  8017       L1    20  0.55
      L1  C    16    42       P1  7957  1.00

> <Gold.PLP.Chemscore.Internal.Correction>
0.9502

> <Gold.Rescore>
     Score         DG    S(hbond)    S(metal)    S(lipo)     H(rot)  DE(clash)    DE(int)     intcor
      6.73     -13.74       0.95        0.00     100.67       2.62       2.51       4.50       ----

> <Gold.Chemscore.Fitness>
6.7258

> <Gold.Chemscore.DG>
-13.7362

> <Gold.Chemscore.ZeroCoef>
-5.4800

> <Gold.Chemscore.Hbond>
0.9550

> <Gold.Chemscore.Metal>
0.0000

> <Gold.Chemscore.Lipo>
100.6727

> <Gold.Chemscore.Internal_Hbond>
0.0000

> <Gold.Chemscore.DEClash>
2.5073

> <Gold.Chemscore.DEInternal>
4.5032

> <Gold.Chemscore.Rot>
2.6219

> <Gold.Chemscore.Internal.Correction>
   9.000000E+99

> <Gold.Chemscore.Hbonds>
donor molecule, donor type, donor heavy atom, donor atom, acceptor molecule, acceptor atom, score
      L1  H    20    45       P1  7957  0.78
      P1  H  8011  8017       L1    20  0.03

> <Gold.Chemscore.Hbond.Weighted>
-3.1896

> <Gold.Chemscore.Metal.Weighted>
-0.0000

> <Gold.Chemscore.Lipo.Weighted>
-11.7787

> <Gold.Chemscore.Internal_Hbond.Weighted>
0.0000

> <Gold.Chemscore.DEClash.Weighted>
2.5073

> <Gold.Chemscore.DEInternal.Weighted>
4.5032

> <Gold.Chemscore.Rot.Weighted>
6.7121

> <Gold.Chemscore.Internal.Correction.Weighted>
   9.000000E+99

> <Gold.Protein.RotatedTorsions>
[ 6907 6896 6895 6894 ] final  -35.84 input  -60.11 | X-H torsion
[ 7974 7965 7964 7962 ] final   61.21 input  175.53 | X-H torsion
[ 8008 7997 7996 7995 ] final   -8.54 input   59.86 | X-H torsion
[ 10167 10162 10161 10158 ] final  153.43 input  -65.29 | X-H torsion
[ 10718 10713 10712 10709 ] final  111.86 input   66.30 | X-H torsion
[ 10763 10752 10751 10750 ] final  137.71 input  -60.55 | X-H torsion
[ 11005 11000 10999 10996 ] final   15.79 input  -57.11 | X-H torsion

> <Gold.Protein.ActiveResidues>
 VAL166  LYS551  ARG553  GLY616  TRP617  ASP618  TYR619  PRO620  LYS621  CYS622 
 ASP623  PHE694  ASN695  SER759  ASP760  ASP761  ALA762  ILE779  LEU786  VAL792 
 PHE793  MET794  SER795  GLU796  ALA797  LYS798  CYS799  TRP800  GLU811  SER814 

> <Gold.Protein.RotatedAtoms>
  151.0347  134.9564  159.8129 H   0  0  0  0  0  0  0  0  0  0  0  0  # atno 6907 bound_to 6896
  152.5352  134.2735  159.8990 H   0  0  0  0  0  0  0  0  0  0  0  0  # atno 6908 bound_to 6896
  151.2745  133.4196  159.2657 H   0  0  0  0  0  0  0  0  0  0  0  0  # atno 6909 bound_to 6896
  145.8873  139.3486  143.0670 H   0  0  0  0  0  0  0  0  0  0  0  0  # atno 7974 bound_to 7965
  154.5732  140.2378  155.8161 H   0  0  0  0  0  0  0  0  0  0  0  0  # atno 8008 bound_to 7997
  156.2123  140.3022  155.9717 H   0  0  0  0  0  0  0  0  0  0  0  0  # atno 8009 bound_to 7997
  155.2675  140.0417  157.2994 H   0  0  0  0  0  0  0  0  0  0  0  0  # atno 8010 bound_to 7997
  139.4827  144.5274  151.7779 H   0  0  0  0  0  0  0  0  0  0  0  0  # atno 10167 bound_to 10162
  157.6423  131.0958  150.6811 H   0  0  0  0  0  0  0  0  0  0  0  0  # atno 10718 bound_to 10713
  153.8775  135.3048  155.3444 H   0  0  0  0  0  0  0  0  0  0  0  0  # atno 10763 bound_to 10752
  154.7777  135.4852  153.9782 H   0  0  0  0  0  0  0  0  0  0  0  0  # atno 10764 bound_to 10752
  153.1371  135.6816  153.9183 H   0  0  0  0  0  0  0  0  0  0  0  0  # atno 10765 bound_to 10752
  140.4544  134.1191  155.7707 H   0  0  0  0  0  0  0  0  0  0  0  0  # atno 11005 bound_to 11000
  145.8951  140.9279  143.0532 LP  0  0  0  0  0  0  0  0  0  0  0  0  # atno 17320 bound_to 7965
  144.6729  140.0957  143.7463 LP  0  0  0  0  0  0  0  0  0  0  0  0  # atno 17321 bound_to 7965
  140.4795  144.1470  150.5930 LP  0  0  0  0  0  0  0  0  0  0  0  0  # atno 17342 bound_to 10162
  140.4293  143.2575  151.9616 LP  0  0  0  0  0  0  0  0  0  0  0  0  # atno 17343 bound_to 10162
  156.7133  130.4658  149.5541 LP  0  0  0  0  0  0  0  0  0  0  0  0  # atno 17370 bound_to 10713
  156.1715  130.6440  151.0843 LP  0  0  0  0  0  0  0  0  0  0  0  0  # atno 17371 bound_to 10713
  141.1650  133.8721  157.1741 LP  0  0  0  0  0  0  0  0  0  0  0  0  # atno 17394 bound_to 11000
  139.9986  135.0037  157.0138 LP  0  0  0  0  0  0  0  0  0  0  0  0  # atno 17395 bound_to 11000

$$$$
