#       Name:                AV-unprocessed.smi:4
#       Creating user name   scv26
#       Creation time:       Thu Mar 26 15:14:57 2020


#       File generated by GOLD software.
#

@<TRIPOS>MOLECULE
AV-unprocessed.smi:4
    50    51     1
SMALL
NO_CHARGES


@<TRIPOS>ATOM
      1 ****        -3.2606   1.6015  -2.5268 C.3            1 S1                 0.0000
      2 ****        -2.9644   2.6469  -1.4180 C.3            1 S1                 0.0000
      3 ****        -2.2399   3.8164  -2.1300 C.3            1 S1                 0.0000
      4 ****        -4.3547   3.1019  -0.9049 C.3            1 S1                 0.0000
      5 ****        -2.1235   2.1200  -0.2806 N.am           1 S1                 0.0000
      6 ****        -1.6489   0.7827  -0.3106 C.2            1 S1                 0.0000
      7 ****        -0.9019   0.2316   0.6679 C.2            1 S1                 0.0000
      8 ****        -0.4182  -1.2095   0.6133 C.3            1 S1                 0.0000
      9 ****         1.0554  -1.2651   0.5346 N.4            1 S1                 1.0000
     10 ****         1.6048  -2.6350   0.4929 C.3            1 S1                 0.0000
     11 ****         3.1353  -2.6294   0.5152 C.3            1 S1                 0.0000
     12 ****         3.5376  -2.0332  -0.7029 O.3            1 S1                 0.0000
     13 ****         3.8331  -2.0741   1.7703 C.3            1 S1                 0.0000
     14 ****         4.8150  -3.2454   1.7246 C.3            1 S1                 0.0000
     15 ****         3.8311  -3.9710   0.8061 C.3            1 S1                 0.0000
     16 ****        -0.5788   1.0689   1.8200 C.2            1 S1                 0.0000
     17 ****         0.0914   0.6058   2.7424 O.2            1 S1                 0.0000
     18 ****        -1.0345   2.3494   1.8175 N.pl3          1 S1                -1.0000
     19 ****        -1.7829   2.8916   0.8099 C.2            1 S1                 0.0000
     20 ****        -2.1509   4.0628   0.8750 O.2            1 S1                 0.0000
     21 ****        -3.8803   2.0283  -3.3167 H              1 S1                 0.0000
     22 ****        -3.8070   0.7398  -2.1404 H              1 S1                 0.0000
     23 ****        -2.3499   1.2490  -3.0129 H              1 S1                 0.0000
     24 ****        -1.2434   3.5192  -2.4583 H              1 S1                 0.0000
     25 ****        -2.1282   4.6997  -1.5035 H              1 S1                 0.0000
     26 ****        -2.7892   4.1405  -3.0145 H              1 S1                 0.0000
     27 ****        -5.0129   3.3708  -1.7318 H              1 S1                 0.0000
     28 ****        -4.3137   3.9782  -0.2605 H              1 S1                 0.0000
     29 ****        -4.8468   2.3054  -0.3457 H              1 S1                 0.0000
     30 ****        -1.9065   0.1864  -1.1665 H              1 S1                 0.0000
     31 ****        -0.7650  -1.7401   1.5012 H              1 S1                 0.0000
     32 ****        -0.8463  -1.7160  -0.2527 H              1 S1                 0.0000
     33 ****         1.3604  -0.7700  -0.2913 H              1 S1                 0.0000
     34 ****         1.2200  -3.1856   1.3525 H              1 S1                 0.0000
     35 ****         1.2307  -3.1466  -0.3953 H              1 S1                 0.0000
     36 ****         4.4829  -2.0472  -0.7194 H              1 S1                 0.0000
     37 ****         4.2985  -1.0963   1.6409 H              1 S1                 0.0000
     38 ****         3.1956  -2.0952   2.6558 H              1 S1                 0.0000
     39 ****         5.7510  -2.9924   1.2248 H              1 S1                 0.0000
     40 ****         4.9859  -3.7337   2.6846 H              1 S1                 0.0000
     41 ****         3.1950  -4.6737   1.3465 H              1 S1                 0.0000
     42 ****         4.2959  -4.4444  -0.0597 H              1 S1                 0.0000
     43 ****         1.4288  -0.7947   1.3477 H              1 S1                 0.0000
     44 ****         3.2074  -1.0904  -0.7491 LP             1 S1                 0.0000
     45 ****         3.1731  -2.5523  -1.4760 LP             1 S1                 0.0000
     46 ****         0.4125  -0.3403   2.7012 LP             1 S1                 0.0000
     47 ****         0.3149   1.1757   3.5331 LP             1 S1                 0.0000
     48 ****        -0.8088   2.9300   2.5998 LP             1 S1                 0.0000
     49 ****        -2.6979   4.4568   0.1364 LP             1 S1                 0.0000
     50 ****        -1.9032   4.6215   1.6665 LP             1 S1                 0.0000
@<TRIPOS>BOND
    1    1    2 1     
    2    1   21 1     
    3    1   22 1     
    4    1   23 1     
    5    2    3 1     
    6    2    4 1     
    7    2    5 1     
    8    3   24 1     
    9    3   25 1     
   10    3   26 1     
   11    4   27 1     
   12    4   28 1     
   13    4   29 1     
   14    5   19 am    
   15    5    6 1     
   16    6    7 2     
   17    6   30 1     
   18    7    8 1     
   19    7   16 1     
   20    8    9 1     
   21    8   31 1     
   22    8   32 1     
   23    9   10 1     
   24    9   33 1     
   25    9   43 1     
   26   10   11 1     
   27   10   34 1     
   28   10   35 1     
   29   11   15 1     
   30   11   12 1     
   31   11   13 1     
   32   12   36 1     
   33   13   14 1     
   34   13   37 1     
   35   13   38 1     
   36   14   15 1     
   37   14   39 1     
   38   14   40 1     
   39   15   41 1     
   40   15   42 1     
   41   16   17 2     
   42   16   18 1     
   43   18   19 1     
   44   19   20 2     
   45   12   44 1     
   46   12   45 1     
   47   17   46 1     
   48   17   47 1     
   49   18   48 1     
   50   20   49 1     
   51   20   50 1     
@<TRIPOS>SUBSTRUCTURE
      1 S1             1
@<TRIPOS>SET
LONE_PAIRS      STATIC     ATOMS    <user>   **** ""
7 44 45 46 47 48 49 50
DONOR_HYDROGENS      STATIC     ATOMS    <user>   **** ""
3 33 43 36
ATOM$BLUE        STATIC     ATOMS    COLORGROUP SYSTEM
7 44 45 46 47 48 49 50
ATOM$RED        STATIC     ATOMS    COLORGROUP SYSTEM
3 33 43 36
