AV-unprocessed.smi:415|AV-procd|sdf|2522|dock3
  -GOLD-   2262022473D 1   1.00000     0.00000
 Structure written by MMmdl.
 53 54  0  0  0  0  0  0  0  0  1 V2000
  145.9042  131.2088  151.0422 C   0  0  0  0  0  0  0  0  0  0  0  0
  146.0017  132.3320  151.8996 O   0  0  0  0  0  0  0  0  0  0  0  0
  146.8297  132.0900  153.0250 C   0  0  0  0  0  0  0  0  0  0  0  0
  148.1492  132.8673  152.8856 C   0  0  0  0  0  0  0  0  0  0  0  0
  148.9737  132.8062  154.0783 N   0  0  0  0  0  0  0  0  0  0  0  0
  149.5608  131.6293  154.5342 C   0  0  0  0  0  0  0  0  0  0  0  0
  149.3812  130.4561  153.8233 N   0  0  0  0  0  0  0  0  0  0  0  0
  150.3149  131.6057  155.6554 C   0  0  0  0  0  0  0  0  0  0  0  0
  150.5554  132.8047  156.4453 C   0  0  0  0  0  0  0  0  0  0  0  0
  151.2066  132.7967  157.4902 O   0  0  0  0  0  0  0  0  0  0  0  0
  149.9744  133.9943  155.9489 N   0  0  0  0  0  0  0  0  0  0  0  0
  150.1415  135.2441  156.7301 C   0  0  0  0  0  0  0  0  0  0  0  0
  150.9730  136.3282  156.0199 C   0  0  0  0  0  0  0  0  0  0  0  0
  151.3965  136.1209  154.8839 O   0  0  0  0  0  0  0  0  0  0  0  0
  151.2025  137.4684  156.6902 N   0  0  0  0  0  0  0  0  0  0  0  0
  151.9574  138.6275  156.2254 C   0  0  2  0  0  0  0  0  0  0  0  0
  152.4405  139.4710  157.4213 C   0  0  0  0  0  0  0  0  0  0  0  0
  151.2678  140.1379  158.1554 C   0  0  0  0  0  0  0  0  0  0  0  0
  150.4254  140.9828  157.1900 C   0  0  0  0  0  0  0  0  0  0  0  0
  149.9134  140.1613  155.9882 C   0  0  1  0  0  0  0  0  0  0  0  0
  149.0711  141.0591  155.0646 C   0  0  0  0  0  0  0  0  0  0  0  0
  151.0958  139.4708  155.2497 C   0  0  2  0  0  0  0  0  0  0  0  0
  150.6379  138.6276  154.0413 C   0  0  0  0  0  0  0  0  0  0  0  0
  149.1896  134.0242  154.7729 C   0  0  0  0  0  0  0  0  0  0  0  0
  148.6970  135.0864  154.3836 O   0  0  0  0  0  0  0  0  0  0  0  0
  145.2533  131.4465  150.2007 H   0  0  0  0  0  0  0  0  0  0  0  0
  145.4805  130.3495  151.5634 H   0  0  0  0  0  0  0  0  0  0  0  0
  146.8810  130.9310  150.6441 H   0  0  0  0  0  0  0  0  0  0  0  0
  146.3125  132.4173  153.9282 H   0  0  0  0  0  0  0  0  0  0  0  0
  147.0263  131.0221  153.1334 H   0  0  0  0  0  0  0  0  0  0  0  0
  148.7377  132.5416  152.0266 H   0  0  0  0  0  0  0  0  0  0  0  0
  147.9566  133.9244  152.7041 H   0  0  0  0  0  0  0  0  0  0  0  0
  148.8326  130.4242  152.9758 H   0  0  0  0  0  0  0  0  0  0  0  0
  149.7910  129.5831  154.1233 H   0  0  0  0  0  0  0  0  0  0  0  0
  150.7533  130.6748  155.9858 H   0  0  0  0  0  0  0  0  0  0  0  0
  149.1739  135.6755  156.9911 H   0  0  0  0  0  0  0  0  0  0  0  0
  150.6037  135.0395  157.6969 H   0  0  0  0  0  0  0  0  0  0  0  0
  150.8105  137.5409  157.6178 H   0  0  0  0  0  0  0  0  0  0  0  0
  152.8342  138.2709  155.6819 H   0  0  0  0  0  0  0  0  0  0  0  0
  153.0134  138.8549  158.1156 H   0  0  0  0  0  0  0  0  0  0  0  0
  153.1256  140.2410  157.0648 H   0  0  0  0  0  0  0  0  0  0  0  0
  150.6405  139.3787  158.6243 H   0  0  0  0  0  0  0  0  0  0  0  0
  151.6458  140.7646  158.9635 H   0  0  0  0  0  0  0  0  0  0  0  0
  149.5834  141.4145  157.7323 H   0  0  0  0  0  0  0  0  0  0  0  0
  151.0224  141.8233  156.8325 H   0  0  0  0  0  0  0  0  0  0  0  0
  149.2496  139.3863  156.3751 H   0  0  0  0  0  0  0  0  0  0  0  0
  149.6856  141.8191  154.5812 H   0  0  0  0  0  0  0  0  0  0  0  0
  148.2897  141.5729  155.6255 H   0  0  0  0  0  0  0  0  0  0  0  0
  148.5724  140.4831  154.2857 H   0  0  0  0  0  0  0  0  0  0  0  0
  151.7420  140.2578  154.8573 H   0  0  0  0  0  0  0  0  0  0  0  0
  149.8792  137.8962  154.3227 H   0  0  0  0  0  0  0  0  0  0  0  0
  151.4757  138.0840  153.6042 H   0  0  0  0  0  0  0  0  0  0  0  0
  150.2205  139.2511  153.2513 H   0  0  0  0  0  0  0  0  0  0  0  0
  1  2  1  0  0  0  0
  1 26  1  0  0  0  0
  1 27  1  0  0  0  0
  1 28  1  0  0  0  0
  2  3  1  0  0  0  0
  3  4  1  0  0  0  0
  3 29  1  0  0  0  0
  3 30  1  0  0  0  0
  4  5  1  0  0  0  0
  4 31  1  0  0  0  0
  4 32  1  0  0  0  0
  5 24  1  0  0  0  0
  5  6  1  0  0  0  0
  6  7  1  0  0  0  0
  6  8  2  0  0  0  0
  7 33  1  0  0  0  0
  7 34  1  0  0  0  0
  8  9  1  0  0  0  0
  8 35  1  0  0  0  0
  9 10  2  0  0  0  0
  9 11  1  0  0  0  0
 11 12  1  0  0  0  0
 11 24  1  0  0  0  0
 12 13  1  0  0  0  0
 12 36  1  0  0  0  0
 12 37  1  0  0  0  0
 13 14  2  0  0  0  0
 13 15  1  0  0  0  0
 15 16  1  0  0  0  0
 15 38  1  0  0  0  0
 16 22  1  0  0  0  0
 16 17  1  0  0  0  0
 16 39  1  0  0  0  0
 17 18  1  0  0  0  0
 17 40  1  0  0  0  0
 17 41  1  0  0  0  0
 18 19  1  0  0  0  0
 18 42  1  0  0  0  0
 18 43  1  0  0  0  0
 19 20  1  0  0  0  0
 19 44  1  0  0  0  0
 19 45  1  0  0  0  0
 20 21  1  0  0  0  0
 20 22  1  0  0  0  0
 20 46  1  0  0  0  0
 21 47  1  0  0  0  0
 21 48  1  0  0  0  0
 21 49  1  0  0  0  0
 22 23  1  0  0  0  0
 22 50  1  0  0  0  0
 23 51  1  0  0  0  0
 23 52  1  0  0  0  0
 23 53  1  0  0  0  0
 24 25  2  0  0  0  0
M  END
> <s_m_source_file>
AV-unprocessed.smi

> <i_m_source_file_index>
415

> <i_lp_mmshare_version>
43012

> <i_f3d_flags>
0

> <s_epik_input>
W0NIM11PW0NIMl1bQ0gyXW4xYyhbTkgyXSlbY0hdYyg9TyluKGMxPU8pW0NIMl1DKD1PKVtOSF1bQ0BASF0yW0NIMl1bQ0gyXVtDSDJdW0NAQEhdKFtDSDNdKVtDQEhdMltDSDNd

> <s_epik_cmdline>
J2VwaWtfcHl0aG9uJywgJy1waCcsICc3LjAnLCAnLXRuJywgJzgnLCAnLW1hJywgJzIwMCcsICctbWV0YWxfYmluZGluZycsICctaW1hZScsICc8aW5maWxlLm1hZT4nLCAnLW9tYWUnLCAnPG91dGZpbGUubWFlPic=

> <r_lp_tautomer_probability>
1

> <r_epik_Ionization_Penalty>
8.6647e-06

> <r_epik_Ionization_Penalty_Charging>
1.81162e-08

> <r_epik_Ionization_Penalty_Neutral>
8.64658e-06

> <r_epik_State_Penalty>
-0

> <r_epik_Charging_Adjusted_Penalty>
1.81162e-08

> <i_epik_Tot_Q>
0

> <i_epik_Tot_abs_Q>
0

> <r_epik_Metal_State_Penalty>
-0

> <b_epik_Metal_Only>
0

> <s_lp_Force_Field>
OPLS_2005

> <r_lp_Energy>
19.7433

> <b_lp_Chiralities_Consistent>
1

> <s_lp_Variant>
AV-unprocessed.smi:415-5

> <Gold.Version>
5.8.1

> <Gold.Id.Protein>
6NUR|6NUR_protein|mol2

> <Gold.PLP.Fitness>
41.6920

> <Gold.PLP.PLP>
-37.0642

> <Gold.PLP.part.hbond>
-2.0000

> <Gold.PLP.part.metal>
0.0000

> <Gold.PLP.part.buried>
-4.9288

> <Gold.PLP.part.nonpolar>
-33.0576

> <Gold.PLP.part.repulsive>
2.6309

> <Gold.PLP.ligand.clash>
0.0000

> <Gold.PLP.ligand.torsion>
0.7154

> <Gold.PLP.Chemscore.Hbond>
2.0000

> <Gold.PLP.Chemscore.CHOScore>
0.0000

> <Gold.PLP.Chemscore.Metal>
0.0000

> <Gold.Chemscore.Hbonds>
donor molecule, donor type, donor heavy atom, donor atom, acceptor molecule, acceptor atom, score
      P1  H  6896  6908       L1    10  1.00
      P1  H 10752 10763       L1    14  1.00

> <Gold.PLP.Chemscore.Internal.Correction>
0.0586

> <Gold.Rescore>
     Score         DG    S(hbond)    S(metal)    S(lipo)     H(rot)  DE(clash)    DE(int)     intcor
     12.52     -14.56       1.92        0.00      72.33       2.26       0.00       2.03       ----

> <Gold.Chemscore.Fitness>
12.5238

> <Gold.Chemscore.DG>
-14.5565

> <Gold.Chemscore.ZeroCoef>
-5.4800

> <Gold.Chemscore.Hbond>
1.9194

> <Gold.Chemscore.Metal>
0.0000

> <Gold.Chemscore.Lipo>
72.3322

> <Gold.Chemscore.Internal_Hbond>
0.0000

> <Gold.Chemscore.DEClash>
0.0030

> <Gold.Chemscore.DEInternal>
2.0297

> <Gold.Chemscore.Rot>
2.2645

> <Gold.Chemscore.Internal.Correction>
   9.000000E+99

> <Gold.Chemscore.Hbonds>
donor molecule, donor type, donor heavy atom, donor atom, acceptor molecule, acceptor atom, score
      P1  H  6896  6908       L1    10  0.95
      P1  H 10752 10763       L1    14  1.00

> <Gold.Chemscore.Hbond.Weighted>
-6.4108

> <Gold.Chemscore.Metal.Weighted>
-0.0000

> <Gold.Chemscore.Lipo.Weighted>
-8.4629

> <Gold.Chemscore.Internal_Hbond.Weighted>
0.0000

> <Gold.Chemscore.DEClash.Weighted>
0.0030

> <Gold.Chemscore.DEInternal.Weighted>
2.0297

> <Gold.Chemscore.Rot.Weighted>
5.7972

> <Gold.Chemscore.Internal.Correction.Weighted>
   9.000000E+99

> <Gold.Protein.RotatedTorsions>
[ 6907 6896 6895 6894 ] final   72.81 input  -60.11 | X-H torsion
[ 7974 7965 7964 7962 ] final  -52.56 input  175.53 | X-H torsion
[ 8008 7997 7996 7995 ] final   -4.44 input   59.86 | X-H torsion
[ 10167 10162 10161 10158 ] final   63.57 input  -65.29 | X-H torsion
[ 10718 10713 10712 10709 ] final -179.95 input   66.30 | X-H torsion
[ 10763 10752 10751 10750 ] final   51.26 input  -60.55 | X-H torsion
[ 11005 11000 10999 10996 ] final  -75.15 input  -57.11 | X-H torsion

> <Gold.Protein.ActiveResidues>
 VAL166  LYS551  ARG553  GLY616  TRP617  ASP618  TYR619  PRO620  LYS621  CYS622 
 ASP623  PHE694  ASN695  SER759  ASP760  ASP761  ALA762  ILE779  LEU786  VAL792 
 PHE793  MET794  SER795  GLU796  ALA797  LYS798  CYS799  TRP800  GLU811  SER814 

> <Gold.Protein.RotatedAtoms>
  152.4889  134.4515  159.9575 H   0  0  0  0  0  0  0  0  0  0  0  0  # atno 6907 bound_to 6896
  151.4506  133.3612  159.2802 H   0  0  0  0  0  0  0  0  0  0  0  0  # atno 6908 bound_to 6896
  150.9024  134.8461  159.7429 H   0  0  0  0  0  0  0  0  0  0  0  0  # atno 6909 bound_to 6896
  145.9066  140.7950  142.9716 H   0  0  0  0  0  0  0  0  0  0  0  0  # atno 7974 bound_to 7965
  154.6143  140.2484  155.7630 H   0  0  0  0  0  0  0  0  0  0  0  0  # atno 8008 bound_to 7997
  156.2389  140.2940  156.0339 H   0  0  0  0  0  0  0  0  0  0  0  0  # atno 8009 bound_to 7997
  155.2001  140.0394  157.2906 H   0  0  0  0  0  0  0  0  0  0  0  0  # atno 8010 bound_to 7997
  140.1317  144.4637  150.6861 H   0  0  0  0  0  0  0  0  0  0  0  0  # atno 10167 bound_to 10162
  156.8667  130.9770  151.3078 H   0  0  0  0  0  0  0  0  0  0  0  0  # atno 10718 bound_to 10713
  152.9785  135.5852  154.4386 H   0  0  0  0  0  0  0  0  0  0  0  0  # atno 10763 bound_to 10752
  154.3990  135.2768  155.2110 H   0  0  0  0  0  0  0  0  0  0  0  0  # atno 10764 bound_to 10752
  154.3949  135.6117  153.5918 H   0  0  0  0  0  0  0  0  0  0  0  0  # atno 10765 bound_to 10752
  141.1642  133.6936  156.7474 H   0  0  0  0  0  0  0  0  0  0  0  0  # atno 11005 bound_to 11000
  144.6740  140.1760  143.7410 LP  0  0  0  0  0  0  0  0  0  0  0  0  # atno 17320 bound_to 7965
  145.8724  139.2279  143.1653 LP  0  0  0  0  0  0  0  0  0  0  0  0  # atno 17321 bound_to 7965
  140.6813  143.2328  151.5376 LP  0  0  0  0  0  0  0  0  0  0  0  0  # atno 17342 bound_to 10162
  139.5516  144.2380  152.1541 LP  0  0  0  0  0  0  0  0  0  0  0  0  # atno 17343 bound_to 10162
  157.6219  130.8662  149.9123 LP  0  0  0  0  0  0  0  0  0  0  0  0  # atno 17370 bound_to 10713
  156.0748  130.3680  150.0701 LP  0  0  0  0  0  0  0  0  0  0  0  0  # atno 17371 bound_to 10713
  140.2630  134.8452  157.3776 LP  0  0  0  0  0  0  0  0  0  0  0  0  # atno 17394 bound_to 11000
  140.1593  134.4749  155.7905 LP  0  0  0  0  0  0  0  0  0  0  0  0  # atno 17395 bound_to 11000

$$$$
