#       Name:                AV-unprocessed.smi:148
#       Creating user name   scv26
#       Creation time:       Thu Mar 26 18:39:29 2020


#       File generated by GOLD software.
#

@<TRIPOS>MOLECULE
AV-unprocessed.smi:148
    73    77     1
SMALL
NO_CHARGES


@<TRIPOS>ATOM
      1 ****        -3.5485  -1.9086   1.8684 O.3            1 S1                 0.0000
      2 ****        -2.1449  -2.0606   1.9092 C.3            1 S1                 0.0000
      3 ****        -1.5472  -1.4122   3.1805 C.3            1 S1                 0.0000
      4 ****         0.0009  -1.3386   3.1095 C.3            1 S1                 0.0000
      5 ****         0.4699  -0.5421   1.9892 N.pl3          1 S1                 0.0000
      6 ****         0.4258   0.8292   1.8831 C.2            1 S1                 0.0000
      7 ****         0.8971   1.3154   0.7677 N.2            1 S1                 0.0000
      8 ****         1.2978   0.1939   0.0508 C.ar           1 S1                 0.0000
      9 ****         1.8735  -0.0150  -1.2352 C.ar           1 S1                 0.0000
     10 ****         2.1656   0.9624  -2.1244 N.3            1 S1                 0.0000
     11 ****         3.4645   1.5490  -1.7907 C.3            1 S1                 0.0000
     12 ****         3.9589   2.4954  -2.8928 C.3            1 S1                 0.0000
     13 ****         2.9037   3.5652  -3.1914 C.3            1 S1                 0.0000
     14 ****         1.5764   2.8898  -3.5580 C.3            1 S1                 0.0000
     15 ****         1.0961   1.9294  -2.4387 C.3            1 S1                 0.0000
     16 ****        -0.2851   1.2664  -2.7525 C.3            1 S1                 0.0000
     17 ****        -1.4772   2.2444  -2.7280 C.3            1 S1                 0.0000
     18 ****        -2.4799   1.7457  -3.7806 C.3            1 S1                 0.0000
     19 ****        -1.9374   0.4057  -4.2804 C.3            1 S1                 0.0000
     20 ****        -0.4256   0.5207  -4.0926 C.3            1 S1                 0.0000
     21 ****         0.1748  -0.7570  -4.0741 O.3            1 S1                 0.0000
     22 ****         2.1655  -1.2873  -1.6015 N.ar           1 S1                 0.0000
     23 ****         1.8827  -2.3016  -0.7790 C.ar           1 S1                 0.0000
     24 ****         1.3252  -2.2633   0.4333 N.ar           1 S1                 0.0000
     25 ****         1.0511  -0.9822   0.8130 C.ar           1 S1                 0.0000
     26 ****        -2.0756  -2.0898   4.4756 C.3            1 S1                 0.0000
     27 ****        -1.7276  -1.3816   5.7866 C.3            1 S1                 0.0000
     28 ****        -1.1661  -2.4929   6.6738 C.3            1 S1                 0.0000
     29 ****        -1.7072  -3.6817   6.1212 O.3            1 S1                 0.0000
     30 ****        -1.6322  -3.5401   4.7126 C.3            1 S1                 0.0000
     31 ****        -3.8718  -2.3150   1.0788 H              1 S1                 0.0000
     32 ****        -1.8930  -3.1201   1.8573 H              1 S1                 0.0000
     33 ****        -1.7493  -1.5975   1.0057 H              1 S1                 0.0000
     34 ****        -1.9069  -0.3822   3.2055 H              1 S1                 0.0000
     35 ****         0.4204  -0.9032   4.0154 H              1 S1                 0.0000
     36 ****         0.4327  -2.3350   3.0214 H              1 S1                 0.0000
     37 ****         0.0218   1.4604   2.6613 H              1 S1                 0.0000
     38 ****         3.3798   2.0950  -0.8498 H              1 S1                 0.0000
     39 ****         4.2030   0.7609  -1.6339 H              1 S1                 0.0000
     40 ****         4.8956   2.9641  -2.5906 H              1 S1                 0.0000
     41 ****         4.1724   1.9249  -3.7978 H              1 S1                 0.0000
     42 ****         2.7664   4.2082  -2.3211 H              1 S1                 0.0000
     43 ****         3.2386   4.2068  -4.0070 H              1 S1                 0.0000
     44 ****         0.8333   3.6586  -3.7644 H              1 S1                 0.0000
     45 ****         1.7239   2.3444  -4.4896 H              1 S1                 0.0000
     46 ****         0.9582   2.5397  -1.5461 H              1 S1                 0.0000
     47 ****        -0.5228   0.5451  -1.9701 H              1 S1                 0.0000
     48 ****        -1.9279   2.2662  -1.7349 H              1 S1                 0.0000
     49 ****        -1.1848   3.2679  -2.9577 H              1 S1                 0.0000
     50 ****        -3.4895   1.6520  -3.3794 H              1 S1                 0.0000
     51 ****        -2.5218   2.4554  -4.6079 H              1 S1                 0.0000
     52 ****        -2.3328  -0.3981  -3.6572 H              1 S1                 0.0000
     53 ****        -2.2200   0.1955  -5.3124 H              1 S1                 0.0000
     54 ****        -0.0168   1.0994  -4.9194 H              1 S1                 0.0000
     55 ****         1.0962  -0.6534  -3.8889 H              1 S1                 0.0000
     56 ****         2.1356  -3.2849  -1.1471 H              1 S1                 0.0000
     57 ****        -3.1656  -2.1007   4.4312 H              1 S1                 0.0000
     58 ****        -1.0208  -0.5599   5.6775 H              1 S1                 0.0000
     59 ****        -2.6328  -0.9664   6.2317 H              1 S1                 0.0000
     60 ****        -0.0776  -2.5267   6.6051 H              1 S1                 0.0000
     61 ****        -1.4393  -2.3748   7.7225 H              1 S1                 0.0000
     62 ****        -2.2721  -4.2616   4.2043 H              1 S1                 0.0000
     63 ****        -0.6044  -3.7217   4.4010 H              1 S1                 0.0000
     64 ****        -3.7825  -0.9364   1.8674 LP             1 S1                 0.0000
     65 ****        -3.9588  -2.3494   2.6668 LP             1 S1                 0.0000
     66 ****         0.9564   2.2748   0.4919 LP             1 S1                 0.0000
     67 ****         2.2363   0.5187  -3.0178 LP             1 S1                 0.0000
     68 ****         0.0572  -1.1978  -4.9640 LP             1 S1                 0.0000
     69 ****        -0.2506  -1.3192  -3.3649 LP             1 S1                 0.0000
     70 ****         2.5927  -1.4667  -2.4876 LP             1 S1                 0.0000
     71 ****         1.1331  -3.0704   0.9916 LP             1 S1                 0.0000
     72 ****        -2.6589  -3.7938   6.4072 LP             1 S1                 0.0000
     73 ****        -1.1746  -4.4744   6.4178 LP             1 S1                 0.0000
@<TRIPOS>BOND
    1    1    2 1     
    2    1   31 1     
    3    2    3 1     
    4    2   32 1     
    5    2   33 1     
    6    3    4 1     
    7    3   26 1     
    8    3   34 1     
    9    4    5 1     
   10    4   35 1     
   11    4   36 1     
   12    5   25 1     
   13    5    6 1     
   14    6    7 2     
   15    6   37 1     
   16    7    8 1     
   17    8   25 ar    
   18    8    9 ar    
   19    9   10 1     
   20    9   22 ar    
   21   10   15 1     
   22   10   11 1     
   23   11   12 1     
   24   11   38 1     
   25   11   39 1     
   26   12   13 1     
   27   12   40 1     
   28   12   41 1     
   29   13   14 1     
   30   13   42 1     
   31   13   43 1     
   32   14   15 1     
   33   14   44 1     
   34   14   45 1     
   35   15   16 1     
   36   15   46 1     
   37   16   20 1     
   38   16   17 1     
   39   16   47 1     
   40   17   18 1     
   41   17   48 1     
   42   17   49 1     
   43   18   19 1     
   44   18   50 1     
   45   18   51 1     
   46   19   20 1     
   47   19   52 1     
   48   19   53 1     
   49   20   21 1     
   50   20   54 1     
   51   21   55 1     
   52   22   23 ar    
   53   23   24 ar    
   54   23   56 1     
   55   24   25 ar    
   56   26   30 1     
   57   26   27 1     
   58   26   57 1     
   59   27   28 1     
   60   27   58 1     
   61   27   59 1     
   62   28   29 1     
   63   28   60 1     
   64   28   61 1     
   65   29   30 1     
   66   30   62 1     
   67   30   63 1     
   68    1   64 1     
   69    1   65 1     
   70    7   66 1     
   71   10   67 1     
   72   21   68 1     
   73   21   69 1     
   74   22   70 1     
   75   24   71 1     
   76   29   72 1     
   77   29   73 1     
@<TRIPOS>SUBSTRUCTURE
      1 S1             1
@<TRIPOS>SET
LONE_PAIRS      STATIC     ATOMS    <user>   **** ""
10 64 65 66 67 68 69 70 71 72 73
DONOR_HYDROGENS      STATIC     ATOMS    <user>   **** ""
2 31 55
ATOM$BLUE        STATIC     ATOMS    COLORGROUP SYSTEM
10 64 65 66 67 68 69 70 71 72 73
ATOM$RED        STATIC     ATOMS    COLORGROUP SYSTEM
2 31 55
