#       Name:                AV-unprocessed.smi:3115
#       Creating user name   scv26
#       Creation time:       Fri Mar 27 17:24:07 2020


#       File generated by GOLD software.
#

@<TRIPOS>MOLECULE
AV-unprocessed.smi:3115
    37    38     1
SMALL
NO_CHARGES


@<TRIPOS>ATOM
      1 ****        -3.6395  -0.9512   2.3406 C.3            1 S1                 0.0000
      2 ****        -3.0125  -0.2629   1.1238 C.3            1 S1                 0.0000
      3 ****        -1.4741  -0.2219   1.2084 C.3            1 S1                 0.0000
      4 ****        -0.9292   0.5175   0.0763 N.3            1 S1                 0.0000
      5 ****         0.4716   0.5000   0.0173 C.ar           1 S1                 0.0000
      6 ****         1.1024  -0.1385  -1.0715 C.ar           1 S1                 0.0000
      7 ****         2.5112  -0.1489  -1.1288 C.ar           1 S1                 0.0000
      8 ****         3.2337  -0.8265  -2.2745 C.3            1 S1                 0.0000
      9 ****         3.5236  -2.2317  -1.9475 N.4            1 S1                 1.0000
     10 ****         3.2348   0.4764  -0.0935 C.ar           1 S1                 0.0000
     11 ****         2.5153   1.0873   0.9521 C.ar           1 S1                 0.0000
     12 ****         1.1669   1.1011   1.0126 N.ar           1 S1                 0.0000
     13 ****        -1.4970   1.8552  -0.0377 C.3            1 S1                 0.0000
     14 ****        -3.0320   1.7725  -0.0878 C.3            1 S1                 0.0000
     15 ****        -3.5102   1.0717   1.0572 O.3            1 S1                 0.0000
     16 ****        -3.2969  -1.9825   2.4280 H              1 S1                 0.0000
     17 ****        -4.7267  -0.9680   2.2613 H              1 S1                 0.0000
     18 ****        -3.3807  -0.4327   3.2642 H              1 S1                 0.0000
     19 ****        -3.3168  -0.8022   0.2248 H              1 S1                 0.0000
     20 ****        -1.1654   0.2526   2.1412 H              1 S1                 0.0000
     21 ****        -1.0706  -1.2352   1.2121 H              1 S1                 0.0000
     22 ****         0.5144  -0.6081  -1.8471 H              1 S1                 0.0000
     23 ****         2.6257  -0.7832  -3.1787 H              1 S1                 0.0000
     24 ****         4.1674  -0.3045  -2.4870 H              1 S1                 0.0000
     25 ****         4.0086  -2.6664  -2.7194 H              1 S1                 0.0000
     26 ****         2.6571  -2.7208  -1.7738 H              1 S1                 0.0000
     27 ****         4.3149   0.4916  -0.0964 H              1 S1                 0.0000
     28 ****         3.0366   1.5773   1.7611 H              1 S1                 0.0000
     29 ****        -1.1880   2.4624   0.8145 H              1 S1                 0.0000
     30 ****        -1.1183   2.3429  -0.9368 H              1 S1                 0.0000
     31 ****        -3.4622   2.7740  -0.0969 H              1 S1                 0.0000
     32 ****        -3.3663   1.2733  -0.9988 H              1 S1                 0.0000
     33 ****         4.1018  -2.2702  -1.1203 H              1 S1                 0.0000
     34 ****        -1.2228   0.0218  -0.7410 LP             1 S1                 0.0000
     35 ****         0.6928   1.5442   1.7735 LP             1 S1                 0.0000
     36 ****        -3.2216   1.5636   1.8787 LP             1 S1                 0.0000
     37 ****        -4.5090   1.0407   1.0209 LP             1 S1                 0.0000
@<TRIPOS>BOND
    1    1    2 1     
    2    1   16 1     
    3    1   17 1     
    4    1   18 1     
    5    2   15 1     
    6    2    3 1     
    7    2   19 1     
    8    3    4 1     
    9    3   20 1     
   10    3   21 1     
   11    4    5 1     
   12    4   13 1     
   13    5   12 ar    
   14    5    6 ar    
   15    6    7 ar    
   16    6   22 1     
   17    7    8 1     
   18    7   10 ar    
   19    8    9 1     
   20    8   23 1     
   21    8   24 1     
   22    9   25 1     
   23    9   26 1     
   24    9   33 1     
   25   10   11 ar    
   26   10   27 1     
   27   11   12 ar    
   28   11   28 1     
   29   13   14 1     
   30   13   29 1     
   31   13   30 1     
   32   14   15 1     
   33   14   31 1     
   34   14   32 1     
   35    4   34 1     
   36   12   35 1     
   37   15   36 1     
   38   15   37 1     
@<TRIPOS>SUBSTRUCTURE
      1 S1             1
@<TRIPOS>SET
LONE_PAIRS      STATIC     ATOMS    <user>   **** ""
4 34 35 36 37
DONOR_HYDROGENS      STATIC     ATOMS    <user>   **** ""
3 25 26 33
ATOM$BLUE        STATIC     ATOMS    COLORGROUP SYSTEM
4 34 35 36 37
ATOM$RED        STATIC     ATOMS    COLORGROUP SYSTEM
3 25 26 33
