AV-unprocessed.smi:1895|AV-procd|sdf|7680|dock7
  -GOLD-   22720 9423D 1   1.00000     0.00000
 Structure written by MMmdl.
 36 37  0  0  0  0  0  0  0  0  1 V2000
  153.8644  140.4177  160.5693 C   0  0  0  0  0  0  0  0  0  0  0  0
  153.1089  141.6649  160.2174 C   0  0  0  0  0  0  0  0  0  0  0  0
  153.1140  142.9182  160.8909 C   0  0  0  0  0  0  0  0  0  0  0  0
  152.2559  143.6954  160.1651 C   0  0  0  0  0  0  0  0  0  0  0  0
  151.8303  145.1118  160.3730 C   0  0  0  0  0  0  0  0  0  0  0  0
  151.7880  142.9121  159.1241 N   0  0  0  0  0  0  0  0  0  0  0  0
  150.8339  143.2487  158.0770 C   0  0  0  0  0  0  0  0  0  0  0  0
  149.5025  142.5299  158.3003 C   0  0  0  0  0  0  0  0  0  0  0  0
  149.4776  141.3081  158.4465 O   0  0  0  0  0  0  0  0  0  0  0  0
  148.4029  143.2985  158.2949 N   0  0  0  0  0  0  0  0  0  0  0  0
  147.0329  142.8030  158.3242 C   0  0  0  0  0  0  0  0  0  0  0  0
  146.2624  143.3545  159.5369 C   0  0  2  0  0  0  0  0  0  0  0  0
  146.5137  144.8335  159.8379 C   0  0  0  0  0  0  0  0  0  0  0  0
  146.2582  144.9449  161.3335 C   0  0  0  0  0  0  0  0  0  0  0  0
  146.1831  143.4922  161.8130 C   0  0  0  0  0  0  0  0  0  0  0  0
  146.6851  142.7199  160.7319 O   0  0  0  0  0  0  0  0  0  0  0  0
  152.3141  141.6680  159.1603 N   0  0  0  0  0  0  0  0  0  0  0  0
  154.5571  140.5957  161.3919 H   0  0  0  0  0  0  0  0  0  0  0  0
  154.4445  140.0553  159.7204 H   0  0  0  0  0  0  0  0  0  0  0  0
  153.1847  139.6218  160.8751 H   0  0  0  0  0  0  0  0  0  0  0  0
  153.6618  143.2026  161.7771 H   0  0  0  0  0  0  0  0  0  0  0  0
  152.3743  145.5638  161.2023 H   0  0  0  0  0  0  0  0  0  0  0  0
  150.7659  145.1678  160.6016 H   0  0  0  0  0  0  0  0  0  0  0  0
  152.0194  145.7114  159.4827 H   0  0  0  0  0  0  0  0  0  0  0  0
  150.6841  144.3289  158.0669 H   0  0  0  0  0  0  0  0  0  0  0  0
  151.2432  142.9735  157.1037 H   0  0  0  0  0  0  0  0  0  0  0  0
  148.5247  144.2941  158.1756 H   0  0  0  0  0  0  0  0  0  0  0  0
  146.5174  143.0566  157.3967 H   0  0  0  0  0  0  0  0  0  0  0  0
  147.0699  141.7142  158.3710 H   0  0  0  0  0  0  0  0  0  0  0  0
  145.1914  143.1815  159.4143 H   0  0  0  0  0  0  0  0  0  0  0  0
  147.5519  145.0924  159.6254 H   0  0  0  0  0  0  0  0  0  0  0  0
  145.8766  145.4937  159.2478 H   0  0  0  0  0  0  0  0  0  0  0  0
  147.0701  145.4845  161.8223 H   0  0  0  0  0  0  0  0  0  0  0  0
  145.3280  145.4722  161.5471 H   0  0  0  0  0  0  0  0  0  0  0  0
  146.7588  143.3198  162.7226 H   0  0  0  0  0  0  0  0  0  0  0  0
  145.1482  143.2064  162.0064 H   0  0  0  0  0  0  0  0  0  0  0  0
  1  2  1  0  0  0  0
  1 18  1  0  0  0  0
  1 19  1  0  0  0  0
  1 20  1  0  0  0  0
  2 17  2  0  0  0  0
  2  3  1  0  0  0  0
  3  4  2  0  0  0  0
  3 21  1  0  0  0  0
  4  5  1  0  0  0  0
  4  6  1  0  0  0  0
  5 22  1  0  0  0  0
  5 23  1  0  0  0  0
  5 24  1  0  0  0  0
  6  7  1  0  0  0  0
  6 17  1  0  0  0  0
  7  8  1  0  0  0  0
  7 25  1  0  0  0  0
  7 26  1  0  0  0  0
  8  9  2  0  0  0  0
  8 10  1  0  0  0  0
 10 11  1  0  0  0  0
 10 27  1  0  0  0  0
 11 12  1  0  0  0  0
 11 28  1  0  0  0  0
 11 29  1  0  0  0  0
 12 16  1  0  0  0  0
 12 13  1  0  0  0  0
 12 30  1  0  0  0  0
 13 14  1  0  0  0  0
 13 31  1  0  0  0  0
 13 32  1  0  0  0  0
 14 15  1  0  0  0  0
 14 33  1  0  0  0  0
 14 34  1  0  0  0  0
 15 16  1  0  0  0  0
 15 35  1  0  0  0  0
 15 36  1  0  0  0  0
M  END
> <s_m_source_file>
AV-unprocessed.smi

> <i_m_source_file_index>
1895

> <i_lp_mmshare_version>
43012

> <i_f3d_flags>
0

> <s_epik_input>
W0NIM11jMVtjSF1jKFtDSDNdKW4objEpW0NIMl1DKD1PKVtOSF1bQ0gyXVtDQEBIXTJbQ0gyXVtDSDJdW0NIMl1PMg==

> <s_epik_cmdline>
J2VwaWtfcHl0aG9uJywgJy1waCcsICc3LjAnLCAnLXRuJywgJzgnLCAnLW1hJywgJzIwMCcsICctbWV0YWxfYmluZGluZycsICctaW1hZScsICc8aW5maWxlLm1hZT4nLCAnLW9tYWUnLCAnPG91dGZpbGUubWFlPic=

> <r_lp_tautomer_probability>
1

> <r_epik_Ionization_Penalty>
0.000408438

> <r_epik_Ionization_Penalty_Charging>
0

> <r_epik_Ionization_Penalty_Neutral>
0.000408438

> <r_epik_State_Penalty>
-0

> <r_epik_Charging_Adjusted_Penalty>
0

> <i_epik_Tot_Q>
0

> <i_epik_Tot_abs_Q>
0

> <r_epik_Metal_State_Penalty>
-0

> <b_epik_Metal_Only>
0

> <s_lp_Force_Field>
OPLS_2005

> <r_lp_Energy>
14.7864

> <b_lp_Chiralities_Consistent>
1

> <s_lp_Variant>
AV-unprocessed.smi:1895-1

> <Gold.Version>
5.8.1

> <Gold.Id.Protein>
6NUR|6NUR_protein|mol2

> <Gold.PLP.Fitness>
43.7329

> <Gold.PLP.PLP>
-36.1524

> <Gold.PLP.part.hbond>
-4.1449

> <Gold.PLP.part.metal>
0.0000

> <Gold.PLP.part.buried>
-3.5554

> <Gold.PLP.part.nonpolar>
-29.3646

> <Gold.PLP.part.repulsive>
0.1223

> <Gold.PLP.ligand.clash>
0.0000

> <Gold.PLP.ligand.torsion>
0.2974

> <Gold.PLP.Chemscore.Hbond>
2.7200

> <Gold.PLP.Chemscore.CHOScore>
0.0000

> <Gold.PLP.Chemscore.Metal>
0.0000

> <Gold.Chemscore.Hbonds>
donor molecule, donor type, donor heavy atom, donor atom, acceptor molecule, acceptor atom, score
      L1  H    10    27       P1  8029  0.93
      P1  H  6933  6944       L1    16  0.78
      P1  H  6934  6946       L1    16  0.91

> <Gold.PLP.Chemscore.Internal.Correction>
0.0153

> <Gold.Rescore>
     Score         DG    S(hbond)    S(metal)    S(lipo)     H(rot)  DE(clash)    DE(int)     intcor
     16.07     -17.36       1.70        0.00      86.66       1.54       0.04       1.24       ----

> <Gold.Chemscore.Fitness>
16.0748

> <Gold.Chemscore.DG>
-17.3559

> <Gold.Chemscore.ZeroCoef>
-5.4800

> <Gold.Chemscore.Hbond>
1.6993

> <Gold.Chemscore.Metal>
0.0000

> <Gold.Chemscore.Lipo>
86.6609

> <Gold.Chemscore.Internal_Hbond>
0.0000

> <Gold.Chemscore.DEClash>
0.0394

> <Gold.Chemscore.DEInternal>
1.2417

> <Gold.Chemscore.Rot>
1.5387

> <Gold.Chemscore.Internal.Correction>
   9.000000E+99

> <Gold.Chemscore.Hbonds>
donor molecule, donor type, donor heavy atom, donor atom, acceptor molecule, acceptor atom, score
      L1  H    10    27       P1  8029  0.22
      P1  H  6933  6944       L1    16  0.17
      P1  H  6934  6946       L1    16  0.87

> <Gold.Chemscore.Hbond.Weighted>
-5.6758

> <Gold.Chemscore.Metal.Weighted>
-0.0000

> <Gold.Chemscore.Lipo.Weighted>
-10.1393

> <Gold.Chemscore.Internal_Hbond.Weighted>
0.0000

> <Gold.Chemscore.DEClash.Weighted>
0.0394

> <Gold.Chemscore.DEInternal.Weighted>
1.2417

> <Gold.Chemscore.Rot.Weighted>
3.9392

> <Gold.Chemscore.Internal.Correction.Weighted>
   9.000000E+99

> <Gold.Protein.RotatedTorsions>
[ 6907 6896 6895 6894 ] final  -59.29 input  -60.11 | X-H torsion
[ 7974 7965 7964 7962 ] final -163.44 input  175.53 | X-H torsion
[ 8008 7997 7996 7995 ] final  139.98 input   59.86 | X-H torsion
[ 10167 10162 10161 10158 ] final -164.77 input  -65.29 | X-H torsion
[ 10718 10713 10712 10709 ] final   36.00 input   66.30 | X-H torsion
[ 10763 10752 10751 10750 ] final  -49.94 input  -60.55 | X-H torsion
[ 11005 11000 10999 10996 ] final -165.21 input  -57.11 | X-H torsion

> <Gold.Protein.ActiveResidues>
 VAL166  LYS551  ARG553  GLY616  TRP617  ASP618  TYR619  PRO620  LYS621  CYS622 
 ASP623  PHE694  ASN695  SER759  ASP760  ASP761  ALA762  ILE779  LEU786  VAL792 
 PHE793  MET794  SER795  GLU796  ALA797  LYS798  CYS799  TRP800  GLU811  SER814 

> <Gold.Protein.RotatedAtoms>
  150.7941  134.6988  159.6537 H   0  0  0  0  0  0  0  0  0  0  0  0  # atno 6907 bound_to 6896
  152.4051  134.6217  160.0062 H   0  0  0  0  0  0  0  0  0  0  0  0  # atno 6908 bound_to 6896
  151.6477  133.3285  159.3181 H   0  0  0  0  0  0  0  0  0  0  0  0  # atno 6909 bound_to 6896
  144.7326  140.3107  143.6188 H   0  0  0  0  0  0  0  0  0  0  0  0  # atno 7974 bound_to 7965
  156.2984  140.2353  156.4326 H   0  0  0  0  0  0  0  0  0  0  0  0  # atno 8008 bound_to 7997
  154.8257  140.0435  157.1462 H   0  0  0  0  0  0  0  0  0  0  0  0  # atno 8009 bound_to 7997
  154.9264  140.3011  155.5193 H   0  0  0  0  0  0  0  0  0  0  0  0  # atno 8010 bound_to 7997
  139.6228  144.0591  152.1948 H   0  0  0  0  0  0  0  0  0  0  0  0  # atno 10167 bound_to 10162
  157.3296  130.7490  149.6838 H   0  0  0  0  0  0  0  0  0  0  0  0  # atno 10718 bound_to 10713
  154.1023  135.6561  153.4870 H   0  0  0  0  0  0  0  0  0  0  0  0  # atno 10763 bound_to 10752
  153.0284  135.5228  154.7274 H   0  0  0  0  0  0  0  0  0  0  0  0  # atno 10764 bound_to 10752
  154.6430  135.2991  155.0049 H   0  0  0  0  0  0  0  0  0  0  0  0  # atno 10765 bound_to 10752
  140.5783  134.5167  157.5174 H   0  0  0  0  0  0  0  0  0  0  0  0  # atno 11005 bound_to 11000
  145.7667  139.1843  143.2236 LP  0  0  0  0  0  0  0  0  0  0  0  0  # atno 17320 bound_to 7965
  146.0943  140.7619  142.9580 LP  0  0  0  0  0  0  0  0  0  0  0  0  # atno 17321 bound_to 7965
  140.0237  144.6133  150.7545 LP  0  0  0  0  0  0  0  0  0  0  0  0  # atno 17342 bound_to 10162
  140.7392  143.2788  151.3659 LP  0  0  0  0  0  0  0  0  0  0  0  0  # atno 17343 bound_to 10162
  155.9694  130.4199  150.4398 LP  0  0  0  0  0  0  0  0  0  0  0  0  # atno 17370 bound_to 10713
  157.2427  131.0529  151.2427 LP  0  0  0  0  0  0  0  0  0  0  0  0  # atno 17371 bound_to 10713
  139.9329  134.7929  156.0881 LP  0  0  0  0  0  0  0  0  0  0  0  0  # atno 17394 bound_to 11000
  141.1012  133.6676  156.2760 LP  0  0  0  0  0  0  0  0  0  0  0  0  # atno 17395 bound_to 11000

$$$$
