AV-unprocessed.smi:1554|AV-procd|sdf|6255|dock4
  -GOLD-   22720 6443D 1   1.00000     0.00000
 Structure written by MMmdl.
 48 50  0  0  0  0  0  0  0  0  2 V2000
  152.2156  144.3903  161.0460 C   0  0  0  0  0  0  0  0  0  0  0  0
  152.0246  143.3861  159.9219 C   0  0  0  0  0  0  0  0  0  0  0  0
  151.2503  143.7662  158.8025 C   0  0  0  0  0  0  0  0  0  0  0  0
  151.0949  142.8264  157.7903 C   0  0  0  0  0  0  0  0  0  0  0  0
  150.4062  142.8952  156.5775 N   0  3  0  0  0  0  0  0  0  0  0  0
  150.5407  141.7154  155.9111 C   0  0  0  0  0  0  0  0  0  0  0  0
  151.3042  140.8934  156.6807 N   0  0  0  0  0  0  0  0  0  0  0  0
  151.7446  139.5136  156.4266 C   0  0  0  0  0  0  0  0  0  0  0  0
  150.8020  138.7469  155.4782 C   0  0  1  0  0  0  0  0  0  0  0  0
  150.9794  139.2146  154.1558 O   0  0  0  0  0  0  0  0  0  0  0  0
  151.0886  137.2323  155.5010 C   0  0  0  0  0  0  0  0  0  0  0  0
  150.0200  136.3789  154.9781 N   0  0  0  0  0  0  0  0  0  0  0  0
  148.7790  136.4885  155.7428 C   0  0  0  0  0  0  0  0  0  0  0  0
  147.6825  135.5601  155.1925 C   0  0  0  0  0  0  0  0  0  0  0  0
  148.1556  134.2174  155.1740 O   0  0  0  0  0  0  0  0  0  0  0  0
  149.3388  134.0553  154.3969 C   0  0  2  0  0  0  0  0  0  0  0  0
  149.7469  132.5789  154.4417 C   0  0  0  0  0  0  0  0  0  0  0  0
  150.4369  134.9805  154.9562 C   0  0  0  0  0  0  0  0  0  0  0  0
  151.6750  141.5450  157.8633 C   0  0  0  0  0  0  0  0  0  0  0  0
  152.4417  141.1554  158.9591 C   0  0  0  0  0  0  0  0  0  0  0  0
  152.6144  142.0977  159.9981 C   0  0  0  0  0  0  0  0  0  0  0  0
  153.4477  141.7004  161.2046 C   0  0  0  0  0  0  0  0  0  0  0  0
  151.6721  145.3153  160.8513 H   0  0  0  0  0  0  0  0  0  0  0  0
  153.2705  144.6413  161.1597 H   0  0  0  0  0  0  0  0  0  0  0  0
  151.8521  143.9838  161.9898 H   0  0  0  0  0  0  0  0  0  0  0  0
  150.7998  144.7459  158.7364 H   0  0  0  0  0  0  0  0  0  0  0  0
  150.1172  141.4751  154.9466 H   0  0  0  0  0  0  0  0  0  0  0  0
  152.7676  139.5249  156.0493 H   0  0  0  0  0  0  0  0  0  0  0  0
  151.7834  139.0098  157.3933 H   0  0  0  0  0  0  0  0  0  0  0  0
  149.7756  138.9506  155.7808 H   0  0  0  0  0  0  0  0  0  0  0  0
  150.2276  138.9517  153.6458 H   0  0  0  0  0  0  0  0  0  0  0  0
  152.0010  137.0554  154.9291 H   0  0  0  0  0  0  0  0  0  0  0  0
  151.3185  136.9266  156.5229 H   0  0  0  0  0  0  0  0  0  0  0  0
  148.9660  136.2444  156.7896 H   0  0  0  0  0  0  0  0  0  0  0  0
  148.4050  137.5109  155.7215 H   0  0  0  0  0  0  0  0  0  0  0  0
  146.7907  135.6146  155.8169 H   0  0  0  0  0  0  0  0  0  0  0  0
  147.3884  135.8636  154.1865 H   0  0  0  0  0  0  0  0  0  0  0  0
  149.1232  134.3282  153.3624 H   0  0  0  0  0  0  0  0  0  0  0  0
  150.6473  132.4019  153.8527 H   0  0  0  0  0  0  0  0  0  0  0  0
  148.9568  131.9442  154.0397 H   0  0  0  0  0  0  0  0  0  0  0  0
  149.9464  132.2560  155.4639 H   0  0  0  0  0  0  0  0  0  0  0  0
  151.3374  134.8748  154.3500 H   0  0  0  0  0  0  0  0  0  0  0  0
  150.7022  134.6598  155.9651 H   0  0  0  0  0  0  0  0  0  0  0  0
  152.8954  140.1771  159.0154 H   0  0  0  0  0  0  0  0  0  0  0  0
  153.8800  140.7068  161.0812 H   0  0  0  0  0  0  0  0  0  0  0  0
  152.8327  141.6877  162.1046 H   0  0  0  0  0  0  0  0  0  0  0  0
  154.2683  142.4024  161.3544 H   0  0  0  0  0  0  0  0  0  0  0  0
  149.8833  143.6878  156.2273 H   0  0  0  0  0  0  0  0  0  0  0  0
  1  2  1  0  0  0  0
  1 23  1  0  0  0  0
  1 24  1  0  0  0  0
  1 25  1  0  0  0  0
  2 21  1  0  0  0  0
  2  3  2  0  0  0  0
  3  4  1  0  0  0  0
  3 26  1  0  0  0  0
  4 19  2  0  0  0  0
  4  5  1  0  0  0  0
  5  6  2  0  0  0  0
  5 48  1  0  0  0  0
  6  7  1  0  0  0  0
  6 27  1  0  0  0  0
  7  8  1  0  0  0  0
  7 19  1  0  0  0  0
  8  9  1  0  0  0  0
  8 28  1  0  0  0  0
  8 29  1  0  0  0  0
  9 10  1  0  0  0  0
  9 11  1  0  0  0  0
  9 30  1  0  0  0  0
 10 31  1  0  0  0  0
 11 12  1  0  0  0  0
 11 32  1  0  0  0  0
 11 33  1  0  0  0  0
 12 18  1  0  0  0  0
 12 13  1  0  0  0  0
 13 14  1  0  0  0  0
 13 34  1  0  0  0  0
 13 35  1  0  0  0  0
 14 15  1  0  0  0  0
 14 36  1  0  0  0  0
 14 37  1  0  0  0  0
 15 16  1  0  0  0  0
 16 17  1  0  0  0  0
 16 18  1  0  0  0  0
 16 38  1  0  0  0  0
 17 39  1  0  0  0  0
 17 40  1  0  0  0  0
 17 41  1  0  0  0  0
 18 42  1  0  0  0  0
 18 43  1  0  0  0  0
 19 20  1  0  0  0  0
 20 21  2  0  0  0  0
 20 44  1  0  0  0  0
 21 22  1  0  0  0  0
 22 45  1  0  0  0  0
 22 46  1  0  0  0  0
 22 47  1  0  0  0  0
M  CHG  1   5   1
M  END
> <s_m_source_file>
AV-unprocessed.smi

> <i_m_source_file_index>
1554

> <i_lp_mmshare_version>
43012

> <i_f3d_flags>
0

> <s_epik_input>
W0NIM11jKFtjSF0xKWMoW0NIM10pW2NIXWMoYzEyKW4oW2NIXW4yKVtDSDJdW0NASF0oW09IXSlbQ0gyXU4zW0NIMl1bQ0gyXU9bQ0BASF0oW0NIM10pW0NIMl0z

> <s_epik_cmdline>
J2VwaWtfcHl0aG9uJywgJy1waCcsICc3LjAnLCAnLXRuJywgJzgnLCAnLW1hJywgJzIwMCcsICctbWV0YWxfYmluZGluZycsICctaW1hZScsICc8aW5maWxlLm1hZT4nLCAnLW9tYWUnLCAnPG91dGZpbGUubWFlPic=

> <r_epik_Ionization_Penalty>
1.42504

> <r_epik_Ionization_Penalty_Charging>
1.21068

> <r_epik_Ionization_Penalty_Neutral>
0.214359

> <r_epik_State_Penalty>
1.46962

> <r_epik_Charging_Adjusted_Penalty>
2.6803

> <i_epik_Tot_Q>
1

> <i_epik_Tot_abs_Q>
1

> <r_epik_Metal_State_Penalty>
5.48754

> <b_epik_Metal_Only>
0

> <s_lp_Force_Field>
OPLS_2005

> <r_lp_Energy>
34.6572

> <b_lp_Chiralities_Consistent>
1

> <s_lp_Variant>
AV-unprocessed.smi:1554-16

> <Gold.Version>
5.8.1

> <Gold.Id.Protein>
6NUR|6NUR_protein|mol2

> <Gold.PLP.Fitness>
51.4970

> <Gold.PLP.PLP>
-43.6800

> <Gold.PLP.part.hbond>
-2.0000

> <Gold.PLP.part.metal>
0.0000

> <Gold.PLP.part.buried>
-5.6587

> <Gold.PLP.part.nonpolar>
-36.6267

> <Gold.PLP.part.repulsive>
0.2850

> <Gold.PLP.ligand.clash>
0.0000

> <Gold.PLP.ligand.torsion>
0.6072

> <Gold.PLP.Chemscore.Hbond>
3.0000

> <Gold.PLP.Chemscore.CHOScore>
0.0000

> <Gold.PLP.Chemscore.Metal>
0.0000

> <Gold.Chemscore.Hbonds>
donor molecule, donor type, donor heavy atom, donor atom, acceptor molecule, acceptor atom, score
      L1  H     5    48       P1  8028  2.00
      P1  H  7989  7998       L1    10  1.00

> <Gold.PLP.Chemscore.Internal.Correction>
0.0312

> <Gold.Rescore>
     Score         DG    S(hbond)    S(metal)    S(lipo)     H(rot)  DE(clash)    DE(int)     intcor
     19.66     -20.30       1.89        0.00     117.43       2.04       0.07       0.57       ----

> <Gold.Chemscore.Fitness>
19.6552

> <Gold.Chemscore.DG>
-20.3028

> <Gold.Chemscore.ZeroCoef>
-5.4800

> <Gold.Chemscore.Hbond>
1.8902

> <Gold.Chemscore.Metal>
0.0000

> <Gold.Chemscore.Lipo>
117.4265

> <Gold.Chemscore.Internal_Hbond>
0.0000

> <Gold.Chemscore.DEClash>
0.0750

> <Gold.Chemscore.DEInternal>
0.5727

> <Gold.Chemscore.Rot>
2.0427

> <Gold.Chemscore.Internal.Correction>
   9.000000E+99

> <Gold.Chemscore.Hbonds>
donor molecule, donor type, donor heavy atom, donor atom, acceptor molecule, acceptor atom, score
      L1  H     5    48       P1  8028  0.93
      P1  H  7989  7998       L1    10  0.70

> <Gold.Chemscore.Hbond.Weighted>
-6.3134

> <Gold.Chemscore.Metal.Weighted>
-0.0000

> <Gold.Chemscore.Lipo.Weighted>
-13.7389

> <Gold.Chemscore.Internal_Hbond.Weighted>
0.0000

> <Gold.Chemscore.DEClash.Weighted>
0.0750

> <Gold.Chemscore.DEInternal.Weighted>
0.5727

> <Gold.Chemscore.Rot.Weighted>
5.2294

> <Gold.Chemscore.Internal.Correction.Weighted>
   9.000000E+99

> <Gold.Protein.RotatedTorsions>
[ 6907 6896 6895 6894 ] final -141.16 input  -60.11 | X-H torsion
[ 7974 7965 7964 7962 ] final -146.95 input  175.53 | X-H torsion
[ 8008 7997 7996 7995 ] final   75.82 input   59.86 | X-H torsion
[ 10167 10162 10161 10158 ] final  -86.01 input  -65.29 | X-H torsion
[ 10718 10713 10712 10709 ] final  109.03 input   66.30 | X-H torsion
[ 10763 10752 10751 10750 ] final   57.84 input  -60.55 | X-H torsion
[ 11005 11000 10999 10996 ] final  112.23 input  -57.11 | X-H torsion

> <Gold.Protein.ActiveResidues>
 VAL166  LYS551  ARG553  GLY616  TRP617  ASP618  TYR619  PRO620  LYS621  CYS622 
 ASP623  PHE694  ASN695  SER759  ASP760  ASP761  ALA762  ILE779  LEU786  VAL792 
 PHE793  MET794  SER795  GLU796  ALA797  LYS798  CYS799  TRP800  GLU811  SER814 

> <Gold.Protein.RotatedAtoms>
  151.0701  133.5473  159.2627 H   0  0  0  0  0  0  0  0  0  0  0  0  # atno 6907 bound_to 6896
  151.2416  135.0590  159.9037 H   0  0  0  0  0  0  0  0  0  0  0  0  # atno 6908 bound_to 6896
  152.5410  134.0475  159.8149 H   0  0  0  0  0  0  0  0  0  0  0  0  # atno 6909 bound_to 6896
  144.8125  140.5389  143.5633 H   0  0  0  0  0  0  0  0  0  0  0  0  # atno 7974 bound_to 7965
  155.8184  140.3470  155.5499 H   0  0  0  0  0  0  0  0  0  0  0  0  # atno 8008 bound_to 7997
  155.8368  140.0935  157.1779 H   0  0  0  0  0  0  0  0  0  0  0  0  # atno 8009 bound_to 7997
  154.4004  140.1402  156.3667 H   0  0  0  0  0  0  0  0  0  0  0  0  # atno 8010 bound_to 7997
  140.3982  143.2674  151.9177 H   0  0  0  0  0  0  0  0  0  0  0  0  # atno 10167 bound_to 10162
  157.6560  131.0905  150.6393 H   0  0  0  0  0  0  0  0  0  0  0  0  # atno 10718 bound_to 10713
  152.9858  135.5627  154.5455 H   0  0  0  0  0  0  0  0  0  0  0  0  # atno 10763 bound_to 10752
  154.4902  135.2792  155.1505 H   0  0  0  0  0  0  0  0  0  0  0  0  # atno 10764 bound_to 10752
  154.2977  135.6313  153.5465 H   0  0  0  0  0  0  0  0  0  0  0  0  # atno 10765 bound_to 10752
  139.8922  134.9525  156.6553 H   0  0  0  0  0  0  0  0  0  0  0  0  # atno 11005 bound_to 11000
  145.5290  139.1475  143.3510 LP  0  0  0  0  0  0  0  0  0  0  0  0  # atno 17320 bound_to 7965
  146.2425  140.5431  142.8928 LP  0  0  0  0  0  0  0  0  0  0  0  0  # atno 17321 bound_to 7965
  139.4786  144.5660  151.8164 LP  0  0  0  0  0  0  0  0  0  0  0  0  # atno 17342 bound_to 10162
  140.4768  144.1508  150.5926 LP  0  0  0  0  0  0  0  0  0  0  0  0  # atno 17343 bound_to 10162
  156.6699  130.4536  149.5660 LP  0  0  0  0  0  0  0  0  0  0  0  0  # atno 17370 bound_to 10713
  156.2005  130.6617  151.1162 LP  0  0  0  0  0  0  0  0  0  0  0  0  # atno 17371 bound_to 10713
  140.7489  133.8914  155.8332 LP  0  0  0  0  0  0  0  0  0  0  0  0  # atno 17394 bound_to 11000
  141.0017  134.1141  157.4310 LP  0  0  0  0  0  0  0  0  0  0  0  0  # atno 17395 bound_to 11000

$$$$
