#       Name:                AV-unprocessed.smi:1452
#       Creating user name   scv26
#       Creation time:       Fri Mar 27 05:59:20 2020


#       File generated by GOLD software.
#

@<TRIPOS>MOLECULE
AV-unprocessed.smi:1452
    43    45     1
SMALL
NO_CHARGES


@<TRIPOS>ATOM
      1 ****        -1.9673  -2.0266  -0.0897 O.2            1 S1                 0.0000
      2 ****        -0.8033  -1.9853   0.3051 C.2            1 S1                 0.0000
      3 ****        -0.0409  -3.0992   0.3434 N.am           1 S1                 0.0000
      4 ****        -0.3220  -4.4521  -0.0113 C.ar           1 S1                 0.0000
      5 ****         0.7712  -5.3351   0.1391 C.ar           1 S1                 0.0000
      6 ****         0.6150  -6.6983  -0.1773 C.ar           1 S1                 0.0000
      7 ****        -0.6352  -7.1480  -0.6366 C.ar           1 S1                 0.0000
      8 ****        -1.6738  -6.2073  -0.7571 C.ar           1 S1                 0.0000
      9 ****        -1.5252  -4.9001  -0.4539 N.ar           1 S1                 0.0000
     10 ****        -0.2189  -0.8491   0.7188 N.am           1 S1                 0.0000
     11 ****        -0.8458   0.4678   0.7553 C.3            1 S1                 0.0000
     12 ****        -0.2706   1.3710   1.8396 C.3            1 S1                 0.0000
     13 ****        -0.6912   2.7604   1.3586 C.3            1 S1                 0.0000
     14 ****        -0.6581   2.7057  -0.1208 N.4            1 S1                 1.0000
     15 ****        -1.6982   3.5231  -0.7923 C.3            1 S1                 0.0000
     16 ****        -1.5742   3.4123  -2.3231 C.3            1 S1                 0.0000
     17 ****        -1.4910   1.9536  -2.8196 C.3            1 S1                 0.0000
     18 ****        -1.5894   0.9364  -1.6722 C.3            1 S1                 0.0000
     19 ****        -0.6021   1.2739  -0.5318 C.3            1 S1                 0.0000
     20 ****         0.8925  -2.9504   0.6991 H              1 S1                 0.0000
     21 ****         1.7264  -4.9750   0.4936 H              1 S1                 0.0000
     22 ****         1.4406  -7.3861  -0.0691 H              1 S1                 0.0000
     23 ****        -0.7941  -8.1859  -0.8896 H              1 S1                 0.0000
     24 ****        -2.6495  -6.5110  -1.1061 H              1 S1                 0.0000
     25 ****         0.7410  -0.9073   1.0299 H              1 S1                 0.0000
     26 ****        -1.9187   0.3722   0.9363 H              1 S1                 0.0000
     27 ****        -0.6482   1.1357   2.8352 H              1 S1                 0.0000
     28 ****         0.8179   1.2969   1.8621 H              1 S1                 0.0000
     29 ****        -1.7071   2.9654   1.7006 H              1 S1                 0.0000
     30 ****        -0.0448   3.5498   1.7433 H              1 S1                 0.0000
     31 ****        -2.6885   3.1958  -0.4718 H              1 S1                 0.0000
     32 ****        -1.5972   4.5645  -0.4841 H              1 S1                 0.0000
     33 ****        -2.4192   3.9171  -2.7925 H              1 S1                 0.0000
     34 ****        -0.6843   3.9509  -2.6514 H              1 S1                 0.0000
     35 ****        -2.2751   1.7603  -3.5524 H              1 S1                 0.0000
     36 ****        -0.5459   1.8084  -3.3445 H              1 S1                 0.0000
     37 ****        -2.6115   0.9226  -1.2910 H              1 S1                 0.0000
     38 ****        -1.3969  -0.0673  -2.0519 H              1 S1                 0.0000
     39 ****         0.4175   1.1010  -0.8806 H              1 S1                 0.0000
     40 ****         0.2300   3.0968  -0.4012 H              1 S1                 0.0000
     41 ****        -2.3633  -2.8947  -0.3889 LP             1 S1                 0.0000
     42 ****        -2.5178  -1.1920  -0.1115 LP             1 S1                 0.0000
     43 ****        -2.2935  -4.2680  -0.5542 LP             1 S1                 0.0000
@<TRIPOS>BOND
    1    1    2 2     
    2    2    3 am    
    3    2   10 am    
    4    3    4 1     
    5    3   20 1     
    6    4    9 ar    
    7    4    5 ar    
    8    5    6 ar    
    9    5   21 1     
   10    6    7 ar    
   11    6   22 1     
   12    7    8 ar    
   13    7   23 1     
   14    8    9 ar    
   15    8   24 1     
   16   10   11 1     
   17   10   25 1     
   18   11   19 1     
   19   11   12 1     
   20   11   26 1     
   21   12   13 1     
   22   12   27 1     
   23   12   28 1     
   24   13   14 1     
   25   13   29 1     
   26   13   30 1     
   27   14   19 1     
   28   14   15 1     
   29   14   40 1     
   30   15   16 1     
   31   15   31 1     
   32   15   32 1     
   33   16   17 1     
   34   16   33 1     
   35   16   34 1     
   36   17   18 1     
   37   17   35 1     
   38   17   36 1     
   39   18   19 1     
   40   18   37 1     
   41   18   38 1     
   42   19   39 1     
   43    1   41 1     
   44    1   42 1     
   45    9   43 1     
@<TRIPOS>SUBSTRUCTURE
      1 S1             1
@<TRIPOS>SET
LONE_PAIRS      STATIC     ATOMS    <user>   **** ""
3 41 42 43
DONOR_HYDROGENS      STATIC     ATOMS    <user>   **** ""
3 20 25 40
ATOM$BLUE        STATIC     ATOMS    COLORGROUP SYSTEM
3 41 42 43
ATOM$RED        STATIC     ATOMS    COLORGROUP SYSTEM
3 20 25 40
