#       Name:                AV-unprocessed.smi:2329
#       Creating user name   scv26
#       Creation time:       Fri Mar 27 12:52:37 2020


#       File generated by GOLD software.
#

@<TRIPOS>MOLECULE
AV-unprocessed.smi:2329
    50    53     1
SMALL
NO_CHARGES


@<TRIPOS>ATOM
      1 ****        -5.3590   3.2732   0.0524 C.3            1 S1                 0.0000
      2 ****        -4.6250   1.9725  -0.1958 C.ar           1 S1                 0.0000
      3 ****        -5.3292   0.7704  -0.4048 C.ar           1 S1                 0.0000
      4 ****        -4.5865  -0.4019  -0.6322 C.ar           1 S1                 0.0000
      5 ****        -3.1806  -0.3246  -0.6410 C.ar           1 S1                 0.0000
      6 ****        -2.5520   0.9215  -0.4209 C.ar           1 S1                 0.0000
      7 ****        -1.1338   0.8906  -0.4477 N.am           1 S1                 0.0000
      8 ****        -0.2678   1.8999  -0.2312 C.2            1 S1                 0.0000
      9 ****        -0.5888   3.0562   0.0375 O.2            1 S1                 0.0000
     10 ****         1.0243   1.5371  -0.3166 N.am           1 S1                 0.0000
     11 ****         2.2022   2.3879  -0.1363 C.3            1 S1                 0.0000
     12 ****         3.5057   1.5730  -0.1369 C.3            1 S1                 0.0000
     13 ****         4.3391   1.4935   1.1128 C.3            1 S1                 0.0000
     14 ****         5.3799   2.5958   0.8988 C.3            1 S1                 0.0000
     15 ****         4.7815   3.4747  -0.0511 O.3            1 S1                 0.0000
     16 ****         4.0970   2.6701  -1.0084 C.3            1 S1                 0.0000
     17 ****         2.6785   3.1252  -1.4126 C.3            1 S1                 0.0000
     18 ****         2.2052   2.6434  -2.7860 C.3            1 S1                 0.0000
     19 ****         2.6449   3.7100  -3.7876 C.3            1 S1                 0.0000
     20 ****         2.6565   5.0215  -2.9971 C.3            1 S1                 0.0000
     21 ****         2.4418   4.6309  -1.5297 C.3            1 S1                 0.0000
     22 ****        -3.2767   2.0470  -0.2036 N.ar           1 S1                 0.0000
     23 ****        -6.4340   3.1114   0.1359 H              1 S1                 0.0000
     24 ****        -5.1817   3.9700  -0.7674 H              1 S1                 0.0000
     25 ****        -5.0119   3.7348   0.9774 H              1 S1                 0.0000
     26 ****        -6.4089   0.7441  -0.3919 H              1 S1                 0.0000
     27 ****        -5.0861  -1.3451  -0.7970 H              1 S1                 0.0000
     28 ****        -2.5949  -1.2160  -0.8133 H              1 S1                 0.0000
     29 ****        -0.7235  -0.0103  -0.6446 H              1 S1                 0.0000
     30 ****         1.2084   0.5609  -0.4981 H              1 S1                 0.0000
     31 ****         2.1468   3.0539   0.7281 H              1 S1                 0.0000
     32 ****         3.4152   0.6338  -0.6858 H              1 S1                 0.0000
     33 ****         3.7344   1.6961   1.9974 H              1 S1                 0.0000
     34 ****         4.8079   0.5179   1.2438 H              1 S1                 0.0000
     35 ****         5.6386   3.1163   1.8211 H              1 S1                 0.0000
     36 ****         6.2941   2.1817   0.4711 H              1 S1                 0.0000
     37 ****         4.7370   2.3054  -1.8133 H              1 S1                 0.0000
     38 ****         2.6004   1.6612  -3.0473 H              1 S1                 0.0000
     39 ****         1.1178   2.5664  -2.8129 H              1 S1                 0.0000
     40 ****         3.6523   3.4880  -4.1417 H              1 S1                 0.0000
     41 ****         1.9904   3.7519  -4.6586 H              1 S1                 0.0000
     42 ****         3.6100   5.5343  -3.1291 H              1 S1                 0.0000
     43 ****         1.8708   5.6983  -3.3348 H              1 S1                 0.0000
     44 ****         1.4181   4.8717  -1.2429 H              1 S1                 0.0000
     45 ****         3.0889   5.2104  -0.8711 H              1 S1                 0.0000
     46 ****        -1.5552   3.3031   0.1090 LP             1 S1                 0.0000
     47 ****         0.1166   3.7496   0.1845 LP             1 S1                 0.0000
     48 ****         5.4874   4.0186  -0.5048 LP             1 S1                 0.0000
     49 ****         4.1347   4.0839   0.4076 LP             1 S1                 0.0000
     50 ****        -2.8177   2.9223  -0.0509 LP             1 S1                 0.0000
@<TRIPOS>BOND
    1    1    2 1     
    2    1   23 1     
    3    1   24 1     
    4    1   25 1     
    5    2   22 ar    
    6    2    3 ar    
    7    3    4 ar    
    8    3   26 1     
    9    4    5 ar    
   10    4   27 1     
   11    5    6 ar    
   12    5   28 1     
   13    6    7 1     
   14    6   22 ar    
   15    7    8 am    
   16    7   29 1     
   17    8    9 2     
   18    8   10 am    
   19   10   11 1     
   20   10   30 1     
   21   11   17 1     
   22   11   12 1     
   23   11   31 1     
   24   12   16 1     
   25   12   13 1     
   26   12   32 1     
   27   13   14 1     
   28   13   33 1     
   29   13   34 1     
   30   14   15 1     
   31   14   35 1     
   32   14   36 1     
   33   15   16 1     
   34   16   17 1     
   35   16   37 1     
   36   17   21 1     
   37   17   18 1     
   38   18   19 1     
   39   18   38 1     
   40   18   39 1     
   41   19   20 1     
   42   19   40 1     
   43   19   41 1     
   44   20   21 1     
   45   20   42 1     
   46   20   43 1     
   47   21   44 1     
   48   21   45 1     
   49    9   46 1     
   50    9   47 1     
   51   15   48 1     
   52   15   49 1     
   53   22   50 1     
@<TRIPOS>SUBSTRUCTURE
      1 S1             1
@<TRIPOS>SET
LONE_PAIRS      STATIC     ATOMS    <user>   **** ""
5 46 47 48 49 50
DONOR_HYDROGENS      STATIC     ATOMS    <user>   **** ""
2 29 30
ATOM$BLUE        STATIC     ATOMS    COLORGROUP SYSTEM
5 46 47 48 49 50
ATOM$RED        STATIC     ATOMS    COLORGROUP SYSTEM
2 29 30
