AV-unprocessed.smi:282|AV-procd|sdf|2120|dock8
  -GOLD-   2262021423D 1   1.00000     0.00000
 Structure written by MMmdl.
 65 69  0  0  0  0  0  0  0  0  2 V2000
  149.4071  140.5724  154.4550 C   0  0  0  0  0  0  0  0  0  0  0  0
  150.0837  139.9955  155.7062 C   0  0  0  0  0  0  0  0  0  0  0  0
  150.7564  141.0553  156.6196 C   0  0  1  0  0  0  0  0  0  0  0  0
  150.1822  142.4695  156.3419 C   0  0  0  0  0  0  0  0  0  0  0  0
  150.7142  143.5015  157.2662 N   0  3  2  0  0  0  0  0  0  0  0  0
  152.1049  143.9193  156.9409 C   0  0  0  0  0  0  0  0  0  0  0  0
  152.5721  145.0621  157.8551 C   0  0  0  0  0  0  0  0  0  0  0  0
  152.4590  144.6606  159.3304 C   0  0  0  0  0  0  0  0  0  0  0  0
  151.0209  144.2256  159.6448 C   0  0  0  0  0  0  0  0  0  0  0  0
  150.5212  143.1197  158.6924 C   0  0  2  0  0  0  0  0  0  0  0  0
  151.1372  141.7380  158.9780 C   0  0  0  0  0  0  0  0  0  0  0  0
  150.6237  140.7335  158.0493 N   0  0  0  0  0  0  0  0  0  0  0  0
  151.0178  139.4881  158.3987 C   0  0  0  0  0  0  0  0  0  0  0  0
  150.1724  138.4363  158.2379 N   0  0  0  0  0  0  0  0  0  0  0  0
  150.5604  137.2111  158.6053 C   0  0  0  0  0  0  0  0  0  0  0  0
  151.7182  136.8304  159.1503 N   0  0  0  0  0  0  0  0  0  0  0  0
  152.5625  137.8883  159.3202 C   0  0  0  0  0  0  0  0  0  0  0  0
  152.2945  139.2389  158.9647 C   0  0  0  0  0  0  0  0  0  0  0  0
  153.3834  140.0426  159.2725 N   0  0  0  0  0  0  0  0  0  0  0  0
  154.2498  139.2117  159.7850 C   0  0  0  0  0  0  0  0  0  0  0  0
  153.8325  137.9012  159.8720 N   0  0  0  0  0  0  0  0  0  0  0  0
  154.5927  136.7799  160.4072 C   0  0  0  0  0  0  0  0  0  0  0  0
  154.9532  136.8932  161.9192 C   0  0  0  0  0  0  0  0  0  0  0  0
  155.9394  138.0720  162.1607 C   0  0  0  0  0  0  0  0  0  0  0  0
  157.1588  137.9007  161.4670 O   0  0  0  0  0  0  0  0  0  0  0  0
  153.6405  137.0805  162.7214 C   0  0  0  0  0  0  0  0  0  0  0  0
  153.8388  136.9289  164.2398 C   0  0  0  0  0  0  0  0  0  0  0  0
  154.3984  135.6538  164.5254 O   0  0  0  0  0  0  0  0  0  0  0  0
  155.6843  135.4755  163.9472 C   0  0  0  0  0  0  0  0  0  0  0  0
  155.5974  135.5717  162.4122 C   0  0  0  0  0  0  0  0  0  0  0  0
  149.0606  139.7701  153.8034 H   0  0  0  0  0  0  0  0  0  0  0  0
  150.0997  141.1883  153.8808 H   0  0  0  0  0  0  0  0  0  0  0  0
  148.5378  141.1797  154.7054 H   0  0  0  0  0  0  0  0  0  0  0  0
  149.3558  139.4209  156.2803 H   0  0  0  0  0  0  0  0  0  0  0  0
  150.8246  139.2769  155.3548 H   0  0  0  0  0  0  0  0  0  0  0  0
  151.8223  141.0649  156.3883 H   0  0  0  0  0  0  0  0  0  0  0  0
  150.3768  142.7822  155.3161 H   0  0  0  0  0  0  0  0  0  0  0  0
  149.0972  142.4479  156.4544 H   0  0  0  0  0  0  0  0  0  0  0  0
  152.7870  143.0735  157.0298 H   0  0  0  0  0  0  0  0  0  0  0  0
  152.1500  144.2477  155.9019 H   0  0  0  0  0  0  0  0  0  0  0  0
  153.6027  145.3295  157.6202 H   0  0  0  0  0  0  0  0  0  0  0  0
  151.9707  145.9529  157.6684 H   0  0  0  0  0  0  0  0  0  0  0  0
  153.1541  143.8495  159.5498 H   0  0  0  0  0  0  0  0  0  0  0  0
  152.7462  145.4957  159.9701 H   0  0  0  0  0  0  0  0  0  0  0  0
  150.9468  143.8933  160.6809 H   0  0  0  0  0  0  0  0  0  0  0  0
  150.3640  145.0923  159.5581 H   0  0  0  0  0  0  0  0  0  0  0  0
  149.4453  143.0271  158.8503 H   0  0  0  0  0  0  0  0  0  0  0  0
  152.2243  141.7828  158.9035 H   0  0  0  0  0  0  0  0  0  0  0  0
  150.9048  141.4391  160.0015 H   0  0  0  0  0  0  0  0  0  0  0  0
  149.8398  136.4230  158.4437 H   0  0  0  0  0  0  0  0  0  0  0  0
  155.2218  139.5376  160.1266 H   0  0  0  0  0  0  0  0  0  0  0  0
  154.0310  135.8647  160.2162 H   0  0  0  0  0  0  0  0  0  0  0  0
  155.5029  136.6912  159.8124 H   0  0  0  0  0  0  0  0  0  0  0  0
  155.5174  139.0238  161.8431 H   0  0  0  0  0  0  0  0  0  0  0  0
  156.1580  138.1835  163.2227 H   0  0  0  0  0  0  0  0  0  0  0  0
  157.0139  137.3070  160.7461 H   0  0  0  0  0  0  0  0  0  0  0  0
  153.1846  138.0461  162.5014 H   0  0  0  0  0  0  0  0  0  0  0  0
  152.9128  136.3322  162.4043 H   0  0  0  0  0  0  0  0  0  0  0  0
  154.4693  137.7210  164.6448 H   0  0  0  0  0  0  0  0  0  0  0  0
  152.8773  137.0068  164.7473 H   0  0  0  0  0  0  0  0  0  0  0  0
  156.3851  136.2030  164.3573 H   0  0  0  0  0  0  0  0  0  0  0  0
  156.0587  134.4928  164.2341 H   0  0  0  0  0  0  0  0  0  0  0  0
  155.0081  134.7264  162.0540 H   0  0  0  0  0  0  0  0  0  0  0  0
  156.5951  135.4477  161.9899 H   0  0  0  0  0  0  0  0  0  0  0  0
  150.1489  144.3253  157.1188 H   0  0  0  0  0  0  0  0  0  0  0  0
  1  2  1  0  0  0  0
  1 31  1  0  0  0  0
  1 32  1  0  0  0  0
  1 33  1  0  0  0  0
  2  3  1  0  0  0  0
  2 34  1  0  0  0  0
  2 35  1  0  0  0  0
  3 12  1  0  0  0  0
  3  4  1  0  0  0  0
  3 36  1  0  0  0  0
  4  5  1  0  0  0  0
  4 37  1  0  0  0  0
  4 38  1  0  0  0  0
  5 10  1  0  0  0  0
  5  6  1  0  0  0  0
  5 65  1  0  0  0  0
  6  7  1  0  0  0  0
  6 39  1  0  0  0  0
  6 40  1  0  0  0  0
  7  8  1  0  0  0  0
  7 41  1  0  0  0  0
  7 42  1  0  0  0  0
  8  9  1  0  0  0  0
  8 43  1  0  0  0  0
  8 44  1  0  0  0  0
  9 10  1  0  0  0  0
  9 45  1  0  0  0  0
  9 46  1  0  0  0  0
 10 11  1  0  0  0  0
 10 47  1  0  0  0  0
 11 12  1  0  0  0  0
 11 48  1  0  0  0  0
 11 49  1  0  0  0  0
 12 13  1  0  0  0  0
 13 18  1  0  0  0  0
 13 14  2  0  0  0  0
 14 15  1  0  0  0  0
 15 16  2  0  0  0  0
 15 50  1  0  0  0  0
 16 17  1  0  0  0  0
 17 21  1  0  0  0  0
 17 18  2  0  0  0  0
 18 19  1  0  0  0  0
 19 20  2  0  0  0  0
 20 21  1  0  0  0  0
 20 51  1  0  0  0  0
 21 22  1  0  0  0  0
 22 23  1  0  0  0  0
 22 52  1  0  0  0  0
 22 53  1  0  0  0  0
 23 30  1  0  0  0  0
 23 24  1  0  0  0  0
 23 26  1  0  0  0  0
 24 25  1  0  0  0  0
 24 54  1  0  0  0  0
 24 55  1  0  0  0  0
 25 56  1  0  0  0  0
 26 27  1  0  0  0  0
 26 57  1  0  0  0  0
 26 58  1  0  0  0  0
 27 28  1  0  0  0  0
 27 59  1  0  0  0  0
 27 60  1  0  0  0  0
 28 29  1  0  0  0  0
 29 30  1  0  0  0  0
 29 61  1  0  0  0  0
 29 62  1  0  0  0  0
 30 63  1  0  0  0  0
 30 64  1  0  0  0  0
M  CHG  1   5   1
M  END
> <s_m_source_file>
AV-unprocessed.smi

> <i_m_source_file_index>
282

> <i_lp_mmshare_version>
43012

> <i_f3d_flags>
0

> <s_epik_input>
W0NIMl0xW0NIMl1bQ0gyXVtDSDJdW0NAQEhdKE4xMilbQ0gyXU4oW0NAQEhdKFtDSDJdMilbQ0gyXVtDSDNdKWMobltjSF1uMyljKGMzNCluW2NIXW40W0NIMl1DNShbQ0gyXVtPSF0pW0NIMl1bQ0gyXU9bQ0gyXVtDSDJdNQ==

> <s_epik_cmdline>
J2VwaWtfcHl0aG9uJywgJy1waCcsICc3LjAnLCAnLXRuJywgJzgnLCAnLW1hJywgJzIwMCcsICctbWV0YWxfYmluZGluZycsICctaW1hZScsICc8aW5maWxlLm1hZT4nLCAnLW9tYWUnLCAnPG91dGZpbGUubWFlPic=

> <r_lp_tautomer_probability>
1

> <r_epik_Ionization_Penalty>
0.00308583

> <r_epik_Ionization_Penalty_Charging>
0.00300384

> <r_epik_Ionization_Penalty_Neutral>
8.19894e-05

> <r_epik_State_Penalty>
-0

> <r_epik_Charging_Adjusted_Penalty>
0.00300384

> <i_epik_Tot_Q>
1

> <i_epik_Tot_abs_Q>
1

> <r_epik_Metal_State_Penalty>
-0

> <b_epik_Metal_Only>
0

> <s_lp_Force_Field>
OPLS_2005

> <r_lp_Energy>
59.0592

> <b_lp_Chiralities_Consistent>
1

> <s_lp_Variant>
AV-unprocessed.smi:282-4

> <Gold.Version>
5.8.1

> <Gold.Id.Protein>
6NUR|6NUR_protein|mol2

> <Gold.PLP.Fitness>
49.1365

> <Gold.PLP.PLP>
-44.5161

> <Gold.PLP.part.hbond>
-2.0000

> <Gold.PLP.part.metal>
0.0000

> <Gold.PLP.part.buried>
-4.3304

> <Gold.PLP.part.nonpolar>
-38.9256

> <Gold.PLP.part.repulsive>
0.1476

> <Gold.PLP.ligand.clash>
0.0000

> <Gold.PLP.ligand.torsion>
1.2063

> <Gold.PLP.Chemscore.Hbond>
2.2480

> <Gold.PLP.Chemscore.CHOScore>
0.0000

> <Gold.PLP.Chemscore.Metal>
0.0000

> <Gold.Chemscore.Hbonds>
donor molecule, donor type, donor heavy atom, donor atom, acceptor molecule, acceptor atom, score
      L1  H     5    65       P1  8028  1.22
      P1  H  6896  6909       L1    16  1.00

> <Gold.PLP.Chemscore.Internal.Correction>
0.2889

> <Gold.Rescore>
     Score         DG    S(hbond)    S(metal)    S(lipo)     H(rot)  DE(clash)    DE(int)     intcor
     12.79     -19.95       1.25        0.00     141.69       2.46       3.45       3.71       ----

> <Gold.Chemscore.Fitness>
12.7902

> <Gold.Chemscore.DG>
-19.9509

> <Gold.Chemscore.ZeroCoef>
-5.4800

> <Gold.Chemscore.Hbond>
1.2529

> <Gold.Chemscore.Metal>
0.0000

> <Gold.Chemscore.Lipo>
141.6904

> <Gold.Chemscore.Internal_Hbond>
0.0000

> <Gold.Chemscore.DEClash>
3.4498

> <Gold.Chemscore.DEInternal>
3.7110

> <Gold.Chemscore.Rot>
2.4576

> <Gold.Chemscore.Internal.Correction>
   9.000000E+99

> <Gold.Chemscore.Hbonds>
donor molecule, donor type, donor heavy atom, donor atom, acceptor molecule, acceptor atom, score
      L1  H     5    65       P1  8028  0.46
      P1  H  6896  6909       L1    16  0.67

> <Gold.Chemscore.Hbond.Weighted>
-4.1847

> <Gold.Chemscore.Metal.Weighted>
-0.0000

> <Gold.Chemscore.Lipo.Weighted>
-16.5778

> <Gold.Chemscore.Internal_Hbond.Weighted>
0.0000

> <Gold.Chemscore.DEClash.Weighted>
3.4498

> <Gold.Chemscore.DEInternal.Weighted>
3.7110

> <Gold.Chemscore.Rot.Weighted>
6.2915

> <Gold.Chemscore.Internal.Correction.Weighted>
   9.000000E+99

> <Gold.Protein.RotatedTorsions>
[ 6907 6896 6895 6894 ] final  115.14 input  -60.11 | X-H torsion
[ 7974 7965 7964 7962 ] final  136.08 input  175.53 | X-H torsion
[ 8008 7997 7996 7995 ] final   59.18 input   59.86 | X-H torsion
[ 10167 10162 10161 10158 ] final -150.46 input  -65.29 | X-H torsion
[ 10718 10713 10712 10709 ] final -160.65 input   66.30 | X-H torsion
[ 10763 10752 10751 10750 ] final  -21.18 input  -60.55 | X-H torsion
[ 11005 11000 10999 10996 ] final  -51.78 input  -57.11 | X-H torsion

> <Gold.Protein.ActiveResidues>
 VAL166  LYS551  ARG553  GLY616  TRP617  ASP618  TYR619  PRO620  LYS621  CYS622 
 ASP623  PHE694  ASN695  SER759  ASP760  ASP761  ALA762  ILE779  LEU786  VAL792 
 PHE793  MET794  SER795  GLU796  ALA797  LYS798  CYS799  TRP800  GLU811  SER814 

> <Gold.Protein.RotatedAtoms>
  152.4760  133.8139  159.7017 H   0  0  0  0  0  0  0  0  0  0  0  0  # atno 6907 bound_to 6896
  150.8777  133.7406  159.2948 H   0  0  0  0  0  0  0  0  0  0  0  0  # atno 6908 bound_to 6896
  151.4921  135.1061  159.9858 H   0  0  0  0  0  0  0  0  0  0  0  0  # atno 6909 bound_to 6896
  144.9600  139.4721  143.5484 H   0  0  0  0  0  0  0  0  0  0  0  0  # atno 7974 bound_to 7965
  155.5620  140.3488  155.4493 H   0  0  0  0  0  0  0  0  0  0  0  0  # atno 8008 bound_to 7997
  156.0507  140.1317  157.0078 H   0  0  0  0  0  0  0  0  0  0  0  0  # atno 8009 bound_to 7997
  154.4433  140.1005  156.6357 H   0  0  0  0  0  0  0  0  0  0  0  0  # atno 8010 bound_to 7997
  139.7352  143.8746  152.2547 H   0  0  0  0  0  0  0  0  0  0  0  0  # atno 10167 bound_to 10162
  156.5851  130.8746  151.2875 H   0  0  0  0  0  0  0  0  0  0  0  0  # atno 10718 bound_to 10713
  153.6321  135.6988  153.5272 H   0  0  0  0  0  0  0  0  0  0  0  0  # atno 10763 bound_to 10752
  153.2851  135.4174  155.1115 H   0  0  0  0  0  0  0  0  0  0  0  0  # atno 10764 bound_to 10752
  154.8519  135.3611  154.5863 H   0  0  0  0  0  0  0  0  0  0  0  0  # atno 10765 bound_to 10752
  141.0889  133.6636  156.3927 H   0  0  0  0  0  0  0  0  0  0  0  0  # atno 11005 bound_to 11000
  146.3350  139.8743  142.8835 LP  0  0  0  0  0  0  0  0  0  0  0  0  # atno 17320 bound_to 7965
  145.2715  141.0110  143.3769 LP  0  0  0  0  0  0  0  0  0  0  0  0  # atno 17321 bound_to 7965
  139.8681  144.7082  150.9020 LP  0  0  0  0  0  0  0  0  0  0  0  0  # atno 17342 bound_to 10162
  140.7777  143.3761  151.1560 LP  0  0  0  0  0  0  0  0  0  0  0  0  # atno 17343 bound_to 10162
  157.7317  130.9704  150.1893 LP  0  0  0  0  0  0  0  0  0  0  0  0  # atno 17370 bound_to 10713
  156.2598  130.3709  149.8143 LP  0  0  0  0  0  0  0  0  0  0  0  0  # atno 17371 bound_to 10713
  140.5298  134.6224  157.5346 LP  0  0  0  0  0  0  0  0  0  0  0  0  # atno 17394 bound_to 11000
  139.9712  134.7290  156.0038 LP  0  0  0  0  0  0  0  0  0  0  0  0  # atno 17395 bound_to 11000

$$$$
