AV-unprocessed.smi:1781|AV-procd|sdf|7187|dock4
  -GOLD-   22720 8423D 1   1.00000     0.00000
 Structure written by MMmdl.
 38 39  0  0  0  0  0  0  0  0  1 V2000
  145.1030  135.8477  151.7391 C   0  0  0  0  0  0  0  0  0  0  0  0
  145.8853  137.1222  151.4147 C   0  0  0  0  0  0  0  0  0  0  0  0
  146.1915  137.7955  152.6241 O   0  0  0  0  0  0  0  0  0  0  0  0
  146.8082  139.0560  152.4085 C   0  0  0  0  0  0  0  0  0  0  0  0
  147.4244  139.5608  153.7150 C   0  0  0  0  0  0  0  0  0  0  0  0
  146.7232  139.6959  154.7186 O   0  0  0  0  0  0  0  0  0  0  0  0
  148.7421  139.8319  153.6599 N   0  0  0  0  0  0  0  0  0  0  0  0
  149.5864  140.3210  154.6922 C   0  0  0  0  0  0  0  0  0  0  0  0
  148.9465  141.1353  155.6530 C   0  0  0  0  0  0  0  0  0  0  0  0
  149.6951  141.6672  156.7205 C   0  0  0  0  0  0  0  0  0  0  0  0
  151.0701  141.3763  156.8040 C   0  0  0  0  0  0  0  0  0  0  0  0
  151.8292  141.8927  157.8641 N   0  0  0  0  0  0  0  0  0  0  0  0
  151.7295  143.3417  157.9829 C   0  0  0  0  0  0  0  0  0  0  0  0
  152.6838  143.8480  159.0792 C   0  0  0  0  0  0  0  0  0  0  0  0
  152.4035  143.1797  160.3064 O   0  0  0  0  0  0  0  0  0  0  0  0
  152.5752  141.7691  160.1988 C   0  0  0  0  0  0  0  0  0  0  0  0
  151.6120  141.2131  159.1354 C   0  0  0  0  0  0  0  0  0  0  0  0
  151.6272  140.5525  155.8008 C   0  0  0  0  0  0  0  0  0  0  0  0
  150.9103  140.0413  154.7783 N   0  0  0  0  0  0  0  0  0  0  0  0
  144.8488  135.3038  150.8292 H   0  0  0  0  0  0  0  0  0  0  0  0
  144.1744  136.0804  152.2608 H   0  0  0  0  0  0  0  0  0  0  0  0
  145.6872  135.1818  152.3746 H   0  0  0  0  0  0  0  0  0  0  0  0
  146.8035  136.8690  150.8829 H   0  0  0  0  0  0  0  0  0  0  0  0
  145.2927  137.7670  150.7641 H   0  0  0  0  0  0  0  0  0  0  0  0
  147.5870  138.9693  151.6490 H   0  0  0  0  0  0  0  0  0  0  0  0
  146.0737  139.7825  152.0576 H   0  0  0  0  0  0  0  0  0  0  0  0
  149.1921  139.6715  152.7707 H   0  0  0  0  0  0  0  0  0  0  0  0
  147.8910  141.3531  155.5779 H   0  0  0  0  0  0  0  0  0  0  0  0
  149.2174  142.2903  157.4629 H   0  0  0  0  0  0  0  0  0  0  0  0
  151.9743  143.8104  157.0290 H   0  0  0  0  0  0  0  0  0  0  0  0
  150.7037  143.6213  158.2277 H   0  0  0  0  0  0  0  0  0  0  0  0
  153.7244  143.6848  158.7942 H   0  0  0  0  0  0  0  0  0  0  0  0
  152.5568  144.9212  159.2218 H   0  0  0  0  0  0  0  0  0  0  0  0
  153.6109  141.5361  159.9458 H   0  0  0  0  0  0  0  0  0  0  0  0
  152.3720  141.3107  161.1667 H   0  0  0  0  0  0  0  0  0  0  0  0
  150.5822  141.3560  159.4649 H   0  0  0  0  0  0  0  0  0  0  0  0
  151.7680  140.1406  159.0126 H   0  0  0  0  0  0  0  0  0  0  0  0
  152.6740  140.2874  155.8187 H   0  0  0  0  0  0  0  0  0  0  0  0
  1  2  1  0  0  0  0
  1 20  1  0  0  0  0
  1 21  1  0  0  0  0
  1 22  1  0  0  0  0
  2  3  1  0  0  0  0
  2 23  1  0  0  0  0
  2 24  1  0  0  0  0
  3  4  1  0  0  0  0
  4  5  1  0  0  0  0
  4 25  1  0  0  0  0
  4 26  1  0  0  0  0
  5  6  2  0  0  0  0
  5  7  1  0  0  0  0
  7  8  1  0  0  0  0
  7 27  1  0  0  0  0
  8 19  1  0  0  0  0
  8  9  2  0  0  0  0
  9 10  1  0  0  0  0
  9 28  1  0  0  0  0
 10 11  2  0  0  0  0
 10 29  1  0  0  0  0
 11 12  1  0  0  0  0
 11 18  1  0  0  0  0
 12 17  1  0  0  0  0
 12 13  1  0  0  0  0
 13 14  1  0  0  0  0
 13 30  1  0  0  0  0
 13 31  1  0  0  0  0
 14 15  1  0  0  0  0
 14 32  1  0  0  0  0
 14 33  1  0  0  0  0
 15 16  1  0  0  0  0
 16 17  1  0  0  0  0
 16 34  1  0  0  0  0
 16 35  1  0  0  0  0
 17 36  1  0  0  0  0
 17 37  1  0  0  0  0
 18 19  2  0  0  0  0
 18 38  1  0  0  0  0
M  END
> <s_m_source_file>
AV-unprocessed.smi

> <i_m_source_file_index>
1781

> <i_lp_mmshare_version>
43012

> <i_f3d_flags>
0

> <s_epik_input>
W0NIM11bQ0gyXU9bQ0gyXUMoPU8pW05IXWMxW2NIXVtjSF1jKFtjSF1uMSlOMltDSDJdW0NIMl1PW0NIMl1bQ0gyXTI=

> <s_epik_cmdline>
J2VwaWtfcHl0aG9uJywgJy1waCcsICc3LjAnLCAnLXRuJywgJzgnLCAnLW1hJywgJzIwMCcsICctbWV0YWxfYmluZGluZycsICctaW1hZScsICc8aW5maWxlLm1hZT4nLCAnLW9tYWUnLCAnPG91dGZpbGUubWFlPic=

> <r_lp_tautomer_probability>
1

> <r_epik_Ionization_Penalty>
0.00358585

> <r_epik_Ionization_Penalty_Charging>
0

> <r_epik_Ionization_Penalty_Neutral>
0.00358585

> <r_epik_State_Penalty>
0.00535288

> <r_epik_Charging_Adjusted_Penalty>
0.00535288

> <i_epik_Tot_Q>
0

> <i_epik_Tot_abs_Q>
0

> <r_epik_Metal_State_Penalty>
-0

> <b_epik_Metal_Only>
0

> <s_lp_Force_Field>
OPLS_2005

> <r_lp_Energy>
27.8059

> <b_lp_Chiralities_Consistent>
1

> <s_lp_Variant>
AV-unprocessed.smi:1781-1

> <Gold.Version>
5.8.1

> <Gold.Id.Protein>
6NUR|6NUR_protein|mol2

> <Gold.PLP.Fitness>
40.3151

> <Gold.PLP.PLP>
-35.1606

> <Gold.PLP.part.hbond>
-2.0000

> <Gold.PLP.part.metal>
0.0000

> <Gold.PLP.part.buried>
-1.6094

> <Gold.PLP.part.nonpolar>
-31.9592

> <Gold.PLP.part.repulsive>
0.5741

> <Gold.PLP.ligand.clash>
0.0000

> <Gold.PLP.ligand.torsion>
0.4800

> <Gold.PLP.Chemscore.Hbond>
2.0000

> <Gold.PLP.Chemscore.CHOScore>
0.0000

> <Gold.PLP.Chemscore.Metal>
0.0000

> <Gold.Chemscore.Hbonds>
donor molecule, donor type, donor heavy atom, donor atom, acceptor molecule, acceptor atom, score
      L1  H     7    27       P1  7957  1.00
      P1  H  7989  7998       L1    19  0.95

> <Gold.PLP.Chemscore.Internal.Correction>
0.1145

> <Gold.Rescore>
     Score         DG    S(hbond)    S(metal)    S(lipo)     H(rot)  DE(clash)    DE(int)     intcor
     14.64     -16.83       1.48        0.00      88.94       1.56       0.49       1.71       ----

> <Gold.Chemscore.Fitness>
14.6394

> <Gold.Chemscore.DG>
-16.8332

> <Gold.Chemscore.ZeroCoef>
-5.4800

> <Gold.Chemscore.Hbond>
1.4823

> <Gold.Chemscore.Metal>
0.0000

> <Gold.Chemscore.Lipo>
88.9407

> <Gold.Chemscore.Internal_Hbond>
0.0000

> <Gold.Chemscore.DEClash>
0.4866

> <Gold.Chemscore.DEInternal>
1.7072

> <Gold.Chemscore.Rot>
1.5639

> <Gold.Chemscore.Internal.Correction>
   9.000000E+99

> <Gold.Chemscore.Hbonds>
donor molecule, donor type, donor heavy atom, donor atom, acceptor molecule, acceptor atom, score
      L1  H     7    27       P1  7957  0.98
      P1  H  7989  7998       L1    19  0.12

> <Gold.Chemscore.Hbond.Weighted>
-4.9507

> <Gold.Chemscore.Metal.Weighted>
-0.0000

> <Gold.Chemscore.Lipo.Weighted>
-10.4061

> <Gold.Chemscore.Internal_Hbond.Weighted>
0.0000

> <Gold.Chemscore.DEClash.Weighted>
0.4866

> <Gold.Chemscore.DEInternal.Weighted>
1.7072

> <Gold.Chemscore.Rot.Weighted>
4.0036

> <Gold.Chemscore.Internal.Correction.Weighted>
   9.000000E+99

> <Gold.Protein.RotatedTorsions>
[ 6907 6896 6895 6894 ] final   65.66 input  -60.11 | X-H torsion
[ 7974 7965 7964 7962 ] final -137.52 input  175.53 | X-H torsion
[ 8008 7997 7996 7995 ] final -176.74 input   59.86 | X-H torsion
[ 10167 10162 10161 10158 ] final  -61.42 input  -65.29 | X-H torsion
[ 10718 10713 10712 10709 ] final  136.65 input   66.30 | X-H torsion
[ 10763 10752 10751 10750 ] final  -92.03 input  -60.55 | X-H torsion
[ 11005 11000 10999 10996 ] final   69.56 input  -57.11 | X-H torsion

> <Gold.Protein.ActiveResidues>
 VAL166  LYS551  ARG553  GLY616  TRP617  ASP618  TYR619  PRO620  LYS621  CYS622 
 ASP623  PHE694  ASN695  SER759  ASP760  ASP761  ALA762  ILE779  LEU786  VAL792 
 PHE793  MET794  SER795  GLU796  ALA797  LYS798  CYS799  TRP800  GLU811  SER814 

> <Gold.Protein.RotatedAtoms>
  152.4424  134.5564  159.9881 H   0  0  0  0  0  0  0  0  0  0  0  0  # atno 6907 bound_to 6896
  151.5657  133.3391  159.2988 H   0  0  0  0  0  0  0  0  0  0  0  0  # atno 6908 bound_to 6896
  150.8333  134.7629  159.6936 H   0  0  0  0  0  0  0  0  0  0  0  0  # atno 6909 bound_to 6896
  144.8835  140.6541  143.5191 H   0  0  0  0  0  0  0  0  0  0  0  0  # atno 7974 bound_to 7965
  155.9985  140.1215  157.0570 H   0  0  0  0  0  0  0  0  0  0  0  0  # atno 8008 bound_to 7997
  154.4234  140.1111  156.5732 H   0  0  0  0  0  0  0  0  0  0  0  0  # atno 8009 bound_to 7997
  155.6245  140.3472  155.4665 H   0  0  0  0  0  0  0  0  0  0  0  0  # atno 8010 bound_to 7997
  140.6007  143.2361  151.5936 H   0  0  0  0  0  0  0  0  0  0  0  0  # atno 10167 bound_to 10162
  157.4444  131.1060  151.0106 H   0  0  0  0  0  0  0  0  0  0  0  0  # atno 10718 bound_to 10713
  154.6820  135.5246  153.8276 H   0  0  0  0  0  0  0  0  0  0  0  0  # atno 10763 bound_to 10752
  153.0571  135.6555  154.0560 H   0  0  0  0  0  0  0  0  0  0  0  0  # atno 10764 bound_to 10752
  154.0446  135.2974  155.3329 H   0  0  0  0  0  0  0  0  0  0  0  0  # atno 10765 bound_to 10752
  139.9647  134.7002  156.0572 H   0  0  0  0  0  0  0  0  0  0  0  0  # atno 11005 bound_to 11000
  145.3911  139.1616  143.4228 LP  0  0  0  0  0  0  0  0  0  0  0  0  # atno 17320 bound_to 7965
  146.3010  140.4000  142.8704 LP  0  0  0  0  0  0  0  0  0  0  0  0  # atno 17321 bound_to 7965
  139.5289  144.2976  152.1100 LP  0  0  0  0  0  0  0  0  0  0  0  0  # atno 17342 bound_to 10162
  140.2156  144.4518  150.6365 LP  0  0  0  0  0  0  0  0  0  0  0  0  # atno 17343 bound_to 10162
  157.0957  130.5961  149.5449 LP  0  0  0  0  0  0  0  0  0  0  0  0  # atno 17370 bound_to 10713
  155.9961  130.5030  150.7486 LP  0  0  0  0  0  0  0  0  0  0  0  0  # atno 17371 bound_to 10713
  141.1326  133.6583  156.3505 LP  0  0  0  0  0  0  0  0  0  0  0  0  # atno 17394 bound_to 11000
  140.5424  134.6108  157.5383 LP  0  0  0  0  0  0  0  0  0  0  0  0  # atno 17395 bound_to 11000

$$$$
