AV-unprocessed.smi:2408|AV-procd|sdf|9520|dock5
  -GOLD-   2272013153D 1   1.00000     0.00000
 Structure written by MMmdl.
 47 49  0  0  0  0  0  0  0  0  1 V2000
  151.1354  144.9114  158.6847 C   0  0  0  0  0  0  0  0  0  0  0  0
  151.8713  143.5911  158.8328 C   0  0  0  0  0  0  0  0  0  0  0  0
  152.9392  143.6117  159.6615 N   0  0  0  0  0  0  0  0  0  0  0  0
  153.6346  142.4686  159.8363 C   0  0  0  0  0  0  0  0  0  0  0  0
  153.3060  141.2605  159.1935 C   0  0  0  0  0  0  0  0  0  0  0  0
  152.1935  141.2402  158.3316 C   0  0  0  0  0  0  0  0  0  0  0  0
  151.4432  142.4269  158.1487 C   0  0  0  0  0  0  0  0  0  0  0  0
  150.3199  142.5023  157.2803 N   0  0  0  0  0  0  0  0  0  0  0  0
  149.5486  141.4925  156.8448 C   0  0  0  0  0  0  0  0  0  0  0  0
  149.7086  140.3060  157.1307 O   0  0  0  0  0  0  0  0  0  0  0  0
  148.5411  141.9486  156.0796 N   0  0  0  0  0  0  0  0  0  0  0  0
  147.4517  141.1734  155.4565 C   0  0  0  0  0  0  0  0  0  0  0  0
  146.1327  141.2062  156.2818 C   0  0  0  0  0  0  0  0  0  0  0  0
  145.6757  140.1633  156.7523 O   0  0  0  0  0  0  0  0  0  0  0  0
  145.5133  142.3873  156.4411 N   0  0  0  0  0  0  0  0  0  0  0  0
  144.2826  142.5953  157.1871 C   0  0  0  0  0  0  0  0  0  0  0  0
  143.7075  143.9876  157.0321 C   0  0  0  0  0  0  0  0  0  0  0  0
  142.2174  144.1943  156.8944 C   0  0  0  0  0  0  0  0  0  0  0  0
  143.1265  144.4474  155.7155 C   0  0  0  0  0  0  0  0  0  0  0  0
  147.1719  141.7739  154.0570 C   0  0  0  0  0  0  0  0  0  0  0  0
  146.8558  140.5970  153.1365 C   0  0  0  0  0  0  0  0  0  0  0  0
  147.7782  139.4921  153.6323 C   0  0  0  0  0  0  0  0  0  0  0  0
  147.9027  139.7110  155.1452 C   0  0  0  0  0  0  0  0  0  0  0  0
  150.0900  144.7977  158.9726 H   0  0  0  0  0  0  0  0  0  0  0  0
  151.1737  145.2528  157.6500 H   0  0  0  0  0  0  0  0  0  0  0  0
  151.5733  145.6881  159.3132 H   0  0  0  0  0  0  0  0  0  0  0  0
  154.4820  142.5200  160.5037 H   0  0  0  0  0  0  0  0  0  0  0  0
  153.8967  140.3707  159.3542 H   0  0  0  0  0  0  0  0  0  0  0  0
  151.9436  140.3248  157.8168 H   0  0  0  0  0  0  0  0  0  0  0  0
  150.0099  143.4345  157.0479 H   0  0  0  0  0  0  0  0  0  0  0  0
  148.5095  142.9442  155.9172 H   0  0  0  0  0  0  0  0  0  0  0  0
  145.9407  143.2039  156.0288 H   0  0  0  0  0  0  0  0  0  0  0  0
  143.5420  141.8582  156.8727 H   0  0  0  0  0  0  0  0  0  0  0  0
  144.4736  142.4226  158.2473 H   0  0  0  0  0  0  0  0  0  0  0  0
  144.2304  144.7427  157.6166 H   0  0  0  0  0  0  0  0  0  0  0  0
  141.5833  143.3106  156.8582 H   0  0  0  0  0  0  0  0  0  0  0  0
  141.7827  145.0608  157.3887 H   0  0  0  0  0  0  0  0  0  0  0  0
  143.3005  145.4814  155.4255 H   0  0  0  0  0  0  0  0  0  0  0  0
  143.0954  143.7321  154.8958 H   0  0  0  0  0  0  0  0  0  0  0  0
  146.3677  142.5119  154.0536 H   0  0  0  0  0  0  0  0  0  0  0  0
  148.0593  142.2829  153.6759 H   0  0  0  0  0  0  0  0  0  0  0  0
  145.8147  140.2955  153.2593 H   0  0  0  0  0  0  0  0  0  0  0  0
  147.0124  140.8327  152.0835 H   0  0  0  0  0  0  0  0  0  0  0  0
  147.4087  138.4970  153.3823 H   0  0  0  0  0  0  0  0  0  0  0  0
  148.7587  139.6049  153.1677 H   0  0  0  0  0  0  0  0  0  0  0  0
  148.9299  139.5082  155.4497 H   0  0  0  0  0  0  0  0  0  0  0  0
  147.2909  138.9772  155.6722 H   0  0  0  0  0  0  0  0  0  0  0  0
  1  2  1  0  0  0  0
  1 24  1  0  0  0  0
  1 25  1  0  0  0  0
  1 26  1  0  0  0  0
  2  7  1  0  0  0  0
  2  3  2  0  0  0  0
  3  4  1  0  0  0  0
  4  5  2  0  0  0  0
  4 27  1  0  0  0  0
  5  6  1  0  0  0  0
  5 28  1  0  0  0  0
  6  7  2  0  0  0  0
  6 29  1  0  0  0  0
  7  8  1  0  0  0  0
  8  9  1  0  0  0  0
  8 30  1  0  0  0  0
  9 10  2  0  0  0  0
  9 11  1  0  0  0  0
 11 12  1  0  0  0  0
 11 31  1  0  0  0  0
 12 23  1  0  0  0  0
 12 13  1  0  0  0  0
 12 20  1  0  0  0  0
 13 14  2  0  0  0  0
 13 15  1  0  0  0  0
 15 16  1  0  0  0  0
 15 32  1  0  0  0  0
 16 17  1  0  0  0  0
 16 33  1  0  0  0  0
 16 34  1  0  0  0  0
 17 19  1  0  0  0  0
 17 18  1  0  0  0  0
 17 35  1  0  0  0  0
 18 19  1  0  0  0  0
 18 36  1  0  0  0  0
 18 37  1  0  0  0  0
 19 38  1  0  0  0  0
 19 39  1  0  0  0  0
 20 21  1  0  0  0  0
 20 40  1  0  0  0  0
 20 41  1  0  0  0  0
 21 22  1  0  0  0  0
 21 42  1  0  0  0  0
 21 43  1  0  0  0  0
 22 23  1  0  0  0  0
 22 44  1  0  0  0  0
 22 45  1  0  0  0  0
 23 46  1  0  0  0  0
 23 47  1  0  0  0  0
M  END
> <s_m_source_file>
AV-unprocessed.smi

> <i_m_source_file_index>
2408

> <i_lp_mmshare_version>
43012

> <i_f3d_flags>
0

> <s_epik_input>
W0NIM11jMW5bY0hdW2NIXVtjSF1jMVtOSF1DKD1PKVtOSF1DMihbQ0gyXVtDSDJdW0NIMl1bQ0gyXTIpQyg9TylbTkhdW0NIMl1bQ0hdM1tDSDJdW0NIMl0z

> <s_epik_cmdline>
J2VwaWtfcHl0aG9uJywgJy1waCcsICc3LjAnLCAnLXRuJywgJzgnLCAnLW1hJywgJzIwMCcsICctbWV0YWxfYmluZGluZycsICctaW1hZScsICc8aW5maWxlLm1hZT4nLCAnLW9tYWUnLCAnPG91dGZpbGUubWFlPic=

> <r_epik_Ionization_Penalty>
0.0173464

> <r_epik_Ionization_Penalty_Charging>
0

> <r_epik_Ionization_Penalty_Neutral>
0.0173464

> <r_epik_State_Penalty>
0.0137159

> <r_epik_Charging_Adjusted_Penalty>
0.0137159

> <i_epik_Tot_Q>
0

> <i_epik_Tot_abs_Q>
0

> <r_epik_Metal_State_Penalty>
0.0133255

> <b_epik_Metal_Only>
0

> <s_lp_Force_Field>
OPLS_2005

> <r_lp_Energy>
32.4155

> <b_lp_Chiralities_Consistent>
1

> <s_lp_Variant>
AV-unprocessed.smi:2408-1

> <Gold.Version>
5.8.1

> <Gold.Id.Protein>
6NUR|6NUR_protein|mol2

> <Gold.PLP.Fitness>
43.3475

> <Gold.PLP.PLP>
-39.1379

> <Gold.PLP.part.hbond>
-2.0000

> <Gold.PLP.part.metal>
0.0000

> <Gold.PLP.part.buried>
-6.9723

> <Gold.PLP.part.nonpolar>
-30.0517

> <Gold.PLP.part.repulsive>
0.2009

> <Gold.PLP.ligand.clash>
0.0299

> <Gold.PLP.ligand.torsion>
1.0457

> <Gold.PLP.Chemscore.Hbond>
1.8960

> <Gold.PLP.Chemscore.CHOScore>
0.0000

> <Gold.PLP.Chemscore.Metal>
0.0000

> <Gold.Chemscore.Hbonds>
donor molecule, donor type, donor heavy atom, donor atom, acceptor molecule, acceptor atom, score
      L1  H     8    30       P1  8028  0.58
      L1  H    11    31       P1  8028  1.00

> <Gold.PLP.Chemscore.Internal.Correction>
0.6429

> <Gold.Rescore>
     Score         DG    S(hbond)    S(metal)    S(lipo)     H(rot)  DE(clash)    DE(int)     intcor
     17.65     -21.03       1.95        0.00     112.02       1.59       0.06       3.31       ----

> <Gold.Chemscore.Fitness>
17.6535

> <Gold.Chemscore.DG>
-21.0290

> <Gold.Chemscore.ZeroCoef>
-5.4800

> <Gold.Chemscore.Hbond>
1.9532

> <Gold.Chemscore.Metal>
0.0000

> <Gold.Chemscore.Lipo>
112.0178

> <Gold.Chemscore.Internal_Hbond>
0.0000

> <Gold.Chemscore.DEClash>
0.0649

> <Gold.Chemscore.DEInternal>
3.3106

> <Gold.Chemscore.Rot>
1.5941

> <Gold.Chemscore.Internal.Correction>
   9.000000E+99

> <Gold.Chemscore.Hbonds>
donor molecule, donor type, donor heavy atom, donor atom, acceptor molecule, acceptor atom, score
      L1  H     8    30       P1  8028  0.55
      L1  H    11    31       P1  8028  0.98

> <Gold.Chemscore.Hbond.Weighted>
-6.5238

> <Gold.Chemscore.Metal.Weighted>
-0.0000

> <Gold.Chemscore.Lipo.Weighted>
-13.1061

> <Gold.Chemscore.Internal_Hbond.Weighted>
0.0000

> <Gold.Chemscore.DEClash.Weighted>
0.0649

> <Gold.Chemscore.DEInternal.Weighted>
3.3106

> <Gold.Chemscore.Rot.Weighted>
4.0809

> <Gold.Chemscore.Internal.Correction.Weighted>
   9.000000E+99

> <Gold.Protein.RotatedTorsions>
[ 6907 6896 6895 6894 ] final    1.94 input  -60.11 | X-H torsion
[ 7974 7965 7964 7962 ] final  166.29 input  175.53 | X-H torsion
[ 8008 7997 7996 7995 ] final  -60.12 input   59.86 | X-H torsion
[ 10167 10162 10161 10158 ] final  -57.41 input  -65.29 | X-H torsion
[ 10718 10713 10712 10709 ] final   15.35 input   66.30 | X-H torsion
[ 10763 10752 10751 10750 ] final  -33.60 input  -60.55 | X-H torsion
[ 11005 11000 10999 10996 ] final -171.09 input  -57.11 | X-H torsion

> <Gold.Protein.ActiveResidues>
 VAL166  LYS551  ARG553  GLY616  TRP617  ASP618  TYR619  PRO620  LYS621  CYS622 
 ASP623  PHE694  ASN695  SER759  ASP760  ASP761  ALA762  ILE779  LEU786  VAL792 
 PHE793  MET794  SER795  GLU796  ALA797  LYS798  CYS799  TRP800  GLU811  SER814 

> <Gold.Protein.RotatedAtoms>
  151.6008  135.1047  160.0059 H   0  0  0  0  0  0  0  0  0  0  0  0  # atno 6907 bound_to 6896
  152.4258  133.7189  159.6533 H   0  0  0  0  0  0  0  0  0  0  0  0  # atno 6908 bound_to 6896
  150.8147  133.8286  159.3188 H   0  0  0  0  0  0  0  0  0  0  0  0  # atno 6909 bound_to 6896
  144.7468  139.8594  143.6379 H   0  0  0  0  0  0  0  0  0  0  0  0  # atno 7974 bound_to 7965
  154.4384  140.1046  156.6223 H   0  0  0  0  0  0  0  0  0  0  0  0  # atno 8008 bound_to 7997
  155.5694  140.3489  155.4492 H   0  0  0  0  0  0  0  0  0  0  0  0  # atno 8009 bound_to 7997
  156.0401  140.1280  157.0154 H   0  0  0  0  0  0  0  0  0  0  0  0  # atno 8010 bound_to 7997
  140.6259  143.2438  151.5363 H   0  0  0  0  0  0  0  0  0  0  0  0  # atno 10167 bound_to 10162
  157.0523  130.6275  149.5770 H   0  0  0  0  0  0  0  0  0  0  0  0  # atno 10718 bound_to 10713
  153.8328  135.6864  153.4812 H   0  0  0  0  0  0  0  0  0  0  0  0  # atno 10763 bound_to 10752
  153.1500  135.4622  154.9621 H   0  0  0  0  0  0  0  0  0  0  0  0  # atno 10764 bound_to 10752
  154.7879  135.3291  154.7790 H   0  0  0  0  0  0  0  0  0  0  0  0  # atno 10765 bound_to 10752
  140.5121  134.5791  157.5022 H   0  0  0  0  0  0  0  0  0  0  0  0  # atno 11005 bound_to 11000
  146.1359  139.4405  143.0139 LP  0  0  0  0  0  0  0  0  0  0  0  0  # atno 17320 bound_to 7965
  145.7092  141.0111  143.1462 LP  0  0  0  0  0  0  0  0  0  0  0  0  # atno 17321 bound_to 7965
  139.5480  144.2470  152.1478 LP  0  0  0  0  0  0  0  0  0  0  0  0  # atno 17342 bound_to 10162
  140.1702  144.4943  150.6584 LP  0  0  0  0  0  0  0  0  0  0  0  0  # atno 17343 bound_to 10162
  156.0004  130.5081  150.7640 LP  0  0  0  0  0  0  0  0  0  0  0  0  # atno 17370 bound_to 10713
  157.5020  131.0919  151.0302 LP  0  0  0  0  0  0  0  0  0  0  0  0  # atno 17371 bound_to 10713
  139.9653  134.7383  156.0151 LP  0  0  0  0  0  0  0  0  0  0  0  0  # atno 17394 bound_to 11000
  141.1380  133.6571  156.3648 LP  0  0  0  0  0  0  0  0  0  0  0  0  # atno 17395 bound_to 11000

$$$$
