AV-unprocessed.smi:3325|AV-procd|sdf|12784|dock1
  -GOLD-   2272019133D 1   1.00000     0.00000
 Structure written by MMmdl.
 44 45  0  0  0  0  0  0  0  0  2 V2000
  151.8610  141.3175  158.8263 C   0  0  0  0  0  0  0  0  0  0  0  0
  151.2198  142.2333  157.7730 C   0  0  0  0  0  0  0  0  0  0  0  0
  150.0713  143.0827  158.3368 C   0  0  0  0  0  0  0  0  0  0  0  0
  150.7962  141.4702  156.5553 C   0  0  0  0  0  0  0  0  0  0  0  0
  151.6609  140.7314  155.8695 N   0  0  0  0  0  0  0  0  0  0  0  0
  150.8889  140.2157  154.8190 O   0  0  0  0  0  0  0  0  0  0  0  0
  149.6380  140.6971  155.0100 C   0  0  0  0  0  0  0  0  0  0  0  0
  148.5794  140.3754  154.0071 C   0  0  0  0  0  0  0  0  0  0  0  0
  148.3139  138.8680  153.8777 C   0  0  0  0  0  0  0  0  0  0  0  0
  147.7943  138.5188  152.5395 N   0  3  0  0  0  0  0  0  0  0  0  0
  146.3211  138.5178  152.4449 C   0  0  0  0  0  0  0  0  0  0  0  0
  145.7554  137.0858  152.4228 C   0  0  0  0  0  0  0  0  0  0  0  0
  145.9983  136.3870  151.0666 C   0  0  0  0  0  0  0  0  0  0  0  0
  145.4157  134.9645  151.0471 C   0  0  0  0  0  0  0  0  0  0  0  0
  143.9185  134.9704  151.3897 C   0  0  0  0  0  0  0  0  0  0  0  0
  143.6633  135.6623  152.7367 C   0  0  0  0  0  0  0  0  0  0  0  0
  144.2484  137.0841  152.7519 C   0  0  0  0  0  0  0  0  0  0  0  0
  149.5262  141.5044  156.0613 N   0  0  0  0  0  0  0  0  0  0  0  0
  152.7168  140.7826  158.4130 H   0  0  0  0  0  0  0  0  0  0  0  0
  151.1509  140.5768  159.1949 H   0  0  0  0  0  0  0  0  0  0  0  0
  152.2138  141.8925  159.6826 H   0  0  0  0  0  0  0  0  0  0  0  0
  151.9972  142.9338  157.4627 H   0  0  0  0  0  0  0  0  0  0  0  0
  149.6911  143.7756  157.5855 H   0  0  0  0  0  0  0  0  0  0  0  0
  150.4027  143.6729  159.1916 H   0  0  0  0  0  0  0  0  0  0  0  0
  149.2399  142.4591  158.6668 H   0  0  0  0  0  0  0  0  0  0  0  0
  147.6615  140.8866  154.2996 H   0  0  0  0  0  0  0  0  0  0  0  0
  148.8704  140.7919  153.0420 H   0  0  0  0  0  0  0  0  0  0  0  0
  149.2321  138.3108  154.0691 H   0  0  0  0  0  0  0  0  0  0  0  0
  147.5879  138.5584  154.6303 H   0  0  0  0  0  0  0  0  0  0  0  0
  148.1575  139.1826  151.8701 H   0  0  0  0  0  0  0  0  0  0  0  0
  145.9232  139.0592  153.3046 H   0  0  0  0  0  0  0  0  0  0  0  0
  146.0088  139.0627  151.5530 H   0  0  0  0  0  0  0  0  0  0  0  0
  146.2622  136.5106  153.1998 H   0  0  0  0  0  0  0  0  0  0  0  0
  145.5482  136.9729  150.2635 H   0  0  0  0  0  0  0  0  0  0  0  0
  147.0657  136.3378  150.8496 H   0  0  0  0  0  0  0  0  0  0  0  0
  145.5695  134.5135  150.0663 H   0  0  0  0  0  0  0  0  0  0  0  0
  145.9523  134.3393  151.7619 H   0  0  0  0  0  0  0  0  0  0  0  0
  143.3648  135.4854  150.6034 H   0  0  0  0  0  0  0  0  0  0  0  0
  143.5385  133.9487  151.4178 H   0  0  0  0  0  0  0  0  0  0  0  0
  142.5922  135.6982  152.9383 H   0  0  0  0  0  0  0  0  0  0  0  0
  144.1087  135.0742  153.5401 H   0  0  0  0  0  0  0  0  0  0  0  0
  144.0786  137.5337  153.7307 H   0  0  0  0  0  0  0  0  0  0  0  0
  143.7125  137.7040  152.0317 H   0  0  0  0  0  0  0  0  0  0  0  0
  148.1310  137.5984  152.2937 H   0  0  0  0  0  0  0  0  0  0  0  0
  1  2  1  0  0  0  0
  1 19  1  0  0  0  0
  1 20  1  0  0  0  0
  1 21  1  0  0  0  0
  2  3  1  0  0  0  0
  2  4  1  0  0  0  0
  2 22  1  0  0  0  0
  3 23  1  0  0  0  0
  3 24  1  0  0  0  0
  3 25  1  0  0  0  0
  4 18  1  0  0  0  0
  4  5  2  0  0  0  0
  5  6  1  0  0  0  0
  6  7  1  0  0  0  0
  7  8  1  0  0  0  0
  7 18  2  0  0  0  0
  8  9  1  0  0  0  0
  8 26  1  0  0  0  0
  8 27  1  0  0  0  0
  9 10  1  0  0  0  0
  9 28  1  0  0  0  0
  9 29  1  0  0  0  0
 10 11  1  0  0  0  0
 10 30  1  0  0  0  0
 10 44  1  0  0  0  0
 11 12  1  0  0  0  0
 11 31  1  0  0  0  0
 11 32  1  0  0  0  0
 12 17  1  0  0  0  0
 12 13  1  0  0  0  0
 12 33  1  0  0  0  0
 13 14  1  0  0  0  0
 13 34  1  0  0  0  0
 13 35  1  0  0  0  0
 14 15  1  0  0  0  0
 14 36  1  0  0  0  0
 14 37  1  0  0  0  0
 15 16  1  0  0  0  0
 15 38  1  0  0  0  0
 15 39  1  0  0  0  0
 16 17  1  0  0  0  0
 16 40  1  0  0  0  0
 16 41  1  0  0  0  0
 17 42  1  0  0  0  0
 17 43  1  0  0  0  0
M  CHG  1  10   1
M  END
> <s_m_source_file>
AV-unprocessed.smi

> <i_m_source_file_index>
3325

> <i_lp_mmshare_version>
43012

> <i_f3d_flags>
0

> <s_epik_input>
W0NIM11bQ0hdKFtDSDNdKWMxbm9jKG4xKVtDSDJdW0NIMl1bTkhdW0NIMl1bQ0hdMltDSDJdW0NIMl1bQ0gyXVtDSDJdW0NIMl0y

> <s_epik_cmdline>
J2VwaWtfcHl0aG9uJywgJy1waCcsICc3LjAnLCAnLXRuJywgJzgnLCAnLW1hJywgJzIwMCcsICctbWV0YWxfYmluZGluZycsICctaW1hZScsICc8aW5maWxlLm1hZT4nLCAnLW9tYWUnLCAnPG91dGZpbGUubWFlPic=

> <r_lp_tautomer_probability>
1

> <r_epik_Ionization_Penalty>
0.00142412

> <r_epik_Ionization_Penalty_Charging>
0.00142412

> <r_epik_Ionization_Penalty_Neutral>
2.66011e-13

> <r_epik_State_Penalty>
0.000950746

> <r_epik_Charging_Adjusted_Penalty>
0.00237487

> <i_epik_Tot_Q>
1

> <i_epik_Tot_abs_Q>
1

> <r_epik_Metal_State_Penalty>
-0

> <b_epik_Metal_Only>
0

> <s_lp_Force_Field>
OPLS_2005

> <r_lp_Energy>
7.21373

> <b_lp_Chiralities_Consistent>
1

> <s_lp_Variant>
AV-unprocessed.smi:3325-1

> <Gold.Version>
5.8.1

> <Gold.Id.Protein>
6NUR|6NUR_protein|mol2

> <Gold.PLP.Fitness>
43.1483

> <Gold.PLP.PLP>
-32.6848

> <Gold.PLP.part.hbond>
-3.7646

> <Gold.PLP.part.metal>
0.0000

> <Gold.PLP.part.buried>
-0.8620

> <Gold.PLP.part.nonpolar>
-28.9841

> <Gold.PLP.part.repulsive>
0.2386

> <Gold.PLP.ligand.clash>
0.0000

> <Gold.PLP.ligand.torsion>
0.8388

> <Gold.PLP.Chemscore.Hbond>
3.9920

> <Gold.PLP.Chemscore.CHOScore>
0.0000

> <Gold.PLP.Chemscore.Metal>
0.0000

> <Gold.Chemscore.Hbonds>
donor molecule, donor type, donor heavy atom, donor atom, acceptor molecule, acceptor atom, score
      L1  H    10    30       P1  7957  0.99
      L1  H    10    44       P1  7948  2.00
      P1  H  7989  7998       L1     6  1.00

> <Gold.PLP.Chemscore.Internal.Correction>
0.1650

> <Gold.Rescore>
     Score         DG    S(hbond)    S(metal)    S(lipo)     H(rot)  DE(clash)    DE(int)     intcor
     16.72     -18.04       2.62        0.00      73.13       1.86       0.46       0.86       ----

> <Gold.Chemscore.Fitness>
16.7237

> <Gold.Chemscore.DG>
-18.0353

> <Gold.Chemscore.ZeroCoef>
-5.4800

> <Gold.Chemscore.Hbond>
2.6226

> <Gold.Chemscore.Metal>
0.0000

> <Gold.Chemscore.Lipo>
73.1334

> <Gold.Chemscore.Internal_Hbond>
0.0000

> <Gold.Chemscore.DEClash>
0.4566

> <Gold.Chemscore.DEInternal>
0.8551

> <Gold.Chemscore.Rot>
1.8597

> <Gold.Chemscore.Internal.Correction>
   9.000000E+99

> <Gold.Chemscore.Hbonds>
donor molecule, donor type, donor heavy atom, donor atom, acceptor molecule, acceptor atom, score
      L1  H    10    30       P1  7957  0.92
      L1  H    10    44       P1  7948  0.99
      P1  H  7989  7998       L1     6  0.29

> <Gold.Chemscore.Hbond.Weighted>
-8.7596

> <Gold.Chemscore.Metal.Weighted>
-0.0000

> <Gold.Chemscore.Lipo.Weighted>
-8.5566

> <Gold.Chemscore.Internal_Hbond.Weighted>
0.0000

> <Gold.Chemscore.DEClash.Weighted>
0.4566

> <Gold.Chemscore.DEInternal.Weighted>
0.8551

> <Gold.Chemscore.Rot.Weighted>
4.7610

> <Gold.Chemscore.Internal.Correction.Weighted>
   9.000000E+99

> <Gold.Protein.RotatedTorsions>
[ 6907 6896 6895 6894 ] final   63.45 input  -60.11 | X-H torsion
[ 7974 7965 7964 7962 ] final -169.82 input  175.53 | X-H torsion
[ 8008 7997 7996 7995 ] final  148.20 input   59.86 | X-H torsion
[ 10167 10162 10161 10158 ] final   16.10 input  -65.29 | X-H torsion
[ 10718 10713 10712 10709 ] final  -16.06 input   66.30 | X-H torsion
[ 10763 10752 10751 10750 ] final  -98.37 input  -60.55 | X-H torsion
[ 11005 11000 10999 10996 ] final  -22.74 input  -57.11 | X-H torsion

> <Gold.Protein.ActiveResidues>
 VAL166  LYS551  ARG553  GLY616  TRP617  ASP618  TYR619  PRO620  LYS621  CYS622 
 ASP623  PHE694  ASN695  SER759  ASP760  ASP761  ALA762  ILE779  LEU786  VAL792 
 PHE793  MET794  SER795  GLU796  ALA797  LYS798  CYS799  TRP800  GLU811  SER814 

> <Gold.Protein.RotatedAtoms>
  152.4254  134.5878  159.9965 H   0  0  0  0  0  0  0  0  0  0  0  0  # atno 6907 bound_to 6896
  151.6016  133.3350  159.3056 H   0  0  0  0  0  0  0  0  0  0  0  0  # atno 6908 bound_to 6896
  150.8144  134.7354  159.6782 H   0  0  0  0  0  0  0  0  0  0  0  0  # atno 6909 bound_to 6896
  144.7179  140.2164  143.6321 H   0  0  0  0  0  0  0  0  0  0  0  0  # atno 7974 bound_to 7965
  156.2799  140.2135  156.5660 H   0  0  0  0  0  0  0  0  0  0  0  0  # atno 8008 bound_to 7997
  154.7174  140.0506  157.0630 H   0  0  0  0  0  0  0  0  0  0  0  0  # atno 8009 bound_to 7997
  155.0524  140.3157  155.4690 H   0  0  0  0  0  0  0  0  0  0  0  0  # atno 8010 bound_to 7997
  140.5821  143.8961  150.6798 H   0  0  0  0  0  0  0  0  0  0  0  0  # atno 10167 bound_to 10162
  156.5929  130.4804  149.6271 H   0  0  0  0  0  0  0  0  0  0  0  0  # atno 10718 bound_to 10713
  154.7408  135.5012  153.9120 H   0  0  0  0  0  0  0  0  0  0  0  0  # atno 10763 bound_to 10752
  153.1041  135.6693  153.9626 H   0  0  0  0  0  0  0  0  0  0  0  0  # atno 10764 bound_to 10752
  153.9404  135.3068  155.3422 H   0  0  0  0  0  0  0  0  0  0  0  0  # atno 10765 bound_to 10752
  140.8685  133.7737  156.0159 H   0  0  0  0  0  0  0  0  0  0  0  0  # atno 11005 bound_to 11000
  145.8542  139.2190  143.1754 LP  0  0  0  0  0  0  0  0  0  0  0  0  # atno 17320 bound_to 7965
  146.0233  140.8327  142.9912 LP  0  0  0  0  0  0  0  0  0  0  0  0  # atno 17321 bound_to 7965
  140.2463  143.3626  152.1444 LP  0  0  0  0  0  0  0  0  0  0  0  0  # atno 17342 bound_to 10162
  139.5176  144.6993  151.5539 LP  0  0  0  0  0  0  0  0  0  0  0  0  # atno 17343 bound_to 10162
  156.2534  130.6920  151.1665 LP  0  0  0  0  0  0  0  0  0  0  0  0  # atno 17370 bound_to 10713
  157.7299  131.0620  150.5752 LP  0  0  0  0  0  0  0  0  0  0  0  0  # atno 17371 bound_to 10713
  140.8600  134.2852  157.5238 LP  0  0  0  0  0  0  0  0  0  0  0  0  # atno 17394 bound_to 11000
  139.8710  134.9513  156.4081 LP  0  0  0  0  0  0  0  0  0  0  0  0  # atno 17395 bound_to 11000

$$$$
