AV-unprocessed.smi:3056|AV-procd|sdf|11649|dock3
  -GOLD-   2272017 43D 1   1.00000     0.00000
 Structure written by MMmdl.
 48 49  0  0  0  0  0  0  0  0  2 V2000
  150.7346  142.4022  158.5449 C   0  0  0  0  0  0  0  0  0  0  0  0
  150.5800  141.7267  157.2127 C   0  0  0  0  0  0  0  0  0  0  0  0
  151.5267  140.9092  156.5328 C   0  0  0  0  0  0  0  0  0  0  0  0
  151.0787  140.4627  155.3713 N   0  0  0  0  0  0  0  0  0  0  0  0
  149.8329  140.9763  155.2664 N   0  0  0  0  0  0  0  0  0  0  0  0
  149.0176  140.6854  154.0940 C   0  0  2  0  0  0  0  0  0  0  0  0
  147.8367  141.6727  154.0257 C   0  0  0  0  0  0  0  0  0  0  0  0
  148.5839  139.1934  154.0471 C   0  0  2  0  0  0  0  0  0  0  0  0
  149.6965  138.2410  154.5233 C   0  0  0  0  0  0  0  0  0  0  0  0
  148.1780  138.8007  152.6759 N   0  3  0  0  0  0  0  0  0  0  0  0
  146.7171  138.7265  152.4371 C   0  0  0  0  0  0  0  0  0  0  0  0
  146.3320  137.7692  151.2956 C   0  0  0  0  0  0  0  0  0  0  0  0
  146.6455  138.0659  150.1416 O   0  0  0  0  0  0  0  0  0  0  0  0
  145.6531  136.6346  151.5895 N   0  0  0  0  0  0  0  0  0  0  0  0
  145.2713  135.5845  150.6400 C   0  0  0  0  0  0  0  0  0  0  0  0
  146.0058  134.2893  151.0284 C   0  0  0  0  0  0  0  0  0  0  0  0
  145.6847  133.9392  152.3723 O   0  0  0  0  0  0  0  0  0  0  0  0
  146.0279  134.9502  153.3183 C   0  0  2  0  0  0  0  0  0  0  0  0
  145.6610  134.4435  154.7172 C   0  0  0  0  0  0  0  0  0  0  0  0
  145.2848  136.2516  152.9558 C   0  0  0  0  0  0  0  0  0  0  0  0
  149.5073  141.7415  156.3670 C   0  0  0  0  0  0  0  0  0  0  0  0
  151.7833  142.5416  158.8082 H   0  0  0  0  0  0  0  0  0  0  0  0
  150.2768  141.8203  159.3449 H   0  0  0  0  0  0  0  0  0  0  0  0
  150.2680  143.3875  158.5553 H   0  0  0  0  0  0  0  0  0  0  0  0
  152.5209  140.6283  156.8479 H   0  0  0  0  0  0  0  0  0  0  0  0
  149.6481  140.8751  153.2237 H   0  0  0  0  0  0  0  0  0  0  0  0
  147.3019  141.5950  153.0794 H   0  0  0  0  0  0  0  0  0  0  0  0
  148.1850  142.7026  154.1107 H   0  0  0  0  0  0  0  0  0  0  0  0
  147.1213  141.4986  154.8305 H   0  0  0  0  0  0  0  0  0  0  0  0
  147.7373  139.0515  154.7210 H   0  0  0  0  0  0  0  0  0  0  0  0
  149.9612  138.4145  155.5665 H   0  0  0  0  0  0  0  0  0  0  0  0
  150.6014  138.3581  153.9261 H   0  0  0  0  0  0  0  0  0  0  0  0
  149.3816  137.2002  154.4458 H   0  0  0  0  0  0  0  0  0  0  0  0
  148.5828  139.4629  152.0302 H   0  0  0  0  0  0  0  0  0  0  0  0
  146.2100  138.4415  153.3589 H   0  0  0  0  0  0  0  0  0  0  0  0
  146.3739  139.7265  152.1708 H   0  0  0  0  0  0  0  0  0  0  0  0
  144.1921  135.4316  150.6898 H   0  0  0  0  0  0  0  0  0  0  0  0
  145.4914  135.8233  149.6012 H   0  0  0  0  0  0  0  0  0  0  0  0
  145.7061  133.4736  150.3704 H   0  0  0  0  0  0  0  0  0  0  0  0
  147.0853  134.4071  150.9209 H   0  0  0  0  0  0  0  0  0  0  0  0
  147.1055  135.1197  153.2803 H   0  0  0  0  0  0  0  0  0  0  0  0
  145.9155  135.1789  155.4806 H   0  0  0  0  0  0  0  0  0  0  0  0
  146.1969  133.5234  154.9513 H   0  0  0  0  0  0  0  0  0  0  0  0
  144.5933  134.2361  154.7948 H   0  0  0  0  0  0  0  0  0  0  0  0
  145.5158  137.0253  153.6893 H   0  0  0  0  0  0  0  0  0  0  0  0
  144.2053  136.1009  153.0082 H   0  0  0  0  0  0  0  0  0  0  0  0
  148.5483  142.2304  156.4576 H   0  0  0  0  0  0  0  0  0  0  0  0
  148.5617  137.8869  152.4793 H   0  0  0  0  0  0  0  0  0  0  0  0
  1  2  1  0  0  0  0
  1 22  1  0  0  0  0
  1 23  1  0  0  0  0
  1 24  1  0  0  0  0
  2 21  2  0  0  0  0
  2  3  1  0  0  0  0
  3  4  2  0  0  0  0
  3 25  1  0  0  0  0
  4  5  1  0  0  0  0
  5  6  1  0  0  0  0
  5 21  1  0  0  0  0
  6  7  1  0  0  0  0
  6  8  1  0  0  0  0
  6 26  1  0  0  0  0
  7 27  1  0  0  0  0
  7 28  1  0  0  0  0
  7 29  1  0  0  0  0
  8  9  1  0  0  0  0
  8 10  1  0  0  0  0
  8 30  1  0  0  0  0
  9 31  1  0  0  0  0
  9 32  1  0  0  0  0
  9 33  1  0  0  0  0
 10 11  1  0  0  0  0
 10 34  1  0  0  0  0
 10 48  1  0  0  0  0
 11 12  1  0  0  0  0
 11 35  1  0  0  0  0
 11 36  1  0  0  0  0
 12 13  2  0  0  0  0
 12 14  1  0  0  0  0
 14 20  1  0  0  0  0
 14 15  1  0  0  0  0
 15 16  1  0  0  0  0
 15 37  1  0  0  0  0
 15 38  1  0  0  0  0
 16 17  1  0  0  0  0
 16 39  1  0  0  0  0
 16 40  1  0  0  0  0
 17 18  1  0  0  0  0
 18 19  1  0  0  0  0
 18 20  1  0  0  0  0
 18 41  1  0  0  0  0
 19 42  1  0  0  0  0
 19 43  1  0  0  0  0
 19 44  1  0  0  0  0
 20 45  1  0  0  0  0
 20 46  1  0  0  0  0
 21 47  1  0  0  0  0
M  CHG  1  10   1
M  END
> <s_m_source_file>
AV-unprocessed.smi

> <i_m_source_file_index>
3056

> <i_lp_mmshare_version>
43012

> <i_f3d_flags>
0

> <s_epik_input>
W0NIM11jMVtjSF1ubihbY0hdMSlbQ0BIXShbQ0gzXSlbQ0BIXShbQ0gzXSlbTkhdW0NIMl1DKD1PKU4yW0NIMl1bQ0gyXU9bQ0BASF0oW0NIM10pW0NIMl0y

> <s_epik_cmdline>
J2VwaWtfcHl0aG9uJywgJy1waCcsICc3LjAnLCAnLXRuJywgJzgnLCAnLW1hJywgJzIwMCcsICctbWV0YWxfYmluZGluZycsICctaW1hZScsICc8aW5maWxlLm1hZT4nLCAnLW9tYWUnLCAnPG91dGZpbGUubWFlPic=

> <r_lp_tautomer_probability>
1

> <r_epik_Ionization_Penalty>
0.233715

> <r_epik_Ionization_Penalty_Charging>
0.233698

> <r_epik_Ionization_Penalty_Neutral>
1.68157e-05

> <r_epik_State_Penalty>
0.225221

> <r_epik_Charging_Adjusted_Penalty>
0.458919

> <i_epik_Tot_Q>
1

> <i_epik_Tot_abs_Q>
1

> <r_epik_Metal_State_Penalty>
0.225535

> <b_epik_Metal_Only>
0

> <s_lp_Force_Field>
OPLS_2005

> <r_lp_Energy>
28.5623

> <b_lp_Chiralities_Consistent>
1

> <s_lp_Variant>
AV-unprocessed.smi:3056-5

> <Gold.Version>
5.8.1

> <Gold.Id.Protein>
6NUR|6NUR_protein|mol2

> <Gold.PLP.Fitness>
48.7003

> <Gold.PLP.PLP>
-36.2884

> <Gold.PLP.part.hbond>
-3.8188

> <Gold.PLP.part.metal>
0.0000

> <Gold.PLP.part.buried>
-1.5908

> <Gold.PLP.part.nonpolar>
-34.1297

> <Gold.PLP.part.repulsive>
3.1967

> <Gold.PLP.ligand.clash>
0.0000

> <Gold.PLP.ligand.torsion>
1.4246

> <Gold.PLP.Chemscore.Hbond>
4.6800

> <Gold.PLP.Chemscore.CHOScore>
0.3629

> <Gold.PLP.Chemscore.Metal>
0.0000

> <Gold.Chemscore.Hbonds>
donor molecule, donor type, donor heavy atom, donor atom, acceptor molecule, acceptor atom, score
      L1  H    10    34       P1  7957  0.80
      L1  H    10    48       P1  7948  2.00
      P1  H  7954  7966       L1    13  0.70
      P1  H  7989  7998       L1     4  0.77
      L1  C    21    47       P1  8028  0.41

> <Gold.PLP.Chemscore.Internal.Correction>
0.1325

> <Gold.Rescore>
     Score         DG    S(hbond)    S(metal)    S(lipo)     H(rot)  DE(clash)    DE(int)     intcor
     16.96     -21.61       3.60        0.00      73.18       1.74       1.79       2.86       ----

> <Gold.Chemscore.Fitness>
16.9644

> <Gold.Chemscore.DG>
-21.6105

> <Gold.Chemscore.ZeroCoef>
-5.4800

> <Gold.Chemscore.Hbond>
3.5960

> <Gold.Chemscore.Metal>
0.0000

> <Gold.Chemscore.Lipo>
73.1836

> <Gold.Chemscore.Internal_Hbond>
0.0000

> <Gold.Chemscore.DEClash>
1.7859

> <Gold.Chemscore.DEInternal>
2.8602

> <Gold.Chemscore.Rot>
1.7354

> <Gold.Chemscore.Internal.Correction>
   9.000000E+99

> <Gold.Chemscore.Hbonds>
donor molecule, donor type, donor heavy atom, donor atom, acceptor molecule, acceptor atom, score
      L1  H    10    34       P1  7957  0.78
      L1  H    10    48       P1  7948  1.00
      P1  H  7954  7966       L1    13  0.56
      P1  H  7989  7998       L1     4  0.11

> <Gold.Chemscore.Hbond.Weighted>
-12.0106

> <Gold.Chemscore.Metal.Weighted>
-0.0000

> <Gold.Chemscore.Lipo.Weighted>
-8.5625

> <Gold.Chemscore.Internal_Hbond.Weighted>
0.0000

> <Gold.Chemscore.DEClash.Weighted>
1.7859

> <Gold.Chemscore.DEInternal.Weighted>
2.8602

> <Gold.Chemscore.Rot.Weighted>
4.4426

> <Gold.Chemscore.Internal.Correction.Weighted>
   9.000000E+99

> <Gold.Protein.RotatedTorsions>
[ 6907 6896 6895 6894 ] final   15.03 input  -60.11 | X-H torsion
[ 7974 7965 7964 7962 ] final -155.66 input  175.53 | X-H torsion
[ 8008 7997 7996 7995 ] final -119.83 input   59.86 | X-H torsion
[ 10167 10162 10161 10158 ] final    5.09 input  -65.29 | X-H torsion
[ 10718 10713 10712 10709 ] final   76.88 input   66.30 | X-H torsion
[ 10763 10752 10751 10750 ] final   56.07 input  -60.55 | X-H torsion
[ 11005 11000 10999 10996 ] final -165.69 input  -57.11 | X-H torsion

> <Gold.Protein.ActiveResidues>
 VAL166  LYS551  ARG553  GLY616  TRP617  ASP618  TYR619  PRO620  LYS621  CYS622 
 ASP623  PHE694  ASN695  SER759  ASP760  ASP761  ALA762  ILE779  LEU786  VAL792 
 PHE793  MET794  SER795  GLU796  ALA797  LYS798  CYS799  TRP800  GLU811  SER814 

> <Gold.Protein.RotatedAtoms>
  151.8116  135.0679  160.0413 H   0  0  0  0  0  0  0  0  0  0  0  0  # atno 6907 bound_to 6896
  152.3016  133.5657  159.5631 H   0  0  0  0  0  0  0  0  0  0  0  0  # atno 6908 bound_to 6896
  150.7276  134.0199  159.3740 H   0  0  0  0  0  0  0  0  0  0  0  0  # atno 6909 bound_to 6896
  144.7629  140.4218  143.5963 H   0  0  0  0  0  0  0  0  0  0  0  0  # atno 7974 bound_to 7965
  155.1220  140.0399  157.2752 H   0  0  0  0  0  0  0  0  0  0  0  0  # atno 8008 bound_to 7997
  154.6606  140.2590  155.7087 H   0  0  0  0  0  0  0  0  0  0  0  0  # atno 8009 bound_to 7997
  156.2617  140.2817  156.1077 H   0  0  0  0  0  0  0  0  0  0  0  0  # atno 8010 bound_to 7997
  140.6501  143.7567  150.7560 H   0  0  0  0  0  0  0  0  0  0  0  0  # atno 10167 bound_to 10162
  157.6690  130.9795  150.1561 H   0  0  0  0  0  0  0  0  0  0  0  0  # atno 10718 bound_to 10713
  152.9826  135.5689  154.5170 H   0  0  0  0  0  0  0  0  0  0  0  0  # atno 10763 bound_to 10752
  154.4664  135.2783  155.1677 H   0  0  0  0  0  0  0  0  0  0  0  0  # atno 10764 bound_to 10752
  154.3243  135.6262  153.5575 H   0  0  0  0  0  0  0  0  0  0  0  0  # atno 10765 bound_to 10752
  140.5728  134.5220  157.5165 H   0  0  0  0  0  0  0  0  0  0  0  0  # atno 11005 bound_to 11000
  145.6560  139.1573  143.2835 LP  0  0  0  0  0  0  0  0  0  0  0  0  # atno 17320 bound_to 7965
  146.1710  140.6645  142.9233 LP  0  0  0  0  0  0  0  0  0  0  0  0  # atno 17321 bound_to 7965
  140.1216  143.4607  152.2310 LP  0  0  0  0  0  0  0  0  0  0  0  0  # atno 17342 bound_to 10162
  139.5715  144.7465  151.3879 LP  0  0  0  0  0  0  0  0  0  0  0  0  # atno 17343 bound_to 10162
  156.2348  130.3685  149.8403 LP  0  0  0  0  0  0  0  0  0  0  0  0  # atno 17370 bound_to 10713
  156.6220  130.8630  151.3477 LP  0  0  0  0  0  0  0  0  0  0  0  0  # atno 17371 bound_to 10713
  139.9353  134.7886  156.0819 LP  0  0  0  0  0  0  0  0  0  0  0  0  # atno 17394 bound_to 11000
  141.1045  133.6665  156.2832 LP  0  0  0  0  0  0  0  0  0  0  0  0  # atno 17395 bound_to 11000

$$$$
