AV-unprocessed.smi:2243|AV-procd|sdf|9062|dock10
  -GOLD-   2272012273D 1   1.00000     0.00000
 Structure written by MMmdl.
 34 35  0  0  0  0  0  0  0  0  1 V2000
  146.5042  142.1562  153.6190 C   0  0  0  0  0  0  0  0  0  0  0  0
  147.2343  140.8680  153.2014 C   0  0  2  0  0  0  0  0  0  0  0  0
  146.2357  139.8066  153.0676 N   0  0  0  0  0  0  0  0  0  0  0  0
  146.3746  138.6765  152.3574 C   0  0  0  0  0  0  0  0  0  0  0  0
  147.3892  138.3862  151.7231 O   0  0  0  0  0  0  0  0  0  0  0  0
  145.2699  137.9161  152.4367 N   0  0  0  0  0  0  0  0  0  0  0  0
  145.0426  136.6564  151.8270 C   0  0  0  0  0  0  0  0  0  0  0  0
  145.9142  135.9560  151.0995 N   0  0  0  0  0  0  0  0  0  0  0  0
  145.2227  134.8104  150.7329 C   0  0  0  0  0  0  0  0  0  0  0  0
  143.9608  134.8842  151.2646 C   0  0  0  0  0  0  0  0  0  0  0  0
  143.8317  136.0544  151.9634 O   0  0  0  0  0  0  0  0  0  0  0  0
  148.3494  140.4427  154.1938 C   0  0  0  0  0  0  0  0  0  0  0  0
  149.2067  141.6342  154.6674 C   0  0  0  0  0  0  0  0  0  0  0  0
  150.3512  141.1716  155.5836 C   0  0  0  0  0  0  0  0  0  0  0  0
  151.1571  140.2120  154.9117 O   0  0  0  0  0  0  0  0  0  0  0  0
  150.4359  139.0343  154.5723 C   0  0  0  0  0  0  0  0  0  0  0  0
  149.2959  139.3770  153.5997 C   0  0  0  0  0  0  0  0  0  0  0  0
  147.1676  143.0203  153.6059 H   0  0  0  0  0  0  0  0  0  0  0  0
  146.0847  142.0689  154.6219 H   0  0  0  0  0  0  0  0  0  0  0  0
  145.6841  142.3788  152.9351 H   0  0  0  0  0  0  0  0  0  0  0  0
  147.7024  141.0586  152.2339 H   0  0  0  0  0  0  0  0  0  0  0  0
  145.3639  139.9495  153.5562 H   0  0  0  0  0  0  0  0  0  0  0  0
  144.5087  138.2755  152.9933 H   0  0  0  0  0  0  0  0  0  0  0  0
  145.6780  134.0398  150.1285 H   0  0  0  0  0  0  0  0  0  0  0  0
  143.0978  134.2354  151.2404 H   0  0  0  0  0  0  0  0  0  0  0  0
  147.8711  140.0068  155.0725 H   0  0  0  0  0  0  0  0  0  0  0  0
  149.6228  142.1566  153.8050 H   0  0  0  0  0  0  0  0  0  0  0  0
  148.5978  142.3581  155.2081 H   0  0  0  0  0  0  0  0  0  0  0  0
  150.9749  142.0218  155.8601 H   0  0  0  0  0  0  0  0  0  0  0  0
  149.9607  140.7493  156.5108 H   0  0  0  0  0  0  0  0  0  0  0  0
  151.1211  138.3243  154.1088 H   0  0  0  0  0  0  0  0  0  0  0  0
  150.0482  138.5590  155.4746 H   0  0  0  0  0  0  0  0  0  0  0  0
  148.7515  138.4632  153.3609 H   0  0  0  0  0  0  0  0  0  0  0  0
  149.7179  139.7405  152.6618 H   0  0  0  0  0  0  0  0  0  0  0  0
  1  2  1  0  0  0  0
  1 18  1  0  0  0  0
  1 19  1  0  0  0  0
  1 20  1  0  0  0  0
  2  3  1  0  0  0  0
  2 12  1  0  0  0  0
  2 21  1  0  0  0  0
  3  4  1  0  0  0  0
  3 22  1  0  0  0  0
  4  5  2  0  0  0  0
  4  6  1  0  0  0  0
  6  7  1  0  0  0  0
  6 23  1  0  0  0  0
  7 11  1  0  0  0  0
  7  8  2  0  0  0  0
  8  9  1  0  0  0  0
  9 10  2  0  0  0  0
  9 24  1  0  0  0  0
 10 11  1  0  0  0  0
 10 25  1  0  0  0  0
 12 17  1  0  0  0  0
 12 13  1  0  0  0  0
 12 26  1  0  0  0  0
 13 14  1  0  0  0  0
 13 27  1  0  0  0  0
 13 28  1  0  0  0  0
 14 15  1  0  0  0  0
 14 29  1  0  0  0  0
 14 30  1  0  0  0  0
 15 16  1  0  0  0  0
 16 17  1  0  0  0  0
 16 31  1  0  0  0  0
 16 32  1  0  0  0  0
 17 33  1  0  0  0  0
 17 34  1  0  0  0  0
M  END
> <s_m_source_file>
AV-unprocessed.smi

> <i_m_source_file_index>
2243

> <i_lp_mmshare_version>
43012

> <i_f3d_flags>
0

> <s_epik_input>
W0NIMl0xW0NIMl1PW0NIMl1bQ0gyXVtDSF0xW0NASF0oW0NIM10pW05IXUMoPU8pW05IXWMybltjSF1bY0hdbzI=

> <s_epik_cmdline>
J2VwaWtfcHl0aG9uJywgJy1waCcsICc3LjAnLCAnLXRuJywgJzgnLCAnLW1hJywgJzIwMCcsICctbWV0YWxfYmluZGluZycsICctaW1hZScsICc8aW5maWxlLm1hZT4nLCAnLW9tYWUnLCAnPG91dGZpbGUubWFlPic=

> <r_lp_tautomer_probability>
0.785861

> <r_epik_Ionization_Penalty>
5.17761e-05

> <r_epik_Ionization_Penalty_Charging>
0

> <r_epik_Ionization_Penalty_Neutral>
5.17761e-05

> <r_epik_State_Penalty>
0.0447104

> <r_epik_Charging_Adjusted_Penalty>
0.0447104

> <i_epik_Tot_Q>
0

> <i_epik_Tot_abs_Q>
0

> <r_epik_Metal_State_Penalty>
0.0593601

> <b_epik_Metal_Only>
0

> <s_lp_Force_Field>
OPLS_2005

> <r_lp_Energy>
10.6877

> <b_lp_Chiralities_Consistent>
1

> <s_lp_Variant>
AV-unprocessed.smi:2243-1

> <Gold.Version>
5.8.1

> <Gold.Id.Protein>
6NUR|6NUR_protein|mol2

> <Gold.PLP.Fitness>
38.2023

> <Gold.PLP.PLP>
-26.5068

> <Gold.PLP.part.hbond>
-5.0000

> <Gold.PLP.part.metal>
0.0000

> <Gold.PLP.part.buried>
3.2251

> <Gold.PLP.part.nonpolar>
-29.1394

> <Gold.PLP.part.repulsive>
5.7853

> <Gold.PLP.ligand.clash>
0.0000

> <Gold.PLP.ligand.torsion>
0.4867

> <Gold.PLP.Chemscore.Hbond>
2.4675

> <Gold.PLP.Chemscore.CHOScore>
1.7504

> <Gold.PLP.Chemscore.Metal>
0.0000

> <Gold.Chemscore.Hbonds>
donor molecule, donor type, donor heavy atom, donor atom, acceptor molecule, acceptor atom, score
      L1  H     3    22       P1 10175  0.35
      L1  H     6    23       P1 10175  0.04
      P1  H  7954  7966       L1     5  0.96
      P1  H  7989  7998       L1    15  1.00
      L1  C     9    24       P1  7921  0.47
      L1  C    10    25       P1 10186  0.57

> <Gold.PLP.Chemscore.Internal.Correction>
0.0151

> <Gold.Rescore>
     Score         DG    S(hbond)    S(metal)    S(lipo)     H(rot)  DE(clash)    DE(int)     intcor
      8.48     -16.74       2.13        0.00      64.35       1.32       5.10       3.17       ----

> <Gold.Chemscore.Fitness>
8.4778

> <Gold.Chemscore.DG>
-16.7431

> <Gold.Chemscore.ZeroCoef>
-5.4800

> <Gold.Chemscore.Hbond>
2.1298

> <Gold.Chemscore.Metal>
0.0000

> <Gold.Chemscore.Lipo>
64.3496

> <Gold.Chemscore.Internal_Hbond>
0.0000

> <Gold.Chemscore.DEClash>
5.0966

> <Gold.Chemscore.DEInternal>
3.1687

> <Gold.Chemscore.Rot>
1.3201

> <Gold.Chemscore.Internal.Correction>
   9.000000E+99

> <Gold.Chemscore.Hbonds>
donor molecule, donor type, donor heavy atom, donor atom, acceptor molecule, acceptor atom, score
      L1  H     3    22       P1 10175  0.33
      L1  H     6    23       P1 10175  0.05
      P1  H  7954  7966       L1     5  0.90
      P1  H  7989  7998       L1    15  0.36

> <Gold.Chemscore.Hbond.Weighted>
-7.1136

> <Gold.Chemscore.Metal.Weighted>
-0.0000

> <Gold.Chemscore.Lipo.Weighted>
-7.5289

> <Gold.Chemscore.Internal_Hbond.Weighted>
0.0000

> <Gold.Chemscore.DEClash.Weighted>
5.0966

> <Gold.Chemscore.DEInternal.Weighted>
3.1687

> <Gold.Chemscore.Rot.Weighted>
3.3794

> <Gold.Chemscore.Internal.Correction.Weighted>
   9.000000E+99

> <Gold.Protein.RotatedTorsions>
[ 6907 6896 6895 6894 ] final -105.38 input  -60.11 | X-H torsion
[ 7974 7965 7964 7962 ] final  -23.26 input  175.53 | X-H torsion
[ 8008 7997 7996 7995 ] final -162.13 input   59.86 | X-H torsion
[ 10167 10162 10161 10158 ] final  -80.97 input  -65.29 | X-H torsion
[ 10718 10713 10712 10709 ] final   30.65 input   66.30 | X-H torsion
[ 10763 10752 10751 10750 ] final   -9.59 input  -60.55 | X-H torsion
[ 11005 11000 10999 10996 ] final  -35.75 input  -57.11 | X-H torsion

> <Gold.Protein.ActiveResidues>
 VAL166  LYS551  ARG553  GLY616  TRP617  ASP618  TYR619  PRO620  LYS621  CYS622 
 ASP623  PHE694  ASN695  SER759  ASP760  ASP761  ALA762  ILE779  LEU786  VAL792 
 PHE793  MET794  SER795  GLU796  ALA797  LYS798  CYS799  TRP800  GLU811  SER814 

> <Gold.Protein.RotatedAtoms>
  150.7334  134.0135  159.3677 H   0  0  0  0  0  0  0  0  0  0  0  0  # atno 6907 bound_to 6896
  151.8095  135.0683  160.0420 H   0  0  0  0  0  0  0  0  0  0  0  0  # atno 6908 bound_to 6896
  152.3082  133.5689  159.5700 H   0  0  0  0  0  0  0  0  0  0  0  0  # atno 6909 bound_to 6896
  146.1627  140.4592  142.8565 H   0  0  0  0  0  0  0  0  0  0  0  0  # atno 7974 bound_to 7965
  155.8023  140.0893  157.1950 H   0  0  0  0  0  0  0  0  0  0  0  0  # atno 8008 bound_to 7997
  154.3981  140.1470  156.3347 H   0  0  0  0  0  0  0  0  0  0  0  0  # atno 8009 bound_to 7997
  155.8450  140.3437  155.5659 H   0  0  0  0  0  0  0  0  0  0  0  0  # atno 8010 bound_to 7997
  140.4454  143.2500  151.8565 H   0  0  0  0  0  0  0  0  0  0  0  0  # atno 10167 bound_to 10162
  157.2623  130.7167  149.6460 H   0  0  0  0  0  0  0  0  0  0  0  0  # atno 10718 bound_to 10713
  153.4570  135.7015  153.6073 H   0  0  0  0  0  0  0  0  0  0  0  0  # atno 10763 bound_to 10752
  153.4384  135.3786  155.2213 H   0  0  0  0  0  0  0  0  0  0  0  0  # atno 10764 bound_to 10752
  154.8728  135.3968  154.3990 H   0  0  0  0  0  0  0  0  0  0  0  0  # atno 10765 bound_to 10752
  140.9821  133.7051  156.1701 H   0  0  0  0  0  0  0  0  0  0  0  0  # atno 11005 bound_to 11000
  144.8049  140.6280  143.6454 LP  0  0  0  0  0  0  0  0  0  0  0  0  # atno 17320 bound_to 7965
  145.4548  139.1519  143.3898 LP  0  0  0  0  0  0  0  0  0  0  0  0  # atno 17321 bound_to 7965
  139.4792  144.5181  151.8840 LP  0  0  0  0  0  0  0  0  0  0  0  0  # atno 17342 bound_to 10162
  140.4269  144.2168  150.5887 LP  0  0  0  0  0  0  0  0  0  0  0  0  # atno 17343 bound_to 10162
  155.9664  130.4393  150.5255 LP  0  0  0  0  0  0  0  0  0  0  0  0  # atno 17370 bound_to 10713
  157.3162  131.0673  151.1965 LP  0  0  0  0  0  0  0  0  0  0  0  0  # atno 17371 bound_to 10713
  140.7171  134.4398  157.5577 LP  0  0  0  0  0  0  0  0  0  0  0  0  # atno 17394 bound_to 11000
  139.8954  134.8683  156.2132 LP  0  0  0  0  0  0  0  0  0  0  0  0  # atno 17395 bound_to 11000

$$$$
