AV-unprocessed.smi:1261|AV-procd|sdf|5305|dock6
  -GOLD-   22720 4423D 1   1.00000     0.00000
 Structure written by MMmdl.
 50 51  0  0  0  0  0  0  0  0  2 V2000
  146.8365  129.1904  151.3900 C   0  0  0  0  0  0  0  0  0  0  0  0
  146.0484  130.1514  152.2978 C   0  0  2  0  0  0  0  0  0  0  0  0
  144.9746  130.9519  151.5371 C   0  0  0  0  0  0  0  0  0  0  0  0
  145.5980  132.0610  150.6704 C   0  0  1  0  0  0  0  0  0  0  0  0
  144.5177  132.8949  149.9672 C   0  0  0  0  0  0  0  0  0  0  0  0
  146.5280  132.9460  151.5228 C   0  0  0  0  0  0  0  0  0  0  0  0
  147.5742  132.1360  152.1984 N   0  3  1  0  0  0  0  0  0  0  0  0
  148.5874  132.9764  152.8852 C   0  0  0  0  0  0  0  0  0  0  0  0
  148.0970  133.4733  154.2556 C   0  0  0  0  0  0  0  0  0  0  0  0
  149.2451  133.9884  155.1384 C   0  0  0  0  0  0  0  0  0  0  0  0
  149.6404  135.3386  154.7576 N   0  0  0  0  0  0  0  0  0  0  0  0
  150.7266  135.9864  155.2132 C   0  0  0  0  0  0  0  0  0  0  0  0
  151.4992  135.4916  156.0332 O   0  0  0  0  0  0  0  0  0  0  0  0
  151.0146  137.3973  154.6706 C   0  0  0  0  0  0  0  0  0  0  0  0
  150.8819  138.4822  155.6570 N   0  0  0  0  0  0  0  0  0  0  0  0
  149.6903  138.4605  156.3660 N   0  0  0  0  0  0  0  0  0  0  0  0
  149.4548  139.3609  157.2596 C   0  0  0  0  0  0  0  0  0  0  0  0
  148.2607  139.3042  157.9356 O   0  0  0  0  0  0  0  0  0  0  0  0
  150.4174  140.4027  157.5442 C   0  0  0  0  0  0  0  0  0  0  0  0
  151.5750  140.4165  156.8475 C   0  0  0  0  0  0  0  0  0  0  0  0
  151.8713  139.4134  155.8231 C   0  0  0  0  0  0  0  0  0  0  0  0
  152.9093  139.4114  155.1618 O   0  0  0  0  0  0  0  0  0  0  0  0
  146.9745  131.1009  153.0830 C   0  0  0  0  0  0  0  0  0  0  0  0
  148.3139  139.9748  158.5990 H   0  0  0  0  0  0  0  0  0  0  0  0
  147.4251  129.7227  150.6429 H   0  0  0  0  0  0  0  0  0  0  0  0
  146.1660  128.5115  150.8620 H   0  0  0  0  0  0  0  0  0  0  0  0
  147.5249  128.5793  151.9744 H   0  0  0  0  0  0  0  0  0  0  0  0
  145.5299  129.5265  153.0261 H   0  0  0  0  0  0  0  0  0  0  0  0
  144.3695  130.2835  150.9231 H   0  0  0  0  0  0  0  0  0  0  0  0
  144.2914  131.4023  152.2587 H   0  0  0  0  0  0  0  0  0  0  0  0
  146.1993  131.5919  149.8909 H   0  0  0  0  0  0  0  0  0  0  0  0
  143.8704  133.3964  150.6872 H   0  0  0  0  0  0  0  0  0  0  0  0
  143.8884  132.2685  149.3343 H   0  0  0  0  0  0  0  0  0  0  0  0
  144.9633  133.6605  149.3312 H   0  0  0  0  0  0  0  0  0  0  0  0
  147.0011  133.6882  150.8783 H   0  0  0  0  0  0  0  0  0  0  0  0
  145.9540  133.4954  152.2709 H   0  0  0  0  0  0  0  0  0  0  0  0
  149.4926  132.3897  153.0477 H   0  0  0  0  0  0  0  0  0  0  0  0
  148.8734  133.8126  152.2453 H   0  0  0  0  0  0  0  0  0  0  0  0
  147.3647  134.2698  154.1268 H   0  0  0  0  0  0  0  0  0  0  0  0
  147.5812  132.6624  154.7719 H   0  0  0  0  0  0  0  0  0  0  0  0
  148.9330  134.0100  156.1829 H   0  0  0  0  0  0  0  0  0  0  0  0
  150.1036  133.3167  155.0837 H   0  0  0  0  0  0  0  0  0  0  0  0
  149.0532  135.8164  154.0888 H   0  0  0  0  0  0  0  0  0  0  0  0
  152.0248  137.3944  154.2576 H   0  0  0  0  0  0  0  0  0  0  0  0
  150.3585  137.5844  153.8185 H   0  0  0  0  0  0  0  0  0  0  0  0
  150.2080  141.1477  158.2978 H   0  0  0  0  0  0  0  0  0  0  0  0
  152.3031  141.1881  157.0503 H   0  0  0  0  0  0  0  0  0  0  0  0
  146.4095  131.5950  153.8750 H   0  0  0  0  0  0  0  0  0  0  0  0
  147.7502  130.5172  153.5776 H   0  0  0  0  0  0  0  0  0  0  0  0
  148.0647  131.6465  151.4636 H   0  0  0  0  0  0  0  0  0  0  0  0
  1  2  1  0  0  0  0
  1 25  1  0  0  0  0
  1 26  1  0  0  0  0
  1 27  1  0  0  0  0
  2 23  1  0  0  0  0
  2  3  1  0  0  0  0
  2 28  1  0  0  0  0
  3  4  1  0  0  0  0
  3 29  1  0  0  0  0
  3 30  1  0  0  0  0
  4  5  1  0  0  0  0
  4  6  1  0  0  0  0
  4 31  1  0  0  0  0
  5 32  1  0  0  0  0
  5 33  1  0  0  0  0
  5 34  1  0  0  0  0
  6  7  1  0  0  0  0
  6 35  1  0  0  0  0
  6 36  1  0  0  0  0
  7  8  1  0  0  0  0
  7 23  1  0  0  0  0
  7 50  1  0  0  0  0
  8  9  1  0  0  0  0
  8 37  1  0  0  0  0
  8 38  1  0  0  0  0
  9 10  1  0  0  0  0
  9 39  1  0  0  0  0
  9 40  1  0  0  0  0
 10 11  1  0  0  0  0
 10 41  1  0  0  0  0
 10 42  1  0  0  0  0
 11 12  1  0  0  0  0
 11 43  1  0  0  0  0
 12 13  2  0  0  0  0
 12 14  1  0  0  0  0
 14 44  1  0  0  0  0
 14 45  1  0  0  0  0
 14 15  1  0  0  0  0
 15 16  1  0  0  0  0
 15 21  1  0  0  0  0
 16 17  2  0  0  0  0
 17 18  1  0  0  0  0
 17 19  1  0  0  0  0
 18 24  1  0  0  0  0
 19 46  1  0  0  0  0
 19 20  2  0  0  0  0
 20 47  1  0  0  0  0
 20 21  1  0  0  0  0
 21 22  2  0  0  0  0
 23 48  1  0  0  0  0
 23 49  1  0  0  0  0
M  CHG  1   7   1
M  END
> <s_m_source_file>
AV-unprocessed.smi

> <i_m_source_file_index>
1261

> <i_lp_mmshare_version>
43012

> <i_f3d_flags>
0

> <s_epik_input>
W0NIM11bQ0BASF0xW0NIMl1bQ0BASF0oW0NIM10pW0NIMl1OKFtDSDJdMSlbQ0gyXVtDSDJdW0NIMl1bTkhdQyg9TylbQ0gyXW4yW25IXWMoPU8pW2NIXVtjSF1jMj1P

> <s_epik_cmdline>
J2VwaWtfcHl0aG9uJywgJy1waCcsICc3LjAnLCAnLXRuJywgJzgnLCAnLW1hJywgJzIwMCcsICctbWV0YWxfYmluZGluZycsICctaW1hZScsICc8aW5maWxlLm1hZT4nLCAnLW9tYWUnLCAnPG91dGZpbGUubWFlPic=

> <r_lp_tautomer_probability>
0.9996

> <r_epik_Ionization_Penalty>
2.1425

> <r_epik_Ionization_Penalty_Charging>
0.000312112

> <r_epik_Ionization_Penalty_Neutral>
2.14218

> <r_epik_State_Penalty>
1.71978

> <r_epik_Charging_Adjusted_Penalty>
1.72009

> <i_epik_Tot_Q>
1

> <i_epik_Tot_abs_Q>
1

> <r_epik_Metal_State_Penalty>
1.71978

> <b_epik_Metal_Only>
0

> <s_lp_Force_Field>
OPLS_2005

> <r_lp_Energy>
29.6525

> <b_lp_Chiralities_Consistent>
1

> <s_lp_Variant>
AV-unprocessed.smi:1261-5

> <Gold.Version>
5.8.1

> <Gold.Id.Protein>
6NUR|6NUR_protein|mol2

> <Gold.PLP.Fitness>
55.1156

> <Gold.PLP.PLP>
-44.2506

> <Gold.PLP.part.hbond>
-5.0000

> <Gold.PLP.part.metal>
0.0000

> <Gold.PLP.part.buried>
-3.9964

> <Gold.PLP.part.nonpolar>
-35.2015

> <Gold.PLP.part.repulsive>
0.1174

> <Gold.PLP.ligand.clash>
0.0000

> <Gold.PLP.ligand.torsion>
0.4838

> <Gold.PLP.Chemscore.Hbond>
3.9120

> <Gold.PLP.Chemscore.CHOScore>
0.0000

> <Gold.PLP.Chemscore.Metal>
0.0000

> <Gold.Chemscore.Hbonds>
donor molecule, donor type, donor heavy atom, donor atom, acceptor molecule, acceptor atom, score
      L1  H     7    50       P1 10747  1.00
      L1  H    11    43       P1  7948  0.35
      P1  H  7997  8008       L1    22  1.00
      P1  H 10752 10765       L1    13  1.00

> <Gold.PLP.Chemscore.Internal.Correction>
0.0965

> <Gold.Rescore>
     Score         DG    S(hbond)    S(metal)    S(lipo)     H(rot)  DE(clash)    DE(int)     intcor
     19.75     -20.36       3.51        0.00      95.56       3.14       0.13       0.47       ----

> <Gold.Chemscore.Fitness>
19.7511

> <Gold.Chemscore.DG>
-20.3582

> <Gold.Chemscore.ZeroCoef>
-5.4800

> <Gold.Chemscore.Hbond>
3.5100

> <Gold.Chemscore.Metal>
0.0000

> <Gold.Chemscore.Lipo>
95.5625

> <Gold.Chemscore.Internal_Hbond>
0.0000

> <Gold.Chemscore.DEClash>
0.1344

> <Gold.Chemscore.DEInternal>
0.4727

> <Gold.Chemscore.Rot>
3.1352

> <Gold.Chemscore.Internal.Correction>
   9.000000E+99

> <Gold.Chemscore.Hbonds>
donor molecule, donor type, donor heavy atom, donor atom, acceptor molecule, acceptor atom, score
      L1  H     7    50       P1 10747  1.00
      L1  H    11    43       P1  7948  0.31
      P1  H  7997  8008       L1    22  0.98
      P1  H 10752 10765       L1    13  0.30

> <Gold.Chemscore.Hbond.Weighted>
-11.7234

> <Gold.Chemscore.Metal.Weighted>
-0.0000

> <Gold.Chemscore.Lipo.Weighted>
-11.1808

> <Gold.Chemscore.Internal_Hbond.Weighted>
0.0000

> <Gold.Chemscore.DEClash.Weighted>
0.1344

> <Gold.Chemscore.DEInternal.Weighted>
0.4727

> <Gold.Chemscore.Rot.Weighted>
8.0260

> <Gold.Chemscore.Internal.Correction.Weighted>
   9.000000E+99

> <Gold.Protein.RotatedTorsions>
[ 6907 6896 6895 6894 ] final -161.01 input  -60.11 | X-H torsion
[ 7974 7965 7964 7962 ] final  141.07 input  175.53 | X-H torsion
[ 8008 7997 7996 7995 ] final  -13.20 input   59.86 | X-H torsion
[ 10167 10162 10161 10158 ] final   -6.71 input  -65.29 | X-H torsion
[ 10718 10713 10712 10709 ] final   21.06 input   66.30 | X-H torsion
[ 10763 10752 10751 10750 ] final -152.12 input  -60.55 | X-H torsion
[ 11005 11000 10999 10996 ] final  133.78 input  -57.11 | X-H torsion

> <Gold.Protein.ActiveResidues>
 VAL166  LYS551  ARG553  GLY616  TRP617  ASP618  TYR619  PRO620  LYS621  CYS622 
 ASP623  PHE694  ASN695  SER759  ASP760  ASP761  ALA762  ILE779  LEU786  VAL792 
 PHE793  MET794  SER795  GLU796  ALA797  LYS798  CYS799  TRP800  GLU811  SER814 

> <Gold.Protein.RotatedAtoms>
  151.3580  133.3900  159.2686 H   0  0  0  0  0  0  0  0  0  0  0  0  # atno 6907 bound_to 6896
  150.9748  134.9115  159.7820 H   0  0  0  0  0  0  0  0  0  0  0  0  # atno 6908 bound_to 6896
  152.5197  134.3543  159.9314 H   0  0  0  0  0  0  0  0  0  0  0  0  # atno 6909 bound_to 6896
  144.9129  139.5268  143.5700 H   0  0  0  0  0  0  0  0  0  0  0  0  # atno 7974 bound_to 7965
  154.5313  140.2256  155.8800 H   0  0  0  0  0  0  0  0  0  0  0  0  # atno 8008 bound_to 7997
  156.1766  140.3110  155.9034 H   0  0  0  0  0  0  0  0  0  0  0  0  # atno 8009 bound_to 7997
  155.3446  140.0452  157.3036 H   0  0  0  0  0  0  0  0  0  0  0  0  # atno 8010 bound_to 7997
  140.7006  143.6163  150.8655 H   0  0  0  0  0  0  0  0  0  0  0  0  # atno 10167 bound_to 10162
  157.1332  130.6600  149.5958 H   0  0  0  0  0  0  0  0  0  0  0  0  # atno 10718 bound_to 10713
  154.8014  135.3243  154.7540 H   0  0  0  0  0  0  0  0  0  0  0  0  # atno 10763 bound_to 10752
  153.8207  135.6888  153.4832 H   0  0  0  0  0  0  0  0  0  0  0  0  # atno 10764 bound_to 10752
  153.1733  135.4614  154.9875 H   0  0  0  0  0  0  0  0  0  0  0  0  # atno 10765 bound_to 10752
  139.9873  134.9527  156.9774 H   0  0  0  0  0  0  0  0  0  0  0  0  # atno 11005 bound_to 11000
  146.3168  139.7950  142.8977 LP  0  0  0  0  0  0  0  0  0  0  0  0  # atno 17320 bound_to 7965
  145.3423  141.0290  143.3385 LP  0  0  0  0  0  0  0  0  0  0  0  0  # atno 17321 bound_to 7965
  139.9885  143.5873  152.2918 LP  0  0  0  0  0  0  0  0  0  0  0  0  # atno 17342 bound_to 10162
  139.6519  144.7661  151.2130 LP  0  0  0  0  0  0  0  0  0  0  0  0  # atno 17343 bound_to 10162
  155.9803  130.4803  150.6767 LP  0  0  0  0  0  0  0  0  0  0  0  0  # atno 17370 bound_to 10713
  157.4373  131.0857  151.0978 LP  0  0  0  0  0  0  0  0  0  0  0  0  # atno 17371 bound_to 10713
  140.4976  134.1129  155.7244 LP  0  0  0  0  0  0  0  0  0  0  0  0  # atno 17394 bound_to 11000
  141.1536  133.8924  157.2035 LP  0  0  0  0  0  0  0  0  0  0  0  0  # atno 17395 bound_to 11000

$$$$
