AV-unprocessed.smi:587|AV-procd|sdf|3002|dock3
  -GOLD-   2262023503D 1   1.00000     0.00000
 Structure written by MMmdl.
 46 48  0  0  0  0  0  0  0  0  1 V2000
  152.5989  138.5946  154.4596 C   0  0  0  0  0  0  0  0  0  0  0  0
  151.3320  139.0307  155.0089 N   0  0  0  0  0  0  0  0  0  0  0  0
  150.0945  138.8187  154.4053 C   0  0  0  0  0  0  0  0  0  0  0  0
  150.0642  138.1900  153.1715 N   0  0  0  0  0  0  0  0  0  0  0  0
  148.9357  139.2464  154.9788 C   0  0  0  0  0  0  0  0  0  0  0  0
  147.6767  139.0563  154.4071 N   0  0  0  0  0  0  0  0  0  0  0  0
  146.7272  138.0467  154.8733 C   0  0  0  0  0  0  0  0  0  0  0  0
  146.3342  137.0762  153.7434 C   0  0  0  0  0  0  0  0  0  0  0  0
  145.8306  137.8410  152.5095 C   0  0  0  0  0  0  0  0  0  0  0  0
  146.8605  138.8972  152.0805 C   0  0  0  0  0  0  0  0  0  0  0  0
  147.2084  139.8259  153.2555 C   0  0  0  0  0  0  0  0  0  0  0  0
  148.9566  139.9471  156.2697 C   0  0  0  0  0  0  0  0  0  0  0  0
  147.9399  140.3411  156.8469 O   0  0  0  0  0  0  0  0  0  0  0  0
  150.2289  140.1668  156.8435 N   0  0  0  0  0  0  0  0  0  0  0  0
  150.3148  140.9155  158.1184 C   0  0  0  0  0  0  0  0  0  0  0  0
  151.0995  142.2323  158.0045 C   0  0  0  0  0  0  0  0  0  0  0  0
  151.1926  142.8256  156.9286 O   0  0  0  0  0  0  0  0  0  0  0  0
  151.6594  142.6756  159.1392 N   0  0  0  0  0  0  0  0  0  0  0  0
  152.4176  143.8771  159.2742 C   0  0  0  0  0  0  0  0  0  0  0  0
  151.9083  144.9299  160.2345 C   0  0  0  0  0  0  0  0  0  0  0  0
  151.7997  145.1561  158.7517 C   0  0  0  0  0  0  0  0  0  0  0  0
  151.4229  139.7377  156.2293 C   0  0  0  0  0  0  0  0  0  0  0  0
  152.5169  139.9794  156.7486 O   0  0  0  0  0  0  0  0  0  0  0  0
  152.4351  137.9195  153.6222 H   0  0  0  0  0  0  0  0  0  0  0  0
  153.1405  138.0582  155.2410 H   0  0  0  0  0  0  0  0  0  0  0  0
  153.1341  139.4883  154.1346 H   0  0  0  0  0  0  0  0  0  0  0  0
  150.9141  137.8903  152.7155 H   0  0  0  0  0  0  0  0  0  0  0  0
  149.1981  137.8900  152.7481 H   0  0  0  0  0  0  0  0  0  0  0  0
  147.1479  137.4923  155.7131 H   0  0  0  0  0  0  0  0  0  0  0  0
  145.8405  138.5551  155.2545 H   0  0  0  0  0  0  0  0  0  0  0  0
  147.1908  136.4631  153.4638 H   0  0  0  0  0  0  0  0  0  0  0  0
  145.5663  136.3868  154.0949 H   0  0  0  0  0  0  0  0  0  0  0  0
  145.6351  137.1489  151.6899 H   0  0  0  0  0  0  0  0  0  0  0  0
  144.8824  138.3276  152.7416 H   0  0  0  0  0  0  0  0  0  0  0  0
  147.7662  138.4043  151.7245 H   0  0  0  0  0  0  0  0  0  0  0  0
  146.4734  139.4802  151.2445 H   0  0  0  0  0  0  0  0  0  0  0  0
  146.3356  140.4105  153.5499 H   0  0  0  0  0  0  0  0  0  0  0  0
  147.9709  140.5398  152.9409 H   0  0  0  0  0  0  0  0  0  0  0  0
  149.3214  141.1393  158.5099 H   0  0  0  0  0  0  0  0  0  0  0  0
  150.7705  140.3067  158.9008 H   0  0  0  0  0  0  0  0  0  0  0  0
  151.5321  142.1236  159.9752 H   0  0  0  0  0  0  0  0  0  0  0  0
  153.4996  143.7994  159.1763 H   0  0  0  0  0  0  0  0  0  0  0  0
  150.9898  144.7205  160.7800 H   0  0  0  0  0  0  0  0  0  0  0  0
  152.6503  145.5107  160.7790 H   0  0  0  0  0  0  0  0  0  0  0  0
  152.4674  145.8906  158.3055 H   0  0  0  0  0  0  0  0  0  0  0  0
  150.8074  145.0993  158.3080 H   0  0  0  0  0  0  0  0  0  0  0  0
  1  2  1  0  0  0  0
  1 24  1  0  0  0  0
  1 25  1  0  0  0  0
  1 26  1  0  0  0  0
  2 22  1  0  0  0  0
  2  3  1  0  0  0  0
  3  4  1  0  0  0  0
  3  5  2  0  0  0  0
  4 27  1  0  0  0  0
  4 28  1  0  0  0  0
  5  6  1  0  0  0  0
  5 12  1  0  0  0  0
  6 11  1  0  0  0  0
  6  7  1  0  0  0  0
  7  8  1  0  0  0  0
  7 29  1  0  0  0  0
  7 30  1  0  0  0  0
  8  9  1  0  0  0  0
  8 31  1  0  0  0  0
  8 32  1  0  0  0  0
  9 10  1  0  0  0  0
  9 33  1  0  0  0  0
  9 34  1  0  0  0  0
 10 11  1  0  0  0  0
 10 35  1  0  0  0  0
 10 36  1  0  0  0  0
 11 37  1  0  0  0  0
 11 38  1  0  0  0  0
 12 13  2  0  0  0  0
 12 14  1  0  0  0  0
 14 15  1  0  0  0  0
 14 22  1  0  0  0  0
 15 16  1  0  0  0  0
 15 39  1  0  0  0  0
 15 40  1  0  0  0  0
 16 17  2  0  0  0  0
 16 18  1  0  0  0  0
 18 19  1  0  0  0  0
 18 41  1  0  0  0  0
 19 21  1  0  0  0  0
 19 20  1  0  0  0  0
 19 42  1  0  0  0  0
 20 21  1  0  0  0  0
 20 43  1  0  0  0  0
 20 44  1  0  0  0  0
 21 45  1  0  0  0  0
 21 46  1  0  0  0  0
 22 23  2  0  0  0  0
M  END
> <s_m_source_file>
AV-unprocessed.smi

> <i_m_source_file_index>
587

> <i_lp_mmshare_version>
43012

> <i_f3d_flags>
0

> <s_epik_input>
W0NIMl0xW0NIMl1bQ0gyXVtDSDJdW0NIMl1OMWMoYyhbTkgyXSluMltDSDNdKWMoPU8pbihjMj1PKVtDSDJdQyg9TylbTkhdW0NIXTNbQ0gyXVtDSDJdMw==

> <s_epik_cmdline>
J2VwaWtfcHl0aG9uJywgJy1waCcsICc3LjAnLCAnLXRuJywgJzgnLCAnLW1hJywgJzIwMCcsICctbWV0YWxfYmluZGluZycsICctaW1hZScsICc8aW5maWxlLm1hZT4nLCAnLW9tYWUnLCAnPG91dGZpbGUubWFlPic=

> <r_lp_tautomer_probability>
0.999881

> <r_epik_Ionization_Penalty>
0.00852669

> <r_epik_Ionization_Penalty_Charging>
2.6249e-08

> <r_epik_Ionization_Penalty_Neutral>
0.00852666

> <r_epik_State_Penalty>
0.00667057

> <r_epik_Charging_Adjusted_Penalty>
0.00667059

> <i_epik_Tot_Q>
0

> <i_epik_Tot_abs_Q>
0

> <r_epik_Metal_State_Penalty>
0.00667057

> <b_epik_Metal_Only>
0

> <s_lp_Force_Field>
OPLS_2005

> <r_lp_Energy>
38.4775

> <b_lp_Chiralities_Consistent>
1

> <s_lp_Variant>
AV-unprocessed.smi:587-1

> <Gold.Version>
5.8.1

> <Gold.Id.Protein>
6NUR|6NUR_protein|mol2

> <Gold.PLP.Fitness>
44.6018

> <Gold.PLP.PLP>
-41.1703

> <Gold.PLP.part.hbond>
-4.0000

> <Gold.PLP.part.metal>
0.0000

> <Gold.PLP.part.buried>
-2.5701

> <Gold.PLP.part.nonpolar>
-34.9810

> <Gold.PLP.part.repulsive>
0.2890

> <Gold.PLP.ligand.clash>
0.0000

> <Gold.PLP.ligand.torsion>
1.7932

> <Gold.PLP.Chemscore.Hbond>
1.6885

> <Gold.PLP.Chemscore.CHOScore>
0.0000

> <Gold.PLP.Chemscore.Metal>
0.0000

> <Gold.Chemscore.Hbonds>
donor molecule, donor type, donor heavy atom, donor atom, acceptor molecule, acceptor atom, score
      L1  H     4    27       P1  7949  0.19
      L1  H     4    28       P1  7948  0.46
      P1  H  7997  8010       L1    23  1.00

> <Gold.PLP.Chemscore.Internal.Correction>
1.9524

> <Gold.Rescore>
     Score         DG    S(hbond)    S(metal)    S(lipo)     H(rot)  DE(clash)    DE(int)     intcor
     11.69     -16.15       1.50        0.00      82.35       1.56       0.11       4.35       ----

> <Gold.Chemscore.Fitness>
11.6885

> <Gold.Chemscore.DG>
-16.1501

> <Gold.Chemscore.ZeroCoef>
-5.4800

> <Gold.Chemscore.Hbond>
1.5039

> <Gold.Chemscore.Metal>
0.0000

> <Gold.Chemscore.Lipo>
82.3472

> <Gold.Chemscore.Internal_Hbond>
0.0000

> <Gold.Chemscore.DEClash>
0.1087

> <Gold.Chemscore.DEInternal>
4.3528

> <Gold.Chemscore.Rot>
1.5577

> <Gold.Chemscore.Internal.Correction>
   9.000000E+99

> <Gold.Chemscore.Hbonds>
donor molecule, donor type, donor heavy atom, donor atom, acceptor molecule, acceptor atom, score
      L1  H     4    27       P1  7949  0.04
      L1  H     4    28       P1  7948  0.45
      P1  H  7997  8010       L1    23  1.00

> <Gold.Chemscore.Hbond.Weighted>
-5.0232

> <Gold.Chemscore.Metal.Weighted>
-0.0000

> <Gold.Chemscore.Lipo.Weighted>
-9.6346

> <Gold.Chemscore.Internal_Hbond.Weighted>
0.0000

> <Gold.Chemscore.DEClash.Weighted>
0.1087

> <Gold.Chemscore.DEInternal.Weighted>
4.3528

> <Gold.Chemscore.Rot.Weighted>
3.9877

> <Gold.Chemscore.Internal.Correction.Weighted>
   9.000000E+99

> <Gold.Protein.RotatedTorsions>
[ 6907 6896 6895 6894 ] final  -95.20 input  -60.11 | X-H torsion
[ 7974 7965 7964 7962 ] final   13.16 input  175.53 | X-H torsion
[ 8008 7997 7996 7995 ] final   65.83 input   59.86 | X-H torsion
[ 10167 10162 10161 10158 ] final   62.90 input  -65.29 | X-H torsion
[ 10718 10713 10712 10709 ] final  147.63 input   66.30 | X-H torsion
[ 10763 10752 10751 10750 ] final  121.78 input  -60.55 | X-H torsion
[ 11005 11000 10999 10996 ] final   33.57 input  -57.11 | X-H torsion

> <Gold.Protein.ActiveResidues>
 VAL166  LYS551  ARG553  GLY616  TRP617  ASP618  TYR619  PRO620  LYS621  CYS622 
 ASP623  PHE694  ASN695  SER759  ASP760  ASP761  ALA762  ILE779  LEU786  VAL792 
 PHE793  MET794  SER795  GLU796  ALA797  LYS798  CYS799  TRP800  GLU811  SER814 

> <Gold.Protein.RotatedAtoms>
  150.6958  134.1694  159.4206 H   0  0  0  0  0  0  0  0  0  0  0  0  # atno 6907 bound_to 6896
  151.9672  135.0092  160.0560 H   0  0  0  0  0  0  0  0  0  0  0  0  # atno 6908 bound_to 6896
  152.1874  133.4714  159.5027 H   0  0  0  0  0  0  0  0  0  0  0  0  # atno 6909 bound_to 6896
  146.2335  139.9229  142.8507 H   0  0  0  0  0  0  0  0  0  0  0  0  # atno 7974 bound_to 7965
  155.6679  140.3497  155.4807 H   0  0  0  0  0  0  0  0  0  0  0  0  # atno 8008 bound_to 7997
  155.9713  140.1156  157.0832 H   0  0  0  0  0  0  0  0  0  0  0  0  # atno 8009 bound_to 7997
  154.4167  140.1156  156.5297 H   0  0  0  0  0  0  0  0  0  0  0  0  # atno 8010 bound_to 7997
  140.1389  144.4572  150.6822 H   0  0  0  0  0  0  0  0  0  0  0  0  # atno 10167 bound_to 10162
  157.3186  131.0900  151.1259 H   0  0  0  0  0  0  0  0  0  0  0  0  # atno 10718 bound_to 10713
  153.6195  135.3416  155.3006 H   0  0  0  0  0  0  0  0  0  0  0  0  # atno 10763 bound_to 10752
  154.8603  135.4269  154.2223 H   0  0  0  0  0  0  0  0  0  0  0  0  # atno 10764 bound_to 10752
  153.3092  135.7030  153.7204 H   0  0  0  0  0  0  0  0  0  0  0  0  # atno 10765 bound_to 10752
  140.2618  134.3184  155.7855 H   0  0  0  0  0  0  0  0  0  0  0  0  # atno 11005 bound_to 11000
  145.2119  140.9899  143.4096 LP  0  0  0  0  0  0  0  0  0  0  0  0  # atno 17320 bound_to 7965
  144.9684  139.3906  143.6321 LP  0  0  0  0  0  0  0  0  0  0  0  0  # atno 17321 bound_to 7965
  140.6772  143.2310  151.5476 LP  0  0  0  0  0  0  0  0  0  0  0  0  # atno 17342 bound_to 10162
  139.5482  144.2465  152.1481 LP  0  0  0  0  0  0  0  0  0  0  0  0  # atno 17343 bound_to 10162
  157.2552  130.6633  149.5949 LP  0  0  0  0  0  0  0  0  0  0  0  0  # atno 17370 bound_to 10713
  155.9684  130.4526  150.5779 LP  0  0  0  0  0  0  0  0  0  0  0  0  # atno 17371 bound_to 10713
  141.2189  133.7414  156.9198 LP  0  0  0  0  0  0  0  0  0  0  0  0  # atno 17394 bound_to 11000
  140.1458  134.9263  157.2527 LP  0  0  0  0  0  0  0  0  0  0  0  0  # atno 17395 bound_to 11000

$$$$
