AV-unprocessed.smi:1036|AV-procd|sdf|4517|dock3
  -GOLD-   22720 2533D 1   1.00000     0.00000
 Structure written by MMmdl.
 42 44  0  0  0  0  0  0  0  0  2 V2000
  143.9747  144.7170  153.1308 O   0  0  0  0  0  0  0  0  0  0  0  0
  145.3427  144.3833  153.2299 C   0  0  0  0  0  0  0  0  0  0  0  0
  145.5561  143.3867  154.3763 C   0  0  0  0  0  0  0  0  0  0  0  0
  145.8091  142.0433  153.8804 N   0  0  0  0  0  0  0  0  0  0  0  0
  147.0235  141.4222  154.1901 C   0  0  0  0  0  0  0  0  0  0  0  0
  148.0970  142.0156  154.7774 N   0  3  0  0  0  0  0  0  0  0  0  0
  149.1053  141.0579  154.9205 C   0  0  0  0  0  0  0  0  0  0  0  0
  150.3835  141.1584  155.4609 C   0  0  0  0  0  0  0  0  0  0  0  0
  151.1665  139.9853  155.4588 C   0  0  0  0  0  0  0  0  0  0  0  0
  150.6741  138.7729  154.9331 C   0  0  0  0  0  0  0  0  0  0  0  0
  149.3777  138.6798  154.3855 C   0  0  0  0  0  0  0  0  0  0  0  0
  148.6082  139.8427  154.3907 C   0  0  0  0  0  0  0  0  0  0  0  0
  147.3097  140.1172  153.9449 N   0  0  0  0  0  0  0  0  0  0  0  0
  146.5077  139.0460  153.3353 C   0  0  0  0  0  0  0  0  0  0  0  0
  145.5262  138.3950  154.3290 C   0  0  1  0  0  0  0  0  0  0  0  0
  144.7015  139.3912  154.9046 O   0  0  0  0  0  0  0  0  0  0  0  0
  144.7299  137.2820  153.6616 C   0  0  0  0  0  0  0  0  0  0  0  0
  145.0586  136.8417  152.3594 C   0  0  0  0  0  0  0  0  0  0  0  0
  144.3255  135.8037  151.7524 C   0  0  0  0  0  0  0  0  0  0  0  0
  144.6464  135.3887  150.5041 F   0  0  0  0  0  0  0  0  0  0  0  0
  143.2608  135.1958  152.4437 C   0  0  0  0  0  0  0  0  0  0  0  0
  142.9328  135.6234  153.7442 C   0  0  0  0  0  0  0  0  0  0  0  0
  143.6655  136.6608  154.3536 C   0  0  0  0  0  0  0  0  0  0  0  0
  143.3439  137.0528  155.6102 F   0  0  0  0  0  0  0  0  0  0  0  0
  143.4967  143.9492  152.8563 H   0  0  0  0  0  0  0  0  0  0  0  0
  145.7143  143.9962  152.2803 H   0  0  0  0  0  0  0  0  0  0  0  0
  145.8900  145.3033  153.4379 H   0  0  0  0  0  0  0  0  0  0  0  0
  146.4289  143.6939  154.9538 H   0  0  0  0  0  0  0  0  0  0  0  0
  144.7049  143.3915  155.0588 H   0  0  0  0  0  0  0  0  0  0  0  0
  145.0406  141.4980  153.5165 H   0  0  0  0  0  0  0  0  0  0  0  0
  150.7640  142.0850  155.8653 H   0  0  0  0  0  0  0  0  0  0  0  0
  152.1652  140.0159  155.8698 H   0  0  0  0  0  0  0  0  0  0  0  0
  151.3040  137.8953  154.9499 H   0  0  0  0  0  0  0  0  0  0  0  0
  149.0098  137.7459  153.9865 H   0  0  0  0  0  0  0  0  0  0  0  0
  145.9666  139.4732  152.4900 H   0  0  0  0  0  0  0  0  0  0  0  0
  147.1896  138.3040  152.9182 H   0  0  0  0  0  0  0  0  0  0  0  0
  146.0919  137.9608  155.1539 H   0  0  0  0  0  0  0  0  0  0  0  0
  144.3604  139.9362  154.2119 H   0  0  0  0  0  0  0  0  0  0  0  0
  145.8776  137.2944  151.8199 H   0  0  0  0  0  0  0  0  0  0  0  0
  142.6988  134.3995  151.9785 H   0  0  0  0  0  0  0  0  0  0  0  0
  142.1196  135.1527  154.2765 H   0  0  0  0  0  0  0  0  0  0  0  0
  148.1337  142.9868  155.0583 H   0  0  0  0  0  0  0  0  0  0  0  0
  1  2  1  0  0  0  0
  1 25  1  0  0  0  0
  2  3  1  0  0  0  0
  2 26  1  0  0  0  0
  2 27  1  0  0  0  0
  3  4  1  0  0  0  0
  3 28  1  0  0  0  0
  3 29  1  0  0  0  0
  4  5  1  0  0  0  0
  4 30  1  0  0  0  0
  5 13  1  0  0  0  0
  5  6  2  0  0  0  0
  6  7  1  0  0  0  0
  6 42  1  0  0  0  0
  7 12  2  0  0  0  0
  7  8  1  0  0  0  0
  8  9  2  0  0  0  0
  8 31  1  0  0  0  0
  9 10  1  0  0  0  0
  9 32  1  0  0  0  0
 10 11  2  0  0  0  0
 10 33  1  0  0  0  0
 11 12  1  0  0  0  0
 11 34  1  0  0  0  0
 12 13  1  0  0  0  0
 13 14  1  0  0  0  0
 14 15  1  0  0  0  0
 14 35  1  0  0  0  0
 14 36  1  0  0  0  0
 15 16  1  0  0  0  0
 15 17  1  0  0  0  0
 15 37  1  0  0  0  0
 16 38  1  0  0  0  0
 17 23  1  0  0  0  0
 17 18  2  0  0  0  0
 18 19  1  0  0  0  0
 18 39  1  0  0  0  0
 19 20  1  0  0  0  0
 19 21  2  0  0  0  0
 21 22  1  0  0  0  0
 21 40  1  0  0  0  0
 22 23  2  0  0  0  0
 22 41  1  0  0  0  0
 23 24  1  0  0  0  0
M  CHG  1   6   1
M  END
> <s_m_source_file>
AV-unprocessed.smi

> <i_m_source_file_index>
1036

> <i_lp_mmshare_version>
43012

> <i_f3d_flags>
0

> <s_epik_input>
W09IXVtDSDJdW0NIMl1bTkhdYyhuMSluKGMoYzEyKVtjSF1bY0hdW2NIXVtjSF0yKVtDSDJdW0NASF0oW09IXSljM1tjSF1jKEYpW2NIXVtjSF1jM0Y=

> <s_epik_cmdline>
J2VwaWtfcHl0aG9uJywgJy1waCcsICc3LjAnLCAnLXRuJywgJzgnLCAnLW1hJywgJzIwMCcsICctbWV0YWxfYmluZGluZycsICctaW1hZScsICc8aW5maWxlLm1hZT4nLCAnLW9tYWUnLCAnPG91dGZpbGUubWFlPic=

> <r_epik_Ionization_Penalty>
0.0688114

> <r_epik_Ionization_Penalty_Charging>
0.0688055

> <r_epik_Ionization_Penalty_Neutral>
5.85933e-06

> <r_epik_State_Penalty>
0.0602293

> <r_epik_Charging_Adjusted_Penalty>
0.129035

> <i_epik_Tot_Q>
1

> <i_epik_Tot_abs_Q>
1

> <r_epik_Metal_State_Penalty>
2.77411

> <b_epik_Metal_Only>
0

> <s_lp_Force_Field>
OPLS_2005

> <r_lp_Energy>
24.5331

> <b_lp_Chiralities_Consistent>
1

> <s_lp_Variant>
AV-unprocessed.smi:1036-2

> <Gold.Version>
5.8.1

> <Gold.Id.Protein>
6NUR|6NUR_protein|mol2

> <Gold.PLP.Fitness>
58.6705

> <Gold.PLP.PLP>
-43.4753

> <Gold.PLP.part.hbond>
-5.0000

> <Gold.PLP.part.metal>
0.0000

> <Gold.PLP.part.buried>
-6.3437

> <Gold.PLP.part.nonpolar>
-33.9041

> <Gold.PLP.part.repulsive>
0.1944

> <Gold.PLP.ligand.clash>
0.0000

> <Gold.PLP.ligand.torsion>
0.8234

> <Gold.PLP.Chemscore.Hbond>
5.6000

> <Gold.PLP.Chemscore.CHOScore>
0.0000

> <Gold.PLP.Chemscore.Metal>
0.0000

> <Gold.Chemscore.Hbonds>
donor molecule, donor type, donor heavy atom, donor atom, acceptor molecule, acceptor atom, score
      L1  H     1    25       P1 10174  1.00
      L1  H     4    30       P1 10175  1.50
      L1  H     6    42       P1  8028  2.00
      L1  H    16    38       P1 10175  1.00

> <Gold.PLP.Chemscore.Internal.Correction>
0.0420

> <Gold.Rescore>
     Score         DG    S(hbond)    S(metal)    S(lipo)     H(rot)  DE(clash)    DE(int)     intcor
     14.56     -16.80       3.06        0.00      81.28       3.29       0.03       2.21       ----

> <Gold.Chemscore.Fitness>
14.5551

> <Gold.Chemscore.DG>
-16.7968

> <Gold.Chemscore.ZeroCoef>
-5.4800

> <Gold.Chemscore.Hbond>
3.0609

> <Gold.Chemscore.Metal>
0.0000

> <Gold.Chemscore.Lipo>
81.2758

> <Gold.Chemscore.Internal_Hbond>
0.0000

> <Gold.Chemscore.DEClash>
0.0276

> <Gold.Chemscore.DEInternal>
2.2140

> <Gold.Chemscore.Rot>
3.2874

> <Gold.Chemscore.Internal.Correction>
   9.000000E+99

> <Gold.Chemscore.Hbonds>
donor molecule, donor type, donor heavy atom, donor atom, acceptor molecule, acceptor atom, score
      L1  H     1    25       P1 10174  0.98
      L1  H     4    30       P1 10175  0.09
      L1  H     6    42       P1  8028  0.95
      L1  H    16    38       P1 10175  0.99

> <Gold.Chemscore.Hbond.Weighted>
-10.2233

> <Gold.Chemscore.Metal.Weighted>
-0.0000

> <Gold.Chemscore.Lipo.Weighted>
-9.5093

> <Gold.Chemscore.Internal_Hbond.Weighted>
0.0000

> <Gold.Chemscore.DEClash.Weighted>
0.0276

> <Gold.Chemscore.DEInternal.Weighted>
2.2140

> <Gold.Chemscore.Rot.Weighted>
8.4158

> <Gold.Chemscore.Internal.Correction.Weighted>
   9.000000E+99

> <Gold.Protein.RotatedTorsions>
[ 6907 6896 6895 6894 ] final   21.82 input  -60.11 | X-H torsion
[ 7974 7965 7964 7962 ] final -130.38 input  175.53 | X-H torsion
[ 8008 7997 7996 7995 ] final -136.95 input   59.86 | X-H torsion
[ 10167 10162 10161 10158 ] final  -83.58 input  -65.29 | X-H torsion
[ 10718 10713 10712 10709 ] final -134.19 input   66.30 | X-H torsion
[ 10763 10752 10751 10750 ] final  -10.94 input  -60.55 | X-H torsion
[ 11005 11000 10999 10996 ] final  -15.21 input  -57.11 | X-H torsion

> <Gold.Protein.ActiveResidues>
 VAL166  LYS551  ARG553  GLY616  TRP617  ASP618  TYR619  PRO620  LYS621  CYS622 
 ASP623  PHE694  ASN695  SER759  ASP760  ASP761  ALA762  ILE779  LEU786  VAL792 
 PHE793  MET794  SER795  GLU796  ALA797  LYS798  CYS799  TRP800  GLU811  SER814 

> <Gold.Protein.RotatedAtoms>
  151.9177  135.0312  160.0519 H   0  0  0  0  0  0  0  0  0  0  0  0  # atno 6907 bound_to 6896
  152.2226  133.4991  159.5179 H   0  0  0  0  0  0  0  0  0  0  0  0  # atno 6908 bound_to 6896
  150.7004  134.1239  159.4087 H   0  0  0  0  0  0  0  0  0  0  0  0  # atno 6909 bound_to 6896
  144.9480  140.7313  143.4805 H   0  0  0  0  0  0  0  0  0  0  0  0  # atno 7974 bound_to 7965
  155.4037  140.0507  157.3035 H   0  0  0  0  0  0  0  0  0  0  0  0  # atno 8008 bound_to 7997
  154.4979  140.2145  155.9369 H   0  0  0  0  0  0  0  0  0  0  0  0  # atno 8009 bound_to 7997
  156.1429  140.3151  155.8529 H   0  0  0  0  0  0  0  0  0  0  0  0  # atno 8010 bound_to 7997
  140.4213  143.2583  151.8886 H   0  0  0  0  0  0  0  0  0  0  0  0  # atno 10167 bound_to 10162
  156.2528  130.7163  151.1068 H   0  0  0  0  0  0  0  0  0  0  0  0  # atno 10718 bound_to 10713
  153.4765  135.7017  153.5963 H   0  0  0  0  0  0  0  0  0  0  0  0  # atno 10763 bound_to 10752
  153.4194  135.3829  155.2102 H   0  0  0  0  0  0  0  0  0  0  0  0  # atno 10764 bound_to 10752
  154.8723  135.3924  154.4209 H   0  0  0  0  0  0  0  0  0  0  0  0  # atno 10765 bound_to 10752
  140.7943  133.8263  155.9409 H   0  0  0  0  0  0  0  0  0  0  0  0  # atno 11005 bound_to 11000
  145.2888  139.1891  143.4751 LP  0  0  0  0  0  0  0  0  0  0  0  0  # atno 17320 bound_to 7965
  146.3310  140.2861  142.8613 LP  0  0  0  0  0  0  0  0  0  0  0  0  # atno 17321 bound_to 7965
  139.4782  144.5434  151.8494 LP  0  0  0  0  0  0  0  0  0  0  0  0  # atno 17342 bound_to 10162
  140.4531  144.1828  150.5899 LP  0  0  0  0  0  0  0  0  0  0  0  0  # atno 17343 bound_to 10162
  157.7221  131.0675  150.6092 LP  0  0  0  0  0  0  0  0  0  0  0  0  # atno 17370 bound_to 10713
  156.6173  130.4396  149.5836 LP  0  0  0  0  0  0  0  0  0  0  0  0  # atno 17371 bound_to 10713
  140.9358  134.1963  157.4832 LP  0  0  0  0  0  0  0  0  0  0  0  0  # atno 17394 bound_to 11000
  139.8728  134.9852  156.5270 LP  0  0  0  0  0  0  0  0  0  0  0  0  # atno 17395 bound_to 11000

$$$$
