#       Name:                AV-unprocessed.smi:1772
#       Creating user name   scv26
#       Creation time:       Fri Mar 27 08:39:58 2020


#       File generated by GOLD software.
#

@<TRIPOS>MOLECULE
AV-unprocessed.smi:1772
    36    37     1
SMALL
NO_CHARGES


@<TRIPOS>ATOM
      1 ****         0.1330   1.5269   0.8383 O.2            1 S1                 0.0000
      2 ****        -0.3783   0.4179   0.9913 C.2            1 S1                 0.0000
      3 ****         0.3306  -0.7160   1.0848 N.am           1 S1                 0.0000
      4 ****         1.7864  -0.8008   1.0253 C.3            1 S1                 0.0000
      5 ****         2.3184  -0.7575  -0.4211 C.3            1 S1                 0.0000
      6 ****         1.7665  -1.8900  -1.3130 C.3            1 S1                 0.0000
      7 ****         2.5784  -1.9325  -2.6105 C.3            1 S1                 0.0000
      8 ****         4.2848  -1.4675  -2.1383 S.o2           1 S1                 0.0000
      9 ****         5.0960  -2.6837  -1.9769 O.2            1 S1                 0.0000
     10 ****         4.7366  -0.3640  -2.9989 O.2            1 S1                 0.0000
     11 ****         3.8533  -0.8172  -0.4788 C.3            1 S1                 0.0000
     12 ****        -1.6987   0.1749   1.0632 N.am           1 S1                 0.0000
     13 ****        -2.7722   1.1061   1.0366 C.ar           1 S1                 0.0000
     14 ****        -4.0477   0.6249   0.6659 C.ar           1 S1                 0.0000
     15 ****        -5.1456   1.5091   0.6440 C.ar           1 S1                 0.0000
     16 ****        -4.9730   2.8036   0.9868 N.pl3          1 S1                 1.0000
     17 ****        -3.7771   3.3064   1.3621 C.ar           1 S1                 0.0000
     18 ****        -2.6426   2.4703   1.4020 C.ar           1 S1                 0.0000
     19 ****        -0.1694  -1.5848   1.2057 H              1 S1                 0.0000
     20 ****         2.2290   0.0039   1.6149 H              1 S1                 0.0000
     21 ****         2.0877  -1.7322   1.5060 H              1 S1                 0.0000
     22 ****         2.0186   0.1878  -0.8763 H              1 S1                 0.0000
     23 ****         1.8813  -2.8429  -0.7946 H              1 S1                 0.0000
     24 ****         0.7030  -1.7656  -1.5191 H              1 S1                 0.0000
     25 ****         2.5712  -2.9118  -3.0896 H              1 S1                 0.0000
     26 ****         2.2111  -1.1917  -3.3211 H              1 S1                 0.0000
     27 ****         4.3201   0.1559  -0.3247 H              1 S1                 0.0000
     28 ****         4.2504  -1.5118   0.2620 H              1 S1                 0.0000
     29 ****        -1.9689  -0.7973   1.0943 H              1 S1                 0.0000
     30 ****        -4.1873  -0.4117   0.3948 H              1 S1                 0.0000
     31 ****        -6.1496   1.2213   0.3675 H              1 S1                 0.0000
     32 ****        -3.7643   4.3543   1.6242 H              1 S1                 0.0000
     33 ****        -1.7012   2.8882   1.7248 H              1 S1                 0.0000
     34 ****        -5.7806   3.4271   0.9667 H              1 S1                 0.0000
     35 ****         1.1273   1.6150   0.7775 LP             1 S1                 0.0000
     36 ****        -0.4458   2.3399   0.7749 LP             1 S1                 0.0000
@<TRIPOS>BOND
    1    1    2 2     
    2    2    3 am    
    3    2   12 am    
    4    3    4 1     
    5    3   19 1     
    6    4    5 1     
    7    4   20 1     
    8    4   21 1     
    9    5   11 1     
   10    5    6 1     
   11    5   22 1     
   12    6    7 1     
   13    6   23 1     
   14    6   24 1     
   15    7    8 1     
   16    7   25 1     
   17    7   26 1     
   18    8    9 2     
   19    8   10 2     
   20    8   11 1     
   21   11   27 1     
   22   11   28 1     
   23   12   13 1     
   24   12   29 1     
   25   13   18 ar    
   26   13   14 ar    
   27   14   15 ar    
   28   14   30 1     
   29   15   16 ar    
   30   15   31 1     
   31   16   17 ar    
   32   16   34 1     
   33   17   18 ar    
   34   17   32 1     
   35   18   33 1     
   36    1   35 1     
   37    1   36 1     
@<TRIPOS>SUBSTRUCTURE
      1 S1             1
@<TRIPOS>SET
LONE_PAIRS      STATIC     ATOMS    <user>   **** ""
4 35 36 9 10
DONOR_HYDROGENS      STATIC     ATOMS    <user>   **** ""
3 19 29 34
ATOM$BLUE        STATIC     ATOMS    COLORGROUP SYSTEM
4 35 36 9 10
ATOM$RED        STATIC     ATOMS    COLORGROUP SYSTEM
3 19 29 34
