AV-unprocessed.smi:2784|AV-procd|sdf|10733|dock1
  -GOLD-   2272015173D 1   1.00000     0.00000
 Structure written by MMmdl.
 32 33  0  0  0  0  0  0  0  0  2 V2000
  146.2209  142.4023  155.2869 C   0  0  0  0  0  0  0  0  0  0  0  0
  146.4621  142.3520  153.8897 O   0  0  0  0  0  0  0  0  0  0  0  0
  147.3519  141.3154  153.4976 C   0  0  1  0  0  0  0  0  0  0  0  0
  148.7246  141.4390  154.1718 C   0  0  0  0  0  0  0  0  0  0  0  0
  149.2239  140.0027  154.2775 C   0  0  0  0  0  0  0  0  0  0  0  0
  147.9671  139.2013  154.6130 C   0  0  0  0  0  0  0  0  0  0  0  0
  146.7963  139.9437  153.9372 C   0  0  2  0  0  0  0  0  0  0  0  0
  146.2904  139.1991  152.7862 N   0  0  0  0  0  0  0  0  0  0  0  0
  146.1050  137.8715  152.7514 C   0  0  0  0  0  0  0  0  0  0  0  0
  146.3556  137.1217  153.6956 O   0  0  0  0  0  0  0  0  0  0  0  0
  145.6189  137.4705  151.5670 N   0  0  0  0  0  0  0  0  0  0  0  0
  145.3177  136.1365  151.2082 C   0  0  0  0  0  0  0  0  0  0  0  0
  146.2083  135.1460  151.2071 N   0  3  0  0  0  0  0  0  0  0  0  0
  145.5820  133.9906  150.8101 C   0  0  0  0  0  0  0  0  0  0  0  0
  144.2735  134.3375  150.5730 C   0  0  0  0  0  0  0  0  0  0  0  0
  144.0918  135.6839  150.8193 O   0  0  0  0  0  0  0  0  0  0  0  0
  145.5614  143.2404  155.5117 H   0  0  0  0  0  0  0  0  0  0  0  0
  147.1477  142.5477  155.8431 H   0  0  0  0  0  0  0  0  0  0  0  0
  145.7364  141.4934  155.6446 H   0  0  0  0  0  0  0  0  0  0  0  0
  147.4868  141.3272  152.4138 H   0  0  0  0  0  0  0  0  0  0  0  0
  149.4100  142.0822  153.6191 H   0  0  0  0  0  0  0  0  0  0  0  0
  148.6115  141.8554  155.1738 H   0  0  0  0  0  0  0  0  0  0  0  0
  149.6233  139.6790  153.3154 H   0  0  0  0  0  0  0  0  0  0  0  0
  150.0098  139.8842  155.0241 H   0  0  0  0  0  0  0  0  0  0  0  0
  148.0567  138.1567  154.3115 H   0  0  0  0  0  0  0  0  0  0  0  0
  147.8170  139.2076  155.6936 H   0  0  0  0  0  0  0  0  0  0  0  0
  145.9939  140.0837  154.6646 H   0  0  0  0  0  0  0  0  0  0  0  0
  146.0584  139.7401  151.9659 H   0  0  0  0  0  0  0  0  0  0  0  0
  147.1897  135.1942  151.4511 H   0  0  0  0  0  0  0  0  0  0  0  0
  146.1186  133.0554  150.7363 H   0  0  0  0  0  0  0  0  0  0  0  0
  143.4025  133.7872  150.2473 H   0  0  0  0  0  0  0  0  0  0  0  0
  145.4517  138.1762  150.8652 H   0  0  0  0  0  0  0  0  0  0  0  0
  1  2  1  0  0  0  0
  1 17  1  0  0  0  0
  1 18  1  0  0  0  0
  1 19  1  0  0  0  0
  2  3  1  0  0  0  0
  3  7  1  0  0  0  0
  3  4  1  0  0  0  0
  3 20  1  0  0  0  0
  4  5  1  0  0  0  0
  4 21  1  0  0  0  0
  4 22  1  0  0  0  0
  5  6  1  0  0  0  0
  5 23  1  0  0  0  0
  5 24  1  0  0  0  0
  6  7  1  0  0  0  0
  6 25  1  0  0  0  0
  6 26  1  0  0  0  0
  7  8  1  0  0  0  0
  7 27  1  0  0  0  0
  8 28  1  0  0  0  0
  8  9  1  0  0  0  0
  9 11  1  0  0  0  0
  9 10  2  0  0  0  0
 11 12  1  0  0  0  0
 11 32  1  0  0  0  0
 12 16  1  0  0  0  0
 12 13  2  0  0  0  0
 13 29  1  0  0  0  0
 13 14  1  0  0  0  0
 14 30  1  0  0  0  0
 14 15  2  0  0  0  0
 15 31  1  0  0  0  0
 15 16  1  0  0  0  0
M  CHG  1  13   1
M  END
> <s_m_source_file>
AV-unprocessed.smi

> <i_m_source_file_index>
2784

> <i_lp_mmshare_version>
43012

> <i_f3d_flags>
0

> <s_epik_input>
W0NIM11PW0NAQEhdMVtDSDJdW0NIMl1bQ0gyXVtDQEhdMVtOSF1DKD1PKVtOSF1jMm5bY0hdW2NIXW8y

> <s_epik_cmdline>
J2VwaWtfcHl0aG9uJywgJy1waCcsICc3LjAnLCAnLXRuJywgJzgnLCAnLW1hJywgJzIwMCcsICctbWV0YWxfYmluZGluZycsICctaW1hZScsICc8aW5maWxlLm1hZT4nLCAnLW9tYWUnLCAnPG91dGZpbGUubWFlPic=

> <r_epik_Ionization_Penalty>
6.73843

> <r_epik_Ionization_Penalty_Charging>
6.66704

> <r_epik_Ionization_Penalty_Neutral>
0.0713889

> <r_epik_State_Penalty>
1.94951

> <r_epik_Charging_Adjusted_Penalty>
8.61656

> <i_epik_Tot_Q>
1

> <i_epik_Tot_abs_Q>
1

> <r_epik_Metal_State_Penalty>
1.97013

> <b_epik_Metal_Only>
0

> <s_lp_Force_Field>
OPLS_2005

> <r_lp_Energy>
26.913

> <b_lp_Chiralities_Consistent>
1

> <s_lp_Variant>
AV-unprocessed.smi:2784-8

> <Gold.Version>
5.8.1

> <Gold.Id.Protein>
6NUR|6NUR_protein|mol2

> <Gold.PLP.Fitness>
34.7709

> <Gold.PLP.PLP>
-26.2027

> <Gold.PLP.part.hbond>
-3.0000

> <Gold.PLP.part.metal>
0.0000

> <Gold.PLP.part.buried>
-4.6160

> <Gold.PLP.part.nonpolar>
-19.4037

> <Gold.PLP.part.repulsive>
1.3126

> <Gold.PLP.ligand.clash>
0.0000

> <Gold.PLP.ligand.torsion>
0.8202

> <Gold.PLP.Chemscore.Hbond>
2.5600

> <Gold.PLP.Chemscore.CHOScore>
0.8364

> <Gold.PLP.Chemscore.Metal>
0.0000

> <Gold.Chemscore.Hbonds>
donor molecule, donor type, donor heavy atom, donor atom, acceptor molecule, acceptor atom, score
      L1  H    11    32       P1 10171  0.64
      L1  H    13    29       P1  7948  1.98
      L1  C    15    31       P1 10186  0.89

> <Gold.PLP.Chemscore.Internal.Correction>
0.0195

> <Gold.Rescore>
     Score         DG    S(hbond)    S(metal)    S(lipo)     H(rot)  DE(clash)    DE(int)     intcor
     10.46     -12.92       1.59        0.00      47.51       1.34       0.20       2.26       ----

> <Gold.Chemscore.Fitness>
10.4621

> <Gold.Chemscore.DG>
-12.9201

> <Gold.Chemscore.ZeroCoef>
-5.4800

> <Gold.Chemscore.Hbond>
1.5864

> <Gold.Chemscore.Metal>
0.0000

> <Gold.Chemscore.Lipo>
47.5147

> <Gold.Chemscore.Internal_Hbond>
0.0000

> <Gold.Chemscore.DEClash>
0.2028

> <Gold.Chemscore.DEInternal>
2.2552

> <Gold.Chemscore.Rot>
1.3351

> <Gold.Chemscore.Internal.Correction>
   9.000000E+99

> <Gold.Chemscore.Hbonds>
donor molecule, donor type, donor heavy atom, donor atom, acceptor molecule, acceptor atom, score
      L1  H    11    32       P1 10171  0.64
      L1  H    13    29       P1  7948  0.79

> <Gold.Chemscore.Hbond.Weighted>
-5.2986

> <Gold.Chemscore.Metal.Weighted>
-0.0000

> <Gold.Chemscore.Lipo.Weighted>
-5.5592

> <Gold.Chemscore.Internal_Hbond.Weighted>
0.0000

> <Gold.Chemscore.DEClash.Weighted>
0.2028

> <Gold.Chemscore.DEInternal.Weighted>
2.2552

> <Gold.Chemscore.Rot.Weighted>
3.4177

> <Gold.Chemscore.Internal.Correction.Weighted>
   9.000000E+99

> <Gold.Protein.RotatedTorsions>
[ 6907 6896 6895 6894 ] final  -27.42 input  -60.11 | X-H torsion
[ 7974 7965 7964 7962 ] final -163.00 input  175.53 | X-H torsion
[ 8008 7997 7996 7995 ] final   84.51 input   59.86 | X-H torsion
[ 10167 10162 10161 10158 ] final  105.94 input  -65.29 | X-H torsion
[ 10718 10713 10712 10709 ] final -142.68 input   66.30 | X-H torsion
[ 10763 10752 10751 10750 ] final -168.53 input  -60.55 | X-H torsion
[ 11005 11000 10999 10996 ] final -105.22 input  -57.11 | X-H torsion

> <Gold.Protein.ActiveResidues>
 VAL166  LYS551  ARG553  GLY616  TRP617  ASP618  TYR619  PRO620  LYS621  CYS622 
 ASP623  PHE694  ASN695  SER759  ASP760  ASP761  ALA762  ILE779  LEU786  VAL792 
 PHE793  MET794  SER795  GLU796  ALA797  LYS798  CYS799  TRP800  GLU811  SER814 

> <Gold.Protein.RotatedAtoms>
  151.1471  135.0209  159.8651 H   0  0  0  0  0  0  0  0  0  0  0  0  # atno 6907 bound_to 6896
  152.5453  134.1432  159.8497 H   0  0  0  0  0  0  0  0  0  0  0  0  # atno 6908 bound_to 6896
  151.1513  133.4860  159.2628 H   0  0  0  0  0  0  0  0  0  0  0  0  # atno 6909 bound_to 6896
  144.7339  140.3171  143.6177 H   0  0  0  0  0  0  0  0  0  0  0  0  # atno 7974 bound_to 7965
  155.9379  140.3410  155.6303 H   0  0  0  0  0  0  0  0  0  0  0  0  # atno 8008 bound_to 7997
  155.7076  140.0768  157.2403 H   0  0  0  0  0  0  0  0  0  0  0  0  # atno 8009 bound_to 7997
  154.4097  140.1628  156.2248 H   0  0  0  0  0  0  0  0  0  0  0  0  # atno 8010 bound_to 7997
  139.7051  144.7088  151.1121 H   0  0  0  0  0  0  0  0  0  0  0  0  # atno 10167 bound_to 10162
  156.3488  130.7677  151.1826 H   0  0  0  0  0  0  0  0  0  0  0  0  # atno 10718 bound_to 10713
  154.6619  135.2926  154.9856 H   0  0  0  0  0  0  0  0  0  0  0  0  # atno 10763 bound_to 10752
  154.0913  135.6590  153.4857 H   0  0  0  0  0  0  0  0  0  0  0  0  # atno 10764 bound_to 10752
  153.0434  135.5220  154.7573 H   0  0  0  0  0  0  0  0  0  0  0  0  # atno 10765 bound_to 10752
  141.1064  133.8789  157.1708 H   0  0  0  0  0  0  0  0  0  0  0  0  # atno 11005 bound_to 11000
  145.7606  139.1823  143.2269 LP  0  0  0  0  0  0  0  0  0  0  0  0  # atno 17320 bound_to 7965
  146.0989  140.7567  142.9559 LP  0  0  0  0  0  0  0  0  0  0  0  0  # atno 17321 bound_to 7965
  140.7719  143.5370  150.9356 LP  0  0  0  0  0  0  0  0  0  0  0  0  # atno 17342 bound_to 10162
  139.9053  143.6786  152.3124 LP  0  0  0  0  0  0  0  0  0  0  0  0  # atno 17343 bound_to 10162
  157.7458  131.0433  150.4739 LP  0  0  0  0  0  0  0  0  0  0  0  0  # atno 17370 bound_to 10713
  156.4931  130.4100  149.6395 LP  0  0  0  0  0  0  0  0  0  0  0  0  # atno 17371 bound_to 10713
  139.9936  135.0055  157.0031 LP  0  0  0  0  0  0  0  0  0  0  0  0  # atno 17394 bound_to 11000
  140.4892  134.1210  155.7230 LP  0  0  0  0  0  0  0  0  0  0  0  0  # atno 17395 bound_to 11000

$$$$
