AV-unprocessed.smi:1602|AV-procd|sdf|6442|dock7
  -GOLD-   22720 7 93D 1   1.00000     0.00000
 Structure written by MMmdl.
 35 36  0  0  0  0  0  0  0  0  2 V2000
  150.7368  140.0966  158.1953 C   0  0  0  0  0  0  0  0  0  0  0  0
  152.0465  140.8991  158.1110 C   0  0  1  0  0  0  0  0  0  0  0  0
  152.3873  141.6735  159.4130 C   0  0  0  0  0  0  0  0  0  0  0  0
  151.8055  143.0098  159.5246 N   0  0  0  0  0  0  0  0  0  0  0  0
  152.3561  144.1466  160.0857 C   0  0  0  0  0  0  0  0  0  0  0  0
  151.4304  145.1454  159.9860 C   0  0  0  0  0  0  0  0  0  0  0  0
  150.3218  144.5153  159.3557 C   0  0  0  0  0  0  0  0  0  0  0  0
  150.5433  143.2386  159.0915 N   0  0  0  0  0  0  0  0  0  0  0  0
  153.1426  140.0051  157.7652 N   0  5  0  0  0  0  0  0  0  0  0  0
  153.1133  138.4628  158.2661 S   0  0  0  0  0  0  0  0  0  0  0  0
  154.4102  137.7742  158.1617 O   0  0  0  0  0  0  0  0  0  0  0  0
  152.3405  138.2844  159.5063 O   0  0  0  0  0  0  0  0  0  0  0  0
  152.1350  137.8254  156.9798 N   0  0  0  0  0  0  0  0  0  0  0  0
  151.7914  136.3950  157.0587 C   0  0  0  0  0  0  0  0  0  0  0  0
  150.7467  136.0108  155.9984 C   0  0  0  0  0  0  0  0  0  0  0  0
  151.1957  136.3906  154.7073 O   0  0  0  0  0  0  0  0  0  0  0  0
  151.3602  137.7971  154.6148 C   0  0  0  0  0  0  0  0  0  0  0  0
  152.4366  138.2716  155.6038 C   0  0  0  0  0  0  0  0  0  0  0  0
  149.9091  140.7351  158.5037 H   0  0  0  0  0  0  0  0  0  0  0  0
  150.8093  139.2754  158.9092 H   0  0  0  0  0  0  0  0  0  0  0  0
  150.4731  139.6673  157.2287 H   0  0  0  0  0  0  0  0  0  0  0  0
  151.9125  141.6543  157.3354 H   0  0  0  0  0  0  0  0  0  0  0  0
  152.0982  141.0879  160.2875 H   0  0  0  0  0  0  0  0  0  0  0  0
  153.4698  141.7874  159.4810 H   0  0  0  0  0  0  0  0  0  0  0  0
  153.3536  144.1492  160.4996 H   0  0  0  0  0  0  0  0  0  0  0  0
  151.5290  146.1687  160.3160 H   0  0  0  0  0  0  0  0  0  0  0  0
  149.3665  144.9430  159.0893 H   0  0  0  0  0  0  0  0  0  0  0  0
  152.6999  135.8076  156.9214 H   0  0  0  0  0  0  0  0  0  0  0  0
  151.4042  136.1604  158.0499 H   0  0  0  0  0  0  0  0  0  0  0  0
  150.5818  134.9333  156.0115 H   0  0  0  0  0  0  0  0  0  0  0  0
  149.7855  136.4798  156.2148 H   0  0  0  0  0  0  0  0  0  0  0  0
  151.6536  138.0514  153.5961 H   0  0  0  0  0  0  0  0  0  0  0  0
  150.4110  138.3012  154.8048 H   0  0  0  0  0  0  0  0  0  0  0  0
  152.5105  139.3578  155.5610 H   0  0  0  0  0  0  0  0  0  0  0  0
  153.4104  137.8765  155.3120 H   0  0  0  0  0  0  0  0  0  0  0  0
  1  2  1  0  0  0  0
  1 19  1  0  0  0  0
  1 20  1  0  0  0  0
  1 21  1  0  0  0  0
  2  3  1  0  0  0  0
  2  9  1  0  0  0  0
  2 22  1  0  0  0  0
  3  4  1  0  0  0  0
  3 23  1  0  0  0  0
  3 24  1  0  0  0  0
  4  8  1  0  0  0  0
  4  5  1  0  0  0  0
  5  6  2  0  0  0  0
  5 25  1  0  0  0  0
  6  7  1  0  0  0  0
  6 26  1  0  0  0  0
  7  8  2  0  0  0  0
  7 27  1  0  0  0  0
  9 10  1  0  0  0  0
 10 11  2  0  0  0  0
 10 12  2  0  0  0  0
 10 13  1  0  0  0  0
 13 18  1  0  0  0  0
 13 14  1  0  0  0  0
 14 15  1  0  0  0  0
 14 28  1  0  0  0  0
 14 29  1  0  0  0  0
 15 16  1  0  0  0  0
 15 30  1  0  0  0  0
 15 31  1  0  0  0  0
 16 17  1  0  0  0  0
 17 18  1  0  0  0  0
 17 32  1  0  0  0  0
 17 33  1  0  0  0  0
 18 34  1  0  0  0  0
 18 35  1  0  0  0  0
M  CHG  1   9  -1
M  END
> <s_m_source_file>
AV-unprocessed.smi

> <i_m_source_file_index>
1602

> <i_lp_mmshare_version>
43012

> <i_f3d_flags>
0

> <s_epik_input>
bjFbY0hdW2NIXVtjSF1uMVtDSDJdW0NAQEhdKFtDSDNdKVtOSF1TKD1PKSg9TylOMltDSDJdW0NIMl1PW0NIMl1bQ0gyXTI=

> <s_epik_cmdline>
J2VwaWtfcHl0aG9uJywgJy1waCcsICc3LjAnLCAnLXRuJywgJzgnLCAnLW1hJywgJzIwMCcsICctbWV0YWxfYmluZGluZycsICctaW1hZScsICc8aW5maWxlLm1hZT4nLCAnLW9tYWUnLCAnPG91dGZpbGUubWFlPic=

> <r_lp_tautomer_probability>
1

> <r_epik_Ionization_Penalty>
1.03144

> <r_epik_Ionization_Penalty_Charging>
1.03142

> <r_epik_Ionization_Penalty_Neutral>
2.21579e-05

> <r_epik_State_Penalty>
1.0826

> <r_epik_Charging_Adjusted_Penalty>
2.11402

> <i_epik_Tot_Q>
-1

> <i_epik_Tot_abs_Q>
1

> <r_epik_Metal_State_Penalty>
0.386234

> <b_epik_Metal_Only>
0

> <s_lp_Force_Field>
OPLS_2005

> <r_lp_Energy>
7.84511

> <b_lp_Chiralities_Consistent>
1

> <s_lp_Variant>
AV-unprocessed.smi:1602-4

> <Gold.Version>
5.8.1

> <Gold.Id.Protein>
6NUR|6NUR_protein|mol2

> <Gold.PLP.Fitness>
40.1588

> <Gold.PLP.PLP>
-30.3762

> <Gold.PLP.part.hbond>
-2.0000

> <Gold.PLP.part.metal>
0.0000

> <Gold.PLP.part.buried>
-4.7763

> <Gold.PLP.part.nonpolar>
-24.7915

> <Gold.PLP.part.repulsive>
0.3345

> <Gold.PLP.ligand.clash>
0.0000

> <Gold.PLP.ligand.torsion>
1.8676

> <Gold.PLP.Chemscore.Hbond>
3.0000

> <Gold.PLP.Chemscore.CHOScore>
1.0000

> <Gold.PLP.Chemscore.Metal>
0.0000

> <Gold.Chemscore.Hbonds>
donor molecule, donor type, donor heavy atom, donor atom, acceptor molecule, acceptor atom, score
      P1  H  7997  8009       L1     9  2.00
      P1  H 10752 10765       L1    16  1.00
      L1  C     7    27       P1  8029  0.98

> <Gold.PLP.Chemscore.Internal.Correction>
1.5178

> <Gold.Rescore>
     Score         DG    S(hbond)    S(metal)    S(lipo)     H(rot)  DE(clash)    DE(int)     intcor
     10.63     -14.96       1.52        0.00      74.18       1.67       0.03       4.29       ----

> <Gold.Chemscore.Fitness>
10.6301

> <Gold.Chemscore.DG>
-14.9559

> <Gold.Chemscore.ZeroCoef>
-5.4800

> <Gold.Chemscore.Hbond>
1.5177

> <Gold.Chemscore.Metal>
0.0000

> <Gold.Chemscore.Lipo>
74.1805

> <Gold.Chemscore.Internal_Hbond>
0.0000

> <Gold.Chemscore.DEClash>
0.0324

> <Gold.Chemscore.DEInternal>
4.2934

> <Gold.Chemscore.Rot>
1.6688

> <Gold.Chemscore.Internal.Correction>
   9.000000E+99

> <Gold.Chemscore.Hbonds>
donor molecule, donor type, donor heavy atom, donor atom, acceptor molecule, acceptor atom, score
      P1  H  7997  8009       L1     9  0.47
      P1  H 10752 10765       L1    16  0.36

> <Gold.Chemscore.Hbond.Weighted>
-5.0690

> <Gold.Chemscore.Metal.Weighted>
-0.0000

> <Gold.Chemscore.Lipo.Weighted>
-8.6791

> <Gold.Chemscore.Internal_Hbond.Weighted>
0.0000

> <Gold.Chemscore.DEClash.Weighted>
0.0324

> <Gold.Chemscore.DEInternal.Weighted>
4.2934

> <Gold.Chemscore.Rot.Weighted>
4.2722

> <Gold.Chemscore.Internal.Correction.Weighted>
   9.000000E+99

> <Gold.Protein.RotatedTorsions>
[ 6907 6896 6895 6894 ] final  -43.60 input  -60.11 | X-H torsion
[ 7974 7965 7964 7962 ] final  -64.26 input  175.53 | X-H torsion
[ 8008 7997 7996 7995 ] final  175.07 input   59.86 | X-H torsion
[ 10167 10162 10161 10158 ] final -165.24 input  -65.29 | X-H torsion
[ 10718 10713 10712 10709 ] final  151.07 input   66.30 | X-H torsion
[ 10763 10752 10751 10750 ] final  172.03 input  -60.55 | X-H torsion
[ 11005 11000 10999 10996 ] final -172.19 input  -57.11 | X-H torsion

> <Gold.Protein.ActiveResidues>
 VAL166  LYS551  ARG553  GLY616  TRP617  ASP618  TYR619  PRO620  LYS621  CYS622 
 ASP623  PHE694  ASN695  SER759  ASP760  ASP761  ALA762  ILE779  LEU786  VAL792 
 PHE793  MET794  SER795  GLU796  ALA797  LYS798  CYS799  TRP800  GLU811  SER814 

> <Gold.Protein.RotatedAtoms>
  150.9421  134.8829  159.7618 H   0  0  0  0  0  0  0  0  0  0  0  0  # atno 6907 bound_to 6896
  152.5085  134.3926  159.9399 H   0  0  0  0  0  0  0  0  0  0  0  0  # atno 6908 bound_to 6896
  151.3947  133.3737  159.2760 H   0  0  0  0  0  0  0  0  0  0  0  0  # atno 6909 bound_to 6896
  145.7690  140.8823  143.0390 H   0  0  0  0  0  0  0  0  0  0  0  0  # atno 7974 bound_to 7965
  156.0909  140.1418  156.9593 H   0  0  0  0  0  0  0  0  0  0  0  0  # atno 8008 bound_to 7997
  154.4641  140.0932  156.7021 H   0  0  0  0  0  0  0  0  0  0  0  0  # atno 8009 bound_to 7997
  155.4921  140.3448  155.4359 H   0  0  0  0  0  0  0  0  0  0  0  0  # atno 8010 bound_to 7997
  139.6195  144.0652  152.1919 H   0  0  0  0  0  0  0  0  0  0  0  0  # atno 10167 bound_to 10162
  157.2754  131.0825  151.1570 H   0  0  0  0  0  0  0  0  0  0  0  0  # atno 10718 bound_to 10713
  154.4203  135.2758  155.1979 H   0  0  0  0  0  0  0  0  0  0  0  0  # atno 10763 bound_to 10752
  154.3928  135.6062  153.5856 H   0  0  0  0  0  0  0  0  0  0  0  0  # atno 10764 bound_to 10752
  152.9833  135.5907  154.4499 H   0  0  0  0  0  0  0  0  0  0  0  0  # atno 10765 bound_to 10752
  140.4998  134.5904  157.4984 H   0  0  0  0  0  0  0  0  0  0  0  0  # atno 11005 bound_to 11000
  144.6816  139.9828  143.7483 LP  0  0  0  0  0  0  0  0  0  0  0  0  # atno 17320 bound_to 7965
  146.0189  139.3234  143.0825 LP  0  0  0  0  0  0  0  0  0  0  0  0  # atno 17321 bound_to 7965
  140.0291  144.6095  150.7503 LP  0  0  0  0  0  0  0  0  0  0  0  0  # atno 17342 bound_to 10162
  140.7373  143.2763  151.3731 LP  0  0  0  0  0  0  0  0  0  0  0  0  # atno 17343 bound_to 10162
  157.3025  130.6850  149.6172 LP  0  0  0  0  0  0  0  0  0  0  0  0  # atno 17370 bound_to 10713
  155.9663  130.4388  150.5231 LP  0  0  0  0  0  0  0  0  0  0  0  0  # atno 17371 bound_to 10713
  139.9720  134.7277  156.0023 LP  0  0  0  0  0  0  0  0  0  0  0  0  # atno 17394 bound_to 11000
  141.1441  133.6559  156.3816 LP  0  0  0  0  0  0  0  0  0  0  0  0  # atno 17395 bound_to 11000

$$$$
