AV-unprocessed.smi:3138|AV-procd|sdf|11955|dock3
  -GOLD-   2272017353D 1   1.00000     0.00000
 Structure written by MMmdl.
 37 38  0  0  0  0  0  0  0  0  1 V2000
  151.5462  140.5999  157.9835 O   0  0  0  0  0  0  0  0  0  0  0  0
  151.2488  141.7837  158.1563 C   0  0  0  0  0  0  0  0  0  0  0  0
  149.9484  142.3251  157.5367 C   0  0  0  0  0  0  0  0  0  0  0  0
  149.8341  142.0552  156.0975 N   0  0  0  0  0  0  0  0  0  0  0  0
  148.8580  141.0055  155.8480 C   0  0  0  0  0  0  0  0  0  0  0  0
  149.1456  140.3519  154.4890 C   0  0  0  0  0  0  0  0  0  0  0  0
  150.3056  139.4836  154.5496 N   0  0  0  0  0  0  0  0  0  0  0  0
  150.3813  138.1362  154.2672 C   0  0  0  0  0  0  0  0  0  0  0  0
  151.6756  137.7510  154.4698 C   0  0  0  0  0  0  0  0  0  0  0  0
  152.3236  138.9485  154.8833 C   0  0  0  0  0  0  0  0  0  0  0  0
  151.5005  139.9835  154.9318 N   0  0  0  0  0  0  0  0  0  0  0  0
  152.0366  142.6280  158.8670 N   0  0  0  0  0  0  0  0  0  0  0  0
  151.6598  144.0208  159.1428 C   0  0  0  0  0  0  0  0  0  0  0  0
  151.3343  144.1594  160.6416 C   0  0  0  0  0  0  0  0  0  0  0  0
  152.5181  143.6931  161.5105 C   0  0  0  0  0  0  0  0  0  0  0  0
  153.0275  142.3044  161.0804 C   0  0  0  0  0  0  0  0  0  0  0  0
  153.2776  142.2577  159.5620 C   0  0  0  0  0  0  0  0  0  0  0  0
  149.1006  141.8715  158.0521 H   0  0  0  0  0  0  0  0  0  0  0  0
  149.9045  143.4030  157.7002 H   0  0  0  0  0  0  0  0  0  0  0  0
  149.5690  142.8867  155.5889 H   0  0  0  0  0  0  0  0  0  0  0  0
  148.9040  140.2591  156.6427 H   0  0  0  0  0  0  0  0  0  0  0  0
  147.8519  141.4281  155.8510 H   0  0  0  0  0  0  0  0  0  0  0  0
  148.2904  139.7585  154.1624 H   0  0  0  0  0  0  0  0  0  0  0  0
  149.3142  141.1118  153.7241 H   0  0  0  0  0  0  0  0  0  0  0  0
  149.5176  137.5702  153.9501 H   0  0  0  0  0  0  0  0  0  0  0  0
  152.0956  136.7643  154.3433 H   0  0  0  0  0  0  0  0  0  0  0  0
  153.3603  139.0948  155.1483 H   0  0  0  0  0  0  0  0  0  0  0  0
  152.4870  144.6796  158.8750 H   0  0  0  0  0  0  0  0  0  0  0  0
  150.8095  144.3569  158.5481 H   0  0  0  0  0  0  0  0  0  0  0  0
  151.0818  145.1933  160.8778 H   0  0  0  0  0  0  0  0  0  0  0  0
  150.4517  143.5631  160.8774 H   0  0  0  0  0  0  0  0  0  0  0  0
  153.3312  144.4142  161.4197 H   0  0  0  0  0  0  0  0  0  0  0  0
  152.2327  143.6819  162.5627 H   0  0  0  0  0  0  0  0  0  0  0  0
  153.9422  142.0593  161.6204 H   0  0  0  0  0  0  0  0  0  0  0  0
  152.2936  141.5444  161.3520 H   0  0  0  0  0  0  0  0  0  0  0  0
  153.6652  141.2801  159.2806 H   0  0  0  0  0  0  0  0  0  0  0  0
  154.0624  142.9665  159.2931 H   0  0  0  0  0  0  0  0  0  0  0  0
  1  2  2  0  0  0  0
  2  3  1  0  0  0  0
  2 12  1  0  0  0  0
  3  4  1  0  0  0  0
  3 18  1  0  0  0  0
  3 19  1  0  0  0  0
  4  5  1  0  0  0  0
  4 20  1  0  0  0  0
  5  6  1  0  0  0  0
  5 21  1  0  0  0  0
  5 22  1  0  0  0  0
  6  7  1  0  0  0  0
  6 23  1  0  0  0  0
  6 24  1  0  0  0  0
  7 11  1  0  0  0  0
  7  8  1  0  0  0  0
  8  9  2  0  0  0  0
  8 25  1  0  0  0  0
  9 10  1  0  0  0  0
  9 26  1  0  0  0  0
 10 11  2  0  0  0  0
 10 27  1  0  0  0  0
 12 17  1  0  0  0  0
 12 13  1  0  0  0  0
 13 14  1  0  0  0  0
 13 28  1  0  0  0  0
 13 29  1  0  0  0  0
 14 15  1  0  0  0  0
 14 30  1  0  0  0  0
 14 31  1  0  0  0  0
 15 16  1  0  0  0  0
 15 32  1  0  0  0  0
 15 33  1  0  0  0  0
 16 17  1  0  0  0  0
 16 34  1  0  0  0  0
 16 35  1  0  0  0  0
 17 36  1  0  0  0  0
 17 37  1  0  0  0  0
M  END
> <s_m_source_file>
AV-unprocessed.smi

> <i_m_source_file_index>
3138

> <i_lp_mmshare_version>
43012

> <i_f3d_flags>
0

> <s_epik_input>
W0NIMl0xW0NIMl1bQ0gyXVtDSDJdW0NIMl1OMUMoPU8pW0NIMl1bTkhdW0NIMl1bQ0gyXW4yW2NIXVtjSF1bY0hdbjI=

> <s_epik_cmdline>
J2VwaWtfcHl0aG9uJywgJy1waCcsICc3LjAnLCAnLXRuJywgJzgnLCAnLW1hJywgJzIwMCcsICctbWV0YWxfYmluZGluZycsICctaW1hZScsICc8aW5maWxlLm1hZT4nLCAnLW9tYWUnLCAnPG91dGZpbGUubWFlPic=

> <r_lp_tautomer_probability>
1

> <r_epik_Ionization_Penalty>
0.737271

> <r_epik_Ionization_Penalty_Charging>
0

> <r_epik_Ionization_Penalty_Neutral>
0.737271

> <r_epik_State_Penalty>
0.761204

> <r_epik_Charging_Adjusted_Penalty>
0.761204

> <i_epik_Tot_Q>
0

> <i_epik_Tot_abs_Q>
0

> <r_epik_Metal_State_Penalty>
0.759956

> <b_epik_Metal_Only>
0

> <s_lp_Force_Field>
OPLS_2005

> <r_lp_Energy>
25.4177

> <b_lp_Chiralities_Consistent>
1

> <s_lp_Variant>
AV-unprocessed.smi:3138-2

> <Gold.Version>
5.8.1

> <Gold.Id.Protein>
6NUR|6NUR_protein|mol2

> <Gold.PLP.Fitness>
50.0714

> <Gold.PLP.PLP>
-43.0394

> <Gold.PLP.part.hbond>
-2.0000

> <Gold.PLP.part.metal>
0.0000

> <Gold.PLP.part.buried>
-4.7116

> <Gold.PLP.part.nonpolar>
-36.9569

> <Gold.PLP.part.repulsive>
0.0551

> <Gold.PLP.ligand.clash>
0.0000

> <Gold.PLP.ligand.torsion>
0.5551

> <Gold.PLP.Chemscore.Hbond>
1.7000

> <Gold.PLP.Chemscore.CHOScore>
1.0000

> <Gold.PLP.Chemscore.Metal>
0.0000

> <Gold.Chemscore.Hbonds>
donor molecule, donor type, donor heavy atom, donor atom, acceptor molecule, acceptor atom, score
      L1  H     4    20       P1  8028  0.96
      P1  H  7989  7998       L1    11  0.60
      L1  C     8    25       P1  7948  1.00

> <Gold.PLP.Chemscore.Internal.Correction>
0.0422

> <Gold.Rescore>
     Score         DG    S(hbond)    S(metal)    S(lipo)     H(rot)  DE(clash)    DE(int)     intcor
     15.45     -16.15       1.04        0.00     100.30       1.77       0.09       0.61       ----

> <Gold.Chemscore.Fitness>
15.4460

> <Gold.Chemscore.DG>
-16.1477

> <Gold.Chemscore.ZeroCoef>
-5.4800

> <Gold.Chemscore.Hbond>
1.0376

> <Gold.Chemscore.Metal>
0.0000

> <Gold.Chemscore.Lipo>
100.3015

> <Gold.Chemscore.Internal_Hbond>
0.0000

> <Gold.Chemscore.DEClash>
0.0906

> <Gold.Chemscore.DEInternal>
0.6111

> <Gold.Chemscore.Rot>
1.7707

> <Gold.Chemscore.Internal.Correction>
   9.000000E+99

> <Gold.Chemscore.Hbonds>
donor molecule, donor type, donor heavy atom, donor atom, acceptor molecule, acceptor atom, score
      L1  H     4    20       P1  8028  0.91
      P1  H  7989  7998       L1    11  0.03

> <Gold.Chemscore.Hbond.Weighted>
-3.4655

> <Gold.Chemscore.Metal.Weighted>
-0.0000

> <Gold.Chemscore.Lipo.Weighted>
-11.7353

> <Gold.Chemscore.Internal_Hbond.Weighted>
0.0000

> <Gold.Chemscore.DEClash.Weighted>
0.0906

> <Gold.Chemscore.DEInternal.Weighted>
0.6111

> <Gold.Chemscore.Rot.Weighted>
4.5331

> <Gold.Chemscore.Internal.Correction.Weighted>
   9.000000E+99

> <Gold.Protein.RotatedTorsions>
[ 6907 6896 6895 6894 ] final -110.01 input  -60.11 | X-H torsion
[ 7974 7965 7964 7962 ] final -147.94 input  175.53 | X-H torsion
[ 8008 7997 7996 7995 ] final -137.44 input   59.86 | X-H torsion
[ 10167 10162 10161 10158 ] final  114.10 input  -65.29 | X-H torsion
[ 10718 10713 10712 10709 ] final  -53.10 input   66.30 | X-H torsion
[ 10763 10752 10751 10750 ] final -175.54 input  -60.55 | X-H torsion
[ 11005 11000 10999 10996 ] final  -62.47 input  -57.11 | X-H torsion

> <Gold.Protein.ActiveResidues>
 VAL166  LYS551  ARG553  GLY616  TRP617  ASP618  TYR619  PRO620  LYS621  CYS622 
 ASP623  PHE694  ASN695  SER759  ASP760  ASP761  ALA762  ILE779  LEU786  VAL792 
 PHE793  MET794  SER795  GLU796  ALA797  LYS798  CYS799  TRP800  GLU811  SER814 

> <Gold.Protein.RotatedAtoms>
  150.7597  133.9445  159.3466 H   0  0  0  0  0  0  0  0  0  0  0  0  # atno 6907 bound_to 6896
  151.7357  135.0863  160.0317 H   0  0  0  0  0  0  0  0  0  0  0  0  # atno 6908 bound_to 6896
  152.3561  133.6201  159.6016 H   0  0  0  0  0  0  0  0  0  0  0  0  # atno 6909 bound_to 6896
  144.8061  140.5262  143.5674 H   0  0  0  0  0  0  0  0  0  0  0  0  # atno 7974 bound_to 7965
  155.4118  140.0512  157.3031 H   0  0  0  0  0  0  0  0  0  0  0  0  # atno 8008 bound_to 7997
  154.4943  140.2132  155.9441 H   0  0  0  0  0  0  0  0  0  0  0  0  # atno 8009 bound_to 7997
  156.1384  140.3159  155.8462 H   0  0  0  0  0  0  0  0  0  0  0  0  # atno 8010 bound_to 7997
  139.6413  144.7124  151.2231 H   0  0  0  0  0  0  0  0  0  0  0  0  # atno 10167 bound_to 10162
  156.1564  130.4150  149.9863 H   0  0  0  0  0  0  0  0  0  0  0  0  # atno 10718 bound_to 10713
  154.5832  135.2838  155.0711 H   0  0  0  0  0  0  0  0  0  0  0  0  # atno 10763 bound_to 10752
  154.2040  135.6419  153.5099 H   0  0  0  0  0  0  0  0  0  0  0  0  # atno 10764 bound_to 10752
  153.0095  135.5475  154.6493 H   0  0  0  0  0  0  0  0  0  0  0  0  # atno 10765 bound_to 10752
  141.1361  133.6640  156.5532 H   0  0  0  0  0  0  0  0  0  0  0  0  # atno 11005 bound_to 11000
  145.5434  139.1475  143.3434 LP  0  0  0  0  0  0  0  0  0  0  0  0  # atno 17320 bound_to 7965
  146.2353  140.5574  142.8958 LP  0  0  0  0  0  0  0  0  0  0  0  0  # atno 17321 bound_to 7965
  140.7492  143.6307  150.8426 LP  0  0  0  0  0  0  0  0  0  0  0  0  # atno 17342 bound_to 10162
  139.9944  143.5811  152.2898 LP  0  0  0  0  0  0  0  0  0  0  0  0  # atno 17343 bound_to 10162
  156.7705  130.9184  151.3644 LP  0  0  0  0  0  0  0  0  0  0  0  0  # atno 17370 bound_to 10713
  157.6698  130.9040  150.0014 LP  0  0  0  0  0  0  0  0  0  0  0  0  # atno 17371 bound_to 10713
  140.4047  134.7325  157.4800 LP  0  0  0  0  0  0  0  0  0  0  0  0  # atno 17394 bound_to 11000
  140.0470  134.6184  155.8908 LP  0  0  0  0  0  0  0  0  0  0  0  0  # atno 17395 bound_to 11000

$$$$
