AV-unprocessed.smi:3308|AV-procd|sdf|12712|dock6
  -GOLD-   2272019 43D 1   1.00000     0.00000
 Structure written by MMmdl.
 40 41  0  0  0  0  0  0  0  0  1 V2000
  151.0455  138.0945  154.3189 C   0  0  0  0  0  0  0  0  0  0  0  0
  150.7548  139.4526  154.9926 C   0  0  2  0  0  0  0  0  0  0  0  0
  151.7154  139.7266  156.0582 N   0  0  0  0  0  0  0  0  0  0  0  0
  151.5265  141.0328  156.7015 C   0  0  0  0  0  0  0  0  0  0  0  0
  152.2780  141.1068  158.0348 C   0  0  0  0  0  0  0  0  0  0  0  0
  153.0315  140.1820  158.3389 O   0  0  0  0  0  0  0  0  0  0  0  0
  152.0898  142.1772  158.8356 N   0  0  0  0  0  0  0  0  0  0  0  0
  151.2070  143.3114  158.5620 C   0  0  0  0  0  0  0  0  0  0  0  0
  151.1553  144.1181  159.8597 C   0  0  0  0  0  0  0  0  0  0  0  0
  152.4634  143.7807  160.5609 C   0  0  0  0  0  0  0  0  0  0  0  0
  152.7620  142.3469  160.1226 C   0  0  0  0  0  0  0  0  0  0  0  0
  149.3208  139.5790  155.5746 C   0  0  2  0  0  0  0  0  0  0  0  0
  148.9938  138.5529  156.6807 C   0  0  0  0  0  0  0  0  0  0  0  0
  148.3144  139.5548  154.5173 N   0  0  0  0  0  0  0  0  0  0  0  0
  148.0438  138.5732  153.5820 C   0  0  0  0  0  0  0  0  0  0  0  0
  147.0368  139.0327  152.7831 C   0  0  0  0  0  0  0  0  0  0  0  0
  146.7592  140.3274  153.3016 C   0  0  0  0  0  0  0  0  0  0  0  0
  147.5289  140.6392  154.3310 N   0  0  0  0  0  0  0  0  0  0  0  0
  150.3110  137.8677  153.5470 H   0  0  0  0  0  0  0  0  0  0  0  0
  151.0353  137.2759  155.0384 H   0  0  0  0  0  0  0  0  0  0  0  0
  152.0177  138.0873  153.8271 H   0  0  0  0  0  0  0  0  0  0  0  0
  150.8601  140.2347  154.2386 H   0  0  0  0  0  0  0  0  0  0  0  0
  152.6554  139.6155  155.7056 H   0  0  0  0  0  0  0  0  0  0  0  0
  151.8995  141.8244  156.0519 H   0  0  0  0  0  0  0  0  0  0  0  0
  150.4661  141.2321  156.8598 H   0  0  0  0  0  0  0  0  0  0  0  0
  151.6365  143.9114  157.7586 H   0  0  0  0  0  0  0  0  0  0  0  0
  150.2074  142.9985  158.2577 H   0  0  0  0  0  0  0  0  0  0  0  0
  151.0301  145.1875  159.6888 H   0  0  0  0  0  0  0  0  0  0  0  0
  150.3175  143.7766  160.4686 H   0  0  0  0  0  0  0  0  0  0  0  0
  153.2511  144.4442  160.2012 H   0  0  0  0  0  0  0  0  0  0  0  0
  152.4039  143.8888  161.6442 H   0  0  0  0  0  0  0  0  0  0  0  0
  152.3461  141.6335  160.8356 H   0  0  0  0  0  0  0  0  0  0  0  0
  153.8363  142.1698  160.0526 H   0  0  0  0  0  0  0  0  0  0  0  0
  149.2469  140.5632  156.0419 H   0  0  0  0  0  0  0  0  0  0  0  0
  149.6604  138.6631  157.5360 H   0  0  0  0  0  0  0  0  0  0  0  0
  149.0798  137.5256  156.3277 H   0  0  0  0  0  0  0  0  0  0  0  0
  147.9769  138.6906  157.0498 H   0  0  0  0  0  0  0  0  0  0  0  0
  148.5833  137.6382  153.5571 H   0  0  0  0  0  0  0  0  0  0  0  0
  146.5732  138.5237  151.9513 H   0  0  0  0  0  0  0  0  0  0  0  0
  146.0295  141.0466  152.9600 H   0  0  0  0  0  0  0  0  0  0  0  0
  1  2  1  0  0  0  0
  1 19  1  0  0  0  0
  1 20  1  0  0  0  0
  1 21  1  0  0  0  0
  2  3  1  0  0  0  0
  2 12  1  0  0  0  0
  2 22  1  0  0  0  0
  3  4  1  0  0  0  0
  3 23  1  0  0  0  0
  4  5  1  0  0  0  0
  4 24  1  0  0  0  0
  4 25  1  0  0  0  0
  5  6  2  0  0  0  0
  5  7  1  0  0  0  0
  7 11  1  0  0  0  0
  7  8  1  0  0  0  0
  8  9  1  0  0  0  0
  8 26  1  0  0  0  0
  8 27  1  0  0  0  0
  9 10  1  0  0  0  0
  9 28  1  0  0  0  0
  9 29  1  0  0  0  0
 10 11  1  0  0  0  0
 10 30  1  0  0  0  0
 10 31  1  0  0  0  0
 11 32  1  0  0  0  0
 11 33  1  0  0  0  0
 12 13  1  0  0  0  0
 12 14  1  0  0  0  0
 12 34  1  0  0  0  0
 13 35  1  0  0  0  0
 13 36  1  0  0  0  0
 13 37  1  0  0  0  0
 14 18  1  0  0  0  0
 14 15  1  0  0  0  0
 15 16  2  0  0  0  0
 15 38  1  0  0  0  0
 16 17  1  0  0  0  0
 16 39  1  0  0  0  0
 17 18  2  0  0  0  0
 17 40  1  0  0  0  0
M  END
> <s_m_source_file>
AV-unprocessed.smi

> <i_m_source_file_index>
3308

> <i_lp_mmshare_version>
43012

> <i_f3d_flags>
0

> <s_epik_input>
bjFbY0hdW2NIXVtjSF1uMVtDQEBIXShbQ0gzXSlbQ0BIXShbQ0gzXSlbTkhdW0NIMl1DKD1PKU4yW0NIMl1bQ0gyXVtDSDJdW0NIMl0y

> <s_epik_cmdline>
J2VwaWtfcHl0aG9uJywgJy1waCcsICc3LjAnLCAnLXRuJywgJzgnLCAnLW1hJywgJzIwMCcsICctbWV0YWxfYmluZGluZycsICctaW1hZScsICc8aW5maWxlLm1hZT4nLCAnLW9tYWUnLCAnPG91dGZpbGUubWFlPic=

> <r_lp_tautomer_probability>
1

> <r_epik_Ionization_Penalty>
0.918676

> <r_epik_Ionization_Penalty_Charging>
0

> <r_epik_Ionization_Penalty_Neutral>
0.918676

> <r_epik_State_Penalty>
0.958258

> <r_epik_Charging_Adjusted_Penalty>
0.958258

> <i_epik_Tot_Q>
0

> <i_epik_Tot_abs_Q>
0

> <r_epik_Metal_State_Penalty>
0.956879

> <b_epik_Metal_Only>
0

> <s_lp_Force_Field>
OPLS_2005

> <r_lp_Energy>
37.0374

> <b_lp_Chiralities_Consistent>
1

> <s_lp_Variant>
AV-unprocessed.smi:3308-5

> <Gold.Version>
5.8.1

> <Gold.Id.Protein>
6NUR|6NUR_protein|mol2

> <Gold.PLP.Fitness>
39.0310

> <Gold.PLP.PLP>
-30.7629

> <Gold.PLP.part.hbond>
-1.0000

> <Gold.PLP.part.metal>
0.0000

> <Gold.PLP.part.buried>
-1.0441

> <Gold.PLP.part.nonpolar>
-27.9228

> <Gold.PLP.part.repulsive>
0.1234

> <Gold.PLP.ligand.clash>
0.0000

> <Gold.PLP.ligand.torsion>
0.2195

> <Gold.PLP.Chemscore.Hbond>
0.9760

> <Gold.PLP.Chemscore.CHOScore>
1.8631

> <Gold.PLP.Chemscore.Metal>
0.0000

> <Gold.Chemscore.Hbonds>
donor molecule, donor type, donor heavy atom, donor atom, acceptor molecule, acceptor atom, score
      P1  H  7997  8010       L1     6  0.95
      L1  C    15    38       P1  7948  1.00
      L1  C    17    40       P1 10175  0.89

> <Gold.PLP.Chemscore.Internal.Correction>
0.1897

> <Gold.Rescore>
     Score         DG    S(hbond)    S(metal)    S(lipo)     H(rot)  DE(clash)    DE(int)     intcor
     14.41     -14.74       0.87        0.00      92.08       1.72       0.09       0.24       ----

> <Gold.Chemscore.Fitness>
14.4104

> <Gold.Chemscore.DG>
-14.7403

> <Gold.Chemscore.ZeroCoef>
-5.4800

> <Gold.Chemscore.Hbond>
0.8654

> <Gold.Chemscore.Metal>
0.0000

> <Gold.Chemscore.Lipo>
92.0776

> <Gold.Chemscore.Internal_Hbond>
0.0000

> <Gold.Chemscore.DEClash>
0.0886

> <Gold.Chemscore.DEInternal>
0.2413

> <Gold.Chemscore.Rot>
1.7200

> <Gold.Chemscore.Internal.Correction>
   9.000000E+99

> <Gold.Chemscore.Hbonds>
donor molecule, donor type, donor heavy atom, donor atom, acceptor molecule, acceptor atom, score
      P1  H  7997  8010       L1     6  0.68

> <Gold.Chemscore.Hbond.Weighted>
-2.8903

> <Gold.Chemscore.Metal.Weighted>
-0.0000

> <Gold.Chemscore.Lipo.Weighted>
-10.7731

> <Gold.Chemscore.Internal_Hbond.Weighted>
0.0000

> <Gold.Chemscore.DEClash.Weighted>
0.0886

> <Gold.Chemscore.DEInternal.Weighted>
0.2413

> <Gold.Chemscore.Rot.Weighted>
4.4031

> <Gold.Chemscore.Internal.Correction.Weighted>
   9.000000E+99

> <Gold.Protein.RotatedTorsions>
[ 6907 6896 6895 6894 ] final  156.27 input  -60.11 | X-H torsion
[ 7974 7965 7964 7962 ] final   78.41 input  175.53 | X-H torsion
[ 8008 7997 7996 7995 ] final   33.63 input   59.86 | X-H torsion
[ 10167 10162 10161 10158 ] final  -69.70 input  -65.29 | X-H torsion
[ 10718 10713 10712 10709 ] final  141.21 input   66.30 | X-H torsion
[ 10763 10752 10751 10750 ] final   92.94 input  -60.55 | X-H torsion
[ 11005 11000 10999 10996 ] final   62.31 input  -57.11 | X-H torsion

> <Gold.Protein.ActiveResidues>
 VAL166  LYS551  ARG553  GLY616  TRP617  ASP618  TYR619  PRO620  LYS621  CYS622 
 ASP623  PHE694  ASN695  SER759  ASP760  ASP761  ALA762  ILE779  LEU786  VAL792 
 PHE793  MET794  SER795  GLU796  ALA797  LYS798  CYS799  TRP800  GLU811  SER814 

> <Gold.Protein.RotatedAtoms>
  152.0321  133.3941  159.4301 H   0  0  0  0  0  0  0  0  0  0  0  0  # atno 6907 bound_to 6896
  150.6881  134.3509  159.4918 H   0  0  0  0  0  0  0  0  0  0  0  0  # atno 6908 bound_to 6896
  152.1297  134.9144  160.0610 H   0  0  0  0  0  0  0  0  0  0  0  0  # atno 6909 bound_to 6896
  145.6775  139.2514  143.1833 H   0  0  0  0  0  0  0  0  0  0  0  0  # atno 7974 bound_to 7965
  155.1417  140.3267  155.4450 H   0  0  0  0  0  0  0  0  0  0  0  0  # atno 8008 bound_to 7997
  156.2602  140.1992  156.6482 H   0  0  0  0  0  0  0  0  0  0  0  0  # atno 8009 bound_to 7997
  154.6537  140.0555  156.9971 H   0  0  0  0  0  0  0  0  0  0  0  0  # atno 8010 bound_to 7997
  140.5410  143.2315  151.7089 H   0  0  0  0  0  0  0  0  0  0  0  0  # atno 10167 bound_to 10162
  157.3946  131.1009  151.0613 H   0  0  0  0  0  0  0  0  0  0  0  0  # atno 10718 bound_to 10713
  153.2248  135.4343  155.0529 H   0  0  0  0  0  0  0  0  0  0  0  0  # atno 10763 bound_to 10752
  154.8268  135.3365  154.6874 H   0  0  0  0  0  0  0  0  0  0  0  0  # atno 10764 bound_to 10752
  153.7304  135.7011  153.5047 H   0  0  0  0  0  0  0  0  0  0  0  0  # atno 10765 bound_to 10752
  140.0101  134.6309  155.9794 H   0  0  0  0  0  0  0  0  0  0  0  0  # atno 11005 bound_to 11000
  146.0992  140.7564  142.9557 LP  0  0  0  0  0  0  0  0  0  0  0  0  # atno 17320 bound_to 7965
  144.7036  140.3761  143.7136 LP  0  0  0  0  0  0  0  0  0  0  0  0  # atno 17321 bound_to 7965
  139.4989  144.3968  152.0223 LP  0  0  0  0  0  0  0  0  0  0  0  0  # atno 17342 bound_to 10162
  140.3077  144.3574  150.6042 LP  0  0  0  0  0  0  0  0  0  0  0  0  # atno 17343 bound_to 10162
  157.1634  130.6235  149.5618 LP  0  0  0  0  0  0  0  0  0  0  0  0  # atno 17370 bound_to 10713
  155.9807  130.4809  150.6787 LP  0  0  0  0  0  0  0  0  0  0  0  0  # atno 17371 bound_to 10713
  141.1705  133.6537  156.4633 LP  0  0  0  0  0  0  0  0  0  0  0  0  # atno 17394 bound_to 11000
  140.4570  134.6876  157.5067 LP  0  0  0  0  0  0  0  0  0  0  0  0  # atno 17395 bound_to 11000

$$$$
