#       Name:                AV-unprocessed.smi:2272
#       Creating user name   scv26
#       Creation time:       Fri Mar 27 12:37:27 2020


#       File generated by GOLD software.
#

@<TRIPOS>MOLECULE
AV-unprocessed.smi:2272
    48    49     1
SMALL
NO_CHARGES


@<TRIPOS>ATOM
      1 ****        -2.0303   5.7949  -0.3325 C.3            1 S1                 0.0000
      2 ****        -1.5070   4.3856  -0.1193 C.2            1 S1                 0.0000
      3 ****        -1.1410   4.0686   1.1922 N.2            1 S1                 0.0000
      4 ****        -0.6819   2.8915   1.4668 C.2            1 S1                 0.0000
      5 ****        -0.5410   1.9056   0.4771 N.am           1 S1                 0.0000
      6 ****         0.0068   0.6128   0.9182 C.3            1 S1                 0.0000
      7 ****         1.5267   0.5118   0.6535 C.3            1 S1                 0.0000
      8 ****         2.2190   0.9817   1.7927 O.3            1 S1                 0.0000
      9 ****         1.9798  -0.9351   0.4102 C.3            1 S1                 0.0000
     10 ****         1.4712  -1.3648  -0.8444 O.3            1 S1                 0.0000
     11 ****         1.7797  -2.7141  -1.1619 C.3            1 S1                 0.0000
     12 ****         1.0131  -3.7190  -0.3173 C.ar           1 S1                 0.0000
     13 ****         1.7065  -4.7457   0.3582 C.ar           1 S1                 0.0000
     14 ****         1.0016  -5.6833   1.1378 C.ar           1 S1                 0.0000
     15 ****        -0.4001  -5.6013   1.2417 C.ar           1 S1                 0.0000
     16 ****        -1.0969  -4.5826   0.5639 C.ar           1 S1                 0.0000
     17 ****        -0.3939  -3.6439  -0.2166 C.ar           1 S1                 0.0000
     18 ****        -1.0768  -2.6713  -0.8668 F              1 S1                 0.0000
     19 ****        -0.8654   2.1337  -0.8286 C.2            1 S1                 0.0000
     20 ****        -0.7196   1.2668  -1.6926 O.2            1 S1                 0.0000
     21 ****        -1.3897   3.4765  -1.1255 C.2            1 S1                 0.0000
     22 ****        -1.7690   3.7666  -2.5725 C.3            1 S1                 0.0000
     23 ****        -3.0480   5.7701  -0.7228 H              1 S1                 0.0000
     24 ****        -1.3979   6.3333  -1.0390 H              1 S1                 0.0000
     25 ****        -2.0446   6.3597   0.6006 H              1 S1                 0.0000
     26 ****        -0.3749   2.5957   2.4714 H              1 S1                 0.0000
     27 ****        -0.2196   0.4043   1.9661 H              1 S1                 0.0000
     28 ****        -0.5145  -0.1798   0.3784 H              1 S1                 0.0000
     29 ****         1.8196   1.1196  -0.2038 H              1 S1                 0.0000
     30 ****         1.9987   0.4291   2.5270 H              1 S1                 0.0000
     31 ****         3.0696  -0.9912   0.3881 H              1 S1                 0.0000
     32 ****         1.6348  -1.5796   1.2202 H              1 S1                 0.0000
     33 ****         1.5143  -2.8822  -2.2059 H              1 S1                 0.0000
     34 ****         2.8554  -2.8813  -1.0867 H              1 S1                 0.0000
     35 ****         2.7817  -4.8168   0.2836 H              1 S1                 0.0000
     36 ****         1.5366  -6.4657   1.6555 H              1 S1                 0.0000
     37 ****        -0.9407  -6.3205   1.8391 H              1 S1                 0.0000
     38 ****        -2.1724  -4.5217   0.6415 H              1 S1                 0.0000
     39 ****        -0.8954   3.6648  -3.2172 H              1 S1                 0.0000
     40 ****        -2.1705   4.7678  -2.7195 H              1 S1                 0.0000
     41 ****        -2.5252   3.0583  -2.9125 H              1 S1                 0.0000
     42 ****        -1.2341   4.7513   1.9170 LP             1 S1                 0.0000
     43 ****         1.9481   1.9245   1.9869 LP             1 S1                 0.0000
     44 ****         3.2046   0.9455   1.6272 LP             1 S1                 0.0000
     45 ****         1.8560  -0.7783  -1.5571 LP             1 S1                 0.0000
     46 ****         0.4764  -1.2645  -0.8313 LP             1 S1                 0.0000
     47 ****        -0.3553   0.3693  -1.4439 LP             1 S1                 0.0000
     48 ****        -0.9655   1.4610  -2.6422 LP             1 S1                 0.0000
@<TRIPOS>BOND
    1    1    2 1     
    2    1   23 1     
    3    1   24 1     
    4    1   25 1     
    5    2   21 2     
    6    2    3 1     
    7    3    4 2     
    8    4    5 1     
    9    4   26 1     
   10    5    6 1     
   11    5   19 am    
   12    6    7 1     
   13    6   27 1     
   14    6   28 1     
   15    7    8 1     
   16    7    9 1     
   17    7   29 1     
   18    8   30 1     
   19    9   10 1     
   20    9   31 1     
   21    9   32 1     
   22   10   11 1     
   23   11   12 1     
   24   11   33 1     
   25   11   34 1     
   26   12   17 ar    
   27   12   13 ar    
   28   13   14 ar    
   29   13   35 1     
   30   14   15 ar    
   31   14   36 1     
   32   15   16 ar    
   33   15   37 1     
   34   16   17 ar    
   35   16   38 1     
   36   17   18 1     
   37   19   20 2     
   38   19   21 1     
   39   21   22 1     
   40   22   39 1     
   41   22   40 1     
   42   22   41 1     
   43    3   42 1     
   44    8   43 1     
   45    8   44 1     
   46   10   45 1     
   47   10   46 1     
   48   20   47 1     
   49   20   48 1     
@<TRIPOS>SUBSTRUCTURE
      1 S1             1
@<TRIPOS>SET
LONE_PAIRS      STATIC     ATOMS    <user>   **** ""
7 42 43 44 45 46 47 48
DONOR_HYDROGENS      STATIC     ATOMS    <user>   **** ""
1 30
ATOM$BLUE        STATIC     ATOMS    COLORGROUP SYSTEM
7 42 43 44 45 46 47 48
ATOM$RED        STATIC     ATOMS    COLORGROUP SYSTEM
1 30
