AV-unprocessed.smi:534|AV-procd|sdf|2857|dock6
  -GOLD-   2262023343D 1   1.00000     0.00000
 Structure written by MMmdl.
 39 40  0  0  0  0  0  0  0  0  2 V2000
  152.4903  143.6945  161.7606 C   0  0  0  0  0  0  0  0  0  0  0  0
  151.4182  143.3174  160.9155 O   0  0  0  0  0  0  0  0  0  0  0  0
  151.5765  143.7969  159.5899 C   0  0  0  0  0  0  0  0  0  0  0  0
  150.1991  143.8814  158.9215 C   0  0  0  0  0  0  0  0  0  0  0  0
  150.1366  143.0542  157.7322 N   0  0  0  0  0  0  0  0  0  0  0  0
  150.7661  141.8614  157.3981 C   0  0  0  0  0  0  0  0  0  0  0  0
  151.6385  141.2227  158.1792 N   0  0  0  0  0  0  0  0  0  0  0  0
  151.9985  140.1309  157.4006 C   0  0  0  0  0  0  0  0  0  0  0  0
  151.3548  140.1455  156.2018 C   0  0  0  0  0  0  0  0  0  0  0  0
  151.5518  139.1291  155.1463 C   0  0  0  0  0  0  0  0  0  0  0  0
  150.9549  139.2047  154.0740 O   0  0  0  0  0  0  0  0  0  0  0  0
  152.4474  138.1620  155.5226 N   0  5  0  0  0  0  0  0  0  0  0  0
  153.1193  138.1039  156.7252 C   0  0  0  0  0  0  0  0  0  0  0  0
  153.9149  137.1991  156.9820 O   0  0  0  0  0  0  0  0  0  0  0  0
  152.9086  139.0729  157.6715 N   0  0  0  0  0  0  0  0  0  0  0  0
  153.6116  139.0388  158.9573 C   0  0  0  0  0  0  0  0  0  0  0  0
  150.5346  141.2762  156.1974 N   0  0  0  0  0  0  0  0  0  0  0  0
  149.6487  141.7468  155.1364 C   0  0  0  0  0  0  0  0  0  0  0  0
  148.5999  140.6912  154.7572 C   0  0  0  0  0  0  0  0  0  0  0  0
  147.3206  141.1067  155.2096 O   0  0  0  0  0  0  0  0  0  0  0  0
  146.7033  142.0287  154.3302 C   0  0  0  0  0  0  0  0  0  0  0  0
  152.3304  143.2864  162.7584 H   0  0  0  0  0  0  0  0  0  0  0  0
  152.5579  144.7797  161.8483 H   0  0  0  0  0  0  0  0  0  0  0  0
  153.4414  143.3126  161.3879 H   0  0  0  0  0  0  0  0  0  0  0  0
  152.0666  144.7724  159.5827 H   0  0  0  0  0  0  0  0  0  0  0  0
  152.2130  143.1088  159.0320 H   0  0  0  0  0  0  0  0  0  0  0  0
  149.4294  143.5426  159.6155 H   0  0  0  0  0  0  0  0  0  0  0  0
  149.9618  144.9126  158.6599 H   0  0  0  0  0  0  0  0  0  0  0  0
  149.6450  143.4910  156.9659 H   0  0  0  0  0  0  0  0  0  0  0  0
  153.4322  138.0923  159.4689 H   0  0  0  0  0  0  0  0  0  0  0  0
  153.2934  139.8339  159.6310 H   0  0  0  0  0  0  0  0  0  0  0  0
  154.6861  139.1471  158.8055 H   0  0  0  0  0  0  0  0  0  0  0  0
  149.1677  142.6714  155.4527 H   0  0  0  0  0  0  0  0  0  0  0  0
  150.2415  142.0147  154.2617 H   0  0  0  0  0  0  0  0  0  0  0  0
  148.5869  140.5503  153.6752 H   0  0  0  0  0  0  0  0  0  0  0  0
  148.8597  139.7324  155.2077 H   0  0  0  0  0  0  0  0  0  0  0  0
  145.7253  142.3082  154.7215 H   0  0  0  0  0  0  0  0  0  0  0  0
  146.5594  141.5942  153.3403 H   0  0  0  0  0  0  0  0  0  0  0  0
  147.2983  142.9377  154.2319 H   0  0  0  0  0  0  0  0  0  0  0  0
  1  2  1  0  0  0  0
  1 22  1  0  0  0  0
  1 23  1  0  0  0  0
  1 24  1  0  0  0  0
  2  3  1  0  0  0  0
  3  4  1  0  0  0  0
  3 25  1  0  0  0  0
  3 26  1  0  0  0  0
  4  5  1  0  0  0  0
  4 27  1  0  0  0  0
  4 28  1  0  0  0  0
  5  6  1  0  0  0  0
  5 29  1  0  0  0  0
  6 17  1  0  0  0  0
  6  7  2  0  0  0  0
  7  8  1  0  0  0  0
  8 15  1  0  0  0  0
  8  9  2  0  0  0  0
  9 10  1  0  0  0  0
  9 17  1  0  0  0  0
 10 11  2  0  0  0  0
 10 12  1  0  0  0  0
 12 13  1  0  0  0  0
 13 14  2  0  0  0  0
 13 15  1  0  0  0  0
 15 16  1  0  0  0  0
 16 30  1  0  0  0  0
 16 31  1  0  0  0  0
 16 32  1  0  0  0  0
 17 18  1  0  0  0  0
 18 19  1  0  0  0  0
 18 33  1  0  0  0  0
 18 34  1  0  0  0  0
 19 20  1  0  0  0  0
 19 35  1  0  0  0  0
 19 36  1  0  0  0  0
 20 21  1  0  0  0  0
 21 37  1  0  0  0  0
 21 38  1  0  0  0  0
 21 39  1  0  0  0  0
M  CHG  1  12  -1
M  END
> <s_m_source_file>
AV-unprocessed.smi

> <i_m_source_file_index>
534

> <i_lp_mmshare_version>
43012

> <i_f3d_flags>
0

> <s_epik_input>
W0NIM11PW0NIMl1bQ0gyXVtOSF1jKG4xKW4oW0NIMl1bQ0gyXU9bQ0gzXSljKGMxMiljKD1PKVtuSF1jKD1PKW4yW0NIM10=

> <s_epik_cmdline>
J2VwaWtfcHl0aG9uJywgJy1waCcsICc3LjAnLCAnLXRuJywgJzgnLCAnLW1hJywgJzIwMCcsICctbWV0YWxfYmluZGluZycsICctaW1hZScsICc8aW5maWxlLm1hZT4nLCAnLW9tYWUnLCAnPG91dGZpbGUubWFlPic=

> <r_lp_tautomer_probability>
1

> <r_epik_Ionization_Penalty>
5.88862

> <r_epik_Ionization_Penalty_Charging>
1.42184e-08

> <r_epik_Ionization_Penalty_Neutral>
5.88862

> <r_epik_State_Penalty>
5.88846

> <r_epik_Charging_Adjusted_Penalty>
5.88846

> <i_epik_Tot_Q>
-1

> <i_epik_Tot_abs_Q>
1

> <r_epik_Metal_State_Penalty>
1.85033

> <b_epik_Metal_Only>
1

> <s_lp_Force_Field>
OPLS_2005

> <r_lp_Energy>
24.5539

> <b_lp_Chiralities_Consistent>
1

> <s_lp_Variant>
AV-unprocessed.smi:534-2

> <Gold.Version>
5.8.1

> <Gold.Id.Protein>
6NUR|6NUR_protein|mol2

> <Gold.PLP.Fitness>
42.7619

> <Gold.PLP.PLP>
-36.1103

> <Gold.PLP.part.hbond>
-4.1476

> <Gold.PLP.part.metal>
0.0000

> <Gold.PLP.part.buried>
-2.9727

> <Gold.PLP.part.nonpolar>
-29.5337

> <Gold.PLP.part.repulsive>
0.4777

> <Gold.PLP.ligand.clash>
0.0000

> <Gold.PLP.ligand.torsion>
1.1472

> <Gold.PLP.Chemscore.Hbond>
2.9675

> <Gold.PLP.Chemscore.CHOScore>
0.0000

> <Gold.PLP.Chemscore.Metal>
0.0000

> <Gold.Chemscore.Hbonds>
donor molecule, donor type, donor heavy atom, donor atom, acceptor molecule, acceptor atom, score
      L1  H     5    29       P1  8028  1.00
      P1  H  7989  7998       L1    11  0.95

> <Gold.PLP.Chemscore.Internal.Correction>
0.0434

> <Gold.Rescore>
     Score         DG    S(hbond)    S(metal)    S(lipo)     H(rot)  DE(clash)    DE(int)     intcor
      8.80     -13.66       2.01        0.00      65.03       2.40       1.22       3.64       ----

> <Gold.Chemscore.Fitness>
8.8009

> <Gold.Chemscore.DG>
-13.6614

> <Gold.Chemscore.ZeroCoef>
-5.4800

> <Gold.Chemscore.Hbond>
2.0124

> <Gold.Chemscore.Metal>
0.0000

> <Gold.Chemscore.Lipo>
65.0254

> <Gold.Chemscore.Internal_Hbond>
0.0000

> <Gold.Chemscore.DEClash>
1.2190

> <Gold.Chemscore.DEInternal>
3.6414

> <Gold.Chemscore.Rot>
2.4016

> <Gold.Chemscore.Internal.Correction>
   9.000000E+99

> <Gold.Chemscore.Hbonds>
donor molecule, donor type, donor heavy atom, donor atom, acceptor molecule, acceptor atom, score
      L1  H     5    29       P1  8028  0.97
      P1  H  6933  6945       L1     2  0.01
      P1  H  7989  7998       L1    11  0.21
      P1  H 10752 10765       L1    14  0.04

> <Gold.Chemscore.Hbond.Weighted>
-6.7215

> <Gold.Chemscore.Metal.Weighted>
-0.0000

> <Gold.Chemscore.Lipo.Weighted>
-7.6080

> <Gold.Chemscore.Internal_Hbond.Weighted>
0.0000

> <Gold.Chemscore.DEClash.Weighted>
1.2190

> <Gold.Chemscore.DEInternal.Weighted>
3.6414

> <Gold.Chemscore.Rot.Weighted>
6.1481

> <Gold.Chemscore.Internal.Correction.Weighted>
   9.000000E+99

> <Gold.Protein.RotatedTorsions>
[ 6907 6896 6895 6894 ] final -176.43 input  -60.11 | X-H torsion
[ 7974 7965 7964 7962 ] final    2.65 input  175.53 | X-H torsion
[ 8008 7997 7996 7995 ] final  -72.78 input   59.86 | X-H torsion
[ 10167 10162 10161 10158 ] final   -4.41 input  -65.29 | X-H torsion
[ 10718 10713 10712 10709 ] final  -53.93 input   66.30 | X-H torsion
[ 10763 10752 10751 10750 ] final -114.17 input  -60.55 | X-H torsion
[ 11005 11000 10999 10996 ] final  160.64 input  -57.11 | X-H torsion

> <Gold.Protein.ActiveResidues>
 VAL166  LYS551  ARG553  GLY616  TRP617  ASP618  TYR619  PRO620  LYS621  CYS622 
 ASP623  PHE694  ASN695  SER759  ASP760  ASP761  ALA762  ILE779  LEU786  VAL792 
 PHE793  MET794  SER795  GLU796  ALA797  LYS798  CYS799  TRP800  GLU811  SER814 

> <Gold.Protein.RotatedAtoms>
  151.6047  133.3353  159.3054 H   0  0  0  0  0  0  0  0  0  0  0  0  # atno 6907 bound_to 6896
  150.8188  134.7389  159.6765 H   0  0  0  0  0  0  0  0  0  0  0  0  # atno 6908 bound_to 6896
  152.4283  134.5832  160.0005 H   0  0  0  0  0  0  0  0  0  0  0  0  # atno 6909 bound_to 6896
  146.2444  140.0803  142.8357 H   0  0  0  0  0  0  0  0  0  0  0  0  # atno 7974 bound_to 7965
  154.5194  140.0791  156.8143 H   0  0  0  0  0  0  0  0  0  0  0  0  # atno 8008 bound_to 7997
  155.3610  140.3418  155.4222 H   0  0  0  0  0  0  0  0  0  0  0  0  # atno 8009 bound_to 7997
  156.1664  140.1605  156.8511 H   0  0  0  0  0  0  0  0  0  0  0  0  # atno 8010 bound_to 7997
  140.6926  143.6427  150.8421 H   0  0  0  0  0  0  0  0  0  0  0  0  # atno 10167 bound_to 10162
  156.1493  130.4152  149.9971 H   0  0  0  0  0  0  0  0  0  0  0  0  # atno 10718 bound_to 10713
  154.8428  135.4427  154.1463 H   0  0  0  0  0  0  0  0  0  0  0  0  # atno 10763 bound_to 10752
  153.2636  135.6938  153.7559 H   0  0  0  0  0  0  0  0  0  0  0  0  # atno 10764 bound_to 10752
  153.6827  135.3400  155.3157 H   0  0  0  0  0  0  0  0  0  0  0  0  # atno 10765 bound_to 10752
  140.2080  134.8289  157.3090 H   0  0  0  0  0  0  0  0  0  0  0  0  # atno 11005 bound_to 11000
  145.0738  140.9174  143.4866 LP  0  0  0  0  0  0  0  0  0  0  0  0  # atno 17320 bound_to 7965
  145.0943  139.2868  143.5719 LP  0  0  0  0  0  0  0  0  0  0  0  0  # atno 17321 bound_to 7965
  140.0142  143.5611  152.2827 LP  0  0  0  0  0  0  0  0  0  0  0  0  # atno 17342 bound_to 10162
  139.6345  144.7648  151.2466 LP  0  0  0  0  0  0  0  0  0  0  0  0  # atno 17343 bound_to 10162
  156.7833  130.9229  151.3646 LP  0  0  0  0  0  0  0  0  0  0  0  0  # atno 17370 bound_to 10713
  157.6644  130.8994  149.9899 LP  0  0  0  0  0  0  0  0  0  0  0  0  # atno 17371 bound_to 10713
  140.1982  134.4287  155.7677 LP  0  0  0  0  0  0  0  0  0  0  0  0  # atno 17394 bound_to 11000
  141.2227  133.7059  156.8140 LP  0  0  0  0  0  0  0  0  0  0  0  0  # atno 17395 bound_to 11000

$$$$
