AV-unprocessed.smi:1644|AV-procd|sdf|6596|dock3
  -GOLD-   22720 7293D 1   1.00000     0.00000
 Structure written by MMmdl.
 49 51  0  0  0  0  0  0  0  0  3 V2000
  148.9335  132.3061  153.6478 C   0  0  0  0  0  0  0  0  0  0  0  0
  149.5442  133.6177  154.1522 C   0  0  0  0  0  0  0  0  0  0  0  0
  149.1732  133.9117  155.6218 C   0  0  0  0  0  0  0  0  0  0  0  0
  149.5548  135.3141  156.1555 C   0  0  2  0  0  0  0  0  0  0  0  0
  148.8614  136.3680  155.4443 N   0  5  0  0  0  0  0  0  0  0  0  0
  149.7842  137.2145  154.9297 C   0  0  0  0  0  0  0  0  0  0  0  0
  149.5648  138.2173  154.2504 O   0  0  0  0  0  0  0  0  0  0  0  0
  151.0345  136.8157  155.2367 N   0  0  0  0  0  0  0  0  0  0  0  0
  152.2623  137.4829  154.7941 C   0  0  0  0  0  0  0  0  0  0  0  0
  152.1893  139.0066  155.0256 C   0  0  2  0  0  0  0  0  0  0  0  0
  153.4783  139.5652  154.8608 O   0  0  0  0  0  0  0  0  0  0  0  0
  151.6903  139.3527  156.4418 C   0  0  0  0  0  0  0  0  0  0  0  0
  151.1412  140.7114  156.5242 N   0  0  0  0  0  0  0  0  0  0  0  0
  150.2365  141.3472  155.7318 C   0  0  0  0  0  0  0  0  0  0  0  0
  150.0558  142.5984  156.2396 N   0  3  0  0  0  0  0  0  0  0  0  0
  150.8536  142.7607  157.3752 C   0  0  0  0  0  0  0  0  0  0  0  0
  151.0099  143.8418  158.2348 C   0  0  0  0  0  0  0  0  0  0  0  0
  151.9065  143.6819  159.3160 C   0  0  0  0  0  0  0  0  0  0  0  0
  152.0938  144.8408  160.2801 C   0  0  0  0  0  0  0  0  0  0  0  0
  152.6174  142.4677  159.5024 C   0  0  0  0  0  0  0  0  0  0  0  0
  153.5784  142.3050  160.6676 C   0  0  0  0  0  0  0  0  0  0  0  0
  152.4476  141.3817  158.6151 C   0  0  0  0  0  0  0  0  0  0  0  0
  151.5554  141.5544  157.5600 C   0  0  0  0  0  0  0  0  0  0  0  0
  151.0092  135.6857  155.9492 C   0  0  0  0  0  0  0  0  0  0  0  0
  151.9665  135.0331  156.3666 O   0  0  0  0  0  0  0  0  0  0  0  0
  149.2027  132.1278  152.6067 H   0  0  0  0  0  0  0  0  0  0  0  0
  147.8452  132.3287  153.7112 H   0  0  0  0  0  0  0  0  0  0  0  0
  149.2869  131.4574  154.2337 H   0  0  0  0  0  0  0  0  0  0  0  0
  150.6271  133.5656  154.0378 H   0  0  0  0  0  0  0  0  0  0  0  0
  149.2058  134.4335  153.5130 H   0  0  0  0  0  0  0  0  0  0  0  0
  148.0991  133.7713  155.7503 H   0  0  0  0  0  0  0  0  0  0  0  0
  149.6427  133.1598  156.2575 H   0  0  0  0  0  0  0  0  0  0  0  0
  149.3460  135.3524  157.2254 H   0  0  0  0  0  0  0  0  0  0  0  0
  153.0902  137.0601  155.3657 H   0  0  0  0  0  0  0  0  0  0  0  0
  152.4925  137.2511  153.7524 H   0  0  0  0  0  0  0  0  0  0  0  0
  151.5242  139.4652  154.2932 H   0  0  0  0  0  0  0  0  0  0  0  0
  154.0622  138.8873  154.5567 H   0  0  0  0  0  0  0  0  0  0  0  0
  150.9117  138.6588  156.7615 H   0  0  0  0  0  0  0  0  0  0  0  0
  152.4986  139.2697  157.1697 H   0  0  0  0  0  0  0  0  0  0  0  0
  149.7471  140.9326  154.8625 H   0  0  0  0  0  0  0  0  0  0  0  0
  150.4662  144.7634  158.0869 H   0  0  0  0  0  0  0  0  0  0  0  0
  151.8516  144.5356  161.2985 H   0  0  0  0  0  0  0  0  0  0  0  0
  151.4495  145.6823  160.0234 H   0  0  0  0  0  0  0  0  0  0  0  0
  153.1260  145.1913  160.2590 H   0  0  0  0  0  0  0  0  0  0  0  0
  154.0745  141.3340  160.6425 H   0  0  0  0  0  0  0  0  0  0  0  0
  153.0453  142.3823  161.6154 H   0  0  0  0  0  0  0  0  0  0  0  0
  154.3511  143.0735  160.6391 H   0  0  0  0  0  0  0  0  0  0  0  0
  152.9837  140.4544  158.7593 H   0  0  0  0  0  0  0  0  0  0  0  0
  149.4300  143.2868  155.8410 H   0  0  0  0  0  0  0  0  0  0  0  0
  1  2  1  0  0  0  0
  1 26  1  0  0  0  0
  1 27  1  0  0  0  0
  1 28  1  0  0  0  0
  2  3  1  0  0  0  0
  2 29  1  0  0  0  0
  2 30  1  0  0  0  0
  3  4  1  0  0  0  0
  3 31  1  0  0  0  0
  3 32  1  0  0  0  0
  4 24  1  0  0  0  0
  4  5  1  0  0  0  0
  4 33  1  0  0  0  0
  5  6  1  0  0  0  0
  6  7  2  0  0  0  0
  6  8  1  0  0  0  0
  8  9  1  0  0  0  0
  8 24  1  0  0  0  0
  9 10  1  0  0  0  0
  9 34  1  0  0  0  0
  9 35  1  0  0  0  0
 10 11  1  0  0  0  0
 10 12  1  0  0  0  0
 10 36  1  0  0  0  0
 11 37  1  0  0  0  0
 12 13  1  0  0  0  0
 12 38  1  0  0  0  0
 12 39  1  0  0  0  0
 13 23  1  0  0  0  0
 13 14  1  0  0  0  0
 14 15  2  0  0  0  0
 14 40  1  0  0  0  0
 15 16  1  0  0  0  0
 15 49  1  0  0  0  0
 16 23  2  0  0  0  0
 16 17  1  0  0  0  0
 17 18  2  0  0  0  0
 17 41  1  0  0  0  0
 18 19  1  0  0  0  0
 18 20  1  0  0  0  0
 19 42  1  0  0  0  0
 19 43  1  0  0  0  0
 19 44  1  0  0  0  0
 20 21  1  0  0  0  0
 20 22  2  0  0  0  0
 21 45  1  0  0  0  0
 21 46  1  0  0  0  0
 21 47  1  0  0  0  0
 22 23  1  0  0  0  0
 22 48  1  0  0  0  0
 24 25  2  0  0  0  0
M  CHG  1   5  -1
M  CHG  1  15   1
M  END
> <s_m_source_file>
AV-unprocessed.smi

> <i_m_source_file_index>
1644

> <i_lp_mmshare_version>
43012

> <i_f3d_flags>
0

> <s_epik_input>
W0NIM11bQ0gyXVtDSDJdW0NAQEhdMVtOSF1DKD1PKU4oQzE9TylbQ0gyXVtDQEhdKFtPSF0pW0NIMl1uKFtjSF1uMiljKGMyMylbY0hdYyhbQ0gzXSljKFtjSF0zKVtDSDNd

> <s_epik_cmdline>
J2VwaWtfcHl0aG9uJywgJy1waCcsICc3LjAnLCAnLXRuJywgJzgnLCAnLW1hJywgJzIwMCcsICctbWV0YWxfYmluZGluZycsICctaW1hZScsICc8aW5maWxlLm1hZT4nLCAnLW9tYWUnLCAnPG91dGZpbGUubWFlPic=

> <r_lp_tautomer_probability>
1

> <r_epik_Ionization_Penalty>
6.86868

> <r_epik_Ionization_Penalty_Charging>
6.86868

> <r_epik_Ionization_Penalty_Neutral>
5.84798e-07

> <r_epik_State_Penalty>
6.92818

> <r_epik_Charging_Adjusted_Penalty>
13.7969

> <i_epik_Tot_Q>
0

> <i_epik_Tot_abs_Q>
2

> <r_epik_Metal_State_Penalty>
2.98017

> <b_epik_Metal_Only>
1

> <s_lp_Force_Field>
OPLS_2005

> <r_lp_Energy>
22.7735

> <b_lp_Chiralities_Consistent>
1

> <s_lp_Variant>
AV-unprocessed.smi:1644-13

> <Gold.Version>
5.8.1

> <Gold.Id.Protein>
6NUR|6NUR_protein|mol2

> <Gold.PLP.Fitness>
59.5498

> <Gold.PLP.PLP>
-48.6704

> <Gold.PLP.part.hbond>
-3.4157

> <Gold.PLP.part.metal>
0.0000

> <Gold.PLP.part.buried>
-2.7735

> <Gold.PLP.part.nonpolar>
-43.9041

> <Gold.PLP.part.repulsive>
0.4364

> <Gold.PLP.ligand.clash>
0.0000

> <Gold.PLP.ligand.torsion>
0.6018

> <Gold.PLP.Chemscore.Hbond>
4.0000

> <Gold.PLP.Chemscore.CHOScore>
0.0000

> <Gold.PLP.Chemscore.Metal>
0.0000

> <Gold.Chemscore.Hbonds>
donor molecule, donor type, donor heavy atom, donor atom, acceptor molecule, acceptor atom, score
      L1  H    15    49       P1  8028  2.00
      P1  H  7997  8009       L1    11  0.95
      P1  H 10752 10763       L1    25  1.00

> <Gold.PLP.Chemscore.Internal.Correction>
0.0831

> <Gold.Rescore>
     Score         DG    S(hbond)    S(metal)    S(lipo)     H(rot)  DE(clash)    DE(int)     intcor
     17.85     -20.74       2.46        0.00     119.76       2.72       0.98       1.92       ----

> <Gold.Chemscore.Fitness>
17.8465

> <Gold.Chemscore.DG>
-20.7437

> <Gold.Chemscore.ZeroCoef>
-5.4800

> <Gold.Chemscore.Hbond>
2.4629

> <Gold.Chemscore.Metal>
0.0000

> <Gold.Chemscore.Lipo>
119.7641

> <Gold.Chemscore.Internal_Hbond>
0.0000

> <Gold.Chemscore.DEClash>
0.9820

> <Gold.Chemscore.DEInternal>
1.9152

> <Gold.Chemscore.Rot>
2.7245

> <Gold.Chemscore.Internal.Correction>
   9.000000E+99

> <Gold.Chemscore.Hbonds>
donor molecule, donor type, donor heavy atom, donor atom, acceptor molecule, acceptor atom, score
      L1  H    15    49       P1  8028  0.92
      P1  H  7997  8009       L1    11  0.20
      P1  H 10752 10763       L1    25  0.43

> <Gold.Chemscore.Hbond.Weighted>
-8.2261

> <Gold.Chemscore.Metal.Weighted>
-0.0000

> <Gold.Chemscore.Lipo.Weighted>
-14.0124

> <Gold.Chemscore.Internal_Hbond.Weighted>
0.0000

> <Gold.Chemscore.DEClash.Weighted>
0.9820

> <Gold.Chemscore.DEInternal.Weighted>
1.9152

> <Gold.Chemscore.Rot.Weighted>
6.9748

> <Gold.Chemscore.Internal.Correction.Weighted>
   9.000000E+99

> <Gold.Protein.RotatedTorsions>
[ 6907 6896 6895 6894 ] final  -15.31 input  -60.11 | X-H torsion
[ 7974 7965 7964 7962 ] final  -86.32 input  175.53 | X-H torsion
[ 8008 7997 7996 7995 ] final -146.70 input   59.86 | X-H torsion
[ 10167 10162 10161 10158 ] final  -84.69 input  -65.29 | X-H torsion
[ 10718 10713 10712 10709 ] final -105.11 input   66.30 | X-H torsion
[ 10763 10752 10751 10750 ] final  100.84 input  -60.55 | X-H torsion
[ 11005 11000 10999 10996 ] final  113.33 input  -57.11 | X-H torsion

> <Gold.Protein.ActiveResidues>
 VAL166  LYS551  ARG553  GLY616  TRP617  ASP618  TYR619  PRO620  LYS621  CYS622 
 ASP623  PHE694  ASN695  SER759  ASP760  ASP761  ALA762  ILE779  LEU786  VAL792 
 PHE793  MET794  SER795  GLU796  ALA797  LYS798  CYS799  TRP800  GLU811  SER814 

> <Gold.Protein.RotatedAtoms>
  151.3259  135.0830  159.9321 H   0  0  0  0  0  0  0  0  0  0  0  0  # atno 6907 bound_to 6896
  152.5246  133.9591  159.7719 H   0  0  0  0  0  0  0  0  0  0  0  0  # atno 6908 bound_to 6896
  150.9921  133.6087  159.2737 H   0  0  0  0  0  0  0  0  0  0  0  0  # atno 6909 bound_to 6896
  145.4815  140.9557  143.1862 H   0  0  0  0  0  0  0  0  0  0  0  0  # atno 7974 bound_to 7965
  155.5636  140.0627  157.2823 H   0  0  0  0  0  0  0  0  0  0  0  0  # atno 8008 bound_to 7997
  154.4382  140.1881  156.0853 H   0  0  0  0  0  0  0  0  0  0  0  0  # atno 8009 bound_to 7997
  156.0429  140.3293  155.7267 H   0  0  0  0  0  0  0  0  0  0  0  0  # atno 8010 bound_to 7997
  140.4109  143.2623  151.9019 H   0  0  0  0  0  0  0  0  0  0  0  0  # atno 10167 bound_to 10162
  156.0332  130.5547  150.7492 H   0  0  0  0  0  0  0  0  0  0  0  0  # atno 10718 bound_to 10713
  153.3190  135.4065  155.1400 H   0  0  0  0  0  0  0  0  0  0  0  0  # atno 10763 bound_to 10752
  154.8595  135.3583  154.5622 H   0  0  0  0  0  0  0  0  0  0  0  0  # atno 10764 bound_to 10752
  153.6054  135.7069  153.5426 H   0  0  0  0  0  0  0  0  0  0  0  0  # atno 10765 bound_to 10752
  139.8950  134.9548  156.6723 H   0  0  0  0  0  0  0  0  0  0  0  0  # atno 11005 bound_to 11000
  144.7886  139.6375  143.7123 LP  0  0  0  0  0  0  0  0  0  0  0  0  # atno 17320 bound_to 7965
  146.2338  139.5865  142.9537 LP  0  0  0  0  0  0  0  0  0  0  0  0  # atno 17321 bound_to 7965
  139.4782  144.5538  151.8345 LP  0  0  0  0  0  0  0  0  0  0  0  0  # atno 17342 bound_to 10162
  140.4639  144.1683  150.5909 LP  0  0  0  0  0  0  0  0  0  0  0  0  # atno 17343 bound_to 10162
  157.5041  131.0921  151.0279 LP  0  0  0  0  0  0  0  0  0  0  0  0  # atno 17370 bound_to 10713
  157.0652  130.5841  149.5392 LP  0  0  0  0  0  0  0  0  0  0  0  0  # atno 17371 bound_to 10713
  140.7364  133.9015  155.8247 LP  0  0  0  0  0  0  0  0  0  0  0  0  # atno 17394 bound_to 11000
  141.0113  134.1017  157.4218 LP  0  0  0  0  0  0  0  0  0  0  0  0  # atno 17395 bound_to 11000

$$$$
