AV-unprocessed.smi:1469|AV-procd|sdf|5959|dock1
  -GOLD-   22720 6 43D 1   1.00000     0.00000
 Structure written by MMmdl.
 41 42  0  0  0  0  0  0  0  0  2 V2000
  149.2159  132.5943  153.5963 C   0  0  0  0  0  0  0  0  0  0  0  0
  148.0154  133.5023  153.9344 C   0  0  1  0  0  0  0  0  0  0  0  0
  148.3972  134.5419  155.0193 C   0  0  0  0  0  0  0  0  0  0  0  0
  149.0702  135.7227  154.4800 N   0  0  0  0  0  0  0  0  0  0  0  0
  149.4042  136.8168  155.1812 C   0  0  0  0  0  0  0  0  0  0  0  0
  149.1986  136.9312  156.3900 O   0  0  0  0  0  0  0  0  0  0  0  0
  150.0973  137.9357  154.3907 C   0  0  0  0  0  0  0  0  0  0  0  0
  149.2375  139.1095  154.1643 N   0  0  0  0  0  0  0  0  0  0  0  0
  147.9919  138.8835  153.5450 C   0  0  0  0  0  0  0  0  0  0  0  0
  147.1329  139.8837  153.2921 C   0  0  0  0  0  0  0  0  0  0  0  0
  147.5135  141.2230  153.6738 C   0  0  0  0  0  0  0  0  0  0  0  0
  148.7038  141.4507  154.2640 C   0  0  0  0  0  0  0  0  0  0  0  0
  149.6472  140.3608  154.5394 C   0  0  0  0  0  0  0  0  0  0  0  0
  150.7388  140.5594  155.0738 O   0  0  0  0  0  0  0  0  0  0  0  0
  147.4589  134.1518  152.7121 N   0  3  0  0  0  0  0  0  0  0  0  0
  147.1659  133.2458  151.5806 C   0  0  0  0  0  0  0  0  0  0  0  0
  146.1927  134.0199  150.6994 C   0  0  0  0  0  0  0  0  0  0  0  0
  145.3280  134.7619  151.7121 C   0  0  0  0  0  0  0  0  0  0  0  0
  146.2383  134.9689  152.9308 C   0  0  0  0  0  0  0  0  0  0  0  0
  149.6690  132.1911  154.5024 H   0  0  0  0  0  0  0  0  0  0  0  0
  149.9900  133.1361  153.0528 H   0  0  0  0  0  0  0  0  0  0  0  0
  148.9199  131.7401  152.9874 H   0  0  0  0  0  0  0  0  0  0  0  0
  147.2383  132.8611  154.3537 H   0  0  0  0  0  0  0  0  0  0  0  0
  147.4990  134.8923  155.5280 H   0  0  0  0  0  0  0  0  0  0  0  0
  149.0005  134.0743  155.7994 H   0  0  0  0  0  0  0  0  0  0  0  0
  149.2704  135.7212  153.4902 H   0  0  0  0  0  0  0  0  0  0  0  0
  151.0008  138.2216  154.9310 H   0  0  0  0  0  0  0  0  0  0  0  0
  150.4493  137.5419  153.4350 H   0  0  0  0  0  0  0  0  0  0  0  0
  147.7857  137.8554  153.2853 H   0  0  0  0  0  0  0  0  0  0  0  0
  146.1838  139.6922  152.8133 H   0  0  0  0  0  0  0  0  0  0  0  0
  146.8414  142.0469  153.4844 H   0  0  0  0  0  0  0  0  0  0  0  0
  148.9721  142.4596  154.5420 H   0  0  0  0  0  0  0  0  0  0  0  0
  148.0692  132.9616  151.0402 H   0  0  0  0  0  0  0  0  0  0  0  0
  146.6862  132.3372  151.9491 H   0  0  0  0  0  0  0  0  0  0  0  0
  146.7394  134.7349  150.0828 H   0  0  0  0  0  0  0  0  0  0  0  0
  145.6141  133.3754  150.0367 H   0  0  0  0  0  0  0  0  0  0  0  0
  144.9365  135.6996  151.3165 H   0  0  0  0  0  0  0  0  0  0  0  0
  144.4763  134.1401  151.9922 H   0  0  0  0  0  0  0  0  0  0  0  0
  145.7101  134.6706  153.8375 H   0  0  0  0  0  0  0  0  0  0  0  0
  146.5221  136.0160  153.0419 H   0  0  0  0  0  0  0  0  0  0  0  0
  148.1644  134.7906  152.3734 H   0  0  0  0  0  0  0  0  0  0  0  0
  1  2  1  0  0  0  0
  1 20  1  0  0  0  0
  1 21  1  0  0  0  0
  1 22  1  0  0  0  0
  2  3  1  0  0  0  0
  2 15  1  0  0  0  0
  2 23  1  0  0  0  0
  3  4  1  0  0  0  0
  3 24  1  0  0  0  0
  3 25  1  0  0  0  0
  4  5  1  0  0  0  0
  4 26  1  0  0  0  0
  5  6  2  0  0  0  0
  5  7  1  0  0  0  0
  7  8  1  0  0  0  0
  7 27  1  0  0  0  0
  7 28  1  0  0  0  0
  8 13  1  0  0  0  0
  8  9  1  0  0  0  0
  9 10  2  0  0  0  0
  9 29  1  0  0  0  0
 10 11  1  0  0  0  0
 10 30  1  0  0  0  0
 11 12  2  0  0  0  0
 11 31  1  0  0  0  0
 12 13  1  0  0  0  0
 12 32  1  0  0  0  0
 13 14  2  0  0  0  0
 15 19  1  0  0  0  0
 15 16  1  0  0  0  0
 15 41  1  0  0  0  0
 16 17  1  0  0  0  0
 16 33  1  0  0  0  0
 16 34  1  0  0  0  0
 17 18  1  0  0  0  0
 17 35  1  0  0  0  0
 17 36  1  0  0  0  0
 18 19  1  0  0  0  0
 18 37  1  0  0  0  0
 18 38  1  0  0  0  0
 19 39  1  0  0  0  0
 19 40  1  0  0  0  0
M  CHG  1  15   1
M  END
> <s_m_source_file>
AV-unprocessed.smi

> <i_m_source_file_index>
1469

> <i_lp_mmshare_version>
43012

> <i_f3d_flags>
0

> <s_epik_input>
W0NIMl0xW0NIMl1bQ0gyXVtDSDJdTjFbQ0BIXShbQ0gzXSlbQ0gyXVtOSF1DKD1PKVtDSDJdbjJbY0hdW2NIXVtjSF1bY0hdYzI9Tw==

> <s_epik_cmdline>
J2VwaWtfcHl0aG9uJywgJy1waCcsICc3LjAnLCAnLXRuJywgJzgnLCAnLW1hJywgJzIwMCcsICctbWV0YWxfYmluZGluZycsICctaW1hZScsICc8aW5maWxlLm1hZT4nLCAnLW9tYWUnLCAnPG91dGZpbGUubWFlPic=

> <r_lp_tautomer_probability>
1

> <r_epik_Ionization_Penalty>
0.00497231

> <r_epik_Ionization_Penalty_Charging>
0.00497223

> <r_epik_Ionization_Penalty_Neutral>
8.2288e-08

> <r_epik_State_Penalty>
0.0036131

> <r_epik_Charging_Adjusted_Penalty>
0.00858533

> <i_epik_Tot_Q>
1

> <i_epik_Tot_abs_Q>
1

> <r_epik_Metal_State_Penalty>
-0

> <b_epik_Metal_Only>
0

> <s_lp_Force_Field>
OPLS_2005

> <r_lp_Energy>
47.1466

> <b_lp_Chiralities_Consistent>
1

> <s_lp_Variant>
AV-unprocessed.smi:1469-2

> <Gold.Version>
5.8.1

> <Gold.Id.Protein>
6NUR|6NUR_protein|mol2

> <Gold.PLP.Fitness>
46.9468

> <Gold.PLP.PLP>
-33.1274

> <Gold.PLP.part.hbond>
-3.0000

> <Gold.PLP.part.metal>
0.0000

> <Gold.PLP.part.buried>
-0.9287

> <Gold.PLP.part.nonpolar>
-28.3685

> <Gold.PLP.part.repulsive>
0.0917

> <Gold.PLP.ligand.clash>
0.0000

> <Gold.PLP.ligand.torsion>
0.4228

> <Gold.PLP.Chemscore.Hbond>
3.8432

> <Gold.PLP.Chemscore.CHOScore>
1.0000

> <Gold.PLP.Chemscore.Metal>
0.0000

> <Gold.Chemscore.Hbonds>
donor molecule, donor type, donor heavy atom, donor atom, acceptor molecule, acceptor atom, score
      L1  H     4    26       P1  7948  1.00
      L1  H    15    41       P1  7948  2.00
      P1  H  7989  7998       L1    14  0.73
      L1  C     9    29       P1  7948  1.00

> <Gold.PLP.Chemscore.Internal.Correction>
0.1355

> <Gold.Rescore>
     Score         DG    S(hbond)    S(metal)    S(lipo)     H(rot)  DE(clash)    DE(int)     intcor
     16.54     -17.07       2.74        0.00      62.10       1.89       0.05       0.48       ----

> <Gold.Chemscore.Fitness>
16.5411

> <Gold.Chemscore.DG>
-17.0739

> <Gold.Chemscore.ZeroCoef>
-5.4800

> <Gold.Chemscore.Hbond>
2.7432

> <Gold.Chemscore.Metal>
0.0000

> <Gold.Chemscore.Lipo>
62.0982

> <Gold.Chemscore.Internal_Hbond>
0.0000

> <Gold.Chemscore.DEClash>
0.0525

> <Gold.Chemscore.DEInternal>
0.4804

> <Gold.Chemscore.Rot>
1.8882

> <Gold.Chemscore.Internal.Correction>
   9.000000E+99

> <Gold.Chemscore.Hbonds>
donor molecule, donor type, donor heavy atom, donor atom, acceptor molecule, acceptor atom, score
      L1  H     4    26       P1  7948  0.54
      L1  H    15    41       P1  7948  0.45
      P1  H  7989  7998       L1    14  0.09

> <Gold.Chemscore.Hbond.Weighted>
-9.1623

> <Gold.Chemscore.Metal.Weighted>
-0.0000

> <Gold.Chemscore.Lipo.Weighted>
-7.2655

> <Gold.Chemscore.Internal_Hbond.Weighted>
0.0000

> <Gold.Chemscore.DEClash.Weighted>
0.0525

> <Gold.Chemscore.DEInternal.Weighted>
0.4804

> <Gold.Chemscore.Rot.Weighted>
4.8338

> <Gold.Chemscore.Internal.Correction.Weighted>
   9.000000E+99

> <Gold.Protein.RotatedTorsions>
[ 6907 6896 6895 6894 ] final  100.11 input  -60.11 | X-H torsion
[ 7974 7965 7964 7962 ] final  -31.28 input  175.53 | X-H torsion
[ 8008 7997 7996 7995 ] final -165.21 input   59.86 | X-H torsion
[ 10167 10162 10161 10158 ] final  -91.32 input  -65.29 | X-H torsion
[ 10718 10713 10712 10709 ] final  -40.05 input   66.30 | X-H torsion
[ 10763 10752 10751 10750 ] final -169.49 input  -60.55 | X-H torsion
[ 11005 11000 10999 10996 ] final -136.55 input  -57.11 | X-H torsion

> <Gold.Protein.ActiveResidues>
 VAL166  LYS551  ARG553  GLY616  TRP617  ASP618  TYR619  PRO620  LYS621  CYS622 
 ASP623  PHE694  ASN695  SER759  ASP760  ASP761  ALA762  ILE779  LEU786  VAL792 
 PHE793  MET794  SER795  GLU796  ALA797  LYS798  CYS799  TRP800  GLU811  SER814 

> <Gold.Protein.RotatedAtoms>
  152.5379  134.0327  159.8031 H   0  0  0  0  0  0  0  0  0  0  0  0  # atno 6907 bound_to 6896
  151.0495  133.5628  159.2651 H   0  0  0  0  0  0  0  0  0  0  0  0  # atno 6908 bound_to 6896
  151.2568  135.0648  159.9136 H   0  0  0  0  0  0  0  0  0  0  0  0  # atno 6909 bound_to 6896
  146.1079  140.5647  142.8791 H   0  0  0  0  0  0  0  0  0  0  0  0  # atno 7974 bound_to 7965
  155.8466  140.0956  157.1701 H   0  0  0  0  0  0  0  0  0  0  0  0  # atno 8008 bound_to 7997
  154.3984  140.1391  156.3855 H   0  0  0  0  0  0  0  0  0  0  0  0  # atno 8009 bound_to 7997
  155.8006  140.3453  155.5403 H   0  0  0  0  0  0  0  0  0  0  0  0  # atno 8010 bound_to 7997
  140.3460  143.2916  151.9780 H   0  0  0  0  0  0  0  0  0  0  0  0  # atno 10167 bound_to 10162
  156.2856  130.4222  149.8291 H   0  0  0  0  0  0  0  0  0  0  0  0  # atno 10718 bound_to 10713
  154.6517  135.2912  154.9978 H   0  0  0  0  0  0  0  0  0  0  0  0  # atno 10763 bound_to 10752
  154.1069  135.6568  153.4882 H   0  0  0  0  0  0  0  0  0  0  0  0  # atno 10764 bound_to 10752
  153.0380  135.5256  154.7428 H   0  0  0  0  0  0  0  0  0  0  0  0  # atno 10765 bound_to 10752
  140.8795  134.1950  157.4600 H   0  0  0  0  0  0  0  0  0  0  0  0  # atno 11005 bound_to 11000
  144.7487  140.5134  143.6817 LP  0  0  0  0  0  0  0  0  0  0  0  0  # atno 17320 bound_to 7965
  145.5723  139.1484  143.3281 LP  0  0  0  0  0  0  0  0  0  0  0  0  # atno 17321 bound_to 7965
  139.4833  144.6116  151.7423 LP  0  0  0  0  0  0  0  0  0  0  0  0  # atno 17342 bound_to 10162
  140.5264  144.0799  150.6039 LP  0  0  0  0  0  0  0  0  0  0  0  0  # atno 17343 bound_to 10162
  156.5723  130.8430  151.3360 LP  0  0  0  0  0  0  0  0  0  0  0  0  # atno 17370 bound_to 10713
  157.7327  130.9720  150.1943 LP  0  0  0  0  0  0  0  0  0  0  0  0  # atno 17371 bound_to 10713
  139.8718  134.9810  156.5101 LP  0  0  0  0  0  0  0  0  0  0  0  0  # atno 17394 bound_to 11000
  140.8478  133.8155  155.9139 LP  0  0  0  0  0  0  0  0  0  0  0  0  # atno 17395 bound_to 11000

$$$$
