AV-unprocessed.smi:2365|AV-procd|sdf|9421|dock10
  -GOLD-   2272013 53D 1   1.00000     0.00000
 Structure written by MMmdl.
 29 30  0  0  0  0  0  0  0  0  1 V2000
  152.4128  144.1899  161.1571 C   0  0  0  0  0  0  0  0  0  0  0  0
  152.5248  142.6622  161.1846 C   0  0  2  0  0  0  0  0  0  0  0  0
  153.8615  142.1254  160.6856 C   0  0  0  0  0  0  0  0  0  0  0  0
  153.5106  140.6896  160.3509 C   0  0  0  0  0  0  0  0  0  0  0  0
  152.0316  140.7678  159.9301 C   0  0  2  0  0  0  0  0  0  0  0  0
  151.8002  140.5846  158.4253 C   0  0  0  0  0  0  0  0  0  0  0  0
  152.7198  140.1925  157.7069 O   0  0  0  0  0  0  0  0  0  0  0  0
  150.5604  140.8705  157.9886 N   0  0  0  0  0  0  0  0  0  0  0  0
  150.0494  140.7957  156.6628 C   0  0  0  0  0  0  0  0  0  0  0  0
  150.7103  140.1135  155.6112 C   0  0  0  0  0  0  0  0  0  0  0  0
  150.2398  140.0574  154.3472 N   0  0  0  0  0  0  0  0  0  0  0  0
  149.0815  140.6920  154.0737 C   0  0  0  0  0  0  0  0  0  0  0  0
  148.3486  141.4141  155.0354 C   0  0  0  0  0  0  0  0  0  0  0  0
  146.8789  142.2043  154.5865 Cl  0  0  0  0  0  0  0  0  0  0  0  0
  148.8454  141.4718  156.3558 C   0  0  0  0  0  0  0  0  0  0  0  0
  147.9884  142.3511  157.5767 Cl  0  0  0  0  0  0  0  0  0  0  0  0
  151.5916  142.0769  160.2885 O   0  0  0  0  0  0  0  0  0  0  0  0
  153.1467  144.6483  161.8204 H   0  0  0  0  0  0  0  0  0  0  0  0
  151.4229  144.5123  161.4810 H   0  0  0  0  0  0  0  0  0  0  0  0
  152.5778  144.5801  160.1524 H   0  0  0  0  0  0  0  0  0  0  0  0
  152.3257  142.2868  162.1900 H   0  0  0  0  0  0  0  0  0  0  0  0
  154.1719  142.6528  159.7824 H   0  0  0  0  0  0  0  0  0  0  0  0
  154.6593  142.2094  161.4239 H   0  0  0  0  0  0  0  0  0  0  0  0
  154.1713  140.2719  159.5899 H   0  0  0  0  0  0  0  0  0  0  0  0
  153.6060  140.0662  161.2408 H   0  0  0  0  0  0  0  0  0  0  0  0
  151.4530  140.0323  160.4916 H   0  0  0  0  0  0  0  0  0  0  0  0
  149.8834  141.0978  158.7027 H   0  0  0  0  0  0  0  0  0  0  0  0
  151.6540  139.6123  155.7617 H   0  0  0  0  0  0  0  0  0  0  0  0
  148.7316  140.6268  153.0539 H   0  0  0  0  0  0  0  0  0  0  0  0
  1  2  1  0  0  0  0
  1 18  1  0  0  0  0
  1 19  1  0  0  0  0
  1 20  1  0  0  0  0
  2 17  1  0  0  0  0
  2  3  1  0  0  0  0
  2 21  1  0  0  0  0
  3  4  1  0  0  0  0
  3 22  1  0  0  0  0
  3 23  1  0  0  0  0
  4  5  1  0  0  0  0
  4 24  1  0  0  0  0
  4 25  1  0  0  0  0
  5  6  1  0  0  0  0
  5 17  1  0  0  0  0
  5 26  1  0  0  0  0
  6  7  2  0  0  0  0
  6  8  1  0  0  0  0
  8  9  1  0  0  0  0
  8 27  1  0  0  0  0
  9 15  1  0  0  0  0
  9 10  2  0  0  0  0
 10 11  1  0  0  0  0
 10 28  1  0  0  0  0
 11 12  2  0  0  0  0
 12 13  1  0  0  0  0
 12 29  1  0  0  0  0
 13 14  1  0  0  0  0
 13 15  2  0  0  0  0
 15 16  1  0  0  0  0
M  END
> <s_m_source_file>
AV-unprocessed.smi

> <i_m_source_file_index>
2365

> <i_lp_mmshare_version>
43012

> <i_f3d_flags>
0

> <s_epik_input>
W0NIM11bQ0BASF0xW0NIMl1bQ0gyXVtDQEhdKE8xKUMoPU8pW05IXWMyW2NIXW5bY0hdYyhDbCljMkNs

> <s_epik_cmdline>
J2VwaWtfcHl0aG9uJywgJy1waCcsICc3LjAnLCAnLXRuJywgJzgnLCAnLW1hJywgJzIwMCcsICctbWV0YWxfYmluZGluZycsICctaW1hZScsICc8aW5maWxlLm1hZT4nLCAnLW9tYWUnLCAnPG91dGZpbGUubWFlPic=

> <r_lp_tautomer_probability>
1

> <r_epik_Ionization_Penalty>
7.32461e-06

> <r_epik_Ionization_Penalty_Charging>
0

> <r_epik_Ionization_Penalty_Neutral>
7.32461e-06

> <r_epik_State_Penalty>
-0

> <r_epik_Charging_Adjusted_Penalty>
0

> <i_epik_Tot_Q>
0

> <i_epik_Tot_abs_Q>
0

> <r_epik_Metal_State_Penalty>
-0

> <b_epik_Metal_Only>
0

> <s_lp_Force_Field>
OPLS_2005

> <r_lp_Energy>
23.8837

> <b_lp_Chiralities_Consistent>
1

> <s_lp_Variant>
AV-unprocessed.smi:2365-3

> <Gold.Version>
5.8.1

> <Gold.Id.Protein>
6NUR|6NUR_protein|mol2

> <Gold.PLP.Fitness>
40.8220

> <Gold.PLP.PLP>
-32.4003

> <Gold.PLP.part.hbond>
-3.0000

> <Gold.PLP.part.metal>
0.0000

> <Gold.PLP.part.buried>
-2.0633

> <Gold.PLP.part.nonpolar>
-27.3624

> <Gold.PLP.part.repulsive>
0.2440

> <Gold.PLP.ligand.clash>
0.0000

> <Gold.PLP.ligand.torsion>
0.2330

> <Gold.PLP.Chemscore.Hbond>
1.9600

> <Gold.PLP.Chemscore.CHOScore>
1.0000

> <Gold.PLP.Chemscore.Metal>
0.0000

> <Gold.Chemscore.Hbonds>
donor molecule, donor type, donor heavy atom, donor atom, acceptor molecule, acceptor atom, score
      P1  H  7989  7998       L1    11  1.00
      P1  H  7997  8008       L1     7  1.00
      L1  C    12    29       P1  7957  1.00

> <Gold.PLP.Chemscore.Internal.Correction>
0.0077

> <Gold.Rescore>
     Score         DG    S(hbond)    S(metal)    S(lipo)     H(rot)  DE(clash)    DE(int)     intcor
     15.97     -17.91       1.31        0.00      90.76       1.00       0.52       1.42       ----

> <Gold.Chemscore.Fitness>
15.9694

> <Gold.Chemscore.DG>
-17.9071

> <Gold.Chemscore.ZeroCoef>
-5.4800

> <Gold.Chemscore.Hbond>
1.3079

> <Gold.Chemscore.Metal>
0.0000

> <Gold.Chemscore.Lipo>
90.7571

> <Gold.Chemscore.Internal_Hbond>
0.0000

> <Gold.Chemscore.DEClash>
0.5187

> <Gold.Chemscore.DEInternal>
1.4190

> <Gold.Chemscore.Rot>
1.0000

> <Gold.Chemscore.Internal.Correction>
   9.000000E+99

> <Gold.Chemscore.Hbonds>
donor molecule, donor type, donor heavy atom, donor atom, acceptor molecule, acceptor atom, score
      P1  H  7989  7998       L1    11  0.19
      P1  H  7997  8008       L1     7  0.94

> <Gold.Chemscore.Hbond.Weighted>
-4.3685

> <Gold.Chemscore.Metal.Weighted>
-0.0000

> <Gold.Chemscore.Lipo.Weighted>
-10.6186

> <Gold.Chemscore.Internal_Hbond.Weighted>
0.0000

> <Gold.Chemscore.DEClash.Weighted>
0.5187

> <Gold.Chemscore.DEInternal.Weighted>
1.4190

> <Gold.Chemscore.Rot.Weighted>
2.5600

> <Gold.Chemscore.Internal.Correction.Weighted>
   9.000000E+99

> <Gold.Protein.RotatedTorsions>
[ 6907 6896 6895 6894 ] final  171.11 input  -60.11 | X-H torsion
[ 7974 7965 7964 7962 ] final  -32.66 input  175.53 | X-H torsion
[ 8008 7997 7996 7995 ] final  -67.09 input   59.86 | X-H torsion
[ 10167 10162 10161 10158 ] final -108.14 input  -65.29 | X-H torsion
[ 10718 10713 10712 10709 ] final -148.77 input   66.30 | X-H torsion
[ 10763 10752 10751 10750 ] final -140.05 input  -60.55 | X-H torsion
[ 11005 11000 10999 10996 ] final   50.93 input  -57.11 | X-H torsion

> <Gold.Protein.ActiveResidues>
 VAL166  LYS551  ARG553  GLY616  TRP617  ASP618  TYR619  PRO620  LYS621  CYS622 
 ASP623  PHE694  ASN695  SER759  ASP760  ASP761  ALA762  ILE779  LEU786  VAL792 
 PHE793  MET794  SER795  GLU796  ALA797  LYS798  CYS799  TRP800  GLU811  SER814 

> <Gold.Protein.RotatedAtoms>
  151.8054  133.3375  159.3539 H   0  0  0  0  0  0  0  0  0  0  0  0  # atno 6907 bound_to 6896
  150.7344  134.5714  159.5901 H   0  0  0  0  0  0  0  0  0  0  0  0  # atno 6908 bound_to 6896
  152.3113  134.7495  160.0387 H   0  0  0  0  0  0  0  0  0  0  0  0  # atno 6909 bound_to 6896
  146.0972  140.5820  142.8837 H   0  0  0  0  0  0  0  0  0  0  0  0  # atno 7974 bound_to 7965
  154.4777  140.0899  156.7302 H   0  0  0  0  0  0  0  0  0  0  0  0  # atno 8008 bound_to 7997
  155.4552  140.3459  155.4287 H   0  0  0  0  0  0  0  0  0  0  0  0  # atno 8009 bound_to 7997
  156.1143  140.1456  156.9283 H   0  0  0  0  0  0  0  0  0  0  0  0  # atno 8010 bound_to 7997
  140.1694  143.4055  152.1366 H   0  0  0  0  0  0  0  0  0  0  0  0  # atno 10167 bound_to 10162
  156.4245  130.8045  151.2270 H   0  0  0  0  0  0  0  0  0  0  0  0  # atno 10718 bound_to 10713
  154.8591  135.3564  154.5645 H   0  0  0  0  0  0  0  0  0  0  0  0  # atno 10763 bound_to 10752
  153.6259  135.7004  153.5298 H   0  0  0  0  0  0  0  0  0  0  0  0  # atno 10764 bound_to 10752
  153.3090  135.4184  155.1279 H   0  0  0  0  0  0  0  0  0  0  0  0  # atno 10765 bound_to 10752
  140.0975  134.5125  155.8793 H   0  0  0  0  0  0  0  0  0  0  0  0  # atno 11005 bound_to 11000
  144.7405  140.4928  143.6873 LP  0  0  0  0  0  0  0  0  0  0  0  0  # atno 17320 bound_to 7965
  145.5924  139.1497  143.3174 LP  0  0  0  0  0  0  0  0  0  0  0  0  # atno 17321 bound_to 7965
  139.5345  144.7194  151.4942 LP  0  0  0  0  0  0  0  0  0  0  0  0  # atno 17342 bound_to 10162
  140.6592  143.8535  150.6868 LP  0  0  0  0  0  0  0  0  0  0  0  0  # atno 17343 bound_to 10162
  157.7508  131.0217  150.3763 LP  0  0  0  0  0  0  0  0  0  0  0  0  # atno 17370 bound_to 10713
  156.4087  130.3930  149.6907 LP  0  0  0  0  0  0  0  0  0  0  0  0  # atno 17371 bound_to 10713
  141.2096  133.6686  156.6452 LP  0  0  0  0  0  0  0  0  0  0  0  0  # atno 17394 bound_to 11000
  140.3266  134.7964  157.4293 LP  0  0  0  0  0  0  0  0  0  0  0  0  # atno 17395 bound_to 11000

$$$$
