#       Name:                AV-unprocessed.smi:2858
#       Creating user name   scv26
#       Creation time:       Fri Mar 27 15:46:06 2020


#       File generated by GOLD software.
#

@<TRIPOS>MOLECULE
AV-unprocessed.smi:2858
    45    46     1
SMALL
NO_CHARGES


@<TRIPOS>ATOM
      1 ****        -4.7266   1.7501  -2.8374 O.2            1 S1                 0.0000
      2 ****        -4.0673   2.4386  -2.0617 C.2            1 S1                 0.0000
      3 ****        -2.5328   2.1998  -2.0430 C.3            1 S1                 0.0000
      4 ****        -1.8949   2.7108  -0.7949 N.4            1 S1                 1.0000
      5 ****        -0.4175   2.5602  -0.7835 C.3            1 S1                 0.0000
      6 ****         0.0316   1.0924  -0.6838 C.3            1 S1                 0.0000
      7 ****         1.5544   0.9588  -0.5154 C.3            1 S1                 0.0000
      8 ****         1.9715  -0.4375  -0.4534 N.am           1 S1                 0.0000
      9 ****         1.8566  -1.2267   0.6247 C.2            1 S1                 0.0000
     10 ****         1.3727  -0.8478   1.6919 O.2            1 S1                 0.0000
     11 ****         2.3363  -2.4592   0.3806 N.am           1 S1                 0.0000
     12 ****         2.3674  -3.5783   1.2551 C.ar           1 S1                 0.0000
     13 ****         2.9794  -4.7362   0.7240 C.ar           1 S1                 0.0000
     14 ****         3.0574  -5.9016   1.5112 C.ar           1 S1                 0.0000
     15 ****         2.5209  -5.8790   2.8109 C.ar           1 S1                 0.0000
     16 ****         1.9279  -4.6857   3.2626 C.ar           1 S1                 0.0000
     17 ****         1.8513  -3.5679   2.5096 N.ar           1 S1                 0.0000
     18 ****        -2.3229   4.0996  -0.4851 C.3            1 S1                 0.0000
     19 ****        -3.8374   4.1474  -0.2075 C.3            1 S1                 0.0000
     20 ****        -4.5687   3.4229  -1.2525 N.pl3          1 S1                -1.0000
     21 ****        -2.3529   1.1305  -2.1481 H              1 S1                 0.0000
     22 ****        -2.0946   2.6915  -2.9127 H              1 S1                 0.0000
     23 ****         0.0100   3.0351  -1.6676 H              1 S1                 0.0000
     24 ****        -0.0174   3.0943   0.0795 H              1 S1                 0.0000
     25 ****        -0.4738   0.6214   0.1604 H              1 S1                 0.0000
     26 ****        -0.2711   0.5423  -1.5747 H              1 S1                 0.0000
     27 ****         2.0639   1.4252  -1.3590 H              1 S1                 0.0000
     28 ****         1.8894   1.4858   0.3796 H              1 S1                 0.0000
     29 ****         2.3821  -0.8284  -1.2889 H              1 S1                 0.0000
     30 ****         2.7217  -2.6175  -0.5386 H              1 S1                 0.0000
     31 ****         3.3881  -4.7361  -0.2763 H              1 S1                 0.0000
     32 ****         3.5217  -6.7965   1.1241 H              1 S1                 0.0000
     33 ****         2.5626  -6.7522   3.4449 H              1 S1                 0.0000
     34 ****         1.5034  -4.6265   4.2538 H              1 S1                 0.0000
     35 ****        -1.7915   4.4780   0.3889 H              1 S1                 0.0000
     36 ****        -2.0655   4.7539  -1.3199 H              1 S1                 0.0000
     37 ****        -4.0253   3.7061   0.7716 H              1 S1                 0.0000
     38 ****        -4.1576   5.1863  -0.1316 H              1 S1                 0.0000
     39 ****        -2.2538   2.1461  -0.0384 H              1 S1                 0.0000
     40 ****        -5.7140   1.8889  -2.9136 LP             1 S1                 0.0000
     41 ****        -4.2756   1.0511  -3.3924 LP             1 S1                 0.0000
     42 ****         1.0414   0.0911   1.7853 LP             1 S1                 0.0000
     43 ****         1.3111  -1.4790   2.4651 LP             1 S1                 0.0000
     44 ****         1.4193  -2.7421   2.8722 LP             1 S1                 0.0000
     45 ****        -5.5276   3.6723  -1.3872 LP             1 S1                 0.0000
@<TRIPOS>BOND
    1    1    2 2     
    2    2   20 1     
    3    2    3 1     
    4    3    4 1     
    5    3   21 1     
    6    3   22 1     
    7    4    5 1     
    8    4   18 1     
    9    4   39 1     
   10    5    6 1     
   11    5   23 1     
   12    5   24 1     
   13    6    7 1     
   14    6   25 1     
   15    6   26 1     
   16    7    8 1     
   17    7   27 1     
   18    7   28 1     
   19    8    9 am    
   20    8   29 1     
   21    9   10 2     
   22    9   11 am    
   23   11   12 1     
   24   11   30 1     
   25   12   17 ar    
   26   12   13 ar    
   27   13   14 ar    
   28   13   31 1     
   29   14   15 ar    
   30   14   32 1     
   31   15   16 ar    
   32   15   33 1     
   33   16   17 ar    
   34   16   34 1     
   35   18   19 1     
   36   18   35 1     
   37   18   36 1     
   38   19   20 1     
   39   19   37 1     
   40   19   38 1     
   41    1   40 1     
   42    1   41 1     
   43   10   42 1     
   44   10   43 1     
   45   17   44 1     
   46   20   45 1     
@<TRIPOS>SUBSTRUCTURE
      1 S1             1
@<TRIPOS>SET
LONE_PAIRS      STATIC     ATOMS    <user>   **** ""
6 40 41 42 43 44 45
DONOR_HYDROGENS      STATIC     ATOMS    <user>   **** ""
3 39 29 30
ATOM$BLUE        STATIC     ATOMS    COLORGROUP SYSTEM
6 40 41 42 43 44 45
ATOM$RED        STATIC     ATOMS    COLORGROUP SYSTEM
3 39 29 30
