AV-unprocessed.smi:1388|AV-procd|sdf|5644|dock9
  -GOLD-   22720 5263D 1   1.00000     0.00000
 Structure written by MMmdl.
 45 46  0  0  0  0  0  0  0  0  3 V2000
  143.1574  136.2753  153.0336 C   0  0  0  0  0  0  0  0  0  0  0  0
  144.1002  137.3155  152.6390 N   0  5  0  0  0  0  0  0  0  0  0  0
  145.4023  137.3394  153.0387 C   0  0  0  0  0  0  0  0  0  0  0  0
  145.9988  136.6596  153.8797 O   0  0  0  0  0  0  0  0  0  0  0  0
  146.1950  138.4126  152.2807 C   0  0  0  0  0  0  0  0  0  0  0  0
  146.8750  139.3398  153.2220 N   0  3  2  0  0  0  0  0  0  0  0  0
  147.2212  140.6373  152.5896 C   0  0  0  0  0  0  0  0  0  0  0  0
  147.7774  141.6291  153.6251 C   0  0  0  0  0  0  0  0  0  0  0  0
  148.9906  141.0398  154.3674 C   0  0  1  0  0  0  0  0  0  0  0  0
  149.4466  141.9449  155.4182 N   0  0  0  0  0  0  0  0  0  0  0  0
  150.3076  141.6225  156.3946 C   0  0  0  0  0  0  0  0  0  0  0  0
  150.8199  140.5081  156.5049 O   0  0  0  0  0  0  0  0  0  0  0  0
  150.5309  142.6680  157.2104 N   0  0  0  0  0  0  0  0  0  0  0  0
  151.3491  142.7235  158.3742 C   0  0  0  0  0  0  0  0  0  0  0  0
  151.9965  141.6368  158.8651 N   0  0  0  0  0  0  0  0  0  0  0  0
  152.7490  141.7567  159.9777 C   0  0  0  0  0  0  0  0  0  0  0  0
  152.9036  142.9683  160.6726 C   0  0  0  0  0  0  0  0  0  0  0  0
  152.2408  144.1042  160.1772 C   0  0  0  0  0  0  0  0  0  0  0  0
  151.4511  143.9882  159.0134 C   0  0  0  0  0  0  0  0  0  0  0  0
  150.7339  145.2162  158.4759 C   0  0  0  0  0  0  0  0  0  0  0  0
  148.6111  139.6812  154.9775 C   0  0  0  0  0  0  0  0  0  0  0  0
  148.0467  138.7325  153.9080 C   0  0  0  0  0  0  0  0  0  0  0  0
  142.1809  136.4183  152.5713 H   0  0  0  0  0  0  0  0  0  0  0  0
  142.9887  136.2576  154.1108 H   0  0  0  0  0  0  0  0  0  0  0  0
  143.4916  135.2776  152.7484 H   0  0  0  0  0  0  0  0  0  0  0  0
  146.9230  137.9540  151.6096 H   0  0  0  0  0  0  0  0  0  0  0  0
  145.4921  138.9609  151.6509 H   0  0  0  0  0  0  0  0  0  0  0  0
  147.9501  140.4724  151.7945 H   0  0  0  0  0  0  0  0  0  0  0  0
  146.3339  141.0677  152.1237 H   0  0  0  0  0  0  0  0  0  0  0  0
  148.0546  142.5593  153.1279 H   0  0  0  0  0  0  0  0  0  0  0  0
  146.9923  141.8824  154.3394 H   0  0  0  0  0  0  0  0  0  0  0  0
  149.8017  140.8786  153.6543 H   0  0  0  0  0  0  0  0  0  0  0  0
  149.0756  142.8837  155.4023 H   0  0  0  0  0  0  0  0  0  0  0  0
  150.0556  143.5269  156.9767 H   0  0  0  0  0  0  0  0  0  0  0  0
  153.2408  140.8598  160.3242 H   0  0  0  0  0  0  0  0  0  0  0  0
  153.5144  143.0241  161.5617 H   0  0  0  0  0  0  0  0  0  0  0  0
  152.3388  145.0512  160.6875 H   0  0  0  0  0  0  0  0  0  0  0  0
  150.9576  146.0998  159.0742 H   0  0  0  0  0  0  0  0  0  0  0  0
  149.6541  145.0645  158.4913 H   0  0  0  0  0  0  0  0  0  0  0  0
  151.0413  145.4206  157.4499 H   0  0  0  0  0  0  0  0  0  0  0  0
  149.4821  139.2257  155.4504 H   0  0  0  0  0  0  0  0  0  0  0  0
  147.8678  139.8197  155.7643 H   0  0  0  0  0  0  0  0  0  0  0  0
  147.7630  137.7930  154.3832 H   0  0  0  0  0  0  0  0  0  0  0  0
  148.8168  138.4933  153.1729 H   0  0  0  0  0  0  0  0  0  0  0  0
  146.1870  139.5414  153.9349 H   0  0  0  0  0  0  0  0  0  0  0  0
  1  2  1  0  0  0  0
  1 23  1  0  0  0  0
  1 24  1  0  0  0  0
  1 25  1  0  0  0  0
  2  3  1  0  0  0  0
  3  4  2  0  0  0  0
  3  5  1  0  0  0  0
  5  6  1  0  0  0  0
  5 26  1  0  0  0  0
  5 27  1  0  0  0  0
  6 22  1  0  0  0  0
  6  7  1  0  0  0  0
  6 45  1  0  0  0  0
  7  8  1  0  0  0  0
  7 28  1  0  0  0  0
  7 29  1  0  0  0  0
  8  9  1  0  0  0  0
  8 30  1  0  0  0  0
  8 31  1  0  0  0  0
  9 10  1  0  0  0  0
  9 21  1  0  0  0  0
  9 32  1  0  0  0  0
 10 11  1  0  0  0  0
 10 33  1  0  0  0  0
 11 12  2  0  0  0  0
 11 13  1  0  0  0  0
 13 14  1  0  0  0  0
 13 34  1  0  0  0  0
 14 19  1  0  0  0  0
 14 15  2  0  0  0  0
 15 16  1  0  0  0  0
 16 17  2  0  0  0  0
 16 35  1  0  0  0  0
 17 18  1  0  0  0  0
 17 36  1  0  0  0  0
 18 19  2  0  0  0  0
 18 37  1  0  0  0  0
 19 20  1  0  0  0  0
 20 38  1  0  0  0  0
 20 39  1  0  0  0  0
 20 40  1  0  0  0  0
 21 22  1  0  0  0  0
 21 41  1  0  0  0  0
 21 42  1  0  0  0  0
 22 43  1  0  0  0  0
 22 44  1  0  0  0  0
M  CHG  1   2  -1
M  CHG  1   6   1
M  END
> <s_m_source_file>
AV-unprocessed.smi

> <i_m_source_file_index>
1388

> <i_lp_mmshare_version>
43012

> <i_f3d_flags>
0

> <s_epik_input>
W0NIM11bTkhdQyg9TylbQ0gyXU4xW0NIMl1bQ0gyXVtDSF0oW0NIMl1bQ0gyXTEpW05IXUMoPU8pW05IXWMybltjSF1bY0hdW2NIXWMyW0NIM10=

> <s_epik_cmdline>
J2VwaWtfcHl0aG9uJywgJy1waCcsICc3LjAnLCAnLXRuJywgJzgnLCAnLW1hJywgJzIwMCcsICctbWV0YWxfYmluZGluZycsICctaW1hZScsICc8aW5maWxlLm1hZT4nLCAnLW9tYWUnLCAnPG91dGZpbGUubWFlPic=

> <r_epik_Ionization_Penalty>
6.13951

> <r_epik_Ionization_Penalty_Charging>
6.13946

> <r_epik_Ionization_Penalty_Neutral>
4.54304e-05

> <r_epik_State_Penalty>
6.9595

> <r_epik_Charging_Adjusted_Penalty>
13.099

> <i_epik_Tot_Q>
0

> <i_epik_Tot_abs_Q>
2

> <r_epik_Metal_State_Penalty>
2.89141

> <b_epik_Metal_Only>
1

> <s_lp_Force_Field>
OPLS_2005

> <r_lp_Energy>
12.447

> <b_lp_Chiralities_Consistent>
1

> <s_lp_Variant>
AV-unprocessed.smi:1388-4

> <Gold.Version>
5.8.1

> <Gold.Id.Protein>
6NUR|6NUR_protein|mol2

> <Gold.PLP.Fitness>
43.4924

> <Gold.PLP.PLP>
-38.5944

> <Gold.PLP.part.hbond>
-2.0000

> <Gold.PLP.part.metal>
0.0000

> <Gold.PLP.part.buried>
-4.3543

> <Gold.PLP.part.nonpolar>
-33.2685

> <Gold.PLP.part.repulsive>
0.4905

> <Gold.PLP.ligand.clash>
0.0000

> <Gold.PLP.ligand.torsion>
0.3621

> <Gold.PLP.Chemscore.Hbond>
1.8544

> <Gold.PLP.Chemscore.CHOScore>
0.0000

> <Gold.PLP.Chemscore.Metal>
0.0000

> <Gold.Chemscore.Hbonds>
donor molecule, donor type, donor heavy atom, donor atom, acceptor molecule, acceptor atom, score
      L1  H    10    33       P1  8028  1.00
      L1  H    13    34       P1  8028  0.78

> <Gold.PLP.Chemscore.Internal.Correction>
0.0592

> <Gold.Rescore>
     Score         DG    S(hbond)    S(metal)    S(lipo)     H(rot)  DE(clash)    DE(int)     intcor
     14.84     -18.79       1.76        0.00      99.07       1.63       0.16       3.79       ----

> <Gold.Chemscore.Fitness>
14.8418

> <Gold.Chemscore.DG>
-18.7927

> <Gold.Chemscore.ZeroCoef>
-5.4800

> <Gold.Chemscore.Hbond>
1.7649

> <Gold.Chemscore.Metal>
0.0000

> <Gold.Chemscore.Lipo>
99.0722

> <Gold.Chemscore.Internal_Hbond>
0.0000

> <Gold.Chemscore.DEClash>
0.1565

> <Gold.Chemscore.DEInternal>
3.7944

> <Gold.Chemscore.Rot>
1.6303

> <Gold.Chemscore.Internal.Correction>
   9.000000E+99

> <Gold.Chemscore.Hbonds>
donor molecule, donor type, donor heavy atom, donor atom, acceptor molecule, acceptor atom, score
      L1  H    10    33       P1  8028  1.00
      L1  H    13    34       P1  8028  0.74

> <Gold.Chemscore.Hbond.Weighted>
-5.8948

> <Gold.Chemscore.Metal.Weighted>
-0.0000

> <Gold.Chemscore.Lipo.Weighted>
-11.5915

> <Gold.Chemscore.Internal_Hbond.Weighted>
0.0000

> <Gold.Chemscore.DEClash.Weighted>
0.1565

> <Gold.Chemscore.DEInternal.Weighted>
3.7944

> <Gold.Chemscore.Rot.Weighted>
4.1735

> <Gold.Chemscore.Internal.Correction.Weighted>
   9.000000E+99

> <Gold.Protein.RotatedTorsions>
[ 6907 6896 6895 6894 ] final   18.75 input  -60.11 | X-H torsion
[ 7974 7965 7964 7962 ] final  -70.16 input  175.53 | X-H torsion
[ 8008 7997 7996 7995 ] final   74.61 input   59.86 | X-H torsion
[ 10167 10162 10161 10158 ] final   30.76 input  -65.29 | X-H torsion
[ 10718 10713 10712 10709 ] final  167.64 input   66.30 | X-H torsion
[ 10763 10752 10751 10750 ] final -100.31 input  -60.55 | X-H torsion
[ 11005 11000 10999 10996 ] final  -38.45 input  -57.11 | X-H torsion

> <Gold.Protein.ActiveResidues>
 VAL166  LYS551  ARG553  GLY616  TRP617  ASP618  TYR619  PRO620  LYS621  CYS622 
 ASP623  PHE694  ASN695  SER759  ASP760  ASP761  ALA762  ILE779  LEU786  VAL792 
 PHE793  MET794  SER795  GLU796  ALA797  LYS798  CYS799  TRP800  GLU811  SER814 

> <Gold.Protein.RotatedAtoms>
  151.8702  135.0492  160.0478 H   0  0  0  0  0  0  0  0  0  0  0  0  # atno 6907 bound_to 6896
  152.2594  133.5280  159.5381 H   0  0  0  0  0  0  0  0  0  0  0  0  # atno 6908 bound_to 6896
  150.7111  134.0766  159.3925 H   0  0  0  0  0  0  0  0  0  0  0  0  # atno 6909 bound_to 6896
  145.6945  140.9140  143.0764 H   0  0  0  0  0  0  0  0  0  0  0  0  # atno 7974 bound_to 7965
  155.8009  140.3476  155.5402 H   0  0  0  0  0  0  0  0  0  0  0  0  # atno 8008 bound_to 7997
  155.8539  140.0960  157.1677 H   0  0  0  0  0  0  0  0  0  0  0  0  # atno 8009 bound_to 7997
  154.4009  140.1371  156.3865 H   0  0  0  0  0  0  0  0  0  0  0  0  # atno 8010 bound_to 7997
  140.4649  144.0851  150.6222 H   0  0  0  0  0  0  0  0  0  0  0  0  # atno 10167 bound_to 10162
  157.0486  131.0307  151.2688 H   0  0  0  0  0  0  0  0  0  0  0  0  # atno 10718 bound_to 10713
  154.7569  135.4940  153.9391 H   0  0  0  0  0  0  0  0  0  0  0  0  # atno 10763 bound_to 10752
  153.1206  135.6731  153.9350 H   0  0  0  0  0  0  0  0  0  0  0  0  # atno 10764 bound_to 10752
  153.9083  135.3102  155.3427 H   0  0  0  0  0  0  0  0  0  0  0  0  # atno 10765 bound_to 10752
  141.0029  133.6946  156.2055 H   0  0  0  0  0  0  0  0  0  0  0  0  # atno 11005 bound_to 11000
  144.6987  139.8865  143.7450 LP  0  0  0  0  0  0  0  0  0  0  0  0  # atno 17320 bound_to 7965
  146.0853  139.3841  143.0439 LP  0  0  0  0  0  0  0  0  0  0  0  0  # atno 17321 bound_to 7965
  140.4048  143.2685  151.9904 LP  0  0  0  0  0  0  0  0  0  0  0  0  # atno 17342 bound_to 10162
  139.4811  144.5966  151.7679 LP  0  0  0  0  0  0  0  0  0  0  0  0  # atno 17343 bound_to 10162
  157.5048  130.7902  149.7642 LP  0  0  0  0  0  0  0  0  0  0  0  0  # atno 17370 bound_to 10713
  156.0015  130.3878  150.2589 LP  0  0  0  0  0  0  0  0  0  0  0  0  # atno 17371 bound_to 10713
  140.6860  134.4716  157.5589 LP  0  0  0  0  0  0  0  0  0  0  0  0  # atno 17394 bound_to 11000
  139.9048  134.8474  156.1750 LP  0  0  0  0  0  0  0  0  0  0  0  0  # atno 17395 bound_to 11000

$$$$
