AV-unprocessed.smi:2071|AV-procd|sdf|8441|dock1
  -GOLD-   2272011143D 1   1.00000     0.00000
 Structure written by MMmdl.
 44 46  0  0  0  0  0  0  0  0  2 V2000
  147.9537  132.7208  154.5032 O   0  0  0  0  0  0  0  0  0  0  0  0
  148.0434  133.7810  153.8847 C   0  0  0  0  0  0  0  0  0  0  0  0
  148.8101  134.8078  154.2796 N   0  0  0  0  0  0  0  0  0  0  0  0
  149.6342  134.8352  155.4848 C   0  0  0  0  0  0  0  0  0  0  0  0
  148.8843  135.4447  156.6803 C   0  0  0  0  0  0  0  0  0  0  0  0
  149.3728  134.9382  158.0510 C   0  0  0  0  0  0  0  0  0  0  0  0
  148.6449  135.5869  159.1463 N   0  0  0  0  0  0  0  0  0  0  0  0
  148.7368  136.8907  159.4739 C   0  0  0  0  0  0  0  0  0  0  0  0
  149.4787  137.6678  158.8739 O   0  0  0  0  0  0  0  0  0  0  0  0
  147.9193  137.1941  160.5098 N   0  5  0  0  0  0  0  0  0  0  0  0
  147.2051  135.9962  160.9001 C   0  0  0  0  0  0  0  0  0  0  0  0
  147.4271  135.6292  162.3756 C   0  0  0  0  0  0  0  0  0  0  0  0
  146.2058  134.7861  162.7711 C   0  0  0  0  0  0  0  0  0  0  0  0
  145.0965  135.1177  161.7581 C   0  0  0  0  0  0  0  0  0  0  0  0
  145.6811  136.1630  160.7983 C   0  0  0  0  0  0  0  0  0  0  0  0
  147.7609  134.9624  159.9312 C   0  0  0  0  0  0  0  0  0  0  0  0
  147.4283  133.7766  159.8929 O   0  0  0  0  0  0  0  0  0  0  0  0
  147.4131  134.0627  152.7311 N   0  0  0  0  0  0  0  0  0  0  0  0
  146.5327  133.2387  151.9781 C   0  0  0  0  0  0  0  0  0  0  0  0
  146.0393  131.9860  152.4175 C   0  0  0  0  0  0  0  0  0  0  0  0
  145.1596  131.2708  151.5824 C   0  0  0  0  0  0  0  0  0  0  0  0
  144.7989  131.8355  150.3438 C   0  0  0  0  0  0  0  0  0  0  0  0
  145.2495  133.0344  149.9182 N   0  0  0  0  0  0  0  0  0  0  0  0
  146.0924  133.7146  150.7246 C   0  0  0  0  0  0  0  0  0  0  0  0
  148.8199  135.6394  153.7076 H   0  0  0  0  0  0  0  0  0  0  0  0
  150.0031  133.8412  155.7424 H   0  0  0  0  0  0  0  0  0  0  0  0
  150.5167  135.4373  155.2685 H   0  0  0  0  0  0  0  0  0  0  0  0
  148.9955  136.5292  156.6409 H   0  0  0  0  0  0  0  0  0  0  0  0
  147.8165  135.2474  156.5763 H   0  0  0  0  0  0  0  0  0  0  0  0
  149.2467  133.8569  158.1225 H   0  0  0  0  0  0  0  0  0  0  0  0
  150.4447  135.1146  158.1533 H   0  0  0  0  0  0  0  0  0  0  0  0
  148.3635  135.0964  162.5492 H   0  0  0  0  0  0  0  0  0  0  0  0
  147.4539  136.5328  162.9870 H   0  0  0  0  0  0  0  0  0  0  0  0
  146.4486  133.7243  162.7158 H   0  0  0  0  0  0  0  0  0  0  0  0
  145.8959  134.9956  163.7953 H   0  0  0  0  0  0  0  0  0  0  0  0
  144.8216  134.2175  161.2073 H   0  0  0  0  0  0  0  0  0  0  0  0
  144.1947  135.4878  162.2463 H   0  0  0  0  0  0  0  0  0  0  0  0
  145.3894  137.1604  161.1315 H   0  0  0  0  0  0  0  0  0  0  0  0
  145.3026  136.0401  159.7822 H   0  0  0  0  0  0  0  0  0  0  0  0
  147.6418  134.9504  152.3079 H   0  0  0  0  0  0  0  0  0  0  0  0
  146.3035  131.5670  153.3757 H   0  0  0  0  0  0  0  0  0  0  0  0
  144.7671  130.3121  151.8874 H   0  0  0  0  0  0  0  0  0  0  0  0
  144.1259  131.3130  149.6800 H   0  0  0  0  0  0  0  0  0  0  0  0
  146.4308  134.6706  150.3522 H   0  0  0  0  0  0  0  0  0  0  0  0
  1  2  2  0  0  0  0
  2  3  1  0  0  0  0
  2 18  1  0  0  0  0
  3  4  1  0  0  0  0
  3 25  1  0  0  0  0
  4  5  1  0  0  0  0
  4 26  1  0  0  0  0
  4 27  1  0  0  0  0
  5  6  1  0  0  0  0
  5 28  1  0  0  0  0
  5 29  1  0  0  0  0
  6  7  1  0  0  0  0
  6 30  1  0  0  0  0
  6 31  1  0  0  0  0
  7 16  1  0  0  0  0
  7  8  1  0  0  0  0
  8  9  2  0  0  0  0
  8 10  1  0  0  0  0
 10 11  1  0  0  0  0
 11 15  1  0  0  0  0
 11 12  1  0  0  0  0
 11 16  1  0  0  0  0
 12 13  1  0  0  0  0
 12 32  1  0  0  0  0
 12 33  1  0  0  0  0
 13 14  1  0  0  0  0
 13 34  1  0  0  0  0
 13 35  1  0  0  0  0
 14 15  1  0  0  0  0
 14 36  1  0  0  0  0
 14 37  1  0  0  0  0
 15 38  1  0  0  0  0
 15 39  1  0  0  0  0
 16 17  2  0  0  0  0
 18 19  1  0  0  0  0
 18 40  1  0  0  0  0
 19 24  1  0  0  0  0
 19 20  2  0  0  0  0
 20 21  1  0  0  0  0
 20 41  1  0  0  0  0
 21 22  2  0  0  0  0
 21 42  1  0  0  0  0
 22 23  1  0  0  0  0
 22 43  1  0  0  0  0
 23 24  2  0  0  0  0
 24 44  1  0  0  0  0
M  CHG  1  10  -1
M  END
> <s_m_source_file>
AV-unprocessed.smi

> <i_m_source_file_index>
2071

> <i_lp_mmshare_version>
43012

> <i_f3d_flags>
0

> <s_epik_input>
W2NIXTFuW2NIXVtjSF1bY0hdYzFbTkhdQyg9TylbTkhdW0NIMl1bQ0gyXVtDSDJdTihDMj1PKUMoPU8pW05IXUMyM1tDSDJdW0NIMl1bQ0gyXVtDSDJdMw==

> <s_epik_cmdline>
J2VwaWtfcHl0aG9uJywgJy1waCcsICc3LjAnLCAnLXRuJywgJzgnLCAnLW1hJywgJzIwMCcsICctbWV0YWxfYmluZGluZycsICctaW1hZScsICc8aW5maWxlLm1hZT4nLCAnLW9tYWUnLCAnPG91dGZpbGUubWFlPic=

> <r_lp_tautomer_probability>
1

> <r_epik_Ionization_Penalty>
6.36845

> <r_epik_Ionization_Penalty_Charging>
6.36366

> <r_epik_Ionization_Penalty_Neutral>
0.00479069

> <r_epik_State_Penalty>
6.36709

> <r_epik_Charging_Adjusted_Penalty>
12.7307

> <i_epik_Tot_Q>
-1

> <i_epik_Tot_abs_Q>
1

> <r_epik_Metal_State_Penalty>
2.30065

> <b_epik_Metal_Only>
1

> <s_lp_Force_Field>
OPLS_2005

> <r_lp_Energy>
36.3369

> <b_lp_Chiralities_Consistent>
1

> <s_lp_Variant>
AV-unprocessed.smi:2071-2

> <Gold.Version>
5.8.1

> <Gold.Id.Protein>
6NUR|6NUR_protein|mol2

> <Gold.PLP.Fitness>
49.3801

> <Gold.PLP.PLP>
-34.5121

> <Gold.PLP.part.hbond>
-4.0000

> <Gold.PLP.part.metal>
0.0000

> <Gold.PLP.part.buried>
-3.7162

> <Gold.PLP.part.nonpolar>
-27.7275

> <Gold.PLP.part.repulsive>
0.5546

> <Gold.PLP.ligand.clash>
0.0000

> <Gold.PLP.ligand.torsion>
0.4301

> <Gold.PLP.Chemscore.Hbond>
4.9146

> <Gold.PLP.Chemscore.CHOScore>
0.2834

> <Gold.PLP.Chemscore.Metal>
0.0000

> <Gold.Chemscore.Hbonds>
donor molecule, donor type, donor heavy atom, donor atom, acceptor molecule, acceptor atom, score
      L1  H     3    25       P1  7948  0.83
      L1  H    18    40       P1  7948  0.96
      P1  H  6931  6943       L1    10  1.40
      P1  H  6934  6947       L1    10  1.60
      L1  C    24    44       P1  7921  0.31

> <Gold.PLP.Chemscore.Internal.Correction>
0.1344

> <Gold.Rescore>
     Score         DG    S(hbond)    S(metal)    S(lipo)     H(rot)  DE(clash)    DE(int)     intcor
     17.15     -19.64       2.86        0.00      81.46       1.92       0.85       1.64       ----

> <Gold.Chemscore.Fitness>
17.1496

> <Gold.Chemscore.DG>
-19.6438

> <Gold.Chemscore.ZeroCoef>
-5.4800

> <Gold.Chemscore.Hbond>
2.8570

> <Gold.Chemscore.Metal>
0.0000

> <Gold.Chemscore.Lipo>
81.4571

> <Gold.Chemscore.Internal_Hbond>
0.0000

> <Gold.Chemscore.DEClash>
0.8494

> <Gold.Chemscore.DEInternal>
1.6447

> <Gold.Chemscore.Rot>
1.9176

> <Gold.Chemscore.Internal.Correction>
   9.000000E+99

> <Gold.Chemscore.Hbonds>
donor molecule, donor type, donor heavy atom, donor atom, acceptor molecule, acceptor atom, score
      L1  H     3    25       P1  7948  0.76
      L1  H    18    40       P1  7948  0.85
      P1  H  6931  6943       L1    10  0.39
      P1  H  6934  6947       L1    10  0.75

> <Gold.Chemscore.Hbond.Weighted>
-9.5424

> <Gold.Chemscore.Metal.Weighted>
-0.0000

> <Gold.Chemscore.Lipo.Weighted>
-9.5305

> <Gold.Chemscore.Internal_Hbond.Weighted>
0.0000

> <Gold.Chemscore.DEClash.Weighted>
0.8494

> <Gold.Chemscore.DEInternal.Weighted>
1.6447

> <Gold.Chemscore.Rot.Weighted>
4.9090

> <Gold.Chemscore.Internal.Correction.Weighted>
   9.000000E+99

> <Gold.Protein.RotatedTorsions>
[ 6907 6896 6895 6894 ] final   63.70 input  -60.11 | X-H torsion
[ 7974 7965 7964 7962 ] final -135.97 input  175.53 | X-H torsion
[ 8008 7997 7996 7995 ] final  -25.60 input   59.86 | X-H torsion
[ 10167 10162 10161 10158 ] final  106.25 input  -65.29 | X-H torsion
[ 10718 10713 10712 10709 ] final  -11.47 input   66.30 | X-H torsion
[ 10763 10752 10751 10750 ] final  -83.03 input  -60.55 | X-H torsion
[ 11005 11000 10999 10996 ] final  -28.33 input  -57.11 | X-H torsion

> <Gold.Protein.ActiveResidues>
 VAL166  LYS551  ARG553  GLY616  TRP617  ASP618  TYR619  PRO620  LYS621  CYS622 
 ASP623  PHE694  ASN695  SER759  ASP760  ASP761  ALA762  ILE779  LEU786  VAL792 
 PHE793  MET794  SER795  GLU796  ALA797  LYS798  CYS799  TRP800  GLU811  SER814 

> <Gold.Protein.RotatedAtoms>
  152.4273  134.5843  159.9956 H   0  0  0  0  0  0  0  0  0  0  0  0  # atno 6907 bound_to 6896
  151.5976  133.3354  159.3048 H   0  0  0  0  0  0  0  0  0  0  0  0  # atno 6908 bound_to 6896
  150.8164  134.7384  159.6799 H   0  0  0  0  0  0  0  0  0  0  0  0  # atno 6909 bound_to 6896
  144.8967  140.6716  143.5111 H   0  0  0  0  0  0  0  0  0  0  0  0  # atno 7974 bound_to 7965
  154.4467  140.1922  156.0645 H   0  0  0  0  0  0  0  0  0  0  0  0  # atno 8008 bound_to 7997
  156.0558  140.3303  155.7376 H   0  0  0  0  0  0  0  0  0  0  0  0  # atno 8009 bound_to 7997
  155.5488  140.0593  157.2845 H   0  0  0  0  0  0  0  0  0  0  0  0  # atno 8010 bound_to 7997
  139.7025  144.7092  151.1162 H   0  0  0  0  0  0  0  0  0  0  0  0  # atno 10167 bound_to 10162
  156.6585  130.4975  149.6038 H   0  0  0  0  0  0  0  0  0  0  0  0  # atno 10718 bound_to 10713
  154.5829  135.5570  153.7203 H   0  0  0  0  0  0  0  0  0  0  0  0  # atno 10763 bound_to 10752
  153.0088  135.6324  154.1957 H   0  0  0  0  0  0  0  0  0  0  0  0  # atno 10764 bound_to 10752
  154.1898  135.2883  155.3005 H   0  0  0  0  0  0  0  0  0  0  0  0  # atno 10765 bound_to 10752
  140.9199  133.7405  156.0787 H   0  0  0  0  0  0  0  0  0  0  0  0  # atno 11005 bound_to 11000
  145.3687  139.1664  143.4344 LP  0  0  0  0  0  0  0  0  0  0  0  0  # atno 17320 bound_to 7965
  146.3085  140.3757  142.8678 LP  0  0  0  0  0  0  0  0  0  0  0  0  # atno 17321 bound_to 7965
  140.7713  143.5404  150.9319 LP  0  0  0  0  0  0  0  0  0  0  0  0  # atno 17342 bound_to 10162
  139.9086  143.6747  152.3119 LP  0  0  0  0  0  0  0  0  0  0  0  0  # atno 17343 bound_to 10162
  156.2029  130.6631  151.1187 LP  0  0  0  0  0  0  0  0  0  0  0  0  # atno 17370 bound_to 10713
  157.7117  131.0730  150.6475 LP  0  0  0  0  0  0  0  0  0  0  0  0  # atno 17371 bound_to 10713
  140.8001  134.3518  157.5442 LP  0  0  0  0  0  0  0  0  0  0  0  0  # atno 17394 bound_to 11000
  139.8773  134.9192  156.3222 LP  0  0  0  0  0  0  0  0  0  0  0  0  # atno 17395 bound_to 11000

$$$$
