AV-unprocessed.smi:2302|AV-procd|sdf|9239|dock5
  -GOLD-   2272012453D 1   1.00000     0.00000
 Structure written by MMmdl.
 40 41  0  0  0  0  0  0  0  0  2 V2000
  153.1606  140.9703  160.1867 C   0  0  0  0  0  0  0  0  0  0  0  0
  152.7025  142.1650  159.3770 C   0  0  0  0  0  0  0  0  0  0  0  0
  153.1786  143.4598  159.6619 C   0  0  0  0  0  0  0  0  0  0  0  0
  152.7168  144.5252  158.8687 C   0  0  0  0  0  0  0  0  0  0  0  0
  151.8042  144.2545  157.8309 C   0  0  0  0  0  0  0  0  0  0  0  0
  151.3744  142.9263  157.6126 C   0  0  0  0  0  0  0  0  0  0  0  0
  150.4573  142.7586  156.5414 N   0  0  0  0  0  0  0  0  0  0  0  0
  150.0444  141.6116  155.9743 C   0  0  0  0  0  0  0  0  0  0  0  0
  150.3772  140.4807  156.3288 O   0  0  0  0  0  0  0  0  0  0  0  0
  149.2072  141.8490  154.9542 N   0  0  0  0  0  0  0  0  0  0  0  0
  148.5837  140.8249  154.1203 C   0  0  0  0  0  0  0  0  0  0  0  0
  147.0481  140.7731  154.2633 C   0  0  1  0  0  0  0  0  0  0  0  0
  146.4768  139.3409  154.3556 C   0  0  0  0  0  0  0  0  0  0  0  0
  145.0052  139.3828  154.5128 N   0  3  1  0  0  0  0  0  0  0  0  0
  144.3970  138.0360  154.5601 C   0  0  0  0  0  0  0  0  0  0  0  0
  144.6234  140.2215  155.6714 C   0  0  0  0  0  0  0  0  0  0  0  0
  145.2445  141.6221  155.5442 C   0  0  0  0  0  0  0  0  0  0  0  0
  146.6565  141.5110  155.4170 O   0  0  0  0  0  0  0  0  0  0  0  0
  151.8274  141.9050  158.3818 N   0  0  0  0  0  0  0  0  0  0  0  0
  153.7686  141.2789  161.0376 H   0  0  0  0  0  0  0  0  0  0  0  0
  153.7566  140.3007  159.5661 H   0  0  0  0  0  0  0  0  0  0  0  0
  152.3022  140.4152  160.5665 H   0  0  0  0  0  0  0  0  0  0  0  0
  153.8790  143.6346  160.4653 H   0  0  0  0  0  0  0  0  0  0  0  0
  153.0565  145.5339  159.0522 H   0  0  0  0  0  0  0  0  0  0  0  0
  151.4398  145.0621  157.2128 H   0  0  0  0  0  0  0  0  0  0  0  0
  150.0777  143.6118  156.1590 H   0  0  0  0  0  0  0  0  0  0  0  0
  148.9821  142.8092  154.7390 H   0  0  0  0  0  0  0  0  0  0  0  0
  148.8636  140.9630  153.0746 H   0  0  0  0  0  0  0  0  0  0  0  0
  149.0041  139.8648  154.4207 H   0  0  0  0  0  0  0  0  0  0  0  0
  146.6238  141.2674  153.3874 H   0  0  0  0  0  0  0  0  0  0  0  0
  146.7333  138.7795  153.4564 H   0  0  0  0  0  0  0  0  0  0  0  0
  146.9082  138.8061  155.2034 H   0  0  0  0  0  0  0  0  0  0  0  0
  144.7416  137.4806  155.4333 H   0  0  0  0  0  0  0  0  0  0  0  0
  144.6552  137.4652  153.6676 H   0  0  0  0  0  0  0  0  0  0  0  0
  143.3099  138.1078  154.6069 H   0  0  0  0  0  0  0  0  0  0  0  0
  143.5370  140.3011  155.7279 H   0  0  0  0  0  0  0  0  0  0  0  0
  144.9599  139.7477  156.5951 H   0  0  0  0  0  0  0  0  0  0  0  0
  144.8311  142.1566  154.6876 H   0  0  0  0  0  0  0  0  0  0  0  0
  145.0162  142.2157  156.4297 H   0  0  0  0  0  0  0  0  0  0  0  0
  144.6379  139.8391  153.6897 H   0  0  0  0  0  0  0  0  0  0  0  0
  1  2  1  0  0  0  0
  1 20  1  0  0  0  0
  1 21  1  0  0  0  0
  1 22  1  0  0  0  0
  2 19  1  0  0  0  0
  2  3  2  0  0  0  0
  3  4  1  0  0  0  0
  3 23  1  0  0  0  0
  4  5  2  0  0  0  0
  4 24  1  0  0  0  0
  5  6  1  0  0  0  0
  5 25  1  0  0  0  0
  6  7  1  0  0  0  0
  6 19  2  0  0  0  0
  7  8  1  0  0  0  0
  7 26  1  0  0  0  0
  8  9  2  0  0  0  0
  8 10  1  0  0  0  0
 10 11  1  0  0  0  0
 10 27  1  0  0  0  0
 11 12  1  0  0  0  0
 11 28  1  0  0  0  0
 11 29  1  0  0  0  0
 12 18  1  0  0  0  0
 12 13  1  0  0  0  0
 12 30  1  0  0  0  0
 13 14  1  0  0  0  0
 13 31  1  0  0  0  0
 13 32  1  0  0  0  0
 14 15  1  0  0  0  0
 14 16  1  0  0  0  0
 14 40  1  0  0  0  0
 15 33  1  0  0  0  0
 15 34  1  0  0  0  0
 15 35  1  0  0  0  0
 16 17  1  0  0  0  0
 16 36  1  0  0  0  0
 16 37  1  0  0  0  0
 17 18  1  0  0  0  0
 17 38  1  0  0  0  0
 17 39  1  0  0  0  0
M  CHG  1  14   1
M  END
> <s_m_source_file>
AV-unprocessed.smi

> <i_m_source_file_index>
2302

> <i_lp_mmshare_version>
43012

> <i_f3d_flags>
0

> <s_epik_input>
W0NIM11jMVtjSF1bY0hdW2NIXWMobjEpW05IXUMoPU8pW05IXVtDSDJdW0NAQEhdMltDSDJdTihbQ0gzXSlbQ0gyXVtDSDJdTzI=

> <s_epik_cmdline>
J2VwaWtfcHl0aG9uJywgJy1waCcsICc3LjAnLCAnLXRuJywgJzgnLCAnLW1hJywgJzIwMCcsICctbWV0YWxfYmluZGluZycsICctaW1hZScsICc8aW5maWxlLm1hZT4nLCAnLW9tYWUnLCAnPG91dGZpbGUubWFlPic=

> <r_epik_Ionization_Penalty>
0.204647

> <r_epik_Ionization_Penalty_Charging>
0.204578

> <r_epik_Ionization_Penalty_Neutral>
6.91954e-05

> <r_epik_State_Penalty>
0.194513

> <r_epik_Charging_Adjusted_Penalty>
0.399091

> <i_epik_Tot_Q>
1

> <i_epik_Tot_abs_Q>
1

> <r_epik_Metal_State_Penalty>
0.194515

> <b_epik_Metal_Only>
0

> <s_lp_Force_Field>
OPLS_2005

> <r_lp_Energy>
15.833

> <b_lp_Chiralities_Consistent>
1

> <s_lp_Variant>
AV-unprocessed.smi:2302-4

> <Gold.Version>
5.8.1

> <Gold.Id.Protein>
6NUR|6NUR_protein|mol2

> <Gold.PLP.Fitness>
46.3543

> <Gold.PLP.PLP>
-35.9044

> <Gold.PLP.part.hbond>
-3.0000

> <Gold.PLP.part.metal>
0.0000

> <Gold.PLP.part.buried>
-5.1834

> <Gold.PLP.part.nonpolar>
-28.9179

> <Gold.PLP.part.repulsive>
0.3849

> <Gold.PLP.ligand.clash>
0.0000

> <Gold.PLP.ligand.torsion>
0.6693

> <Gold.PLP.Chemscore.Hbond>
3.9280

> <Gold.PLP.Chemscore.CHOScore>
0.0000

> <Gold.PLP.Chemscore.Metal>
0.0000

> <Gold.Chemscore.Hbonds>
donor molecule, donor type, donor heavy atom, donor atom, acceptor molecule, acceptor atom, score
      L1  H     7    26       P1  8028  1.00
      L1  H    10    27       P1  8028  0.68
      L1  H    14    40       P1 10175  2.00

> <Gold.PLP.Chemscore.Internal.Correction>
0.0043

> <Gold.Rescore>
     Score         DG    S(hbond)    S(metal)    S(lipo)     H(rot)  DE(clash)    DE(int)     intcor
     19.82     -21.77       2.93        0.00      83.54       1.27       0.01       1.95       ----

> <Gold.Chemscore.Fitness>
19.8162

> <Gold.Chemscore.DG>
-21.7719

> <Gold.Chemscore.ZeroCoef>
-5.4800

> <Gold.Chemscore.Hbond>
2.9276

> <Gold.Chemscore.Metal>
0.0000

> <Gold.Chemscore.Lipo>
83.5384

> <Gold.Chemscore.Internal_Hbond>
0.0000

> <Gold.Chemscore.DEClash>
0.0078

> <Gold.Chemscore.DEInternal>
1.9479

> <Gold.Chemscore.Rot>
1.2736

> <Gold.Chemscore.Internal.Correction>
   9.000000E+99

> <Gold.Chemscore.Hbonds>
donor molecule, donor type, donor heavy atom, donor atom, acceptor molecule, acceptor atom, score
      L1  H     7    26       P1  8028  0.99
      L1  H    10    27       P1  8028  0.67
      L1  H    14    40       P1 10175  1.00

> <Gold.Chemscore.Hbond.Weighted>
-9.7782

> <Gold.Chemscore.Metal.Weighted>
-0.0000

> <Gold.Chemscore.Lipo.Weighted>
-9.7740

> <Gold.Chemscore.Internal_Hbond.Weighted>
0.0000

> <Gold.Chemscore.DEClash.Weighted>
0.0078

> <Gold.Chemscore.DEInternal.Weighted>
1.9479

> <Gold.Chemscore.Rot.Weighted>
3.2603

> <Gold.Chemscore.Internal.Correction.Weighted>
   9.000000E+99

> <Gold.Protein.RotatedTorsions>
[ 6907 6896 6895 6894 ] final  162.66 input  -60.11 | X-H torsion
[ 7974 7965 7964 7962 ] final  -18.85 input  175.53 | X-H torsion
[ 8008 7997 7996 7995 ] final  156.53 input   59.86 | X-H torsion
[ 10167 10162 10161 10158 ] final -165.68 input  -65.29 | X-H torsion
[ 10718 10713 10712 10709 ] final -142.66 input   66.30 | X-H torsion
[ 10763 10752 10751 10750 ] final -158.28 input  -60.55 | X-H torsion
[ 11005 11000 10999 10996 ] final   43.43 input  -57.11 | X-H torsion

> <Gold.Protein.ActiveResidues>
 VAL166  LYS551  ARG553  GLY616  TRP617  ASP618  TYR619  PRO620  LYS621  CYS622 
 ASP623  PHE694  ASN695  SER759  ASP760  ASP761  ALA762  ILE779  LEU786  VAL792 
 PHE793  MET794  SER795  GLU796  ALA797  LYS798  CYS799  TRP800  GLU811  SER814 

> <Gold.Protein.RotatedAtoms>
  151.9371  133.3627  159.3951 H   0  0  0  0  0  0  0  0  0  0  0  0  # atno 6907 bound_to 6896
  150.7005  134.4478  159.5331 H   0  0  0  0  0  0  0  0  0  0  0  0  # atno 6908 bound_to 6896
  152.2128  134.8485  160.0546 H   0  0  0  0  0  0  0  0  0  0  0  0  # atno 6909 bound_to 6896
  146.1871  140.3980  142.8472 H   0  0  0  0  0  0  0  0  0  0  0  0  # atno 7974 bound_to 7965
  156.2417  140.1910  156.6970 H   0  0  0  0  0  0  0  0  0  0  0  0  # atno 8008 bound_to 7997
  154.6210  140.0608  156.9641 H   0  0  0  0  0  0  0  0  0  0  0  0  # atno 8009 bound_to 7997
  155.1862  140.3280  155.4369 H   0  0  0  0  0  0  0  0  0  0  0  0  # atno 8010 bound_to 7997
  139.6165  144.0709  152.1893 H   0  0  0  0  0  0  0  0  0  0  0  0  # atno 10167 bound_to 10162
  156.3486  130.7676  151.1824 H   0  0  0  0  0  0  0  0  0  0  0  0  # atno 10718 bound_to 10713
  154.7569  135.3107  154.8453 H   0  0  0  0  0  0  0  0  0  0  0  0  # atno 10763 bound_to 10752
  153.9225  135.6794  153.4751 H   0  0  0  0  0  0  0  0  0  0  0  0  # atno 10764 bound_to 10752
  153.1167  135.4841  154.9057 H   0  0  0  0  0  0  0  0  0  0  0  0  # atno 10765 bound_to 10752
  140.1645  134.4299  155.8296 H   0  0  0  0  0  0  0  0  0  0  0  0  # atno 11005 bound_to 11000
  144.8417  140.6868  143.6225 LP  0  0  0  0  0  0  0  0  0  0  0  0  # atno 17320 bound_to 7965
  145.3905  139.1617  143.4231 LP  0  0  0  0  0  0  0  0  0  0  0  0  # atno 17321 bound_to 7965
  140.0340  144.6059  150.7464 LP  0  0  0  0  0  0  0  0  0  0  0  0  # atno 17342 bound_to 10162
  140.7354  143.2741  151.3797 LP  0  0  0  0  0  0  0  0  0  0  0  0  # atno 17343 bound_to 10162
  157.7458  131.0434  150.4742 LP  0  0  0  0  0  0  0  0  0  0  0  0  # atno 17370 bound_to 10713
  156.4934  130.4100  149.6394 LP  0  0  0  0  0  0  0  0  0  0  0  0  # atno 17371 bound_to 10713
  141.2212  133.6928  156.7654 LP  0  0  0  0  0  0  0  0  0  0  0  0  # atno 17394 bound_to 11000
  140.2450  134.8585  157.3611 LP  0  0  0  0  0  0  0  0  0  0  0  0  # atno 17395 bound_to 11000

$$$$
