AV-unprocessed.smi:1644|AV-procd|sdf|6595|dock1
  -GOLD-   22720 7293D 1   1.00000     0.00000
 Structure written by MMmdl.
 48 50  0  0  0  0  0  0  0  0  2 V2000
  143.5619  145.8085  154.7978 C   0  0  0  0  0  0  0  0  0  0  0  0
  143.7103  144.4816  154.0459 C   0  0  0  0  0  0  0  0  0  0  0  0
  144.0424  143.3052  154.9892 C   0  0  0  0  0  0  0  0  0  0  0  0
  145.5323  143.1414  155.3779 C   0  0  1  0  0  0  0  0  0  0  0  0
  145.7295  142.0421  156.2994 N   0  5  0  0  0  0  0  0  0  0  0  0
  146.6215  141.1821  155.7535 C   0  0  0  0  0  0  0  0  0  0  0  0
  147.0246  140.1294  156.2478 O   0  0  0  0  0  0  0  0  0  0  0  0
  147.0364  141.6131  154.5459 N   0  0  0  0  0  0  0  0  0  0  0  0
  147.9694  140.8977  153.6697 C   0  0  0  0  0  0  0  0  0  0  0  0
  149.2946  140.5743  154.3904 C   0  0  1  0  0  0  0  0  0  0  0  0
  150.2866  140.2925  153.4215 O   0  0  0  0  0  0  0  0  0  0  0  0
  149.7770  141.7573  155.2508 C   0  0  0  0  0  0  0  0  0  0  0  0
  150.6977  141.3448  156.2947 N   0  0  0  0  0  0  0  0  0  0  0  0
  151.5578  140.3089  156.2623 C   0  0  0  0  0  0  0  0  0  0  0  0
  152.3184  140.1152  157.3365 N   0  0  0  0  0  0  0  0  0  0  0  0
  151.9008  141.1449  158.1626 C   0  0  0  0  0  0  0  0  0  0  0  0
  152.3166  141.5029  159.4639 C   0  0  0  0  0  0  0  0  0  0  0  0
  151.7432  142.6105  160.1289 C   0  0  0  0  0  0  0  0  0  0  0  0
  152.2194  142.9595  161.5280 C   0  0  0  0  0  0  0  0  0  0  0  0
  150.7374  143.3801  159.4906 C   0  0  0  0  0  0  0  0  0  0  0  0
  150.1046  144.5728  160.1854 C   0  0  0  0  0  0  0  0  0  0  0  0
  150.3116  143.0369  158.1905 C   0  0  0  0  0  0  0  0  0  0  0  0
  150.8891  141.9325  157.5399 C   0  0  0  0  0  0  0  0  0  0  0  0
  146.4395  142.7644  154.2243 C   0  0  0  0  0  0  0  0  0  0  0  0
  146.5698  143.4219  153.1910 O   0  0  0  0  0  0  0  0  0  0  0  0
  143.3280  146.6202  154.1087 H   0  0  0  0  0  0  0  0  0  0  0  0
  144.4823  146.0697  155.3204 H   0  0  0  0  0  0  0  0  0  0  0  0
  142.7600  145.7559  155.5345 H   0  0  0  0  0  0  0  0  0  0  0  0
  142.7853  144.2758  153.5064 H   0  0  0  0  0  0  0  0  0  0  0  0
  144.4884  144.5936  153.2905 H   0  0  0  0  0  0  0  0  0  0  0  0
  143.4556  143.4131  155.9023 H   0  0  0  0  0  0  0  0  0  0  0  0
  143.6991  142.3767  154.5310 H   0  0  0  0  0  0  0  0  0  0  0  0
  145.8927  144.0816  155.7975 H   0  0  0  0  0  0  0  0  0  0  0  0
  147.5165  139.9934  153.2591 H   0  0  0  0  0  0  0  0  0  0  0  0
  148.1680  141.5325  152.8044 H   0  0  0  0  0  0  0  0  0  0  0  0
  149.1723  139.6989  155.0297 H   0  0  0  0  0  0  0  0  0  0  0  0
  149.9370  140.4921  152.5668 H   0  0  0  0  0  0  0  0  0  0  0  0
  150.2608  142.5130  154.6299 H   0  0  0  0  0  0  0  0  0  0  0  0
  148.9266  142.2444  155.7297 H   0  0  0  0  0  0  0  0  0  0  0  0
  151.6288  139.6594  155.4020 H   0  0  0  0  0  0  0  0  0  0  0  0
  153.0824  140.9159  159.9494 H   0  0  0  0  0  0  0  0  0  0  0  0
  152.6617  143.9558  161.5424 H   0  0  0  0  0  0  0  0  0  0  0  0
  152.9722  142.2540  161.8807 H   0  0  0  0  0  0  0  0  0  0  0  0
  151.3872  142.9394  162.2320 H   0  0  0  0  0  0  0  0  0  0  0  0
  149.3697  145.0623  159.5454 H   0  0  0  0  0  0  0  0  0  0  0  0
  150.8632  145.3106  160.4475 H   0  0  0  0  0  0  0  0  0  0  0  0
  149.5967  144.2578  161.0971 H   0  0  0  0  0  0  0  0  0  0  0  0
  149.5442  143.6119  157.6928 H   0  0  0  0  0  0  0  0  0  0  0  0
  1  2  1  0  0  0  0
  1 26  1  0  0  0  0
  1 27  1  0  0  0  0
  1 28  1  0  0  0  0
  2  3  1  0  0  0  0
  2 29  1  0  0  0  0
  2 30  1  0  0  0  0
  3  4  1  0  0  0  0
  3 31  1  0  0  0  0
  3 32  1  0  0  0  0
  4 24  1  0  0  0  0
  4  5  1  0  0  0  0
  4 33  1  0  0  0  0
  5  6  1  0  0  0  0
  6  7  2  0  0  0  0
  6  8  1  0  0  0  0
  8  9  1  0  0  0  0
  8 24  1  0  0  0  0
  9 10  1  0  0  0  0
  9 34  1  0  0  0  0
  9 35  1  0  0  0  0
 10 11  1  0  0  0  0
 10 12  1  0  0  0  0
 10 36  1  0  0  0  0
 11 37  1  0  0  0  0
 12 13  1  0  0  0  0
 12 38  1  0  0  0  0
 12 39  1  0  0  0  0
 13 23  1  0  0  0  0
 13 14  1  0  0  0  0
 14 15  2  0  0  0  0
 14 40  1  0  0  0  0
 15 16  1  0  0  0  0
 16 23  2  0  0  0  0
 16 17  1  0  0  0  0
 17 18  2  0  0  0  0
 17 41  1  0  0  0  0
 18 19  1  0  0  0  0
 18 20  1  0  0  0  0
 19 42  1  0  0  0  0
 19 43  1  0  0  0  0
 19 44  1  0  0  0  0
 20 21  1  0  0  0  0
 20 22  2  0  0  0  0
 21 45  1  0  0  0  0
 21 46  1  0  0  0  0
 21 47  1  0  0  0  0
 22 23  1  0  0  0  0
 22 48  1  0  0  0  0
 24 25  2  0  0  0  0
M  CHG  1   5  -1
M  END
> <s_m_source_file>
AV-unprocessed.smi

> <i_m_source_file_index>
1644

> <i_lp_mmshare_version>
43012

> <i_f3d_flags>
0

> <s_epik_input>
W0NIM11bQ0gyXVtDSDJdW0NAQEhdMVtOSF1DKD1PKU4oQzE9TylbQ0gyXVtDQEhdKFtPSF0pW0NIMl1uKFtjSF1uMiljKGMyMylbY0hdYyhbQ0gzXSljKFtjSF0zKVtDSDNd

> <s_epik_cmdline>
J2VwaWtfcHl0aG9uJywgJy1waCcsICc3LjAnLCAnLXRuJywgJzgnLCAnLW1hJywgJzIwMCcsICctbWV0YWxfYmluZGluZycsICctaW1hZScsICc8aW5maWxlLm1hZT4nLCAnLW9tYWUnLCAnPG91dGZpbGUubWFlPic=

> <r_lp_tautomer_probability>
1

> <r_epik_Ionization_Penalty>
5.95212

> <r_epik_Ionization_Penalty_Charging>
5.84419

> <r_epik_Ionization_Penalty_Neutral>
0.107924

> <r_epik_State_Penalty>
5.94088

> <r_epik_Charging_Adjusted_Penalty>
11.7851

> <i_epik_Tot_Q>
-1

> <i_epik_Tot_abs_Q>
1

> <r_epik_Metal_State_Penalty>
1.99095

> <b_epik_Metal_Only>
1

> <s_lp_Force_Field>
OPLS_2005

> <r_lp_Energy>
19.6047

> <b_lp_Chiralities_Consistent>
1

> <s_lp_Variant>
AV-unprocessed.smi:1644-12

> <Gold.Version>
5.8.1

> <Gold.Id.Protein>
6NUR|6NUR_protein|mol2

> <Gold.PLP.Fitness>
54.9081

> <Gold.PLP.PLP>
-48.5429

> <Gold.PLP.part.hbond>
-3.5341

> <Gold.PLP.part.metal>
0.0000

> <Gold.PLP.part.buried>
-2.7939

> <Gold.PLP.part.nonpolar>
-41.2844

> <Gold.PLP.part.repulsive>
0.3202

> <Gold.PLP.ligand.clash>
0.0000

> <Gold.PLP.ligand.torsion>
0.9213

> <Gold.PLP.Chemscore.Hbond>
2.6480

> <Gold.PLP.Chemscore.CHOScore>
0.0000

> <Gold.PLP.Chemscore.Metal>
0.0000

> <Gold.Chemscore.Hbonds>
donor molecule, donor type, donor heavy atom, donor atom, acceptor molecule, acceptor atom, score
      L1  H    11    37       P1  7957  0.93
      P1  H  7989  7998       L1    11  0.44
      P1  H  7997  8010       L1    15  0.63

> <Gold.PLP.Chemscore.Internal.Correction>
0.2637

> <Gold.Rescore>
     Score         DG    S(hbond)    S(metal)    S(lipo)     H(rot)  DE(clash)    DE(int)     intcor
     17.79     -18.84       2.22        0.00     108.79       2.65       0.15       0.90       ----

> <Gold.Chemscore.Fitness>
17.7918

> <Gold.Chemscore.DG>
-18.8410

> <Gold.Chemscore.ZeroCoef>
-5.4800

> <Gold.Chemscore.Hbond>
2.2194

> <Gold.Chemscore.Metal>
0.0000

> <Gold.Chemscore.Lipo>
108.7926

> <Gold.Chemscore.Internal_Hbond>
0.0000

> <Gold.Chemscore.DEClash>
0.1478

> <Gold.Chemscore.DEInternal>
0.9014

> <Gold.Chemscore.Rot>
2.6486

> <Gold.Chemscore.Internal.Correction>
   9.000000E+99

> <Gold.Chemscore.Hbonds>
donor molecule, donor type, donor heavy atom, donor atom, acceptor molecule, acceptor atom, score
      L1  H    11    37       P1  7957  0.84
      P1  H  7989  7998       L1    11  0.24
      P1  H  7997  8010       L1    15  0.26

> <Gold.Chemscore.Hbond.Weighted>
-7.4127

> <Gold.Chemscore.Metal.Weighted>
-0.0000

> <Gold.Chemscore.Lipo.Weighted>
-12.7287

> <Gold.Chemscore.Internal_Hbond.Weighted>
0.0000

> <Gold.Chemscore.DEClash.Weighted>
0.1478

> <Gold.Chemscore.DEInternal.Weighted>
0.9014

> <Gold.Chemscore.Rot.Weighted>
6.7804

> <Gold.Chemscore.Internal.Correction.Weighted>
   9.000000E+99

> <Gold.Protein.RotatedTorsions>
[ 6907 6896 6895 6894 ] final -104.37 input  -60.11 | X-H torsion
[ 7974 7965 7964 7962 ] final  -63.06 input  175.53 | X-H torsion
[ 8008 7997 7996 7995 ] final   66.37 input   59.86 | X-H torsion
[ 10167 10162 10161 10158 ] final   -7.27 input  -65.29 | X-H torsion
[ 10718 10713 10712 10709 ] final -102.80 input   66.30 | X-H torsion
[ 10763 10752 10751 10750 ] final  -53.24 input  -60.55 | X-H torsion
[ 11005 11000 10999 10996 ] final   37.73 input  -57.11 | X-H torsion

> <Gold.Protein.ActiveResidues>
 VAL166  LYS551  ARG553  GLY616  TRP617  ASP618  TYR619  PRO620  LYS621  CYS622 
 ASP623  PHE694  ASN695  SER759  ASP760  ASP761  ALA762  ILE779  LEU786  VAL792 
 PHE793  MET794  SER795  GLU796  ALA797  LYS798  CYS799  TRP800  GLU811  SER814 

> <Gold.Protein.RotatedAtoms>
  150.7284  134.0289  159.3726 H   0  0  0  0  0  0  0  0  0  0  0  0  # atno 6907 bound_to 6896
  151.8257  135.0635  160.0440 H   0  0  0  0  0  0  0  0  0  0  0  0  # atno 6908 bound_to 6896
  152.2971  133.5582  159.5631 H   0  0  0  0  0  0  0  0  0  0  0  0  # atno 6909 bound_to 6896
  145.7837  140.8748  143.0317 H   0  0  0  0  0  0  0  0  0  0  0  0  # atno 7974 bound_to 7965
  155.6763  140.3497  155.4838 H   0  0  0  0  0  0  0  0  0  0  0  0  # atno 8008 bound_to 7997
  155.9645  140.1143  157.0889 H   0  0  0  0  0  0  0  0  0  0  0  0  # atno 8009 bound_to 7997
  154.4151  140.1169  156.5209 H   0  0  0  0  0  0  0  0  0  0  0  0  # atno 8010 bound_to 7997
  140.7023  143.6100  150.8713 H   0  0  0  0  0  0  0  0  0  0  0  0  # atno 10167 bound_to 10162
  156.0242  130.5437  150.7160 H   0  0  0  0  0  0  0  0  0  0  0  0  # atno 10718 bound_to 10713
  154.1557  135.6483  153.4974 H   0  0  0  0  0  0  0  0  0  0  0  0  # atno 10763 bound_to 10752
  153.0125  135.5348  154.6762 H   0  0  0  0  0  0  0  0  0  0  0  0  # atno 10764 bound_to 10752
  154.6062  135.2949  155.0453 H   0  0  0  0  0  0  0  0  0  0  0  0  # atno 10765 bound_to 10752
  140.2197  134.3656  155.8011 H   0  0  0  0  0  0  0  0  0  0  0  0  # atno 11005 bound_to 11000
  144.6792  140.0025  143.7484 LP  0  0  0  0  0  0  0  0  0  0  0  0  # atno 17320 bound_to 7965
  146.0048  139.3121  143.0906 LP  0  0  0  0  0  0  0  0  0  0  0  0  # atno 17321 bound_to 7965
  139.9823  143.5937  152.2938 LP  0  0  0  0  0  0  0  0  0  0  0  0  # atno 17342 bound_to 10162
  139.6563  144.7662  151.2050 LP  0  0  0  0  0  0  0  0  0  0  0  0  # atno 17343 bound_to 10162
  157.4787  131.0900  151.0560 LP  0  0  0  0  0  0  0  0  0  0  0  0  # atno 17370 bound_to 10713
  157.1000  130.5978  149.5458 LP  0  0  0  0  0  0  0  0  0  0  0  0  # atno 17371 bound_to 10713
  141.2223  133.7187  156.8555 LP  0  0  0  0  0  0  0  0  0  0  0  0  # atno 17394 bound_to 11000
  140.1863  134.8997  157.3008 LP  0  0  0  0  0  0  0  0  0  0  0  0  # atno 17395 bound_to 11000

$$$$
