AV-unprocessed.smi:3237|AV-procd|sdf|12372|dock3
  -GOLD-   2272018233D 1   1.00000     0.00000
 Structure written by MMmdl.
 36 38  0  0  0  0  0  0  0  0  3 V2000
  138.1717  146.2721  155.1799 C   0  0  0  0  0  0  0  0  0  0  0  0
  139.3438  145.3556  155.2614 C   0  0  0  0  0  0  0  0  0  0  0  0
  140.4989  145.2560  154.5381 C   0  0  0  0  0  0  0  0  0  0  0  0
  141.1672  144.1616  155.1494 C   0  0  0  0  0  0  0  0  0  0  0  0
  142.4333  143.7295  154.6734 N   0  0  0  0  0  0  0  0  0  0  0  0
  143.5618  143.5011  155.3695 C   0  0  0  0  0  0  0  0  0  0  0  0
  143.5880  143.6743  156.5936 O   0  0  0  0  0  0  0  0  0  0  0  0
  144.5855  143.0884  154.5715 N   0  5  0  0  0  0  0  0  0  0  0  0
  145.9265  142.7281  155.0482 C   0  0  1  0  0  0  0  0  0  0  0  0
  145.8532  141.4443  155.8830 C   0  0  0  0  0  0  0  0  0  0  0  0
  146.0425  140.2904  154.8847 C   0  0  0  0  0  0  0  0  0  0  0  0
  146.4379  140.9040  153.5972 N   0  3  2  0  0  0  0  0  0  0  0  0
  147.4470  140.1379  152.8356 C   0  0  0  0  0  0  0  0  0  0  0  0
  147.1945  140.1225  151.3471 C   0  0  0  0  0  0  0  0  0  0  0  0
  146.8923  138.8958  152.1808 C   0  0  0  0  0  0  0  0  0  0  0  0
  146.8176  142.3015  153.8772 C   0  0  0  0  0  0  0  0  0  0  0  0
  140.4826  143.6440  156.1588 N   0  0  0  0  0  0  0  0  0  0  0  0
  139.3108  144.4061  156.2354 O   0  0  0  0  0  0  0  0  0  0  0  0
  138.2315  146.9033  154.2932 H   0  0  0  0  0  0  0  0  0  0  0  0
  138.1273  146.9204  156.0549 H   0  0  0  0  0  0  0  0  0  0  0  0
  137.2414  145.7062  155.1290 H   0  0  0  0  0  0  0  0  0  0  0  0
  140.8124  145.8665  153.7043 H   0  0  0  0  0  0  0  0  0  0  0  0
  142.4891  143.5582  153.6804 H   0  0  0  0  0  0  0  0  0  0  0  0
  146.3904  143.5325  155.6203 H   0  0  0  0  0  0  0  0  0  0  0  0
  146.6764  141.4355  156.5985 H   0  0  0  0  0  0  0  0  0  0  0  0
  144.9307  141.3546  156.4588 H   0  0  0  0  0  0  0  0  0  0  0  0
  146.8030  139.5969  155.2478 H   0  0  0  0  0  0  0  0  0  0  0  0
  145.1203  139.7247  154.7435 H   0  0  0  0  0  0  0  0  0  0  0  0
  148.4638  140.1530  153.2241 H   0  0  0  0  0  0  0  0  0  0  0  0
  146.3492  140.6907  150.9627 H   0  0  0  0  0  0  0  0  0  0  0  0
  148.0618  140.0784  150.6913 H   0  0  0  0  0  0  0  0  0  0  0  0
  147.5607  138.0437  152.0737 H   0  0  0  0  0  0  0  0  0  0  0  0
  145.8459  138.6482  152.3495 H   0  0  0  0  0  0  0  0  0  0  0  0
  146.7142  142.9345  152.9948 H   0  0  0  0  0  0  0  0  0  0  0  0
  147.8634  142.3365  154.1872 H   0  0  0  0  0  0  0  0  0  0  0  0
  145.5962  140.9571  153.0413 H   0  0  0  0  0  0  0  0  0  0  0  0
  1  2  1  0  0  0  0
  1 19  1  0  0  0  0
  1 20  1  0  0  0  0
  1 21  1  0  0  0  0
  2 18  1  0  0  0  0
  2  3  2  0  0  0  0
  3  4  1  0  0  0  0
  3 22  1  0  0  0  0
  4  5  1  0  0  0  0
  4 17  2  0  0  0  0
  5  6  1  0  0  0  0
  5 23  1  0  0  0  0
  6  7  2  0  0  0  0
  6  8  1  0  0  0  0
  8  9  1  0  0  0  0
  9 16  1  0  0  0  0
  9 10  1  0  0  0  0
  9 24  1  0  0  0  0
 10 11  1  0  0  0  0
 10 25  1  0  0  0  0
 10 26  1  0  0  0  0
 11 12  1  0  0  0  0
 11 27  1  0  0  0  0
 11 28  1  0  0  0  0
 12 13  1  0  0  0  0
 12 16  1  0  0  0  0
 12 36  1  0  0  0  0
 13 15  1  0  0  0  0
 13 14  1  0  0  0  0
 13 29  1  0  0  0  0
 14 15  1  0  0  0  0
 14 30  1  0  0  0  0
 14 31  1  0  0  0  0
 15 32  1  0  0  0  0
 15 33  1  0  0  0  0
 16 34  1  0  0  0  0
 16 35  1  0  0  0  0
 17 18  1  0  0  0  0
M  CHG  1   8  -1
M  CHG  1  12   1
M  END
> <s_m_source_file>
AV-unprocessed.smi

> <i_m_source_file_index>
3237

> <i_lp_mmshare_version>
43012

> <i_f3d_flags>
0

> <s_epik_input>
W0NIM11jMVtjSF1jKG5vMSlbTkhdQyg9TylbTkhdW0NAQEhdMltDSDJdW0NIMl1OKFtDSDJdMilbQ0hdM1tDSDJdW0NIMl0z

> <s_epik_cmdline>
J2VwaWtfcHl0aG9uJywgJy1waCcsICc3LjAnLCAnLXRuJywgJzgnLCAnLW1hJywgJzIwMCcsICctbWV0YWxfYmluZGluZycsICctaW1hZScsICc8aW5maWxlLm1hZT4nLCAnLW9tYWUnLCAnPG91dGZpbGUubWFlPic=

> <r_epik_Ionization_Penalty>
6.76456

> <r_epik_Ionization_Penalty_Charging>
6.76456

> <r_epik_Ionization_Penalty_Neutral>
5.76722e-06

> <r_epik_State_Penalty>
6.78919

> <r_epik_Charging_Adjusted_Penalty>
13.5538

> <i_epik_Tot_Q>
0

> <i_epik_Tot_abs_Q>
2

> <r_epik_Metal_State_Penalty>
2.728

> <b_epik_Metal_Only>
1

> <s_lp_Force_Field>
OPLS_2005

> <r_lp_Energy>
30.7434

> <b_lp_Chiralities_Consistent>
1

> <s_lp_Variant>
AV-unprocessed.smi:3237-10

> <Gold.Version>
5.8.1

> <Gold.Id.Protein>
6NUR|6NUR_protein|mol2

> <Gold.PLP.Fitness>
36.0253

> <Gold.PLP.PLP>
-27.8943

> <Gold.PLP.part.hbond>
-2.0000

> <Gold.PLP.part.metal>
0.0000

> <Gold.PLP.part.buried>
-2.8599

> <Gold.PLP.part.nonpolar>
-23.4365

> <Gold.PLP.part.repulsive>
0.3168

> <Gold.PLP.ligand.clash>
0.0000

> <Gold.PLP.ligand.torsion>
1.1170

> <Gold.PLP.Chemscore.Hbond>
3.0000

> <Gold.PLP.Chemscore.CHOScore>
0.0000

> <Gold.PLP.Chemscore.Metal>
0.0000

> <Gold.Chemscore.Hbonds>
donor molecule, donor type, donor heavy atom, donor atom, acceptor molecule, acceptor atom, score
      L1  H     5    23       P1 10174  1.00
      L1  H    12    36       P1 10175  1.95

> <Gold.PLP.Chemscore.Internal.Correction>
1.3649

> <Gold.Rescore>
     Score         DG    S(hbond)    S(metal)    S(lipo)     H(rot)  DE(clash)    DE(int)     intcor
     13.83     -15.41       1.89        0.00      58.13       1.25       0.20       1.38       ----

> <Gold.Chemscore.Fitness>
13.8307

> <Gold.Chemscore.DG>
-15.4089

> <Gold.Chemscore.ZeroCoef>
-5.4800

> <Gold.Chemscore.Hbond>
1.8918

> <Gold.Chemscore.Metal>
0.0000

> <Gold.Chemscore.Lipo>
58.1296

> <Gold.Chemscore.Internal_Hbond>
0.0000

> <Gold.Chemscore.DEClash>
0.2021

> <Gold.Chemscore.DEInternal>
1.3761

> <Gold.Chemscore.Rot>
1.2464

> <Gold.Chemscore.Internal.Correction>
   9.000000E+99

> <Gold.Chemscore.Hbonds>
donor molecule, donor type, donor heavy atom, donor atom, acceptor molecule, acceptor atom, score
      L1  H     5    23       P1 10174  0.98
      L1  H    12    36       P1 10175  0.36

> <Gold.Chemscore.Hbond.Weighted>
-6.3186

> <Gold.Chemscore.Metal.Weighted>
-0.0000

> <Gold.Chemscore.Lipo.Weighted>
-6.8012

> <Gold.Chemscore.Internal_Hbond.Weighted>
0.0000

> <Gold.Chemscore.DEClash.Weighted>
0.2021

> <Gold.Chemscore.DEInternal.Weighted>
1.3761

> <Gold.Chemscore.Rot.Weighted>
3.1909

> <Gold.Chemscore.Internal.Correction.Weighted>
   9.000000E+99

> <Gold.Protein.RotatedTorsions>
[ 6907 6896 6895 6894 ] final  117.37 input  -60.11 | X-H torsion
[ 7974 7965 7964 7962 ] final  -37.54 input  175.53 | X-H torsion
[ 8008 7997 7996 7995 ] final  108.57 input   59.86 | X-H torsion
[ 10167 10162 10161 10158 ] final -163.55 input  -65.29 | X-H torsion
[ 10718 10713 10712 10709 ] final -171.58 input   66.30 | X-H torsion
[ 10763 10752 10751 10750 ] final -133.90 input  -60.55 | X-H torsion
[ 11005 11000 10999 10996 ] final -151.41 input  -57.11 | X-H torsion

> <Gold.Protein.ActiveResidues>
 VAL166  LYS551  ARG553  GLY616  TRP617  ASP618  TYR619  PRO620  LYS621  CYS622 
 ASP623  PHE694  ASN695  SER759  ASP760  ASP761  ALA762  ILE779  LEU786  VAL792 
 PHE793  MET794  SER795  GLU796  ALA797  LYS798  CYS799  TRP800  GLU811  SER814 

> <Gold.Protein.RotatedAtoms>
  152.4616  133.7835  159.6863 H   0  0  0  0  0  0  0  0  0  0  0  0  # atno 6907 bound_to 6896
  150.8563  133.7700  159.3014 H   0  0  0  0  0  0  0  0  0  0  0  0  # atno 6908 bound_to 6896
  151.5280  135.1071  159.9947 H   0  0  0  0  0  0  0  0  0  0  0  0  # atno 6909 bound_to 6896
  146.0566  140.6408  142.9017 H   0  0  0  0  0  0  0  0  0  0  0  0  # atno 7974 bound_to 7965
  156.1913  140.3074  155.9338 H   0  0  0  0  0  0  0  0  0  0  0  0  # atno 8008 bound_to 7997
  155.3167  140.0454  157.3054 H   0  0  0  0  0  0  0  0  0  0  0  0  # atno 8009 bound_to 7997
  154.5456  140.2275  155.8579 H   0  0  0  0  0  0  0  0  0  0  0  0  # atno 8010 bound_to 7997
  139.6312  144.0435  152.2017 H   0  0  0  0  0  0  0  0  0  0  0  0  # atno 10167 bound_to 10162
  156.7429  130.9349  151.3111 H   0  0  0  0  0  0  0  0  0  0  0  0  # atno 10718 bound_to 10713
  154.8726  135.3751  154.4648 H   0  0  0  0  0  0  0  0  0  0  0  0  # atno 10763 bound_to 10752
  153.5313  135.7028  153.5687 H   0  0  0  0  0  0  0  0  0  0  0  0  # atno 10764 bound_to 10752
  153.3890  135.3977  155.1875 H   0  0  0  0  0  0  0  0  0  0  0  0  # atno 10765 bound_to 10752
  140.7299  134.3633  157.5168 H   0  0  0  0  0  0  0  0  0  0  0  0  # atno 11005 bound_to 11000
  144.7151  140.4181  143.7050 LP  0  0  0  0  0  0  0  0  0  0  0  0  # atno 17320 bound_to 7965
  145.6633  139.1585  143.2796 LP  0  0  0  0  0  0  0  0  0  0  0  0  # atno 17321 bound_to 7965
  140.0101  144.6230  150.7654 LP  0  0  0  0  0  0  0  0  0  0  0  0  # atno 17342 bound_to 10162
  140.7440  143.2855  151.3477 LP  0  0  0  0  0  0  0  0  0  0  0  0  # atno 17343 bound_to 10162
  157.6810  130.9140  150.0268 LP  0  0  0  0  0  0  0  0  0  0  0  0  # atno 17370 bound_to 10713
  156.1452  130.3642  149.9521 LP  0  0  0  0  0  0  0  0  0  0  0  0  # atno 17371 bound_to 10713
  139.8828  134.9011  156.2804 LP  0  0  0  0  0  0  0  0  0  0  0  0  # atno 17394 bound_to 11000
  140.9930  133.7197  156.0843 LP  0  0  0  0  0  0  0  0  0  0  0  0  # atno 17395 bound_to 11000

$$$$
