AV-unprocessed.smi:1120|AV-procd|sdf|4822|dock1
  -GOLD-   22720 3383D 1   1.00000     0.00000
 Structure written by MMmdl.
 47 48  0  0  0  0  0  0  0  0  2 V2000
  151.3745  145.2088  159.7720 C   0  0  0  0  0  0  0  0  0  0  0  0
  151.9884  144.0039  159.0459 C   0  0  2  0  0  0  0  0  0  0  0  0
  150.9486  143.2661  158.1710 C   0  0  0  0  0  0  0  0  0  0  0  0
  151.5350  142.0177  157.4654 C   0  0  0  0  0  0  0  0  0  0  0  0
  152.1689  140.9995  158.4440 C   0  0  1  0  0  0  0  0  0  0  0  0
  152.7965  139.9232  157.6885 N   0  5  0  0  0  0  0  0  0  0  0  0
  152.1340  138.4418  157.6694 S   0  0  0  0  0  0  0  0  0  0  0  0
  151.5302  138.1153  156.3668 O   0  0  0  0  0  0  0  0  0  0  0  0
  153.0017  137.4191  158.2763 O   0  0  0  0  0  0  0  0  0  0  0  0
  150.7300  138.6857  158.8483 C   0  0  0  0  0  0  0  0  0  0  0  0
  150.0293  137.3613  159.1570 C   0  0  0  0  0  0  0  0  0  0  0  0
  150.5796  136.2939  158.8866 O   0  0  0  0  0  0  0  0  0  0  0  0
  148.8292  137.4404  159.7470 N   0  0  0  0  0  0  0  0  0  0  0  0
  148.0013  136.3044  160.1298 C   0  0  0  0  0  0  0  0  0  0  0  0
  148.0786  136.0464  161.6444 C   0  0  0  0  0  0  0  0  0  0  0  0
  146.8300  135.3879  162.2071 C   0  0  0  0  0  0  0  0  0  0  0  0
  146.8376  134.0250  162.5747 C   0  0  0  0  0  0  0  0  0  0  0  0
  145.6472  133.4550  163.0648 C   0  0  0  0  0  0  0  0  0  0  0  0
  144.5014  134.2665  163.1724 C   0  0  0  0  0  0  0  0  0  0  0  0
  144.5979  135.6171  162.7817 C   0  0  0  0  0  0  0  0  0  0  0  0
  145.7336  136.1730  162.3073 N   0  0  0  0  0  0  0  0  0  0  0  0
  153.2021  141.7438  159.3285 C   0  0  0  0  0  0  0  0  0  0  0  0
  152.6180  142.9942  160.0332 C   0  0  0  0  0  0  0  0  0  0  0  0
  150.5710  144.9010  160.4418 H   0  0  0  0  0  0  0  0  0  0  0  0
  150.9603  145.9247  159.0616 H   0  0  0  0  0  0  0  0  0  0  0  0
  152.1239  145.7307  160.3677 H   0  0  0  0  0  0  0  0  0  0  0  0
  152.7789  144.3755  158.3920 H   0  0  0  0  0  0  0  0  0  0  0  0
  150.0897  142.9802  158.7819 H   0  0  0  0  0  0  0  0  0  0  0  0
  150.5597  143.9506  157.4164 H   0  0  0  0  0  0  0  0  0  0  0  0
  150.7505  141.5308  156.8849 H   0  0  0  0  0  0  0  0  0  0  0  0
  152.2852  142.3470  156.7443 H   0  0  0  0  0  0  0  0  0  0  0  0
  151.3754  140.6202  159.0888 H   0  0  0  0  0  0  0  0  0  0  0  0
  151.1264  139.1210  159.7656 H   0  0  0  0  0  0  0  0  0  0  0  0
  150.0271  139.3958  158.4135 H   0  0  0  0  0  0  0  0  0  0  0  0
  148.4531  138.3607  159.9286 H   0  0  0  0  0  0  0  0  0  0  0  0
  146.9647  136.4789  159.8381 H   0  0  0  0  0  0  0  0  0  0  0  0
  148.3447  135.4248  159.5839 H   0  0  0  0  0  0  0  0  0  0  0  0
  148.9402  135.4137  161.8624 H   0  0  0  0  0  0  0  0  0  0  0  0
  148.2547  136.9861  162.1695 H   0  0  0  0  0  0  0  0  0  0  0  0
  147.7307  133.4256  162.4719 H   0  0  0  0  0  0  0  0  0  0  0  0
  145.6134  132.4140  163.3500 H   0  0  0  0  0  0  0  0  0  0  0  0
  143.5708  133.8633  163.5432 H   0  0  0  0  0  0  0  0  0  0  0  0
  143.7387  136.2680  162.8498 H   0  0  0  0  0  0  0  0  0  0  0  0
  153.5981  141.0702  160.0884 H   0  0  0  0  0  0  0  0  0  0  0  0
  154.0536  142.0489  158.7183 H   0  0  0  0  0  0  0  0  0  0  0  0
  153.4106  143.4857  160.5984 H   0  0  0  0  0  0  0  0  0  0  0  0
  151.8735  142.6903  160.7720 H   0  0  0  0  0  0  0  0  0  0  0  0
  1  2  1  0  0  0  0
  1 24  1  0  0  0  0
  1 25  1  0  0  0  0
  1 26  1  0  0  0  0
  2 23  1  0  0  0  0
  2  3  1  0  0  0  0
  2 27  1  0  0  0  0
  3  4  1  0  0  0  0
  3 28  1  0  0  0  0
  3 29  1  0  0  0  0
  4  5  1  0  0  0  0
  4 30  1  0  0  0  0
  4 31  1  0  0  0  0
  5  6  1  0  0  0  0
  5 22  1  0  0  0  0
  5 32  1  0  0  0  0
  6  7  1  0  0  0  0
  7  8  2  0  0  0  0
  7  9  2  0  0  0  0
  7 10  1  0  0  0  0
 10 11  1  0  0  0  0
 10 33  1  0  0  0  0
 10 34  1  0  0  0  0
 11 12  2  0  0  0  0
 11 13  1  0  0  0  0
 13 14  1  0  0  0  0
 13 35  1  0  0  0  0
 14 15  1  0  0  0  0
 14 36  1  0  0  0  0
 14 37  1  0  0  0  0
 15 16  1  0  0  0  0
 15 38  1  0  0  0  0
 15 39  1  0  0  0  0
 16 21  1  0  0  0  0
 16 17  2  0  0  0  0
 17 18  1  0  0  0  0
 17 40  1  0  0  0  0
 18 19  2  0  0  0  0
 18 41  1  0  0  0  0
 19 20  1  0  0  0  0
 19 42  1  0  0  0  0
 20 21  2  0  0  0  0
 20 43  1  0  0  0  0
 22 23  1  0  0  0  0
 22 44  1  0  0  0  0
 22 45  1  0  0  0  0
 23 46  1  0  0  0  0
 23 47  1  0  0  0  0
M  CHG  1   6  -1
M  END
> <s_m_source_file>
AV-unprocessed.smi

> <i_m_source_file_index>
1120

> <i_lp_mmshare_version>
43012

> <i_f3d_flags>
0

> <s_epik_input>
W0NIM11bQ0BASF0xW0NIMl1bQ0gyXVtDQEhdKFtDSDJdW0NIMl0xKVtOSF1TKD1PKSg9TylbQ0gyXUMoPU8pW05IXVtDSDJdW0NIMl1jMltjSF1bY0hdW2NIXVtjSF1uMg==

> <s_epik_cmdline>
J2VwaWtfcHl0aG9uJywgJy1waCcsICc3LjAnLCAnLXRuJywgJzgnLCAnLW1hJywgJzIwMCcsICctbWV0YWxfYmluZGluZycsICctaW1hZScsICc8aW5maWxlLm1hZT4nLCAnLW9tYWUnLCAnPG91dGZpbGUubWFlPic=

> <r_epik_Ionization_Penalty>
5.68623

> <r_epik_Ionization_Penalty_Charging>
5.66033

> <r_epik_Ionization_Penalty_Neutral>
0.0259005

> <r_epik_State_Penalty>
5.67764

> <r_epik_Charging_Adjusted_Penalty>
11.338

> <i_epik_Tot_Q>
-1

> <i_epik_Tot_abs_Q>
1

> <r_epik_Metal_State_Penalty>
1.68319

> <b_epik_Metal_Only>
1

> <s_lp_Force_Field>
OPLS_2005

> <r_lp_Energy>
8.54043

> <b_lp_Chiralities_Consistent>
1

> <s_lp_Variant>
AV-unprocessed.smi:1120-5

> <Gold.Version>
5.8.1

> <Gold.Id.Protein>
6NUR|6NUR_protein|mol2

> <Gold.PLP.Fitness>
52.9489

> <Gold.PLP.PLP>
-45.6111

> <Gold.PLP.part.hbond>
-2.0000

> <Gold.PLP.part.metal>
0.0000

> <Gold.PLP.part.buried>
-6.6219

> <Gold.PLP.part.nonpolar>
-37.3916

> <Gold.PLP.part.repulsive>
0.6863

> <Gold.PLP.ligand.clash>
0.0000

> <Gold.PLP.ligand.torsion>
1.4797

> <Gold.PLP.Chemscore.Hbond>
2.9920

> <Gold.PLP.Chemscore.CHOScore>
0.0000

> <Gold.PLP.Chemscore.Metal>
0.0000

> <Gold.Chemscore.Hbonds>
donor molecule, donor type, donor heavy atom, donor atom, acceptor molecule, acceptor atom, score
      P1  H  6896  6907       L1    12  1.00
      P1  H  7997  8009       L1     6  2.00

> <Gold.PLP.Chemscore.Internal.Correction>
1.3211

> <Gold.Rescore>
     Score         DG    S(hbond)    S(metal)    S(lipo)     H(rot)  DE(clash)    DE(int)     intcor
     18.50     -21.71       1.85        0.00     126.59       1.86       0.28       2.93       ----

> <Gold.Chemscore.Fitness>
18.4966

> <Gold.Chemscore.DG>
-21.7050

> <Gold.Chemscore.ZeroCoef>
-5.4800

> <Gold.Chemscore.Hbond>
1.8493

> <Gold.Chemscore.Metal>
0.0000

> <Gold.Chemscore.Lipo>
126.5858

> <Gold.Chemscore.Internal_Hbond>
0.0000

> <Gold.Chemscore.DEClash>
0.2800

> <Gold.Chemscore.DEInternal>
2.9284

> <Gold.Chemscore.Rot>
1.8602

> <Gold.Chemscore.Internal.Correction>
   9.000000E+99

> <Gold.Chemscore.Hbonds>
donor molecule, donor type, donor heavy atom, donor atom, acceptor molecule, acceptor atom, score
      P1  H  6896  6907       L1    12  0.95
      P1  H  7997  8009       L1     6  0.87

> <Gold.Chemscore.Hbond.Weighted>
-6.1767

> <Gold.Chemscore.Metal.Weighted>
-0.0000

> <Gold.Chemscore.Lipo.Weighted>
-14.8105

> <Gold.Chemscore.Internal_Hbond.Weighted>
0.0000

> <Gold.Chemscore.DEClash.Weighted>
0.2800

> <Gold.Chemscore.DEInternal.Weighted>
2.9284

> <Gold.Chemscore.Rot.Weighted>
4.7622

> <Gold.Chemscore.Internal.Correction.Weighted>
   9.000000E+99

> <Gold.Protein.RotatedTorsions>
[ 6907 6896 6895 6894 ] final  -44.40 input  -60.11 | X-H torsion
[ 7974 7965 7964 7962 ] final -157.35 input  175.53 | X-H torsion
[ 8008 7997 7996 7995 ] final  155.81 input   59.86 | X-H torsion
[ 10167 10162 10161 10158 ] final  123.27 input  -65.29 | X-H torsion
[ 10718 10713 10712 10709 ] final  110.59 input   66.30 | X-H torsion
[ 10763 10752 10751 10750 ] final   -2.59 input  -60.55 | X-H torsion
[ 11005 11000 10999 10996 ] final  106.65 input  -57.11 | X-H torsion

> <Gold.Protein.ActiveResidues>
 VAL166  LYS551  ARG553  GLY616  TRP617  ASP618  TYR619  PRO620  LYS621  CYS622 
 ASP623  PHE694  ASN695  SER759  ASP760  ASP761  ALA762  ILE779  LEU786  VAL792 
 PHE793  MET794  SER795  GLU796  ALA797  LYS798  CYS799  TRP800  GLU811  SER814 

> <Gold.Protein.RotatedAtoms>
  150.9332  134.8746  159.7564 H   0  0  0  0  0  0  0  0  0  0  0  0  # atno 6907 bound_to 6896
  152.5047  134.4049  159.9439 H   0  0  0  0  0  0  0  0  0  0  0  0  # atno 6908 bound_to 6896
  151.4074  133.3698  159.2774 H   0  0  0  0  0  0  0  0  0  0  0  0  # atno 6909 bound_to 6896
  144.7552  140.3981  143.6018 H   0  0  0  0  0  0  0  0  0  0  0  0  # atno 7974 bound_to 7965
  156.2458  140.1929  156.6858 H   0  0  0  0  0  0  0  0  0  0  0  0  # atno 8008 bound_to 7997
  154.6288  140.0598  156.9732 H   0  0  0  0  0  0  0  0  0  0  0  0  # atno 8009 bound_to 7997
  155.1744  140.3271  155.4389 H   0  0  0  0  0  0  0  0  0  0  0  0  # atno 8010 bound_to 7997
  139.5809  144.6985  151.3531 H   0  0  0  0  0  0  0  0  0  0  0  0  # atno 10167 bound_to 10162
  157.6487  131.0935  150.6623 H   0  0  0  0  0  0  0  0  0  0  0  0  # atno 10718 bound_to 10713
  153.3600  135.6990  153.6719 H   0  0  0  0  0  0  0  0  0  0  0  0  # atno 10763 bound_to 10752
  153.5412  135.3572  155.2719 H   0  0  0  0  0  0  0  0  0  0  0  0  # atno 10764 bound_to 10752
  154.8667  135.4204  154.2856 H   0  0  0  0  0  0  0  0  0  0  0  0  # atno 10765 bound_to 10752
  139.8817  134.9376  156.5700 H   0  0  0  0  0  0  0  0  0  0  0  0  # atno 11005 bound_to 11000
  145.6804  139.1617  143.2704 LP  0  0  0  0  0  0  0  0  0  0  0  0  # atno 17320 bound_to 7965
  146.1553  140.6866  142.9303 LP  0  0  0  0  0  0  0  0  0  0  0  0  # atno 17321 bound_to 7965
  140.7087  143.7446  150.7528 LP  0  0  0  0  0  0  0  0  0  0  0  0  # atno 17342 bound_to 10162
  140.0979  143.4816  152.2442 LP  0  0  0  0  0  0  0  0  0  0  0  0  # atno 17343 bound_to 10162
  156.6937  130.4603  149.5592 LP  0  0  0  0  0  0  0  0  0  0  0  0  # atno 17370 bound_to 10713
  156.1843  130.6519  151.0988 LP  0  0  0  0  0  0  0  0  0  0  0  0  # atno 17371 bound_to 10713
  140.8106  133.8432  155.8806 LP  0  0  0  0  0  0  0  0  0  0  0  0  # atno 17394 bound_to 11000
  140.9510  134.1779  157.4728 LP  0  0  0  0  0  0  0  0  0  0  0  0  # atno 17395 bound_to 11000

$$$$
