AV-unprocessed.smi:2379|AV-procd|sdf|9452|dock9
  -GOLD-   2272013 83D 1   1.00000     0.00000
 Structure written by MMmdl.
 53 55  0  0  0  0  0  0  0  0  2 V2000
  154.2890  140.6389  160.6534 C   0  0  0  0  0  0  0  0  0  0  0  0
  153.3178  141.2589  159.6707 C   0  0  0  0  0  0  0  0  0  0  0  0
  153.0756  142.6460  159.6712 C   0  0  0  0  0  0  0  0  0  0  0  0
  152.1605  143.1611  158.7321 C   0  0  0  0  0  0  0  0  0  0  0  0
  151.8564  144.6434  158.6724 C   0  0  0  0  0  0  0  0  0  0  0  0
  151.5052  142.3873  157.8408 N   0  0  0  0  0  0  0  0  0  0  0  0
  151.7286  141.0498  157.8328 C   0  0  0  0  0  0  0  0  0  0  0  0
  151.0923  140.1515  156.9353 N   0  0  0  0  0  0  0  0  0  0  0  0
  150.9044  138.8279  157.0813 C   0  0  0  0  0  0  0  0  0  0  0  0
  151.2835  138.1547  158.0402 O   0  0  0  0  0  0  0  0  0  0  0  0
  150.2466  138.3101  156.0333 N   0  0  0  0  0  0  0  0  0  0  0  0
  149.9147  136.8977  155.8672 C   0  0  2  0  0  0  0  0  0  0  0  0
  150.8997  136.2390  154.8885 C   0  0  0  0  0  0  0  0  0  0  0  0
  150.5311  134.7676  154.6311 C   0  0  0  0  0  0  0  0  0  0  0  0
  149.1360  134.6395  154.1346 N   0  3  1  0  0  0  0  0  0  0  0  0
  148.7901  133.2475  153.7440 C   0  0  0  0  0  0  0  0  0  0  0  0
  147.3658  133.1395  153.1643 C   0  0  1  0  0  0  0  0  0  0  0  0
  147.3021  133.4102  151.6738 C   0  0  0  0  0  0  0  0  0  0  0  0
  145.9524  132.8094  151.2948 C   0  0  0  0  0  0  0  0  0  0  0  0
  145.7506  131.7209  152.1901 O   0  0  0  0  0  0  0  0  0  0  0  0
  146.7301  131.7488  153.2228 C   0  0  0  0  0  0  0  0  0  0  0  0
  148.1650  135.2370  155.0889 C   0  0  0  0  0  0  0  0  0  0  0  0
  148.4778  136.7204  155.3427 C   0  0  0  0  0  0  0  0  0  0  0  0
  152.6359  140.4527  158.7369 C   0  0  0  0  0  0  0  0  0  0  0  0
  154.8164  141.4030  161.2253 H   0  0  0  0  0  0  0  0  0  0  0  0
  155.0296  140.0371  160.1262 H   0  0  0  0  0  0  0  0  0  0  0  0
  153.7570  139.9944  161.3534 H   0  0  0  0  0  0  0  0  0  0  0  0
  153.5775  143.2975  160.3715 H   0  0  0  0  0  0  0  0  0  0  0  0
  152.5374  145.2122  159.3060 H   0  0  0  0  0  0  0  0  0  0  0  0
  150.8368  144.8338  159.0081 H   0  0  0  0  0  0  0  0  0  0  0  0
  151.9568  145.0120  157.6512 H   0  0  0  0  0  0  0  0  0  0  0  0
  150.7466  140.5646  156.0820 H   0  0  0  0  0  0  0  0  0  0  0  0
  149.9716  138.9350  155.2896 H   0  0  0  0  0  0  0  0  0  0  0  0
  150.0058  136.3980  156.8338 H   0  0  0  0  0  0  0  0  0  0  0  0
  150.9023  136.7815  153.9417 H   0  0  0  0  0  0  0  0  0  0  0  0
  151.9152  136.2997  155.2822 H   0  0  0  0  0  0  0  0  0  0  0  0
  151.2233  134.3540  153.8964 H   0  0  0  0  0  0  0  0  0  0  0  0
  150.6491  134.1831  155.5452 H   0  0  0  0  0  0  0  0  0  0  0  0
  149.4800  132.9115  152.9685 H   0  0  0  0  0  0  0  0  0  0  0  0
  148.9340  132.5617  154.5805 H   0  0  0  0  0  0  0  0  0  0  0  0
  146.7104  133.8530  153.6668 H   0  0  0  0  0  0  0  0  0  0  0  0
  147.3769  134.4696  151.4259 H   0  0  0  0  0  0  0  0  0  0  0  0
  148.1037  132.8816  151.1550 H   0  0  0  0  0  0  0  0  0  0  0  0
  145.1544  133.5369  151.4477 H   0  0  0  0  0  0  0  0  0  0  0  0
  145.9187  132.4827  150.2552 H   0  0  0  0  0  0  0  0  0  0  0  0
  147.4694  130.9746  153.0131 H   0  0  0  0  0  0  0  0  0  0  0  0
  146.2791  131.5354  154.1920 H   0  0  0  0  0  0  0  0  0  0  0  0
  147.1503  135.1487  154.7051 H   0  0  0  0  0  0  0  0  0  0  0  0
  148.1914  134.6849  156.0300 H   0  0  0  0  0  0  0  0  0  0  0  0
  147.7602  137.1255  156.0572 H   0  0  0  0  0  0  0  0  0  0  0  0
  148.3454  137.2843  154.4181 H   0  0  0  0  0  0  0  0  0  0  0  0
  152.8067  139.3858  158.7198 H   0  0  0  0  0  0  0  0  0  0  0  0
  149.0931  135.1885  153.2878 H   0  0  0  0  0  0  0  0  0  0  0  0
  1  2  1  0  0  0  0
  1 25  1  0  0  0  0
  1 26  1  0  0  0  0
  1 27  1  0  0  0  0
  2 24  1  0  0  0  0
  2  3  2  0  0  0  0
  3  4  1  0  0  0  0
  3 28  1  0  0  0  0
  4  5  1  0  0  0  0
  4  6  2  0  0  0  0
  5 29  1  0  0  0  0
  5 30  1  0  0  0  0
  5 31  1  0  0  0  0
  6  7  1  0  0  0  0
  7  8  1  0  0  0  0
  7 24  2  0  0  0  0
  8  9  1  0  0  0  0
  8 32  1  0  0  0  0
  9 10  2  0  0  0  0
  9 11  1  0  0  0  0
 11 12  1  0  0  0  0
 11 33  1  0  0  0  0
 12 23  1  0  0  0  0
 12 13  1  0  0  0  0
 12 34  1  0  0  0  0
 13 14  1  0  0  0  0
 13 35  1  0  0  0  0
 13 36  1  0  0  0  0
 14 15  1  0  0  0  0
 14 37  1  0  0  0  0
 14 38  1  0  0  0  0
 15 16  1  0  0  0  0
 15 22  1  0  0  0  0
 15 53  1  0  0  0  0
 16 17  1  0  0  0  0
 16 39  1  0  0  0  0
 16 40  1  0  0  0  0
 17 21  1  0  0  0  0
 17 18  1  0  0  0  0
 17 41  1  0  0  0  0
 18 19  1  0  0  0  0
 18 42  1  0  0  0  0
 18 43  1  0  0  0  0
 19 20  1  0  0  0  0
 19 44  1  0  0  0  0
 19 45  1  0  0  0  0
 20 21  1  0  0  0  0
 21 46  1  0  0  0  0
 21 47  1  0  0  0  0
 22 23  1  0  0  0  0
 22 48  1  0  0  0  0
 22 49  1  0  0  0  0
 23 50  1  0  0  0  0
 23 51  1  0  0  0  0
 24 52  1  0  0  0  0
M  CHG  1  15   1
M  END
> <s_m_source_file>
AV-unprocessed.smi

> <i_m_source_file_index>
2379

> <i_lp_mmshare_version>
43012

> <i_f3d_flags>
0

> <s_epik_input>
W0NIM11jMVtjSF1jKFtDSDNdKW5jKFtjSF0xKVtOSF1DKD1PKVtOSF1bQ0hdMltDSDJdW0NIMl1OKFtDSDJdW0NIMl0yKVtDSDJdW0NAQEhdM1tDSDJdW0NIMl1PW0NIMl0z

> <s_epik_cmdline>
J2VwaWtfcHl0aG9uJywgJy1waCcsICc3LjAnLCAnLXRuJywgJzgnLCAnLW1hJywgJzIwMCcsICctbWV0YWxfYmluZGluZycsICctaW1hZScsICc8aW5maWxlLm1hZT4nLCAnLW9tYWUnLCAnPG91dGZpbGUubWFlPic=

> <r_epik_Ionization_Penalty>
0.00766556

> <r_epik_Ionization_Penalty_Charging>
0.00747775

> <r_epik_Ionization_Penalty_Neutral>
0.00018781

> <r_epik_State_Penalty>
0.00558817

> <r_epik_Charging_Adjusted_Penalty>
0.0130659

> <i_epik_Tot_Q>
1

> <i_epik_Tot_abs_Q>
1

> <r_epik_Metal_State_Penalty>
-0

> <b_epik_Metal_Only>
0

> <s_lp_Force_Field>
OPLS_2005

> <r_lp_Energy>
35.6798

> <b_lp_Chiralities_Consistent>
1

> <s_lp_Variant>
AV-unprocessed.smi:2379-2

> <Gold.Version>
5.8.1

> <Gold.Id.Protein>
6NUR|6NUR_protein|mol2

> <Gold.PLP.Fitness>
44.5377

> <Gold.PLP.PLP>
-39.7431

> <Gold.PLP.part.hbond>
-1.0000

> <Gold.PLP.part.metal>
0.0000

> <Gold.PLP.part.buried>
-5.7120

> <Gold.PLP.part.nonpolar>
-32.9677

> <Gold.PLP.part.repulsive>
0.2644

> <Gold.PLP.ligand.clash>
0.0000

> <Gold.PLP.ligand.torsion>
0.6278

> <Gold.PLP.Chemscore.Hbond>
2.0000

> <Gold.PLP.Chemscore.CHOScore>
0.0000

> <Gold.PLP.Chemscore.Metal>
0.0000

> <Gold.Chemscore.Hbonds>
donor molecule, donor type, donor heavy atom, donor atom, acceptor molecule, acceptor atom, score
      L1  H    15    53       P1  7948  2.00

> <Gold.PLP.Chemscore.Internal.Correction>
0.0502

> <Gold.Rescore>
     Score         DG    S(hbond)    S(metal)    S(lipo)     H(rot)  DE(clash)    DE(int)     intcor
     15.56     -17.49       0.92        0.00     106.30       1.37       0.01       1.93       ----

> <Gold.Chemscore.Fitness>
15.5591

> <Gold.Chemscore.DG>
-17.4907

> <Gold.Chemscore.ZeroCoef>
-5.4800

> <Gold.Chemscore.Hbond>
0.9245

> <Gold.Chemscore.Metal>
0.0000

> <Gold.Chemscore.Lipo>
106.2950

> <Gold.Chemscore.Internal_Hbond>
0.0000

> <Gold.Chemscore.DEClash>
0.0063

> <Gold.Chemscore.DEInternal>
1.9253

> <Gold.Chemscore.Rot>
1.3725

> <Gold.Chemscore.Internal.Correction>
   9.000000E+99

> <Gold.Chemscore.Hbonds>
donor molecule, donor type, donor heavy atom, donor atom, acceptor molecule, acceptor atom, score
      L1  H    15    53       P1  7948  0.26

> <Gold.Chemscore.Hbond.Weighted>
-3.0878

> <Gold.Chemscore.Metal.Weighted>
-0.0000

> <Gold.Chemscore.Lipo.Weighted>
-12.4365

> <Gold.Chemscore.Internal_Hbond.Weighted>
0.0000

> <Gold.Chemscore.DEClash.Weighted>
0.0063

> <Gold.Chemscore.DEInternal.Weighted>
1.9253

> <Gold.Chemscore.Rot.Weighted>
3.5136

> <Gold.Chemscore.Internal.Correction.Weighted>
   9.000000E+99

> <Gold.Protein.RotatedTorsions>
[ 6907 6896 6895 6894 ] final   59.08 input  -60.11 | X-H torsion
[ 7974 7965 7964 7962 ] final  104.45 input  175.53 | X-H torsion
[ 8008 7997 7996 7995 ] final  126.72 input   59.86 | X-H torsion
[ 10167 10162 10161 10158 ] final   10.68 input  -65.29 | X-H torsion
[ 10718 10713 10712 10709 ] final  -33.71 input   66.30 | X-H torsion
[ 10763 10752 10751 10750 ] final  -22.94 input  -60.55 | X-H torsion
[ 11005 11000 10999 10996 ] final -153.29 input  -57.11 | X-H torsion

> <Gold.Protein.ActiveResidues>
 VAL166  LYS551  ARG553  GLY616  TRP617  ASP618  TYR619  PRO620  LYS621  CYS622 
 ASP623  PHE694  ASN695  SER759  ASP760  ASP761  ALA762  ILE779  LEU786  VAL792 
 PHE793  MET794  SER795  GLU796  ALA797  LYS798  CYS799  TRP800  GLU811  SER814 

> <Gold.Protein.RotatedAtoms>
  152.3883  134.6482  160.0117 H   0  0  0  0  0  0  0  0  0  0  0  0  # atno 6907 bound_to 6896
  151.6724  133.3308  159.3208 H   0  0  0  0  0  0  0  0  0  0  0  0  # atno 6908 bound_to 6896
  150.7804  134.6787  159.6477 H   0  0  0  0  0  0  0  0  0  0  0  0  # atno 6909 bound_to 6896
  145.3325  139.2483  143.3653 H   0  0  0  0  0  0  0  0  0  0  0  0  # atno 7974 bound_to 7965
  156.2872  140.2686  156.2157 H   0  0  0  0  0  0  0  0  0  0  0  0  # atno 8008 bound_to 7997
  155.0219  140.0386  157.2459 H   0  0  0  0  0  0  0  0  0  0  0  0  # atno 8009 bound_to 7997
  154.7428  140.2728  155.6363 H   0  0  0  0  0  0  0  0  0  0  0  0  # atno 8010 bound_to 7997
  140.6179  143.8268  150.7140 H   0  0  0  0  0  0  0  0  0  0  0  0  # atno 10167 bound_to 10162
  156.3593  130.4321  149.7637 H   0  0  0  0  0  0  0  0  0  0  0  0  # atno 10718 bound_to 10713
  153.6599  135.6977  153.5181 H   0  0  0  0  0  0  0  0  0  0  0  0  # atno 10763 bound_to 10752
  153.2640  135.4236  155.0921 H   0  0  0  0  0  0  0  0  0  0  0  0  # atno 10764 bound_to 10752
  154.8455  135.3562  154.6143 H   0  0  0  0  0  0  0  0  0  0  0  0  # atno 10765 bound_to 10752
  140.7097  134.3846  157.5199 H   0  0  0  0  0  0  0  0  0  0  0  0  # atno 11005 bound_to 11000
  146.3040  140.3906  142.8694 LP  0  0  0  0  0  0  0  0  0  0  0  0  # atno 17320 bound_to 7965
  144.8853  140.7453  143.5961 LP  0  0  0  0  0  0  0  0  0  0  0  0  # atno 17321 bound_to 7965
  140.1852  143.4082  152.1904 LP  0  0  0  0  0  0  0  0  0  0  0  0  # atno 17342 bound_to 10162
  139.5414  144.7259  151.4723 LP  0  0  0  0  0  0  0  0  0  0  0  0  # atno 17343 bound_to 10162
  156.4807  130.8040  151.3054 LP  0  0  0  0  0  0  0  0  0  0  0  0  # atno 17370 bound_to 10713
  157.7471  131.0006  150.2934 LP  0  0  0  0  0  0  0  0  0  0  0  0  # atno 17371 bound_to 10713
  139.8875  134.8882  156.2526 LP  0  0  0  0  0  0  0  0  0  0  0  0  # atno 17394 bound_to 11000
  141.0094  133.7104  156.1088 LP  0  0  0  0  0  0  0  0  0  0  0  0  # atno 17395 bound_to 11000

$$$$
