AV-unprocessed.smi:3117|AV-procd|sdf|11885|dock7
  -GOLD-   2272017273D 1   1.00000     0.00000
 Structure written by MMmdl.
 36 36  0  0  0  0  0  0  0  0  1 V2000
  151.5510  140.5812  155.8653 C   0  0  0  0  0  0  0  0  0  0  0  0
  150.9555  141.9082  156.3641 C   0  0  1  0  0  0  0  0  0  0  0  0
  149.7298  142.1720  155.5972 N   0  0  0  0  0  0  0  0  0  0  0  0
  148.7928  141.0579  155.4534 C   0  0  0  0  0  0  0  0  0  0  0  0
  148.1402  141.0311  154.0562 C   0  0  0  0  0  0  0  0  0  0  0  0
  147.4865  139.6738  153.7411 C   0  0  0  0  0  0  0  0  0  0  0  0
  147.1607  142.2006  153.8507 C   0  0  0  0  0  0  0  0  0  0  0  0
  149.1869  141.2056  153.1231 O   0  0  0  0  0  0  0  0  0  0  0  0
  150.7709  141.8953  157.9133 C   0  0  1  0  0  0  0  0  0  0  0  0
  151.2397  140.5959  158.6009 C   0  0  0  0  0  0  0  0  0  0  0  0
  151.2553  143.1068  158.5737 N   0  0  0  0  0  0  0  0  0  0  0  0
  151.0687  144.4171  158.1812 C   0  0  0  0  0  0  0  0  0  0  0  0
  151.7233  145.2141  159.0759 C   0  0  0  0  0  0  0  0  0  0  0  0
  152.2985  144.2905  159.9914 C   0  0  0  0  0  0  0  0  0  0  0  0
  152.0195  143.0339  159.6885 N   0  0  0  0  0  0  0  0  0  0  0  0
  152.5003  140.3634  156.3553 H   0  0  0  0  0  0  0  0  0  0  0  0
  151.7428  140.6170  154.7925 H   0  0  0  0  0  0  0  0  0  0  0  0
  150.8793  139.7430  156.0509 H   0  0  0  0  0  0  0  0  0  0  0  0
  151.6895  142.6772  156.1206 H   0  0  0  0  0  0  0  0  0  0  0  0
  149.2438  142.9653  156.0027 H   0  0  0  0  0  0  0  0  0  0  0  0
  149.3038  140.1112  155.6093 H   0  0  0  0  0  0  0  0  0  0  0  0
  148.0172  141.1271  156.2174 H   0  0  0  0  0  0  0  0  0  0  0  0
  146.6409  139.4758  154.4007 H   0  0  0  0  0  0  0  0  0  0  0  0
  148.1959  138.8538  153.8588 H   0  0  0  0  0  0  0  0  0  0  0  0
  147.1128  139.6425  152.7169 H   0  0  0  0  0  0  0  0  0  0  0  0
  146.3042  142.1240  154.5210 H   0  0  0  0  0  0  0  0  0  0  0  0
  146.7750  142.2211  152.8309 H   0  0  0  0  0  0  0  0  0  0  0  0
  147.6417  143.1606  154.0426 H   0  0  0  0  0  0  0  0  0  0  0  0
  149.0476  140.6095  152.4031 H   0  0  0  0  0  0  0  0  0  0  0  0
  149.6935  141.8915  158.0859 H   0  0  0  0  0  0  0  0  0  0  0  0
  150.7773  139.7241  158.1380 H   0  0  0  0  0  0  0  0  0  0  0  0
  150.9525  140.5932  159.6528 H   0  0  0  0  0  0  0  0  0  0  0  0
  152.3167  140.4508  158.5634 H   0  0  0  0  0  0  0  0  0  0  0  0
  150.4913  144.6712  157.3047 H   0  0  0  0  0  0  0  0  0  0  0  0
  151.7856  146.2923  159.0737 H   0  0  0  0  0  0  0  0  0  0  0  0
  152.9074  144.4940  160.8598 H   0  0  0  0  0  0  0  0  0  0  0  0
  1  2  1  0  0  0  0
  1 16  1  0  0  0  0
  1 17  1  0  0  0  0
  1 18  1  0  0  0  0
  2  3  1  0  0  0  0
  2  9  1  0  0  0  0
  2 19  1  0  0  0  0
  3  4  1  0  0  0  0
  3 20  1  0  0  0  0
  4  5  1  0  0  0  0
  4 21  1  0  0  0  0
  4 22  1  0  0  0  0
  5  6  1  0  0  0  0
  5  7  1  0  0  0  0
  5  8  1  0  0  0  0
  6 23  1  0  0  0  0
  6 24  1  0  0  0  0
  6 25  1  0  0  0  0
  7 26  1  0  0  0  0
  7 27  1  0  0  0  0
  7 28  1  0  0  0  0
  8 29  1  0  0  0  0
  9 10  1  0  0  0  0
  9 11  1  0  0  0  0
  9 30  1  0  0  0  0
 10 31  1  0  0  0  0
 10 32  1  0  0  0  0
 10 33  1  0  0  0  0
 11 15  1  0  0  0  0
 11 12  1  0  0  0  0
 12 13  2  0  0  0  0
 12 34  1  0  0  0  0
 13 14  1  0  0  0  0
 13 35  1  0  0  0  0
 14 15  2  0  0  0  0
 14 36  1  0  0  0  0
M  END
> <s_m_source_file>
AV-unprocessed.smi

> <i_m_source_file_index>
3117

> <i_lp_mmshare_version>
43012

> <i_f3d_flags>
0

> <s_epik_input>
W0NIM11DKFtDSDNdKShbT0hdKVtDSDJdW05IXVtDQEBIXShbQ0gzXSlbQ0BIXShbQ0gzXSluMVtjSF1bY0hdW2NIXW4x

> <s_epik_cmdline>
J2VwaWtfcHl0aG9uJywgJy1waCcsICc3LjAnLCAnLXRuJywgJzgnLCAnLW1hJywgJzIwMCcsICctbWV0YWxfYmluZGluZycsICctaW1hZScsICc8aW5maWxlLm1hZT4nLCAnLW9tYWUnLCAnPG91dGZpbGUubWFlPic=

> <r_lp_tautomer_probability>
1

> <r_epik_Ionization_Penalty>
2.13419

> <r_epik_Ionization_Penalty_Charging>
0

> <r_epik_Ionization_Penalty_Neutral>
2.13419

> <r_epik_State_Penalty>
2.27148

> <r_epik_Charging_Adjusted_Penalty>
2.27148

> <i_epik_Tot_Q>
0

> <i_epik_Tot_abs_Q>
0

> <r_epik_Metal_State_Penalty>
2.27029

> <b_epik_Metal_Only>
0

> <s_lp_Force_Field>
OPLS_2005

> <r_lp_Energy>
16.3619

> <b_lp_Chiralities_Consistent>
1

> <s_lp_Variant>
AV-unprocessed.smi:3117-8

> <Gold.Version>
5.8.1

> <Gold.Id.Protein>
6NUR|6NUR_protein|mol2

> <Gold.PLP.Fitness>
44.8792

> <Gold.PLP.PLP>
-37.7984

> <Gold.PLP.part.hbond>
-3.3030

> <Gold.PLP.part.metal>
0.0000

> <Gold.PLP.part.buried>
-6.7331

> <Gold.PLP.part.nonpolar>
-28.1895

> <Gold.PLP.part.repulsive>
0.0000

> <Gold.PLP.ligand.clash>
0.0000

> <Gold.PLP.ligand.torsion>
2.0942

> <Gold.PLP.Chemscore.Hbond>
2.6571

> <Gold.PLP.Chemscore.CHOScore>
1.0000

> <Gold.PLP.Chemscore.Metal>
0.0000

> <Gold.Chemscore.Hbonds>
donor molecule, donor type, donor heavy atom, donor atom, acceptor molecule, acceptor atom, score
      L1  H     3    20       P1  8028  0.82
      L1  H     8    29       P1  7957  0.77
      P1  H  8011  8017       L1     8  0.95
      L1  C    12    34       P1  8028  1.00

> <Gold.PLP.Chemscore.Internal.Correction>
0.2978

> <Gold.Rescore>
     Score         DG    S(hbond)    S(metal)    S(lipo)     H(rot)  DE(clash)    DE(int)     intcor
     15.04     -16.77       2.07        0.00      85.37       2.19       0.04       1.69       ----

> <Gold.Chemscore.Fitness>
15.0399

> <Gold.Chemscore.DG>
-16.7722

> <Gold.Chemscore.ZeroCoef>
-5.4800

> <Gold.Chemscore.Hbond>
2.0677

> <Gold.Chemscore.Metal>
0.0000

> <Gold.Chemscore.Lipo>
85.3660

> <Gold.Chemscore.Internal_Hbond>
0.0000

> <Gold.Chemscore.DEClash>
0.0408

> <Gold.Chemscore.DEInternal>
1.6915

> <Gold.Chemscore.Rot>
2.1882

> <Gold.Chemscore.Internal.Correction>
   9.000000E+99

> <Gold.Chemscore.Hbonds>
donor molecule, donor type, donor heavy atom, donor atom, acceptor molecule, acceptor atom, score
      L1  H     3    20       P1  8028  0.80
      L1  H     8    29       P1  7957  0.75
      P1  H  8011  8017       L1     8  0.21

> <Gold.Chemscore.Hbond.Weighted>
-6.9062

> <Gold.Chemscore.Metal.Weighted>
-0.0000

> <Gold.Chemscore.Lipo.Weighted>
-9.9878

> <Gold.Chemscore.Internal_Hbond.Weighted>
0.0000

> <Gold.Chemscore.DEClash.Weighted>
0.0408

> <Gold.Chemscore.DEInternal.Weighted>
1.6915

> <Gold.Chemscore.Rot.Weighted>
5.6018

> <Gold.Chemscore.Internal.Correction.Weighted>
   9.000000E+99

> <Gold.Protein.RotatedTorsions>
[ 6907 6896 6895 6894 ] final   20.89 input  -60.11 | X-H torsion
[ 7974 7965 7964 7962 ] final  -29.59 input  175.53 | X-H torsion
[ 8008 7997 7996 7995 ] final  132.72 input   59.86 | X-H torsion
[ 10167 10162 10161 10158 ] final  -37.28 input  -65.29 | X-H torsion
[ 10718 10713 10712 10709 ] final  -86.09 input   66.30 | X-H torsion
[ 10763 10752 10751 10750 ] final   23.65 input  -60.55 | X-H torsion
[ 11005 11000 10999 10996 ] final   66.78 input  -57.11 | X-H torsion

> <Gold.Protein.ActiveResidues>
 VAL166  LYS551  ARG553  GLY616  TRP617  ASP618  TYR619  PRO620  LYS621  CYS622 
 ASP623  PHE694  ASN695  SER759  ASP760  ASP761  ALA762  ILE779  LEU786  VAL792 
 PHE793  MET794  SER795  GLU796  ALA797  LYS798  CYS799  TRP800  GLU811  SER814 

> <Gold.Protein.RotatedAtoms>
  151.9034  135.0369  160.0508 H   0  0  0  0  0  0  0  0  0  0  0  0  # atno 6907 bound_to 6896
  152.2339  133.5076  159.5240 H   0  0  0  0  0  0  0  0  0  0  0  0  # atno 6908 bound_to 6896
  150.7033  134.1096  159.4038 H   0  0  0  0  0  0  0  0  0  0  0  0  # atno 6909 bound_to 6896
  146.1205  140.5432  142.8737 H   0  0  0  0  0  0  0  0  0  0  0  0  # atno 7974 bound_to 7965
  156.2985  140.2539  156.3136 H   0  0  0  0  0  0  0  0  0  0  0  0  # atno 8008 bound_to 7997
  154.9303  140.0398  157.2063 H   0  0  0  0  0  0  0  0  0  0  0  0  # atno 8009 bound_to 7997
  154.8225  140.2862  155.5781 H   0  0  0  0  0  0  0  0  0  0  0  0  # atno 8010 bound_to 7997
  140.7122  143.3352  151.2479 H   0  0  0  0  0  0  0  0  0  0  0  0  # atno 10167 bound_to 10162
  155.9992  130.4753  150.4662 H   0  0  0  0  0  0  0  0  0  0  0  0  # atno 10718 bound_to 10713
  153.0822  135.6622  154.0022 H   0  0  0  0  0  0  0  0  0  0  0  0  # atno 10763 bound_to 10752
  153.9640  135.2971  155.3433 H   0  0  0  0  0  0  0  0  0  0  0  0  # atno 10764 bound_to 10752
  154.7224  135.5159  153.8904 H   0  0  0  0  0  0  0  0  0  0  0  0  # atno 10765 bound_to 10752
  139.9810  134.6743  156.0262 H   0  0  0  0  0  0  0  0  0  0  0  0  # atno 11005 bound_to 11000
  144.7593  140.5383  143.6747 LP  0  0  0  0  0  0  0  0  0  0  0  0  # atno 17320 bound_to 7965
  145.5475  139.1476  143.3412 LP  0  0  0  0  0  0  0  0  0  0  0  0  # atno 17321 bound_to 7965
  139.6845  143.9797  152.2827 LP  0  0  0  0  0  0  0  0  0  0  0  0  # atno 17342 bound_to 10162
  139.9438  144.6664  150.8240 LP  0  0  0  0  0  0  0  0  0  0  0  0  # atno 17343 bound_to 10162
  157.2682  131.0581  151.2277 LP  0  0  0  0  0  0  0  0  0  0  0  0  # atno 17370 bound_to 10713
  157.3367  130.7012  149.6357 LP  0  0  0  0  0  0  0  0  0  0  0  0  # atno 17371 bound_to 10713
  141.1482  133.6552  156.3933 LP  0  0  0  0  0  0  0  0  0  0  0  0  # atno 17394 bound_to 11000
  140.5096  134.6408  157.5279 LP  0  0  0  0  0  0  0  0  0  0  0  0  # atno 17395 bound_to 11000

$$$$
