#       Name:                AV-unprocessed.smi:1388
#       Creating user name   scv26
#       Creation time:       Fri Mar 27 05:25:56 2020


#       File generated by GOLD software.
#

@<TRIPOS>MOLECULE
AV-unprocessed.smi:1388
    51    52     1
SMALL
NO_CHARGES


@<TRIPOS>ATOM
      1 ****        -5.1214   3.9628   2.2801 C.3            1 S1                 0.0000
      2 ****        -4.7657   2.5690   2.0636 N.am           1 S1                 0.0000
      3 ****        -5.1429   1.8494   0.9968 C.2            1 S1                 0.0000
      4 ****        -5.8395   2.2994   0.0873 O.2            1 S1                 0.0000
      5 ****        -4.6632   0.3943   0.9506 C.3            1 S1                 0.0000
      6 ****        -3.1930   0.2326   0.8668 N.3            1 S1                 0.0000
      7 ****        -2.6360   0.8076  -0.3670 C.3            1 S1                 0.0000
      8 ****        -1.1026   0.6760  -0.3851 C.3            1 S1                 0.0000
      9 ****        -0.6646  -0.7899  -0.2412 C.3            1 S1                 0.0000
     10 ****         0.7877  -0.8836  -0.1237 N.am           1 S1                 0.0000
     11 ****         1.6410  -0.9939  -1.1526 C.2            1 S1                 0.0000
     12 ****         1.2824  -1.0478  -2.3296 O.2            1 S1                 0.0000
     13 ****         2.9157  -1.0238  -0.7247 N.am           1 S1                 0.0000
     14 ****         4.1054  -1.1597  -1.4948 C.ar           1 S1                 0.0000
     15 ****         4.0895  -1.3862  -2.8326 N.ar           1 S1                 0.0000
     16 ****         5.2545  -1.5113  -3.5005 C.ar           1 S1                 0.0000
     17 ****         6.5105  -1.4193  -2.8768 C.ar           1 S1                 0.0000
     18 ****         6.5455  -1.1859  -1.4915 C.ar           1 S1                 0.0000
     19 ****         5.3314  -1.0542  -0.7842 C.ar           1 S1                 0.0000
     20 ****         5.3671  -0.8003   0.7141 C.3            1 S1                 0.0000
     21 ****        -1.3340  -1.3905   1.0024 C.3            1 S1                 0.0000
     22 ****        -2.8591  -1.1929   0.9567 C.3            1 S1                 0.0000
     23 ****        -4.7121   4.3071   3.2297 H              1 S1                 0.0000
     24 ****        -6.2046   4.0886   2.3101 H              1 S1                 0.0000
     25 ****        -4.7189   4.5934   1.4864 H              1 S1                 0.0000
     26 ****        -4.1909   2.1222   2.7635 H              1 S1                 0.0000
     27 ****        -5.0336  -0.0968   1.8517 H              1 S1                 0.0000
     28 ****        -5.1379  -0.1108   0.1071 H              1 S1                 0.0000
     29 ****        -3.0675   0.3141  -1.2396 H              1 S1                 0.0000
     30 ****        -2.8834   1.8658  -0.4504 H              1 S1                 0.0000
     31 ****        -0.7101   1.0939  -1.3129 H              1 S1                 0.0000
     32 ****        -0.6796   1.2726   0.4248 H              1 S1                 0.0000
     33 ****        -1.0017  -1.3509  -1.1152 H              1 S1                 0.0000
     34 ****         1.1701  -0.8467   0.8099 H              1 S1                 0.0000
     35 ****         3.0547  -0.9363   0.2709 H              1 S1                 0.0000
     36 ****         5.1825  -1.6909  -4.5628 H              1 S1                 0.0000
     37 ****         7.4221  -1.5252  -3.4463 H              1 S1                 0.0000
     38 ****         7.4946  -1.1099  -0.9812 H              1 S1                 0.0000
     39 ****         6.3914  -0.7538   1.0853 H              1 S1                 0.0000
     40 ****         4.8527  -1.5991   1.2491 H              1 S1                 0.0000
     41 ****         4.8809   0.1464   0.9518 H              1 S1                 0.0000
     42 ****        -1.1023  -2.4539   1.0741 H              1 S1                 0.0000
     43 ****        -0.9357  -0.9253   1.9056 H              1 S1                 0.0000
     44 ****        -3.2953  -1.6186   1.8614 H              1 S1                 0.0000
     45 ****        -3.2858  -1.7378   0.1125 H              1 S1                 0.0000
     46 ****        -6.1541   3.2480   0.1210 LP             1 S1                 0.0000
     47 ****        -6.0908   1.7164  -0.6853 LP             1 S1                 0.0000
     48 ****        -2.7841   0.7322   1.6305 LP             1 S1                 0.0000
     49 ****         0.3097  -1.0094  -2.5582 LP             1 S1                 0.0000
     50 ****         1.9640  -1.1300  -3.0567 LP             1 S1                 0.0000
     51 ****         3.2196  -1.4599  -3.3202 LP             1 S1                 0.0000
@<TRIPOS>BOND
    1    1    2 1     
    2    1   23 1     
    3    1   24 1     
    4    1   25 1     
    5    2    3 am    
    6    2   26 1     
    7    3    4 2     
    8    3    5 1     
    9    5    6 1     
   10    5   27 1     
   11    5   28 1     
   12    6   22 1     
   13    6    7 1     
   14    7    8 1     
   15    7   29 1     
   16    7   30 1     
   17    8    9 1     
   18    8   31 1     
   19    8   32 1     
   20    9   10 1     
   21    9   21 1     
   22    9   33 1     
   23   10   11 am    
   24   10   34 1     
   25   11   12 2     
   26   11   13 am    
   27   13   14 1     
   28   13   35 1     
   29   14   19 ar    
   30   14   15 ar    
   31   15   16 ar    
   32   16   17 ar    
   33   16   36 1     
   34   17   18 ar    
   35   17   37 1     
   36   18   19 ar    
   37   18   38 1     
   38   19   20 1     
   39   20   39 1     
   40   20   40 1     
   41   20   41 1     
   42   21   22 1     
   43   21   42 1     
   44   21   43 1     
   45   22   44 1     
   46   22   45 1     
   47    4   46 1     
   48    4   47 1     
   49    6   48 1     
   50   12   49 1     
   51   12   50 1     
   52   15   51 1     
@<TRIPOS>SUBSTRUCTURE
      1 S1             1
@<TRIPOS>SET
LONE_PAIRS      STATIC     ATOMS    <user>   **** ""
6 46 47 48 49 50 51
DONOR_HYDROGENS      STATIC     ATOMS    <user>   **** ""
3 26 34 35
ATOM$BLUE        STATIC     ATOMS    COLORGROUP SYSTEM
6 46 47 48 49 50 51
ATOM$RED        STATIC     ATOMS    COLORGROUP SYSTEM
3 26 34 35
