AV-unprocessed.smi:739|AV-procd|sdf|3544|dock1
  -GOLD-   22720 0533D 1   1.00000     0.00000
 Structure written by MMmdl.
 33 35  0  0  0  0  0  0  0  0  2 V2000
  152.7492  137.9541  154.4668 O   0  0  0  0  0  0  0  0  0  0  0  0
  151.8641  139.0025  154.8005 C   0  0  2  0  0  0  0  0  0  0  0  0
  152.2030  139.4792  156.2270 C   0  0  0  0  0  0  0  0  0  0  0  0
  151.5668  140.7600  156.5603 N   0  0  0  0  0  0  0  0  0  0  0  0
  150.6373  141.4792  155.8743 C   0  0  0  0  0  0  0  0  0  0  0  0
  150.3738  142.6037  156.5963 N   0  3  0  0  0  0  0  0  0  0  0  0
  151.1441  142.6011  157.7617 C   0  0  0  0  0  0  0  0  0  0  0  0
  151.2266  143.5192  158.8037 C   0  0  0  0  0  0  0  0  0  0  0  0
  152.1212  143.2134  159.8508 C   0  0  0  0  0  0  0  0  0  0  0  0
  152.2399  144.0729  160.8902 F   0  0  0  0  0  0  0  0  0  0  0  0
  152.8930  142.0319  159.8353 C   0  0  0  0  0  0  0  0  0  0  0  0
  153.7406  141.7770  160.8601 F   0  0  0  0  0  0  0  0  0  0  0  0
  152.8008  141.1086  158.7730 C   0  0  0  0  0  0  0  0  0  0  0  0
  151.9132  141.4189  157.7442 C   0  0  0  0  0  0  0  0  0  0  0  0
  150.4050  138.5905  154.6615 C   0  0  0  0  0  0  0  0  0  0  0  0
  149.5059  139.3721  153.9023 C   0  0  0  0  0  0  0  0  0  0  0  0
  148.1610  138.9763  153.7667 C   0  0  0  0  0  0  0  0  0  0  0  0
  147.7072  137.7971  154.3877 C   0  0  0  0  0  0  0  0  0  0  0  0
  146.4146  137.4162  154.2562 F   0  0  0  0  0  0  0  0  0  0  0  0
  148.5995  137.0125  155.1432 C   0  0  0  0  0  0  0  0  0  0  0  0
  149.9446  137.4075  155.2791 C   0  0  0  0  0  0  0  0  0  0  0  0
  152.4918  137.5987  153.6296 H   0  0  0  0  0  0  0  0  0  0  0  0
  152.0662  139.8100  154.0957 H   0  0  0  0  0  0  0  0  0  0  0  0
  151.8790  138.7452  156.9662 H   0  0  0  0  0  0  0  0  0  0  0  0
  153.2804  139.5925  156.3563 H   0  0  0  0  0  0  0  0  0  0  0  0
  150.1947  141.2094  154.9259 H   0  0  0  0  0  0  0  0  0  0  0  0
  150.6388  144.4250  158.8191 H   0  0  0  0  0  0  0  0  0  0  0  0
  153.3960  140.2075  158.7704 H   0  0  0  0  0  0  0  0  0  0  0  0
  149.8451  140.2767  153.4192 H   0  0  0  0  0  0  0  0  0  0  0  0
  147.4779  139.5777  153.1849 H   0  0  0  0  0  0  0  0  0  0  0  0
  148.2522  136.1066  155.6182 H   0  0  0  0  0  0  0  0  0  0  0  0
  150.6223  136.7962  155.8568 H   0  0  0  0  0  0  0  0  0  0  0  0
  149.7157  143.3180  156.3116 H   0  0  0  0  0  0  0  0  0  0  0  0
  1  2  1  0  0  0  0
  1 22  1  0  0  0  0
  2  3  1  0  0  0  0
  2 15  1  0  0  0  0
  2 23  1  0  0  0  0
  3  4  1  0  0  0  0
  3 24  1  0  0  0  0
  3 25  1  0  0  0  0
  4 14  1  0  0  0  0
  4  5  1  0  0  0  0
  5  6  2  0  0  0  0
  5 26  1  0  0  0  0
  6  7  1  0  0  0  0
  6 33  1  0  0  0  0
  7 14  2  0  0  0  0
  7  8  1  0  0  0  0
  8  9  2  0  0  0  0
  8 27  1  0  0  0  0
  9 10  1  0  0  0  0
  9 11  1  0  0  0  0
 11 12  1  0  0  0  0
 11 13  2  0  0  0  0
 13 14  1  0  0  0  0
 13 28  1  0  0  0  0
 15 21  1  0  0  0  0
 15 16  2  0  0  0  0
 16 17  1  0  0  0  0
 16 29  1  0  0  0  0
 17 18  2  0  0  0  0
 17 30  1  0  0  0  0
 18 19  1  0  0  0  0
 18 20  1  0  0  0  0
 20 21  2  0  0  0  0
 20 31  1  0  0  0  0
 21 32  1  0  0  0  0
M  CHG  1   6   1
M  END
> <s_m_source_file>
AV-unprocessed.smi

> <i_m_source_file_index>
739

> <i_lp_mmshare_version>
43012

> <i_f3d_flags>
0

> <s_epik_input>
W2NIXTFbY0hdYyhGKVtjSF1bY0hdYzFbQ0BIXShbT0hdKVtDSDJdbihbY0hdbjIpYyhjMjMpW2NIXWMoRiljKEYpW2NIXTM=

> <s_epik_cmdline>
J2VwaWtfcHl0aG9uJywgJy1waCcsICc3LjAnLCAnLXRuJywgJzgnLCAnLW1hJywgJzIwMCcsICctbWV0YWxfYmluZGluZycsICctaW1hZScsICc8aW5maWxlLm1hZT4nLCAnLW9tYWUnLCAnPG91dGZpbGUubWFlPic=

> <r_epik_Ionization_Penalty>
2.16139

> <r_epik_Ionization_Penalty_Charging>
2.16138

> <r_epik_Ionization_Penalty_Neutral>
1.79538e-06

> <r_epik_State_Penalty>
2.30198

> <r_epik_Charging_Adjusted_Penalty>
4.46337

> <i_epik_Tot_Q>
1

> <i_epik_Tot_abs_Q>
1

> <r_epik_Metal_State_Penalty>
6.38245

> <b_epik_Metal_Only>
0

> <s_lp_Force_Field>
OPLS_2005

> <r_lp_Energy>
16.88

> <b_lp_Chiralities_Consistent>
1

> <s_lp_Variant>
AV-unprocessed.smi:739-3

> <Gold.Version>
5.8.1

> <Gold.Id.Protein>
6NUR|6NUR_protein|mol2

> <Gold.PLP.Fitness>
49.6078

> <Gold.PLP.PLP>
-44.1546

> <Gold.PLP.part.hbond>
-2.0000

> <Gold.PLP.part.metal>
0.0000

> <Gold.PLP.part.buried>
-2.6114

> <Gold.PLP.part.nonpolar>
-38.4168

> <Gold.PLP.part.repulsive>
0.0569

> <Gold.PLP.ligand.clash>
0.0000

> <Gold.PLP.ligand.torsion>
0.3028

> <Gold.PLP.Chemscore.Hbond>
2.0000

> <Gold.PLP.Chemscore.CHOScore>
0.0000

> <Gold.PLP.Chemscore.Metal>
0.0000

> <Gold.Chemscore.Hbonds>
donor molecule, donor type, donor heavy atom, donor atom, acceptor molecule, acceptor atom, score
      L1  H     6    33       P1  8028  2.00

> <Gold.PLP.Chemscore.Internal.Correction>
0.0587

> <Gold.Rescore>
     Score         DG    S(hbond)    S(metal)    S(lipo)     H(rot)  DE(clash)    DE(int)     intcor
     14.27     -14.46       1.00        0.00      94.61       2.12       0.01       0.18       ----

> <Gold.Chemscore.Fitness>
14.2736

> <Gold.Chemscore.DG>
-14.4643

> <Gold.Chemscore.ZeroCoef>
-5.4800

> <Gold.Chemscore.Hbond>
0.9987

> <Gold.Chemscore.Metal>
0.0000

> <Gold.Chemscore.Lipo>
94.6134

> <Gold.Chemscore.Internal_Hbond>
0.0000

> <Gold.Chemscore.DEClash>
0.0066

> <Gold.Chemscore.DEInternal>
0.1841

> <Gold.Chemscore.Rot>
2.1176

> <Gold.Chemscore.Internal.Correction>
   9.000000E+99

> <Gold.Chemscore.Hbonds>
donor molecule, donor type, donor heavy atom, donor atom, acceptor molecule, acceptor atom, score
      L1  H     6    33       P1  8028  1.00

> <Gold.Chemscore.Hbond.Weighted>
-3.3356

> <Gold.Chemscore.Metal.Weighted>
-0.0000

> <Gold.Chemscore.Lipo.Weighted>
-11.0698

> <Gold.Chemscore.Internal_Hbond.Weighted>
0.0000

> <Gold.Chemscore.DEClash.Weighted>
0.0066

> <Gold.Chemscore.DEInternal.Weighted>
0.1841

> <Gold.Chemscore.Rot.Weighted>
5.4211

> <Gold.Chemscore.Internal.Correction.Weighted>
   9.000000E+99

> <Gold.Protein.RotatedTorsions>
[ 6907 6896 6895 6894 ] final    5.88 input  -60.11 | X-H torsion
[ 7974 7965 7964 7962 ] final   -3.64 input  175.53 | X-H torsion
[ 8008 7997 7996 7995 ] final   94.82 input   59.86 | X-H torsion
[ 10167 10162 10161 10158 ] final  -90.73 input  -65.29 | X-H torsion
[ 10718 10713 10712 10709 ] final -106.59 input   66.30 | X-H torsion
[ 10763 10752 10751 10750 ] final  114.05 input  -60.55 | X-H torsion
[ 11005 11000 10999 10996 ] final  -47.79 input  -57.11 | X-H torsion

> <Gold.Protein.ActiveResidues>
 VAL166  LYS551  ARG553  GLY616  TRP617  ASP618  TYR619  PRO620  LYS621  CYS622 
 ASP623  PHE694  ASN695  SER759  ASP760  ASP761  ALA762  ILE779  LEU786  VAL792 
 PHE793  MET794  SER795  GLU796  ALA797  LYS798  CYS799  TRP800  GLU811  SER814 

> <Gold.Protein.RotatedAtoms>
  151.6647  135.0984  160.0186 H   0  0  0  0  0  0  0  0  0  0  0  0  # atno 6907 bound_to 6896
  152.3926  133.6697  159.6259 H   0  0  0  0  0  0  0  0  0  0  0  0  # atno 6908 bound_to 6896
  150.7839  133.8844  159.3336 H   0  0  0  0  0  0  0  0  0  0  0  0  # atno 6909 bound_to 6896
  146.2386  140.1751  142.8332 H   0  0  0  0  0  0  0  0  0  0  0  0  # atno 7974 bound_to 7965
  156.0621  140.3295  155.7474 H   0  0  0  0  0  0  0  0  0  0  0  0  # atno 8008 bound_to 7997
  155.5438  140.0604  157.2882 H   0  0  0  0  0  0  0  0  0  0  0  0  # atno 8009 bound_to 7997
  154.4487  140.1906  156.0606 H   0  0  0  0  0  0  0  0  0  0  0  0  # atno 8010 bound_to 7997
  140.3520  143.2886  151.9715 H   0  0  0  0  0  0  0  0  0  0  0  0  # atno 10167 bound_to 10162
  156.0397  130.5620  150.7702 H   0  0  0  0  0  0  0  0  0  0  0  0  # atno 10718 bound_to 10713
  153.5015  135.3637  155.2542 H   0  0  0  0  0  0  0  0  0  0  0  0  # atno 10763 bound_to 10752
  154.8747  135.4001  154.3473 H   0  0  0  0  0  0  0  0  0  0  0  0  # atno 10764 bound_to 10752
  153.4110  135.7078  153.6425 H   0  0  0  0  0  0  0  0  0  0  0  0  # atno 10765 bound_to 10752
  141.0662  133.6693  156.3348 H   0  0  0  0  0  0  0  0  0  0  0  0  # atno 11005 bound_to 11000
  144.9980  140.8606  143.5299 LP  0  0  0  0  0  0  0  0  0  0  0  0  # atno 17320 bound_to 7965
  145.1766  139.2374  143.5314 LP  0  0  0  0  0  0  0  0  0  0  0  0  # atno 17321 bound_to 7965
  139.4825  144.6068  151.7507 LP  0  0  0  0  0  0  0  0  0  0  0  0  # atno 17342 bound_to 10162
  140.5210  144.0879  150.6022 LP  0  0  0  0  0  0  0  0  0  0  0  0  # atno 17343 bound_to 10162
  157.5198  131.0931  151.0093 LP  0  0  0  0  0  0  0  0  0  0  0  0  # atno 17370 bound_to 10713
  157.0426  130.5755  149.5358 LP  0  0  0  0  0  0  0  0  0  0  0  0  # atno 17371 bound_to 10713
  140.5769  134.5785  157.5470 LP  0  0  0  0  0  0  0  0  0  0  0  0  # atno 17394 bound_to 11000
  139.9478  134.7670  156.0519 LP  0  0  0  0  0  0  0  0  0  0  0  0  # atno 17395 bound_to 11000

$$$$
