#       Name:                AV-unprocessed.smi:1703
#       Creating user name   scv26
#       Creation time:       Fri Mar 27 08:04:38 2020


#       File generated by GOLD software.
#

@<TRIPOS>MOLECULE
AV-unprocessed.smi:1703
    56    58     1
SMALL
NO_CHARGES


@<TRIPOS>ATOM
      1 ****        -4.0525   2.9885  -1.9008 C.3            1 S1                 0.0000
      2 ****        -2.6075   2.8246  -1.4170 C.3            1 S1                 0.0000
      3 ****        -2.1540   1.3536  -1.4429 C.3            1 S1                 0.0000
      4 ****        -0.7883   1.2257  -0.8860 N.4            1 S1                 1.0000
      5 ****        -0.2522  -0.1545  -0.9916 C.3            1 S1                 0.0000
      6 ****         1.2916  -0.1806  -1.0136 C.3            1 S1                 0.0000
      7 ****         1.7423   0.4349  -2.2033 O.3            1 S1                 0.0000
      8 ****         1.8894  -1.6005  -0.9591 C.3            1 S1                 0.0000
      9 ****         1.4916  -2.3291   0.2384 N.pl3          1 S1                 0.0000
     10 ****         0.6220  -3.3659   0.3522 C.2            1 S1                 0.0000
     11 ****        -0.0990  -3.9453  -0.8261 C.3            1 S1                 0.0000
     12 ****         0.7325  -4.7548  -1.6293 O.3            1 S1                 0.0000
     13 ****         0.4429  -3.8392   1.5857 N.2            1 S1                 0.0000
     14 ****         1.2822  -3.0454   2.3420 C.ar           1 S1                 0.0000
     15 ****         1.5465  -3.0498   3.7303 C.ar           1 S1                 0.0000
     16 ****         2.4580  -2.1284   4.2861 C.ar           1 S1                 0.0000
     17 ****         3.1172  -1.1918   3.4638 C.ar           1 S1                 0.0000
     18 ****         2.8683  -1.1705   2.0780 C.ar           1 S1                 0.0000
     19 ****         1.9562  -2.0912   1.5284 C.ar           1 S1                 0.0000
     20 ****        -0.7430   1.7750   0.4914 C.3            1 S1                 0.0000
     21 ****        -1.2423   3.2325   0.5211 C.3            1 S1                 0.0000
     22 ****        -0.2419   4.2358  -0.0801 C.3            1 S1                 0.0000
     23 ****        -2.5325   3.3234  -0.0838 O.3            1 S1                 0.0000
     24 ****        -4.1676   2.6311  -2.9244 H              1 S1                 0.0000
     25 ****        -4.3541   4.0361  -1.8797 H              1 S1                 0.0000
     26 ****        -4.7462   2.4303  -1.2713 H              1 S1                 0.0000
     27 ****        -1.9648   3.4172  -2.0684 H              1 S1                 0.0000
     28 ****        -2.8418   0.7308  -0.8683 H              1 S1                 0.0000
     29 ****        -2.1693   0.9866  -2.4699 H              1 S1                 0.0000
     30 ****        -0.6473  -0.7451  -0.1641 H              1 S1                 0.0000
     31 ****        -0.6191  -0.6288  -1.9032 H              1 S1                 0.0000
     32 ****         1.6892   0.3915  -0.1764 H              1 S1                 0.0000
     33 ****         1.4878  -0.1025  -2.9384 H              1 S1                 0.0000
     34 ****         1.6075  -2.1664  -1.8464 H              1 S1                 0.0000
     35 ****         2.9791  -1.5468  -0.9703 H              1 S1                 0.0000
     36 ****        -0.9370  -4.5488  -0.4752 H              1 S1                 0.0000
     37 ****        -0.5230  -3.1438  -1.4307 H              1 S1                 0.0000
     38 ****         0.2095  -5.1322  -2.3200 H              1 S1                 0.0000
     39 ****         1.0483  -3.7645   4.3685 H              1 S1                 0.0000
     40 ****         2.6537  -2.1416   5.3483 H              1 S1                 0.0000
     41 ****         3.8155  -0.4911   3.8978 H              1 S1                 0.0000
     42 ****         3.3745  -0.4560   1.4461 H              1 S1                 0.0000
     43 ****        -1.3717   1.1622   1.1395 H              1 S1                 0.0000
     44 ****         0.2660   1.7246   0.8995 H              1 S1                 0.0000
     45 ****        -1.3794   3.5138   1.5657 H              1 S1                 0.0000
     46 ****         0.6925   4.2315   0.4815 H              1 S1                 0.0000
     47 ****        -0.6407   5.2498  -0.0464 H              1 S1                 0.0000
     48 ****         0.0041   4.0069  -1.1165 H              1 S1                 0.0000
     49 ****        -0.1923   1.8063  -1.4593 H              1 S1                 0.0000
     50 ****         2.7381   0.5232  -2.1800 LP             1 S1                 0.0000
     51 ****         1.3292   1.3415  -2.2904 LP             1 S1                 0.0000
     52 ****         1.1324  -5.4833  -1.0731 LP             1 S1                 0.0000
     53 ****         1.4631  -4.1986  -2.0255 LP             1 S1                 0.0000
     54 ****        -0.1517  -4.5842   1.8880 LP             1 S1                 0.0000
     55 ****        -3.1764   2.8046   0.4785 LP             1 S1                 0.0000
     56 ****        -2.8022   4.2863  -0.0969 LP             1 S1                 0.0000
@<TRIPOS>BOND
    1    1    2 1     
    2    1   24 1     
    3    1   25 1     
    4    1   26 1     
    5    2   23 1     
    6    2    3 1     
    7    2   27 1     
    8    3    4 1     
    9    3   28 1     
   10    3   29 1     
   11    4    5 1     
   12    4   20 1     
   13    4   49 1     
   14    5    6 1     
   15    5   30 1     
   16    5   31 1     
   17    6    7 1     
   18    6    8 1     
   19    6   32 1     
   20    7   33 1     
   21    8    9 1     
   22    8   34 1     
   23    8   35 1     
   24    9   19 1     
   25    9   10 1     
   26   10   11 1     
   27   10   13 2     
   28   11   12 1     
   29   11   36 1     
   30   11   37 1     
   31   12   38 1     
   32   13   14 1     
   33   14   19 ar    
   34   14   15 ar    
   35   15   16 ar    
   36   15   39 1     
   37   16   17 ar    
   38   16   40 1     
   39   17   18 ar    
   40   17   41 1     
   41   18   19 ar    
   42   18   42 1     
   43   20   21 1     
   44   20   43 1     
   45   20   44 1     
   46   21   22 1     
   47   21   23 1     
   48   21   45 1     
   49   22   46 1     
   50   22   47 1     
   51   22   48 1     
   52    7   50 1     
   53    7   51 1     
   54   12   52 1     
   55   12   53 1     
   56   13   54 1     
   57   23   55 1     
   58   23   56 1     
@<TRIPOS>SUBSTRUCTURE
      1 S1             1
@<TRIPOS>SET
LONE_PAIRS      STATIC     ATOMS    <user>   **** ""
7 50 51 52 53 54 55 56
DONOR_HYDROGENS      STATIC     ATOMS    <user>   **** ""
3 49 33 38
ATOM$BLUE        STATIC     ATOMS    COLORGROUP SYSTEM
7 50 51 52 53 54 55 56
ATOM$RED        STATIC     ATOMS    COLORGROUP SYSTEM
3 49 33 38
