AV-unprocessed.smi:1724|AV-procd|sdf|6952|dock10
  -GOLD-   22720 8163D 1   1.00000     0.00000
 Structure written by MMmdl.
 37 38  0  0  0  0  0  0  0  0  2 V2000
  148.9493  133.3373  155.4246 O   0  0  0  0  0  0  0  0  0  0  0  0
  148.9439  134.1752  154.5234 C   0  0  0  0  0  0  0  0  0  0  0  0
  149.6197  135.3314  154.5926 N   0  0  0  0  0  0  0  0  0  0  0  0
  150.4508  135.7667  155.7115 C   0  0  0  0  0  0  0  0  0  0  0  0
  150.6135  137.2998  155.7616 C   0  0  1  0  0  0  0  0  0  0  0  0
  151.3704  137.7879  157.0116 C   0  0  0  0  0  0  0  0  0  0  0  0
  151.5787  139.3051  156.9479 C   0  0  0  0  0  0  0  0  0  0  0  0
  152.2394  139.7010  155.6193 C   0  0  0  0  0  0  0  0  0  0  0  0
  151.4480  139.2348  154.5327 O   0  0  0  0  0  0  0  0  0  0  0  0
  151.3310  137.8161  154.4978 C   0  0  0  0  0  0  0  0  0  0  0  0
  148.2865  134.0810  153.3530 N   0  0  0  0  0  0  0  0  0  0  0  0
  147.4593  133.0572  152.8571 C   0  0  0  0  0  0  0  0  0  0  0  0
  147.6024  131.7295  153.1275 C   0  0  0  0  0  0  0  0  0  0  0  0
  146.7027  130.7217  152.5790 C   0  0  0  0  0  0  0  0  0  0  0  0
  146.8185  129.2325  152.8478 C   0  0  0  0  0  0  0  0  0  0  0  0
  148.0031  128.7809  152.4374 F   0  0  0  0  0  0  0  0  0  0  0  0
  146.7158  128.9916  154.1542 F   0  0  0  0  0  0  0  0  0  0  0  0
  145.8650  128.5465  152.2172 F   0  0  0  0  0  0  0  0  0  0  0  0
  145.7179  131.2719  151.7837 C   0  0  0  0  0  0  0  0  0  0  0  0
  145.5037  132.5679  151.4694 N   0  5  0  0  0  0  0  0  0  0  0  0
  146.3515  133.5023  151.9849 C   0  0  0  0  0  0  0  0  0  0  0  0
  146.2121  134.7012  151.7394 O   0  0  0  0  0  0  0  0  0  0  0  0
  149.5590  135.9593  153.8043 H   0  0  0  0  0  0  0  0  0  0  0  0
  150.0611  135.3946  156.6605 H   0  0  0  0  0  0  0  0  0  0  0  0
  151.4288  135.3014  155.5857 H   0  0  0  0  0  0  0  0  0  0  0  0
  149.6162  137.7427  155.7775 H   0  0  0  0  0  0  0  0  0  0  0  0
  150.8250  137.5345  157.9210 H   0  0  0  0  0  0  0  0  0  0  0  0
  152.3376  137.2875  157.0772 H   0  0  0  0  0  0  0  0  0  0  0  0
  150.6170  139.8113  157.0410 H   0  0  0  0  0  0  0  0  0  0  0  0
  152.1900  139.6373  157.7872 H   0  0  0  0  0  0  0  0  0  0  0  0
  152.3268  140.7854  155.5516 H   0  0  0  0  0  0  0  0  0  0  0  0
  153.2497  139.2948  155.5497 H   0  0  0  0  0  0  0  0  0  0  0  0
  152.3188  137.3636  154.3962 H   0  0  0  0  0  0  0  0  0  0  0  0
  150.7653  137.5419  153.6070 H   0  0  0  0  0  0  0  0  0  0  0  0
  148.4082  134.8523  152.7132 H   0  0  0  0  0  0  0  0  0  0  0  0
  148.3904  131.3747  153.7690 H   0  0  0  0  0  0  0  0  0  0  0  0
  144.9935  130.5605  151.3323 H   0  0  0  0  0  0  0  0  0  0  0  0
  1  2  2  0  0  0  0
  2  3  1  0  0  0  0
  2 11  1  0  0  0  0
  3  4  1  0  0  0  0
  3 23  1  0  0  0  0
  4  5  1  0  0  0  0
  4 24  1  0  0  0  0
  4 25  1  0  0  0  0
  5 10  1  0  0  0  0
  5  6  1  0  0  0  0
  5 26  1  0  0  0  0
  6  7  1  0  0  0  0
  6 27  1  0  0  0  0
  6 28  1  0  0  0  0
  7  8  1  0  0  0  0
  7 29  1  0  0  0  0
  7 30  1  0  0  0  0
  8  9  1  0  0  0  0
  8 31  1  0  0  0  0
  8 32  1  0  0  0  0
  9 10  1  0  0  0  0
 10 33  1  0  0  0  0
 10 34  1  0  0  0  0
 11 12  1  0  0  0  0
 11 35  1  0  0  0  0
 12 21  1  0  0  0  0
 12 13  2  0  0  0  0
 13 14  1  0  0  0  0
 13 36  1  0  0  0  0
 14 15  1  0  0  0  0
 14 19  2  0  0  0  0
 15 16  1  0  0  0  0
 15 17  1  0  0  0  0
 15 18  1  0  0  0  0
 19 20  1  0  0  0  0
 19 37  1  0  0  0  0
 20 21  1  0  0  0  0
 21 22  2  0  0  0  0
M  CHG  1  20  -1
M  END
> <s_m_source_file>
AV-unprocessed.smi

> <i_m_source_file_index>
1724

> <i_lp_mmshare_version>
43012

> <i_f3d_flags>
0

> <s_epik_input>
Tz1jMVtuSF1bY0hdYyhDKEYpKEYpRilbY0hdYzFbTkhdQyg9TylbTkhdW0NIMl1bQ0BASF0yW0NIMl1bQ0gyXVtDSDJdT1tDSDJdMg==

> <s_epik_cmdline>
J2VwaWtfcHl0aG9uJywgJy1waCcsICc3LjAnLCAnLXRuJywgJzgnLCAnLW1hJywgJzIwMCcsICctbWV0YWxfYmluZGluZycsICctaW1hZScsICc8aW5maWxlLm1hZT4nLCAnLW9tYWUnLCAnPG91dGZpbGUubWFlPic=

> <r_lp_tautomer_probability>
1

> <r_epik_Ionization_Penalty>
3.16025

> <r_epik_Ionization_Penalty_Charging>
0.171172

> <r_epik_Ionization_Penalty_Neutral>
2.98908

> <r_epik_State_Penalty>
2.98521

> <r_epik_Charging_Adjusted_Penalty>
3.15638

> <i_epik_Tot_Q>
-1

> <i_epik_Tot_abs_Q>
1

> <r_epik_Metal_State_Penalty>
0.452642

> <b_epik_Metal_Only>
1

> <s_lp_Force_Field>
OPLS_2005

> <r_lp_Energy>
24.0618

> <b_lp_Chiralities_Consistent>
1

> <s_lp_Variant>
AV-unprocessed.smi:1724-4

> <Gold.Version>
5.8.1

> <Gold.Id.Protein>
6NUR|6NUR_protein|mol2

> <Gold.PLP.Fitness>
41.1414

> <Gold.PLP.PLP>
-33.8324

> <Gold.PLP.part.hbond>
-3.0000

> <Gold.PLP.part.metal>
0.0000

> <Gold.PLP.part.buried>
-3.5376

> <Gold.PLP.part.nonpolar>
-27.4507

> <Gold.PLP.part.repulsive>
0.5888

> <Gold.PLP.ligand.clash>
0.0000

> <Gold.PLP.ligand.torsion>
0.3922

> <Gold.PLP.Chemscore.Hbond>
2.6940

> <Gold.PLP.Chemscore.CHOScore>
0.0000

> <Gold.PLP.Chemscore.Metal>
0.0000

> <Gold.Chemscore.Hbonds>
donor molecule, donor type, donor heavy atom, donor atom, acceptor molecule, acceptor atom, score
      L1  H     3    23       P1  7948  0.94
      L1  H    11    35       P1  7948  1.00
      P1  H  7989  7998       L1     9  0.75

> <Gold.PLP.Chemscore.Internal.Correction>
0.0114

> <Gold.Rescore>
     Score         DG    S(hbond)    S(metal)    S(lipo)     H(rot)  DE(clash)    DE(int)     intcor
     14.00     -14.49       1.46        0.00      64.22       1.32       0.09       0.39       ----

> <Gold.Chemscore.Fitness>
13.9996

> <Gold.Chemscore.DG>
-14.4872

> <Gold.Chemscore.ZeroCoef>
-5.4800

> <Gold.Chemscore.Hbond>
1.4624

> <Gold.Chemscore.Metal>
0.0000

> <Gold.Chemscore.Lipo>
64.2242

> <Gold.Chemscore.Internal_Hbond>
0.0000

> <Gold.Chemscore.DEClash>
0.0930

> <Gold.Chemscore.DEInternal>
0.3946

> <Gold.Chemscore.Rot>
1.3248

> <Gold.Chemscore.Internal.Correction>
   9.000000E+99

> <Gold.Chemscore.Hbonds>
donor molecule, donor type, donor heavy atom, donor atom, acceptor molecule, acceptor atom, score
      L1  H     3    23       P1  7948  0.38
      L1  H    11    35       P1  7948  0.45
      P1  H  7989  7998       L1     9  0.09

> <Gold.Chemscore.Hbond.Weighted>
-4.8845

> <Gold.Chemscore.Metal.Weighted>
-0.0000

> <Gold.Chemscore.Lipo.Weighted>
-7.5142

> <Gold.Chemscore.Internal_Hbond.Weighted>
0.0000

> <Gold.Chemscore.DEClash.Weighted>
0.0930

> <Gold.Chemscore.DEInternal.Weighted>
0.3946

> <Gold.Chemscore.Rot.Weighted>
3.3915

> <Gold.Chemscore.Internal.Correction.Weighted>
   9.000000E+99

> <Gold.Protein.RotatedTorsions>
[ 6907 6896 6895 6894 ] final  142.50 input  -60.11 | X-H torsion
[ 7974 7965 7964 7962 ] final  115.62 input  175.53 | X-H torsion
[ 8008 7997 7996 7995 ] final  -82.57 input   59.86 | X-H torsion
[ 10167 10162 10161 10158 ] final  118.97 input  -65.29 | X-H torsion
[ 10718 10713 10712 10709 ] final  -22.56 input   66.30 | X-H torsion
[ 10763 10752 10751 10750 ] final  -10.48 input  -60.55 | X-H torsion
[ 11005 11000 10999 10996 ] final  -52.46 input  -57.11 | X-H torsion

> <Gold.Protein.ActiveResidues>
 VAL166  LYS551  ARG553  GLY616  TRP617  ASP618  TYR619  PRO620  LYS621  CYS622 
 ASP623  PHE694  ASN695  SER759  ASP760  ASP761  ALA762  ILE779  LEU786  VAL792 
 PHE793  MET794  SER795  GLU796  ALA797  LYS798  CYS799  TRP800  GLU811  SER814 

> <Gold.Protein.RotatedAtoms>
  152.2179  133.4961  159.5145 H   0  0  0  0  0  0  0  0  0  0  0  0  # atno 6907 bound_to 6896
  150.7005  134.1381  159.4104 H   0  0  0  0  0  0  0  0  0  0  0  0  # atno 6908 bound_to 6896
  151.9302  135.0260  160.0579 H   0  0  0  0  0  0  0  0  0  0  0  0  # atno 6909 bound_to 6896
  145.1897  139.3006  143.4375 H   0  0  0  0  0  0  0  0  0  0  0  0  # atno 7974 bound_to 7965
  154.6100  140.0631  156.9481 H   0  0  0  0  0  0  0  0  0  0  0  0  # atno 8008 bound_to 7997
  155.1989  140.3313  155.4328 H   0  0  0  0  0  0  0  0  0  0  0  0  # atno 8009 bound_to 7997
  156.2371  140.1868  156.7074 H   0  0  0  0  0  0  0  0  0  0  0  0  # atno 8010 bound_to 7997
  139.6077  144.7074  151.2916 H   0  0  0  0  0  0  0  0  0  0  0  0  # atno 10167 bound_to 10162
  156.5028  130.4592  149.6691 H   0  0  0  0  0  0  0  0  0  0  0  0  # atno 10718 bound_to 10713
  153.4697  135.7016  153.6000 H   0  0  0  0  0  0  0  0  0  0  0  0  # atno 10763 bound_to 10752
  153.4259  135.3814  155.2141 H   0  0  0  0  0  0  0  0  0  0  0  0  # atno 10764 bound_to 10752
  154.8725  135.3939  154.4134 H   0  0  0  0  0  0  0  0  0  0  0  0  # atno 10765 bound_to 10752
  141.0925  133.6630  156.4027 H   0  0  0  0  0  0  0  0  0  0  0  0  # atno 11005 bound_to 11000
  146.3438  140.2105  142.8590 LP  0  0  0  0  0  0  0  0  0  0  0  0  # atno 17320 bound_to 7965
  145.0053  140.8668  143.5256 LP  0  0  0  0  0  0  0  0  0  0  0  0  # atno 17321 bound_to 7965
  140.7296  143.6902  150.7929 LP  0  0  0  0  0  0  0  0  0  0  0  0  # atno 17342 bound_to 10162
  140.0490  143.5268  152.2682 LP  0  0  0  0  0  0  0  0  0  0  0  0  # atno 17343 bound_to 10162
  156.3315  130.7334  151.2264 LP  0  0  0  0  0  0  0  0  0  0  0  0  # atno 17370 bound_to 10713
  157.7460  131.0428  150.4714 LP  0  0  0  0  0  0  0  0  0  0  0  0  # atno 17371 bound_to 10713
  140.5218  134.6297  157.5320 LP  0  0  0  0  0  0  0  0  0  0  0  0  # atno 17394 bound_to 11000
  139.9754  134.7224  155.9960 LP  0  0  0  0  0  0  0  0  0  0  0  0  # atno 17395 bound_to 11000

$$$$
