#       Name:                AV-unprocessed.smi:2178
#       Creating user name   scv26
#       Creation time:       Fri Mar 27 12:04:30 2020


#       File generated by GOLD software.
#

@<TRIPOS>MOLECULE
AV-unprocessed.smi:2178
    53    55     1
SMALL
NO_CHARGES


@<TRIPOS>ATOM
      1 ****        -2.9276   2.0102  -2.2625 C.3            1 S1                 0.0000
      2 ****        -3.6807   1.8134  -0.9595 C.ar           1 S1                 0.0000
      3 ****        -5.0871   1.9149  -0.9540 C.ar           1 S1                 0.0000
      4 ****        -5.8056   1.7554   0.2452 C.ar           1 S1                 0.0000
      5 ****        -5.1206   1.4986   1.4469 C.ar           1 S1                 0.0000
      6 ****        -3.7145   1.3920   1.4533 C.ar           1 S1                 0.0000
      7 ****        -2.9869   1.1224   2.7572 C.3            1 S1                 0.0000
      8 ****        -2.9920   1.5349   0.2459 C.ar           1 S1                 0.0000
      9 ****        -1.6251   1.4300   0.2589 O.3            1 S1                 0.0000
     10 ****        -1.1481   0.1387  -0.0903 C.3            1 S1                 0.0000
     11 ****         0.3874   0.1516  -0.0598 C.3            1 S1                 0.0000
     12 ****         0.8565   0.7109  -1.2713 O.3            1 S1                 0.0000
     13 ****         0.9708  -1.2664   0.1031 C.3            1 S1                 0.0000
     14 ****         2.4245  -1.2687   0.2011 N.pl3          1 S1                 0.0000
     15 ****         3.1879  -1.1186   1.3130 C.2            1 S1                 0.0000
     16 ****         2.5910  -0.9276   2.6736 C.3            1 S1                 0.0000
     17 ****         2.1311  -2.1352   3.2412 O.3            1 S1                 0.0000
     18 ****         4.5068  -1.1588   1.1218 N.2            1 S1                 0.0000
     19 ****         4.6099  -1.3561  -0.2413 C.ar           1 S1                 0.0000
     20 ****         5.7504  -1.4859  -1.0656 C.ar           1 S1                 0.0000
     21 ****         5.6085  -1.6850  -2.4546 C.ar           1 S1                 0.0000
     22 ****         4.3268  -1.7577  -3.0376 C.ar           1 S1                 0.0000
     23 ****         3.1772  -1.6316  -2.2342 C.ar           1 S1                 0.0000
     24 ****         3.3242  -1.4318  -0.8483 C.ar           1 S1                 0.0000
     25 ****        -3.4829   2.6621  -2.9374 H              1 S1                 0.0000
     26 ****        -2.7791   1.0521  -2.7607 H              1 S1                 0.0000
     27 ****        -1.9515   2.4645  -2.0901 H              1 S1                 0.0000
     28 ****        -5.6204   2.1193  -1.8708 H              1 S1                 0.0000
     29 ****        -6.8827   1.8363   0.2444 H              1 S1                 0.0000
     30 ****        -5.6797   1.3851   2.3643 H              1 S1                 0.0000
     31 ****        -2.1469   1.8072   2.8771 H              1 S1                 0.0000
     32 ****        -2.6048   0.1016   2.7732 H              1 S1                 0.0000
     33 ****        -3.6490   1.2506   3.6141 H              1 S1                 0.0000
     34 ****        -1.5231  -0.5723   0.6476 H              1 S1                 0.0000
     35 ****        -1.5209  -0.1894  -1.0618 H              1 S1                 0.0000
     36 ****         0.7268   0.7763   0.7668 H              1 S1                 0.0000
     37 ****         0.5594   0.1705  -1.9872 H              1 S1                 0.0000
     38 ****         0.5610  -1.7452   0.9925 H              1 S1                 0.0000
     39 ****         0.6765  -1.8966  -0.7372 H              1 S1                 0.0000
     40 ****         3.3402  -0.4942   3.3373 H              1 S1                 0.0000
     41 ****         1.7686  -0.2148   2.6235 H              1 S1                 0.0000
     42 ****         1.7975  -1.9518   4.1060 H              1 S1                 0.0000
     43 ****         6.7362  -1.4322  -0.6279 H              1 S1                 0.0000
     44 ****         6.4872  -1.7823  -3.0752 H              1 S1                 0.0000
     45 ****         4.2269  -1.9099  -4.1023 H              1 S1                 0.0000
     46 ****         2.1947  -1.6855  -2.6786 H              1 S1                 0.0000
     47 ****        -1.3005   1.6482   1.1792 LP             1 S1                 0.0000
     48 ****        -1.2515   2.0911  -0.3918 LP             1 S1                 0.0000
     49 ****         1.8560   0.7409  -1.2639 LP             1 S1                 0.0000
     50 ****         0.4960   1.6377  -1.3765 LP             1 S1                 0.0000
     51 ****         2.8859  -2.7883   3.3023 LP             1 S1                 0.0000
     52 ****         1.4032  -2.5193   2.6732 LP             1 S1                 0.0000
     53 ****         5.2389  -1.0686   1.7970 LP             1 S1                 0.0000
@<TRIPOS>BOND
    1    1    2 1     
    2    1   25 1     
    3    1   26 1     
    4    1   27 1     
    5    2    8 ar    
    6    2    3 ar    
    7    3    4 ar    
    8    3   28 1     
    9    4    5 ar    
   10    4   29 1     
   11    5    6 ar    
   12    5   30 1     
   13    6    7 1     
   14    6    8 ar    
   15    7   31 1     
   16    7   32 1     
   17    7   33 1     
   18    8    9 1     
   19    9   10 1     
   20   10   11 1     
   21   10   34 1     
   22   10   35 1     
   23   11   12 1     
   24   11   13 1     
   25   11   36 1     
   26   12   37 1     
   27   13   14 1     
   28   13   38 1     
   29   13   39 1     
   30   14   24 1     
   31   14   15 1     
   32   15   16 1     
   33   15   18 2     
   34   16   17 1     
   35   16   40 1     
   36   16   41 1     
   37   17   42 1     
   38   18   19 1     
   39   19   24 ar    
   40   19   20 ar    
   41   20   21 ar    
   42   20   43 1     
   43   21   22 ar    
   44   21   44 1     
   45   22   23 ar    
   46   22   45 1     
   47   23   24 ar    
   48   23   46 1     
   49    9   47 1     
   50    9   48 1     
   51   12   49 1     
   52   12   50 1     
   53   17   51 1     
   54   17   52 1     
   55   18   53 1     
@<TRIPOS>SUBSTRUCTURE
      1 S1             1
@<TRIPOS>SET
LONE_PAIRS      STATIC     ATOMS    <user>   **** ""
7 47 48 49 50 51 52 53
DONOR_HYDROGENS      STATIC     ATOMS    <user>   **** ""
2 37 42
ATOM$BLUE        STATIC     ATOMS    COLORGROUP SYSTEM
7 47 48 49 50 51 52 53
ATOM$RED        STATIC     ATOMS    COLORGROUP SYSTEM
2 37 42
