AV-unprocessed.smi:658|AV-procd|sdf|3233|dock1
  -GOLD-   22720 0173D 1   1.00000     0.00000
 Structure written by MMmdl.
 38 38  0  0  0  0  0  0  0  0  2 V2000
  149.8458  143.9210  159.0408 C   0  0  0  0  0  0  0  0  0  0  0  0
  150.8585  142.9059  158.4854 C   0  0  1  0  0  0  0  0  0  0  0  0
  150.7095  142.8375  157.0131 N   0  3  0  0  0  0  0  0  0  0  0  0
  149.8994  141.7042  156.5248 C   0  0  0  0  0  0  0  0  0  0  0  0
  149.5734  141.8643  155.0355 C   0  0  0  0  0  0  0  0  0  0  0  0
  149.3589  140.5153  154.3356 C   0  0  0  0  0  0  0  0  0  0  0  0
  150.7317  139.3376  154.6958 S   0  0  0  0  0  0  0  0  0  0  0  0
  150.7354  138.3464  153.2907 N   0  0  0  0  0  0  0  0  0  0  0  0
  152.0059  140.0717  154.7198 O   0  0  0  0  0  0  0  0  0  0  0  0
  150.3307  138.4860  155.8253 O   0  0  0  0  0  0  0  0  0  0  0  0
  152.3254  143.2432  158.8568 C   0  0  1  0  0  0  0  0  0  0  0  0
  152.7435  144.6717  158.4603 C   0  0  0  0  0  0  0  0  0  0  0  0
  152.5549  143.0346  160.2827 N   0  0  0  0  0  0  0  0  0  0  0  0
  153.3755  142.1133  160.9039 C   0  0  0  0  0  0  0  0  0  0  0  0
  153.2984  142.3377  162.2484 C   0  0  0  0  0  0  0  0  0  0  0  0
  152.4024  143.4369  162.3569 C   0  0  0  0  0  0  0  0  0  0  0  0
  151.9680  143.8576  161.1799 N   0  0  0  0  0  0  0  0  0  0  0  0
  149.8356  143.9260  160.1304 H   0  0  0  0  0  0  0  0  0  0  0  0
  148.8331  143.6800  158.7157 H   0  0  0  0  0  0  0  0  0  0  0  0
  150.0705  144.9332  158.7026 H   0  0  0  0  0  0  0  0  0  0  0  0
  150.6180  141.9310  158.9136 H   0  0  0  0  0  0  0  0  0  0  0  0
  150.3023  143.7017  156.6851 H   0  0  0  0  0  0  0  0  0  0  0  0
  150.4517  140.7766  156.6828 H   0  0  0  0  0  0  0  0  0  0  0  0
  148.9805  141.6406  157.1089 H   0  0  0  0  0  0  0  0  0  0  0  0
  148.6786  142.4776  154.9224 H   0  0  0  0  0  0  0  0  0  0  0  0
  150.3848  142.4032  154.5444 H   0  0  0  0  0  0  0  0  0  0  0  0
  148.4344  140.0581  154.6898 H   0  0  0  0  0  0  0  0  0  0  0  0
  149.2752  140.6259  153.2541 H   0  0  0  0  0  0  0  0  0  0  0  0
  151.6408  137.9140  153.1077 H   0  0  0  0  0  0  0  0  0  0  0  0
  150.2982  138.7915  152.4839 H   0  0  0  0  0  0  0  0  0  0  0  0
  152.9802  142.5569  158.3158 H   0  0  0  0  0  0  0  0  0  0  0  0
  152.7497  144.8027  157.3785 H   0  0  0  0  0  0  0  0  0  0  0  0
  153.7512  144.8955  158.8122 H   0  0  0  0  0  0  0  0  0  0  0  0
  152.0712  145.4194  158.8821 H   0  0  0  0  0  0  0  0  0  0  0  0
  153.9436  141.3844  160.3451 H   0  0  0  0  0  0  0  0  0  0  0  0
  153.8080  141.8008  163.0349 H   0  0  0  0  0  0  0  0  0  0  0  0
  152.0624  143.9423  163.2490 H   0  0  0  0  0  0  0  0  0  0  0  0
  151.6344  142.7492  156.6153 H   0  0  0  0  0  0  0  0  0  0  0  0
  1  2  1  0  0  0  0
  1 18  1  0  0  0  0
  1 19  1  0  0  0  0
  1 20  1  0  0  0  0
  2  3  1  0  0  0  0
  2 11  1  0  0  0  0
  2 21  1  0  0  0  0
  3  4  1  0  0  0  0
  3 22  1  0  0  0  0
  3 38  1  0  0  0  0
  4  5  1  0  0  0  0
  4 23  1  0  0  0  0
  4 24  1  0  0  0  0
  5  6  1  0  0  0  0
  5 25  1  0  0  0  0
  5 26  1  0  0  0  0
  6  7  1  0  0  0  0
  6 27  1  0  0  0  0
  6 28  1  0  0  0  0
  7  8  1  0  0  0  0
  7  9  2  0  0  0  0
  7 10  2  0  0  0  0
  8 29  1  0  0  0  0
  8 30  1  0  0  0  0
 11 12  1  0  0  0  0
 11 13  1  0  0  0  0
 11 31  1  0  0  0  0
 12 32  1  0  0  0  0
 12 33  1  0  0  0  0
 12 34  1  0  0  0  0
 13 17  1  0  0  0  0
 13 14  1  0  0  0  0
 14 15  2  0  0  0  0
 14 35  1  0  0  0  0
 15 16  1  0  0  0  0
 15 36  1  0  0  0  0
 16 17  2  0  0  0  0
 16 37  1  0  0  0  0
M  CHG  1   3   1
M  END
> <s_m_source_file>
AV-unprocessed.smi

> <i_m_source_file_index>
658

> <i_lp_mmshare_version>
43012

> <i_f3d_flags>
0

> <s_epik_input>
bjFbY0hdW2NIXVtjSF1uMVtDQEBIXShbQ0gzXSlbQ0BIXShbQ0gzXSlbTkhdW0NIMl1bQ0gyXVtDSDJdUyg9TykoPU8pW05IMl0=

> <s_epik_cmdline>
J2VwaWtfcHl0aG9uJywgJy1waCcsICc3LjAnLCAnLXRuJywgJzgnLCAnLW1hJywgJzIwMCcsICctbWV0YWxfYmluZGluZycsICctaW1hZScsICc8aW5maWxlLm1hZT4nLCAnLW9tYWUnLCAnPG91dGZpbGUubWFlPic=

> <r_lp_tautomer_probability>
1

> <r_epik_Ionization_Penalty>
0.00535781

> <r_epik_Ionization_Penalty_Charging>
0.00511015

> <r_epik_Ionization_Penalty_Neutral>
0.000247661

> <r_epik_State_Penalty>
-0

> <r_epik_Charging_Adjusted_Penalty>
0.00511015

> <i_epik_Tot_Q>
1

> <i_epik_Tot_abs_Q>
1

> <r_epik_Metal_State_Penalty>
0.149106

> <b_epik_Metal_Only>
0

> <s_lp_Force_Field>
OPLS_2005

> <r_lp_Energy>
6.97458

> <b_lp_Chiralities_Consistent>
1

> <s_lp_Variant>
AV-unprocessed.smi:658-4

> <Gold.Version>
5.8.1

> <Gold.Id.Protein>
6NUR|6NUR_protein|mol2

> <Gold.PLP.Fitness>
53.3306

> <Gold.PLP.PLP>
-43.7856

> <Gold.PLP.part.hbond>
-4.8752

> <Gold.PLP.part.metal>
0.0000

> <Gold.PLP.part.buried>
-2.4474

> <Gold.PLP.part.nonpolar>
-36.6683

> <Gold.PLP.part.repulsive>
0.2275

> <Gold.PLP.ligand.clash>
0.0000

> <Gold.PLP.ligand.torsion>
1.4547

> <Gold.PLP.Chemscore.Hbond>
4.0395

> <Gold.PLP.Chemscore.CHOScore>
0.0000

> <Gold.PLP.Chemscore.Metal>
0.0000

> <Gold.Chemscore.Hbonds>
donor molecule, donor type, donor heavy atom, donor atom, acceptor molecule, acceptor atom, score
      L1  H     3    22       P1  8028  2.00
      L1  H     8    30       P1  7957  0.85
      P1  H  7989  7998       L1     9  0.51

> <Gold.PLP.Chemscore.Internal.Correction>
0.3359

> <Gold.Rescore>
     Score         DG    S(hbond)    S(metal)    S(lipo)     H(rot)  DE(clash)    DE(int)     intcor
     14.60     -18.06       2.81        0.00      95.93       3.13       1.02       2.44       ----

> <Gold.Chemscore.Fitness>
14.6045

> <Gold.Chemscore.DG>
-18.0596

> <Gold.Chemscore.ZeroCoef>
-5.4800

> <Gold.Chemscore.Hbond>
2.8058

> <Gold.Chemscore.Metal>
0.0000

> <Gold.Chemscore.Lipo>
95.9338

> <Gold.Chemscore.Internal_Hbond>
0.0000

> <Gold.Chemscore.DEClash>
1.0200

> <Gold.Chemscore.DEInternal>
2.4350

> <Gold.Chemscore.Rot>
3.1312

> <Gold.Chemscore.Internal.Correction>
   9.000000E+99

> <Gold.Chemscore.Hbonds>
donor molecule, donor type, donor heavy atom, donor atom, acceptor molecule, acceptor atom, score
      L1  H     3    22       P1  8028  0.92
      L1  H     8    30       P1  7957  0.15
      P1  H  7989  7998       L1     9  0.05

> <Gold.Chemscore.Hbond.Weighted>
-9.3713

> <Gold.Chemscore.Metal.Weighted>
-0.0000

> <Gold.Chemscore.Lipo.Weighted>
-11.2243

> <Gold.Chemscore.Internal_Hbond.Weighted>
0.0000

> <Gold.Chemscore.DEClash.Weighted>
1.0200

> <Gold.Chemscore.DEInternal.Weighted>
2.4350

> <Gold.Chemscore.Rot.Weighted>
8.0160

> <Gold.Chemscore.Internal.Correction.Weighted>
   9.000000E+99

> <Gold.Protein.RotatedTorsions>
[ 6907 6896 6895 6894 ] final   18.97 input  -60.11 | X-H torsion
[ 7974 7965 7964 7962 ] final  115.09 input  175.53 | X-H torsion
[ 8008 7997 7996 7995 ] final   99.09 input   59.86 | X-H torsion
[ 10167 10162 10161 10158 ] final  118.10 input  -65.29 | X-H torsion
[ 10718 10713 10712 10709 ] final    9.39 input   66.30 | X-H torsion
[ 10763 10752 10751 10750 ] final  -71.54 input  -60.55 | X-H torsion
[ 11005 11000 10999 10996 ] final   31.11 input  -57.11 | X-H torsion

> <Gold.Protein.ActiveResidues>
 VAL166  LYS551  ARG553  GLY616  TRP617  ASP618  TYR619  PRO620  LYS621  CYS622 
 ASP623  PHE694  ASN695  SER759  ASP760  ASP761  ALA762  ILE779  LEU786  VAL792 
 PHE793  MET794  SER795  GLU796  ALA797  LYS798  CYS799  TRP800  GLU811  SER814 

> <Gold.Protein.RotatedAtoms>
  151.8736  135.0480  160.0481 H   0  0  0  0  0  0  0  0  0  0  0  0  # atno 6907 bound_to 6896
  152.2568  133.5258  159.5366 H   0  0  0  0  0  0  0  0  0  0  0  0  # atno 6908 bound_to 6896
  150.7102  134.0800  159.3937 H   0  0  0  0  0  0  0  0  0  0  0  0  # atno 6909 bound_to 6896
  145.1962  139.2975  143.4342 H   0  0  0  0  0  0  0  0  0  0  0  0  # atno 7974 bound_to 7965
  156.1071  140.3234  155.8020 H   0  0  0  0  0  0  0  0  0  0  0  0  # atno 8008 bound_to 7997
  155.4738  140.0548  157.2993 H   0  0  0  0  0  0  0  0  0  0  0  0  # atno 8009 bound_to 7997
  154.4735  140.2022  155.9951 H   0  0  0  0  0  0  0  0  0  0  0  0  # atno 8010 bound_to 7997
  139.6134  144.7087  151.2794 H   0  0  0  0  0  0  0  0  0  0  0  0  # atno 10167 bound_to 10162
  156.9657  130.5950  149.5665 H   0  0  0  0  0  0  0  0  0  0  0  0  # atno 10718 bound_to 10713
  154.4331  135.5959  153.6081 H   0  0  0  0  0  0  0  0  0  0  0  0  # atno 10763 bound_to 10752
  152.9800  135.5980  154.3814 H   0  0  0  0  0  0  0  0  0  0  0  0  # atno 10764 bound_to 10752
  154.3655  135.2841  155.2275 H   0  0  0  0  0  0  0  0  0  0  0  0  # atno 10765 bound_to 10752
  140.2873  134.2904  155.7785 H   0  0  0  0  0  0  0  0  0  0  0  0  # atno 11005 bound_to 11000
  146.3426  140.2192  142.8591 LP  0  0  0  0  0  0  0  0  0  0  0  0  # atno 17320 bound_to 7965
  144.9992  140.8617  143.5292 LP  0  0  0  0  0  0  0  0  0  0  0  0  # atno 17321 bound_to 7965
  140.7334  143.6794  150.8013 LP  0  0  0  0  0  0  0  0  0  0  0  0  # atno 17342 bound_to 10162
  140.0393  143.5362  152.2725 LP  0  0  0  0  0  0  0  0  0  0  0  0  # atno 17343 bound_to 10162
  156.0303  130.5395  150.8518 LP  0  0  0  0  0  0  0  0  0  0  0  0  # atno 17370 bound_to 10713
  157.5627  131.0946  150.9535 LP  0  0  0  0  0  0  0  0  0  0  0  0  # atno 17371 bound_to 10713
  141.2152  133.7563  156.9572 LP  0  0  0  0  0  0  0  0  0  0  0  0  # atno 17394 bound_to 11000
  140.1228  134.9406  157.2227 LP  0  0  0  0  0  0  0  0  0  0  0  0  # atno 17395 bound_to 11000

$$$$
