AV-unprocessed.smi:2324|AV-procd|sdf|9292|dock1
  -GOLD-   2272012513D 1   1.00000     0.00000
 Structure written by MMmdl.
 37 39  0  0  0  0  0  0  0  0  1 V2000
  150.9361  134.6432  155.6835 O   0  0  0  0  0  0  0  0  0  0  0  0
  150.3542  135.0480  154.6783 C   0  0  0  0  0  0  0  0  0  0  0  0
  149.6243  134.2080  153.9135 N   0  0  0  0  0  0  0  0  0  0  0  0
  149.3514  132.8142  154.0350 C   0  0  0  0  0  0  0  0  0  0  0  0
  148.3117  132.3424  153.2050 C   0  0  0  0  0  0  0  0  0  0  0  0
  147.9767  130.9787  153.2598 C   0  0  0  0  0  0  0  0  0  0  0  0
  148.7098  130.1713  154.1455 C   0  0  0  0  0  0  0  0  0  0  0  0
  149.6996  130.6624  154.9220 N   0  0  0  0  0  0  0  0  0  0  0  0
  150.0110  131.9616  154.8639 N   0  0  0  0  0  0  0  0  0  0  0  0
  150.4082  136.3284  154.2753 N   0  0  0  0  0  0  0  0  0  0  0  0
  151.1435  137.3987  154.9411 C   0  0  1  0  0  0  0  0  0  0  0  0
  152.3572  137.8334  154.1024 C   0  0  0  0  0  0  0  0  0  0  0  0
  153.0292  139.0689  154.7214 C   0  0  0  0  0  0  0  0  0  0  0  0
  152.0812  140.1223  154.8574 O   0  0  0  0  0  0  0  0  0  0  0  0
  151.0059  139.7990  155.7338 C   0  0  1  0  0  0  0  0  0  0  0  0
  150.1354  141.0308  155.8838 C   0  0  0  0  0  0  0  0  0  0  0  0
  148.6336  140.9071  155.9931 C   0  0  0  0  0  0  0  0  0  0  0  0
  149.2532  141.4964  154.7488 C   0  0  0  0  0  0  0  0  0  0  0  0
  150.2192  138.6053  155.1610 C   0  0  0  0  0  0  0  0  0  0  0  0
  149.1928  134.6465  153.1130 H   0  0  0  0  0  0  0  0  0  0  0  0
  147.7797  133.0081  152.5408 H   0  0  0  0  0  0  0  0  0  0  0  0
  147.1888  130.5676  152.6464 H   0  0  0  0  0  0  0  0  0  0  0  0
  148.5015  129.1154  154.2329 H   0  0  0  0  0  0  0  0  0  0  0  0
  149.9006  136.5785  153.4382 H   0  0  0  0  0  0  0  0  0  0  0  0
  151.4885  137.0487  155.9160 H   0  0  0  0  0  0  0  0  0  0  0  0
  153.0785  137.0193  154.0228 H   0  0  0  0  0  0  0  0  0  0  0  0
  152.0399  138.0707  153.0860 H   0  0  0  0  0  0  0  0  0  0  0  0
  153.4648  138.8290  155.6925 H   0  0  0  0  0  0  0  0  0  0  0  0
  153.8444  139.4104  154.0835 H   0  0  0  0  0  0  0  0  0  0  0  0
  151.4090  139.5380  156.7141 H   0  0  0  0  0  0  0  0  0  0  0  0
  150.5903  141.8177  156.4829 H   0  0  0  0  0  0  0  0  0  0  0  0
  148.1995  139.9122  155.9151 H   0  0  0  0  0  0  0  0  0  0  0  0
  148.1221  141.5867  156.6716 H   0  0  0  0  0  0  0  0  0  0  0  0
  149.1558  142.5695  154.5972 H   0  0  0  0  0  0  0  0  0  0  0  0
  149.2307  140.8934  153.8432 H   0  0  0  0  0  0  0  0  0  0  0  0
  149.7583  138.8947  154.2151 H   0  0  0  0  0  0  0  0  0  0  0  0
  149.4048  138.3352  155.8345 H   0  0  0  0  0  0  0  0  0  0  0  0
  1  2  2  0  0  0  0
  2  3  1  0  0  0  0
  2 10  1  0  0  0  0
  3  4  1  0  0  0  0
  3 20  1  0  0  0  0
  4  9  1  0  0  0  0
  4  5  2  0  0  0  0
  5  6  1  0  0  0  0
  5 21  1  0  0  0  0
  6  7  2  0  0  0  0
  6 22  1  0  0  0  0
  7  8  1  0  0  0  0
  7 23  1  0  0  0  0
  8  9  2  0  0  0  0
 10 11  1  0  0  0  0
 10 24  1  0  0  0  0
 11 19  1  0  0  0  0
 11 12  1  0  0  0  0
 11 25  1  0  0  0  0
 12 13  1  0  0  0  0
 12 26  1  0  0  0  0
 12 27  1  0  0  0  0
 13 14  1  0  0  0  0
 13 28  1  0  0  0  0
 13 29  1  0  0  0  0
 14 15  1  0  0  0  0
 15 16  1  0  0  0  0
 15 19  1  0  0  0  0
 15 30  1  0  0  0  0
 16 18  1  0  0  0  0
 16 17  1  0  0  0  0
 16 31  1  0  0  0  0
 17 18  1  0  0  0  0
 17 32  1  0  0  0  0
 17 33  1  0  0  0  0
 18 34  1  0  0  0  0
 18 35  1  0  0  0  0
 19 36  1  0  0  0  0
 19 37  1  0  0  0  0
M  END
> <s_m_source_file>
AV-unprocessed.smi

> <i_m_source_file_index>
2324

> <i_lp_mmshare_version>
43012

> <i_f3d_flags>
0

> <s_epik_input>
bjFuW2NIXVtjSF1bY0hdYzFbTkhdQyg9TylbTkhdW0NAQEhdMltDSDJdW0NIMl1PW0NASF0oW0NIMl0yKVtDSF0zW0NIMl1bQ0gyXTM=

> <s_epik_cmdline>
J2VwaWtfcHl0aG9uJywgJy1waCcsICc3LjAnLCAnLXRuJywgJzgnLCAnLW1hJywgJzIwMCcsICctbWV0YWxfYmluZGluZycsICctaW1hZScsICc8aW5maWxlLm1hZT4nLCAnLW9tYWUnLCAnPG91dGZpbGUubWFlPic=

> <r_lp_tautomer_probability>
1

> <r_epik_Ionization_Penalty>
0.00521499

> <r_epik_Ionization_Penalty_Charging>
0

> <r_epik_Ionization_Penalty_Neutral>
0.00521499

> <r_epik_State_Penalty>
-0

> <r_epik_Charging_Adjusted_Penalty>
0

> <i_epik_Tot_Q>
0

> <i_epik_Tot_abs_Q>
0

> <r_epik_Metal_State_Penalty>
-0

> <b_epik_Metal_Only>
0

> <s_lp_Force_Field>
OPLS_2005

> <r_lp_Energy>
26.0147

> <b_lp_Chiralities_Consistent>
1

> <s_lp_Variant>
AV-unprocessed.smi:2324-2

> <Gold.Version>
5.8.1

> <Gold.Id.Protein>
6NUR|6NUR_protein|mol2

> <Gold.PLP.Fitness>
38.8467

> <Gold.PLP.PLP>
-31.6429

> <Gold.PLP.part.hbond>
-3.7267

> <Gold.PLP.part.metal>
0.0000

> <Gold.PLP.part.buried>
-1.1699

> <Gold.PLP.part.nonpolar>
-27.4702

> <Gold.PLP.part.repulsive>
0.2080

> <Gold.PLP.ligand.clash>
0.0000

> <Gold.PLP.ligand.torsion>
0.7092

> <Gold.PLP.Chemscore.Hbond>
2.5160

> <Gold.PLP.Chemscore.CHOScore>
0.0000

> <Gold.PLP.Chemscore.Metal>
0.0000

> <Gold.Chemscore.Hbonds>
donor molecule, donor type, donor heavy atom, donor atom, acceptor molecule, acceptor atom, score
      L1  H     3    20       P1  7948  0.45
      L1  H    10    24       P1  7948  0.90
      P1  H  7989  7998       L1    14  0.75

> <Gold.PLP.Chemscore.Internal.Correction>
1.0742

> <Gold.Rescore>
     Score         DG    S(hbond)    S(metal)    S(lipo)     H(rot)  DE(clash)    DE(int)     intcor
     14.17     -16.11       1.79        0.00      67.13       1.25       0.02       1.92       ----

> <Gold.Chemscore.Fitness>
14.1741

> <Gold.Chemscore.DG>
-16.1088

> <Gold.Chemscore.ZeroCoef>
-5.4800

> <Gold.Chemscore.Hbond>
1.7870

> <Gold.Chemscore.Metal>
0.0000

> <Gold.Chemscore.Lipo>
67.1278

> <Gold.Chemscore.Internal_Hbond>
0.0000

> <Gold.Chemscore.DEClash>
0.0162

> <Gold.Chemscore.DEInternal>
1.9186

> <Gold.Chemscore.Rot>
1.2476

> <Gold.Chemscore.Internal.Correction>
   9.000000E+99

> <Gold.Chemscore.Hbonds>
donor molecule, donor type, donor heavy atom, donor atom, acceptor molecule, acceptor atom, score
      L1  H     3    20       P1  7948  0.01
      L1  H    10    24       P1  7948  0.18
      P1  H  7989  7998       L1    14  0.64

> <Gold.Chemscore.Hbond.Weighted>
-5.9686

> <Gold.Chemscore.Metal.Weighted>
-0.0000

> <Gold.Chemscore.Lipo.Weighted>
-7.8540

> <Gold.Chemscore.Internal_Hbond.Weighted>
0.0000

> <Gold.Chemscore.DEClash.Weighted>
0.0162

> <Gold.Chemscore.DEInternal.Weighted>
1.9186

> <Gold.Chemscore.Rot.Weighted>
3.1938

> <Gold.Chemscore.Internal.Correction.Weighted>
   9.000000E+99

> <Gold.Protein.RotatedTorsions>
[ 6907 6896 6895 6894 ] final   83.47 input  -60.11 | X-H torsion
[ 7974 7965 7964 7962 ] final  -53.06 input  175.53 | X-H torsion
[ 8008 7997 7996 7995 ] final   -4.88 input   59.86 | X-H torsion
[ 10167 10162 10161 10158 ] final  -83.34 input  -65.29 | X-H torsion
[ 10718 10713 10712 10709 ] final   43.62 input   66.30 | X-H torsion
[ 10763 10752 10751 10750 ] final -139.98 input  -60.55 | X-H torsion
[ 11005 11000 10999 10996 ] final  -25.49 input  -57.11 | X-H torsion

> <Gold.Protein.ActiveResidues>
 VAL166  LYS551  ARG553  GLY616  TRP617  ASP618  TYR619  PRO620  LYS621  CYS622 
 ASP623  PHE694  ASN695  SER759  ASP760  ASP761  ALA762  ILE779  LEU786  VAL792 
 PHE793  MET794  SER795  GLU796  ALA797  LYS798  CYS799  TRP800  GLU811  SER814 

> <Gold.Protein.RotatedAtoms>
  152.5328  134.2890  159.9035 H   0  0  0  0  0  0  0  0  0  0  0  0  # atno 6907 bound_to 6896
  151.2843  133.4188  159.2636 H   0  0  0  0  0  0  0  0  0  0  0  0  # atno 6908 bound_to 6896
  151.0256  134.9517  159.8140 H   0  0  0  0  0  0  0  0  0  0  0  0  # atno 6909 bound_to 6896
  145.9011  140.7993  142.9743 H   0  0  0  0  0  0  0  0  0  0  0  0  # atno 7974 bound_to 7965
  154.6097  140.2472  155.7685 H   0  0  0  0  0  0  0  0  0  0  0  0  # atno 8008 bound_to 7997
  156.2363  140.2949  156.0271 H   0  0  0  0  0  0  0  0  0  0  0  0  # atno 8009 bound_to 7997
  155.2073  140.0396  157.2918 H   0  0  0  0  0  0  0  0  0  0  0  0  # atno 8010 bound_to 7997
  140.4236  143.2575  151.8857 H   0  0  0  0  0  0  0  0  0  0  0  0  # atno 10167 bound_to 10162
  157.4179  130.7952  149.7489 H   0  0  0  0  0  0  0  0  0  0  0  0  # atno 10718 bound_to 10713
  154.8593  135.3566  154.5634 H   0  0  0  0  0  0  0  0  0  0  0  0  # atno 10763 bound_to 10752
  153.6248  135.7004  153.5302 H   0  0  0  0  0  0  0  0  0  0  0  0  # atno 10764 bound_to 10752
  153.3098  135.4182  155.1286 H   0  0  0  0  0  0  0  0  0  0  0  0  # atno 10765 bound_to 10752
  140.8943  133.7567  156.0461 H   0  0  0  0  0  0  0  0  0  0  0  0  # atno 11005 bound_to 11000
  144.6736  140.1678  143.7417 LP  0  0  0  0  0  0  0  0  0  0  0  0  # atno 17320 bound_to 7965
  145.8790  139.2312  143.1616 LP  0  0  0  0  0  0  0  0  0  0  0  0  # atno 17321 bound_to 7965
  139.4783  144.5411  151.8527 LP  0  0  0  0  0  0  0  0  0  0  0  0  # atno 17342 bound_to 10162
  140.4506  144.1860  150.5897 LP  0  0  0  0  0  0  0  0  0  0  0  0  # atno 17343 bound_to 10162
  155.9871  130.3969  150.3181 LP  0  0  0  0  0  0  0  0  0  0  0  0  # atno 17370 bound_to 10713
  157.1326  131.0275  151.2963 LP  0  0  0  0  0  0  0  0  0  0  0  0  # atno 17371 bound_to 10713
  140.8309  134.3179  157.5349 LP  0  0  0  0  0  0  0  0  0  0  0  0  # atno 17394 bound_to 11000
  139.8733  134.9362  156.3655 LP  0  0  0  0  0  0  0  0  0  0  0  0  # atno 17395 bound_to 11000

$$$$
