#       Name:                AV-unprocessed.smi:954
#       Creating user name   scv26
#       Creation time:       Fri Mar 27 02:16:47 2020


#       File generated by GOLD software.
#

@<TRIPOS>MOLECULE
AV-unprocessed.smi:954
    27    27     1
SMALL
NO_CHARGES


@<TRIPOS>ATOM
      1 ****        -3.0903  -2.3105  -1.0531 C.3            1 S1                 0.0000
      2 ****        -2.4675  -2.3837   0.3472 C.3            1 S1                 0.0000
      3 ****        -1.0522  -2.0321   0.3251 N.am           1 S1                 0.0000
      4 ****        -0.5675  -0.7810   0.3236 C.2            1 S1                 0.0000
      5 ****        -1.2880   0.2186   0.3397 O.2            1 S1                 0.0000
      6 ****         0.9619  -0.6608   0.3027 C.3            1 S1                 0.0000
      7 ****         1.4231   0.7178   0.3391 N.pl3          1 S1                 0.0000
      8 ****         1.5544   1.5486   1.4363 C.2            1 S1                 0.0000
      9 ****         2.0157   2.7536   0.9875 C.2            1 S1                 0.0000
     10 ****         2.1345   2.5457  -0.4131 C.2            1 S1                 0.0000
     11 ****         2.5787   3.5280  -1.2941 N.pl3          1 S1                 0.0000
     12 ****         1.7860   1.3351  -0.8083 N.2            1 S1                 0.0000
     13 ****        -4.1415  -2.5978  -1.0238 H              1 S1                 0.0000
     14 ****        -2.5821  -2.9806  -1.7469 H              1 S1                 0.0000
     15 ****        -3.0359  -1.3004  -1.4604 H              1 S1                 0.0000
     16 ****        -3.0083  -1.7349   1.0382 H              1 S1                 0.0000
     17 ****        -2.5604  -3.3973   0.7376 H              1 S1                 0.0000
     18 ****        -0.3926  -2.7966   0.3101 H              1 S1                 0.0000
     19 ****         1.3783  -1.1854   1.1634 H              1 S1                 0.0000
     20 ****         1.3530  -1.1480  -0.5920 H              1 S1                 0.0000
     21 ****         1.3066   1.2163   2.4336 H              1 S1                 0.0000
     22 ****         2.2303   3.6382   1.5686 H              1 S1                 0.0000
     23 ****         2.8408   4.4481  -0.9712 H              1 S1                 0.0000
     24 ****         2.6235   3.3594  -2.2887 H              1 S1                 0.0000
     25 ****        -2.2828   0.1177   0.3547 LP             1 S1                 0.0000
     26 ****        -0.8779   1.1306   0.3377 LP             1 S1                 0.0000
     27 ****         1.7895   0.9627  -1.7364 LP             1 S1                 0.0000
@<TRIPOS>BOND
    1    1    2 1     
    2    1   13 1     
    3    1   14 1     
    4    1   15 1     
    5    2    3 1     
    6    2   16 1     
    7    2   17 1     
    8    3    4 am    
    9    3   18 1     
   10    4    5 2     
   11    4    6 1     
   12    6    7 1     
   13    6   19 1     
   14    6   20 1     
   15    7   12 1     
   16    7    8 1     
   17    8    9 2     
   18    8   21 1     
   19    9   10 1     
   20    9   22 1     
   21   10   11 1     
   22   10   12 2     
   23   11   23 1     
   24   11   24 1     
   25    5   25 1     
   26    5   26 1     
   27   12   27 1     
@<TRIPOS>SUBSTRUCTURE
      1 S1             1
@<TRIPOS>SET
LONE_PAIRS      STATIC     ATOMS    <user>   **** ""
3 25 26 27
DONOR_HYDROGENS      STATIC     ATOMS    <user>   **** ""
3 18 23 24
ATOM$BLUE        STATIC     ATOMS    COLORGROUP SYSTEM
3 25 26 27
ATOM$RED        STATIC     ATOMS    COLORGROUP SYSTEM
3 18 23 24
