AV-unprocessed.smi:2855|AV-procd|sdf|10991|dock2
  -GOLD-   2272015443D 1   1.00000     0.00000
 Structure written by MMmdl.
 46 47  0  0  0  0  0  0  0  0  2 V2000
  153.9455  140.9201  160.8920 C   0  0  0  0  0  0  0  0  0  0  0  0
  153.4899  141.6618  159.6277 C   0  0  2  0  0  0  0  0  0  0  0  0
  153.1048  143.1227  159.9382 C   0  0  0  0  0  0  0  0  0  0  0  0
  152.5705  143.8518  158.6908 C   0  0  0  0  0  0  0  0  0  0  0  0
  151.3497  143.1271  158.0690 C   0  0  2  0  0  0  0  0  0  0  0  0
  150.0630  143.2060  158.9650 C   0  0  0  0  0  0  0  0  0  0  0  0
  148.7681  142.7757  158.2474 C   0  0  0  0  0  0  0  0  0  0  0  0
  149.8379  144.6174  159.5448 C   0  0  0  0  0  0  0  0  0  0  0  0
  151.8513  141.7005  157.6852 C   0  0  2  0  0  0  0  0  0  0  0  0
  150.9048  140.9068  156.9073 N   0  0  0  0  0  0  0  0  0  0  0  0
  151.2037  140.1756  155.8225 C   0  0  0  0  0  0  0  0  0  0  0  0
  152.3420  140.0924  155.3588 O   0  0  0  0  0  0  0  0  0  0  0  0
  150.0187  139.4567  155.1622 C   0  0  0  0  0  0  0  0  0  0  0  0
  150.0506  137.9946  155.3272 N   0  0  0  0  0  0  0  0  0  0  0  0
  148.9282  137.3821  155.9121 C   0  0  0  0  0  0  0  0  0  0  0  0
  148.8630  136.0504  156.1007 C   0  0  0  0  0  0  0  0  0  0  0  0
  149.9975  135.2376  155.6803 C   0  0  0  0  0  0  0  0  0  0  0  0
  149.9585  134.0207  155.8513 O   0  0  0  0  0  0  0  0  0  0  0  0
  151.0607  135.8778  155.1108 N   0  5  0  0  0  0  0  0  0  0  0  0
  151.1113  137.2330  154.9215 C   0  0  0  0  0  0  0  0  0  0  0  0
  152.0785  137.7898  154.4009 O   0  0  0  0  0  0  0  0  0  0  0  0
  152.3367  140.9200  158.9215 C   0  0  0  0  0  0  0  0  0  0  0  0
  153.1450  140.8681  161.6309 H   0  0  0  0  0  0  0  0  0  0  0  0
  154.7950  141.4211  161.3565 H   0  0  0  0  0  0  0  0  0  0  0  0
  154.2509  139.8996  160.6600 H   0  0  0  0  0  0  0  0  0  0  0  0
  154.3362  141.6841  158.9395 H   0  0  0  0  0  0  0  0  0  0  0  0
  152.3580  143.1514  160.7318 H   0  0  0  0  0  0  0  0  0  0  0  0
  153.9740  143.6565  160.3237 H   0  0  0  0  0  0  0  0  0  0  0  0
  152.3500  144.8922  158.9234 H   0  0  0  0  0  0  0  0  0  0  0  0
  153.3693  143.9022  157.9494 H   0  0  0  0  0  0  0  0  0  0  0  0
  151.1174  143.6559  157.1436 H   0  0  0  0  0  0  0  0  0  0  0  0
  150.1835  142.5390  159.8178 H   0  0  0  0  0  0  0  0  0  0  0  0
  148.6606  143.2752  157.2841 H   0  0  0  0  0  0  0  0  0  0  0  0
  147.8853  143.0151  158.8409 H   0  0  0  0  0  0  0  0  0  0  0  0
  148.7303  141.7001  158.0845 H   0  0  0  0  0  0  0  0  0  0  0  0
  149.8176  145.3717  158.7576 H   0  0  0  0  0  0  0  0  0  0  0  0
  150.6103  144.8935  160.2615 H   0  0  0  0  0  0  0  0  0  0  0  0
  148.8926  144.6790  160.0848 H   0  0  0  0  0  0  0  0  0  0  0  0
  152.7236  141.8218  157.0390 H   0  0  0  0  0  0  0  0  0  0  0  0
  149.9438  140.9158  157.2168 H   0  0  0  0  0  0  0  0  0  0  0  0
  149.0880  139.8659  155.5589 H   0  0  0  0  0  0  0  0  0  0  0  0
  150.0125  139.7114  154.1012 H   0  0  0  0  0  0  0  0  0  0  0  0
  148.1295  138.0551  156.1878 H   0  0  0  0  0  0  0  0  0  0  0  0
  147.9916  135.5950  156.5479 H   0  0  0  0  0  0  0  0  0  0  0  0
  152.6806  139.9303  158.6175 H   0  0  0  0  0  0  0  0  0  0  0  0
  151.5115  140.7535  159.6142 H   0  0  0  0  0  0  0  0  0  0  0  0
  1  2  1  0  0  0  0
  1 23  1  0  0  0  0
  1 24  1  0  0  0  0
  1 25  1  0  0  0  0
  2 22  1  0  0  0  0
  2  3  1  0  0  0  0
  2 26  1  0  0  0  0
  3  4  1  0  0  0  0
  3 27  1  0  0  0  0
  3 28  1  0  0  0  0
  4  5  1  0  0  0  0
  4 29  1  0  0  0  0
  4 30  1  0  0  0  0
  5  6  1  0  0  0  0
  5  9  1  0  0  0  0
  5 31  1  0  0  0  0
  6  7  1  0  0  0  0
  6  8  1  0  0  0  0
  6 32  1  0  0  0  0
  7 33  1  0  0  0  0
  7 34  1  0  0  0  0
  7 35  1  0  0  0  0
  8 36  1  0  0  0  0
  8 37  1  0  0  0  0
  8 38  1  0  0  0  0
  9 10  1  0  0  0  0
  9 22  1  0  0  0  0
  9 39  1  0  0  0  0
 10 11  1  0  0  0  0
 10 40  1  0  0  0  0
 11 12  2  0  0  0  0
 11 13  1  0  0  0  0
 13 14  1  0  0  0  0
 13 41  1  0  0  0  0
 13 42  1  0  0  0  0
 14 20  1  0  0  0  0
 14 15  1  0  0  0  0
 15 16  2  0  0  0  0
 15 43  1  0  0  0  0
 16 17  1  0  0  0  0
 16 44  1  0  0  0  0
 17 18  2  0  0  0  0
 17 19  1  0  0  0  0
 19 20  1  0  0  0  0
 20 21  2  0  0  0  0
 22 45  1  0  0  0  0
 22 46  1  0  0  0  0
M  CHG  1  19  -1
M  END
> <s_m_source_file>
AV-unprocessed.smi

> <i_m_source_file_index>
2855

> <i_lp_mmshare_version>
43012

> <i_f3d_flags>
0

> <s_epik_input>
W0NIM11bQ0BASF0xW0NIMl1bQ0gyXVtDQEBIXShbQ0hdKFtDSDNdKVtDSDNdKVtDQEhdKFtDSDJdMSlbTkhdQyg9TylbQ0gyXW4yW2NIXVtjSF1jKD1PKVtuSF1jMj1P

> <s_epik_cmdline>
J2VwaWtfcHl0aG9uJywgJy1waCcsICc3LjAnLCAnLXRuJywgJzgnLCAnLW1hJywgJzIwMCcsICctbWV0YWxfYmluZGluZycsICctaW1hZScsICc8aW5maWxlLm1hZT4nLCAnLW9tYWUnLCAnPG91dGZpbGUubWFlPic=

> <r_lp_tautomer_probability>
0.999537

> <r_epik_Ionization_Penalty>
3.12102

> <r_epik_Ionization_Penalty_Charging>
2.9581e-08

> <r_epik_Ionization_Penalty_Neutral>
3.12102

> <r_epik_State_Penalty>
3.12011

> <r_epik_Charging_Adjusted_Penalty>
3.12011

> <i_epik_Tot_Q>
-1

> <i_epik_Tot_abs_Q>
1

> <r_epik_Metal_State_Penalty>
0.463583

> <b_epik_Metal_Only>
1

> <s_lp_Force_Field>
OPLS_2005

> <r_lp_Energy>
28.6833

> <b_lp_Chiralities_Consistent>
1

> <s_lp_Variant>
AV-unprocessed.smi:2855-15

> <Gold.Version>
5.8.1

> <Gold.Id.Protein>
6NUR|6NUR_protein|mol2

> <Gold.PLP.Fitness>
47.0403

> <Gold.PLP.PLP>
-38.5972

> <Gold.PLP.part.hbond>
-3.8018

> <Gold.PLP.part.metal>
0.0000

> <Gold.PLP.part.buried>
-3.3894

> <Gold.PLP.part.nonpolar>
-31.4466

> <Gold.PLP.part.repulsive>
0.3979

> <Gold.PLP.ligand.clash>
0.0000

> <Gold.PLP.ligand.torsion>
0.5447

> <Gold.PLP.Chemscore.Hbond>
3.1470

> <Gold.PLP.Chemscore.CHOScore>
0.0000

> <Gold.PLP.Chemscore.Metal>
0.0000

> <Gold.Chemscore.Hbonds>
donor molecule, donor type, donor heavy atom, donor atom, acceptor molecule, acceptor atom, score
      P1  H  7989  7998       L1    12  0.27
      P1  H  7997  8008       L1    12  0.68
      P1  H 10752 10763       L1    19  1.50

> <Gold.PLP.Chemscore.Internal.Correction>
0.0915

> <Gold.Rescore>
     Score         DG    S(hbond)    S(metal)    S(lipo)     H(rot)  DE(clash)    DE(int)     intcor
     12.07     -17.68       1.74        0.00      94.18       1.81       1.30       4.31       ----

> <Gold.Chemscore.Fitness>
12.0658

> <Gold.Chemscore.DG>
-17.6763

> <Gold.Chemscore.ZeroCoef>
-5.4800

> <Gold.Chemscore.Hbond>
1.7396

> <Gold.Chemscore.Metal>
0.0000

> <Gold.Chemscore.Lipo>
94.1842

> <Gold.Chemscore.Internal_Hbond>
0.0000

> <Gold.Chemscore.DEClash>
1.2997

> <Gold.Chemscore.DEInternal>
4.3109

> <Gold.Chemscore.Rot>
1.8100

> <Gold.Chemscore.Internal.Correction>
   9.000000E+99

> <Gold.Chemscore.Hbonds>
donor molecule, donor type, donor heavy atom, donor atom, acceptor molecule, acceptor atom, score
      P1  H  7989  7998       L1    12  0.02
      P1  H  7997  8008       L1    12  0.69
      P1  H 10752 10763       L1    19  0.09

> <Gold.Chemscore.Hbond.Weighted>
-5.8102

> <Gold.Chemscore.Metal.Weighted>
-0.0000

> <Gold.Chemscore.Lipo.Weighted>
-11.0195

> <Gold.Chemscore.Internal_Hbond.Weighted>
0.0000

> <Gold.Chemscore.DEClash.Weighted>
1.2997

> <Gold.Chemscore.DEInternal.Weighted>
4.3109

> <Gold.Chemscore.Rot.Weighted>
4.6335

> <Gold.Chemscore.Internal.Correction.Weighted>
   9.000000E+99

> <Gold.Protein.RotatedTorsions>
[ 6907 6896 6895 6894 ] final -134.56 input  -60.11 | X-H torsion
[ 7974 7965 7964 7962 ] final -162.07 input  175.53 | X-H torsion
[ 8008 7997 7996 7995 ] final  -20.74 input   59.86 | X-H torsion
[ 10167 10162 10161 10158 ] final   11.38 input  -65.29 | X-H torsion
[ 10718 10713 10712 10709 ] final  -80.47 input   66.30 | X-H torsion
[ 10763 10752 10751 10750 ] final   59.86 input  -60.55 | X-H torsion
[ 11005 11000 10999 10996 ] final   96.21 input  -57.11 | X-H torsion

> <Gold.Protein.ActiveResidues>
 VAL166  LYS551  ARG553  GLY616  TRP617  ASP618  TYR619  PRO620  LYS621  CYS622 
 ASP623  PHE694  ASN695  SER759  ASP760  ASP761  ALA762  ILE779  LEU786  VAL792 
 PHE793  MET794  SER795  GLU796  ALA797  LYS798  CYS799  TRP800  GLU811  SER814 

> <Gold.Protein.RotatedAtoms>
  150.9874  133.6184  159.2713 H   0  0  0  0  0  0  0  0  0  0  0  0  # atno 6907 bound_to 6896
  151.3417  135.0864  159.9383 H   0  0  0  0  0  0  0  0  0  0  0  0  # atno 6908 bound_to 6896
  152.5235  133.9483  159.7714 H   0  0  0  0  0  0  0  0  0  0  0  0  # atno 6909 bound_to 6896
  144.7370  140.3306  143.6154 H   0  0  0  0  0  0  0  0  0  0  0  0  # atno 7974 bound_to 7965
  154.4750  140.2053  155.9900 H   0  0  0  0  0  0  0  0  0  0  0  0  # atno 8008 bound_to 7997
  156.1074  140.3234  155.7995 H   0  0  0  0  0  0  0  0  0  0  0  0  # atno 8009 bound_to 7997
  155.4693  140.0530  157.2972 H   0  0  0  0  0  0  0  0  0  0  0  0  # atno 8010 bound_to 7997
  140.6135  143.8357  150.7092 H   0  0  0  0  0  0  0  0  0  0  0  0  # atno 10167 bound_to 10162
  156.0069  130.4575  150.3805 H   0  0  0  0  0  0  0  0  0  0  0  0  # atno 10718 bound_to 10713
  152.9905  135.5556  154.5781 H   0  0  0  0  0  0  0  0  0  0  0  0  # atno 10763 bound_to 10752
  154.5168  135.2805  155.1298 H   0  0  0  0  0  0  0  0  0  0  0  0  # atno 10764 bound_to 10752
  154.2668  135.6370  153.5348 H   0  0  0  0  0  0  0  0  0  0  0  0  # atno 10765 bound_to 10752
  139.8783  134.8939  156.4125 H   0  0  0  0  0  0  0  0  0  0  0  0  # atno 11005 bound_to 11000
  145.7475  139.1783  143.2340 LP  0  0  0  0  0  0  0  0  0  0  0  0  # atno 17320 bound_to 7965
  146.1086  140.7456  142.9514 LP  0  0  0  0  0  0  0  0  0  0  0  0  # atno 17321 bound_to 7965
  140.1931  143.4020  152.1848 LP  0  0  0  0  0  0  0  0  0  0  0  0  # atno 17342 bound_to 10162
  139.5380  144.7229  151.4828 LP  0  0  0  0  0  0  0  0  0  0  0  0  # atno 17343 bound_to 10162
  157.1885  131.0409  151.2712 LP  0  0  0  0  0  0  0  0  0  0  0  0  # atno 17370 bound_to 10713
  157.4082  130.7371  149.6819 LP  0  0  0  0  0  0  0  0  0  0  0  0  # atno 17371 bound_to 10713
  140.9190  133.7658  155.9884 LP  0  0  0  0  0  0  0  0  0  0  0  0  # atno 17394 bound_to 11000
  140.8461  134.3010  157.5294 LP  0  0  0  0  0  0  0  0  0  0  0  0  # atno 17395 bound_to 11000

$$$$
