AV-unprocessed.smi:590|AV-procd|sdf|3008|dock1
  -GOLD-   2262023513D 1   1.00000     0.00000
 Structure written by MMmdl.
 41 42  0  0  0  0  0  0  0  0  1 V2000
  147.8879  139.4944  154.8436 C   0  0  0  0  0  0  0  0  0  0  0  0
  149.3678  139.2910  154.6895 C   0  0  0  0  0  0  0  0  0  0  0  0
  149.8417  138.0766  154.4661 N   0  0  0  0  0  0  0  0  0  0  0  0
  151.2303  138.2173  154.3815 O   0  0  0  0  0  0  0  0  0  0  0  0
  151.5412  139.5262  154.5622 C   0  0  0  0  0  0  0  0  0  0  0  0
  152.9877  139.8853  154.5152 C   0  0  0  0  0  0  0  0  0  0  0  0
  150.4063  140.2633  154.7593 C   0  0  0  0  0  0  0  0  0  0  0  0
  150.2781  141.7450  154.9999 C   0  0  0  0  0  0  0  0  0  0  0  0
  151.1576  142.1515  156.1821 C   0  0  0  0  0  0  0  0  0  0  0  0
  151.8510  141.3075  156.7497 O   0  0  0  0  0  0  0  0  0  0  0  0
  151.1166  143.4443  156.5424 N   0  0  0  0  0  0  0  0  0  0  0  0
  151.8684  144.0460  157.6404 C   0  0  0  0  0  0  0  0  0  0  0  0
  151.2411  143.7409  159.0152 C   0  0  0  0  0  0  0  0  0  0  0  0
  152.1087  142.8757  159.9176 C   0  0  0  0  0  0  0  0  0  0  0  0
  152.8043  141.8246  159.4408 C   0  0  0  0  0  0  0  0  0  0  0  0
  153.7038  140.9410  160.2868 C   0  0  0  0  0  0  0  0  0  0  0  0
  154.0237  141.5687  161.6536 C   0  0  0  0  0  0  0  0  0  0  0  0
  152.7708  142.1876  162.2848 C   0  0  0  0  0  0  0  0  0  0  0  0
  152.1726  143.2838  161.3855 C   0  0  0  0  0  0  0  0  0  0  0  0
  147.5469  140.3445  154.2526 H   0  0  0  0  0  0  0  0  0  0  0  0
  147.6296  139.6893  155.8845 H   0  0  0  0  0  0  0  0  0  0  0  0
  147.3233  138.6197  154.5194 H   0  0  0  0  0  0  0  0  0  0  0  0
  153.2218  140.6452  155.2609 H   0  0  0  0  0  0  0  0  0  0  0  0
  153.2549  140.2793  153.5349 H   0  0  0  0  0  0  0  0  0  0  0  0
  153.6148  139.0160  154.7139 H   0  0  0  0  0  0  0  0  0  0  0  0
  150.5890  142.3188  154.1263 H   0  0  0  0  0  0  0  0  0  0  0  0
  149.2418  142.0269  155.1910 H   0  0  0  0  0  0  0  0  0  0  0  0
  150.5156  144.0605  156.0144 H   0  0  0  0  0  0  0  0  0  0  0  0
  152.8772  143.6340  157.6106 H   0  0  0  0  0  0  0  0  0  0  0  0
  151.9841  145.1205  157.4929 H   0  0  0  0  0  0  0  0  0  0  0  0
  151.0207  144.6812  159.5223 H   0  0  0  0  0  0  0  0  0  0  0  0
  150.2818  143.2407  158.8790 H   0  0  0  0  0  0  0  0  0  0  0  0
  152.7261  141.5584  158.3969 H   0  0  0  0  0  0  0  0  0  0  0  0
  153.2019  139.9823  160.4209 H   0  0  0  0  0  0  0  0  0  0  0  0
  154.6283  140.7429  159.7438 H   0  0  0  0  0  0  0  0  0  0  0  0
  154.4534  140.8180  162.3176 H   0  0  0  0  0  0  0  0  0  0  0  0
  154.7818  142.3433  161.5306 H   0  0  0  0  0  0  0  0  0  0  0  0
  152.0276  141.4050  162.4457 H   0  0  0  0  0  0  0  0  0  0  0  0
  153.0036  142.5984  163.2676 H   0  0  0  0  0  0  0  0  0  0  0  0
  152.7727  144.1914  161.4552 H   0  0  0  0  0  0  0  0  0  0  0  0
  151.1780  143.5383  161.7500 H   0  0  0  0  0  0  0  0  0  0  0  0
  1  2  1  0  0  0  0
  1 20  1  0  0  0  0
  1 21  1  0  0  0  0
  1 22  1  0  0  0  0
  2  7  1  0  0  0  0
  2  3  2  0  0  0  0
  3  4  1  0  0  0  0
  4  5  1  0  0  0  0
  5  6  1  0  0  0  0
  5  7  2  0  0  0  0
  6 23  1  0  0  0  0
  6 24  1  0  0  0  0
  6 25  1  0  0  0  0
  7  8  1  0  0  0  0
  8  9  1  0  0  0  0
  8 26  1  0  0  0  0
  8 27  1  0  0  0  0
  9 10  2  0  0  0  0
  9 11  1  0  0  0  0
 11 12  1  0  0  0  0
 11 28  1  0  0  0  0
 12 13  1  0  0  0  0
 12 29  1  0  0  0  0
 12 30  1  0  0  0  0
 13 14  1  0  0  0  0
 13 31  1  0  0  0  0
 13 32  1  0  0  0  0
 14 19  1  0  0  0  0
 14 15  2  0  0  0  0
 15 16  1  0  0  0  0
 15 33  1  0  0  0  0
 16 17  1  0  0  0  0
 16 34  1  0  0  0  0
 16 35  1  0  0  0  0
 17 18  1  0  0  0  0
 17 36  1  0  0  0  0
 17 37  1  0  0  0  0
 18 19  1  0  0  0  0
 18 38  1  0  0  0  0
 18 39  1  0  0  0  0
 19 40  1  0  0  0  0
 19 41  1  0  0  0  0
M  END
> <s_m_source_file>
AV-unprocessed.smi

> <i_m_source_file_index>
590

> <i_lp_mmshare_version>
43012

> <i_f3d_flags>
0

> <s_epik_input>
W0NIM11jMW5vYyhbQ0gzXSljMVtDSDJdQyg9TylbTkhdW0NIMl1bQ0gyXUMyPVtDSF1bQ0gyXVtDSDJdW0NIMl1bQ0gyXTI=

> <s_epik_cmdline>
J2VwaWtfcHl0aG9uJywgJy1waCcsICc3LjAnLCAnLXRuJywgJzgnLCAnLW1hJywgJzIwMCcsICctbWV0YWxfYmluZGluZycsICctaW1hZScsICc8aW5maWxlLm1hZT4nLCAnLW9tYWUnLCAnPG91dGZpbGUubWFlPic=

> <r_lp_tautomer_probability>
1

> <r_epik_Ionization_Penalty>
1.93189e-08

> <r_epik_Ionization_Penalty_Charging>
0

> <r_epik_Ionization_Penalty_Neutral>
1.93189e-08

> <r_epik_State_Penalty>
-0

> <r_epik_Charging_Adjusted_Penalty>
0

> <i_epik_Tot_Q>
0

> <i_epik_Tot_abs_Q>
0

> <r_epik_Metal_State_Penalty>
-0

> <b_epik_Metal_Only>
0

> <s_lp_Force_Field>
OPLS_2005

> <r_lp_Energy>
2.22272

> <b_lp_Chiralities_Consistent>
1

> <s_lp_Variant>
AV-unprocessed.smi:590-1

> <Gold.Version>
5.8.1

> <Gold.Id.Protein>
6NUR|6NUR_protein|mol2

> <Gold.PLP.Fitness>
44.6761

> <Gold.PLP.PLP>
-43.1691

> <Gold.PLP.part.hbond>
-1.0000

> <Gold.PLP.part.metal>
0.0000

> <Gold.PLP.part.buried>
-2.7731

> <Gold.PLP.part.nonpolar>
-39.8387

> <Gold.PLP.part.repulsive>
0.2509

> <Gold.PLP.ligand.clash>
0.0000

> <Gold.PLP.ligand.torsion>
0.7805

> <Gold.PLP.Chemscore.Hbond>
1.0000

> <Gold.PLP.Chemscore.CHOScore>
0.0000

> <Gold.PLP.Chemscore.Metal>
0.0000

> <Gold.Chemscore.Hbonds>
donor molecule, donor type, donor heavy atom, donor atom, acceptor molecule, acceptor atom, score
      L1  H    11    28       P1  8028  1.00

> <Gold.PLP.Chemscore.Internal.Correction>
0.0681

> <Gold.Rescore>
     Score         DG    S(hbond)    S(metal)    S(lipo)     H(rot)  DE(clash)    DE(int)     intcor
     15.69     -19.18       0.93        0.00     124.35       1.55       0.04       3.46       ----

> <Gold.Chemscore.Fitness>
15.6853

> <Gold.Chemscore.DG>
-19.1805

> <Gold.Chemscore.ZeroCoef>
-5.4800

> <Gold.Chemscore.Hbond>
0.9335

> <Gold.Chemscore.Metal>
0.0000

> <Gold.Chemscore.Lipo>
124.3508

> <Gold.Chemscore.Internal_Hbond>
0.0000

> <Gold.Chemscore.DEClash>
0.0383

> <Gold.Chemscore.DEInternal>
3.4569

> <Gold.Chemscore.Rot>
1.5493

> <Gold.Chemscore.Internal.Correction>
   9.000000E+99

> <Gold.Chemscore.Hbonds>
donor molecule, donor type, donor heavy atom, donor atom, acceptor molecule, acceptor atom, score
      L1  H    11    28       P1  8028  0.96

> <Gold.Chemscore.Hbond.Weighted>
-3.1178

> <Gold.Chemscore.Metal.Weighted>
-0.0000

> <Gold.Chemscore.Lipo.Weighted>
-14.5490

> <Gold.Chemscore.Internal_Hbond.Weighted>
0.0000

> <Gold.Chemscore.DEClash.Weighted>
0.0383

> <Gold.Chemscore.DEInternal.Weighted>
3.4569

> <Gold.Chemscore.Rot.Weighted>
3.9663

> <Gold.Chemscore.Internal.Correction.Weighted>
   9.000000E+99

> <Gold.Protein.RotatedTorsions>
[ 6907 6896 6895 6894 ] final   39.14 input  -60.11 | X-H torsion
[ 7974 7965 7964 7962 ] final  -66.79 input  175.53 | X-H torsion
[ 8008 7997 7996 7995 ] final  -25.14 input   59.86 | X-H torsion
[ 10167 10162 10161 10158 ] final  116.60 input  -65.29 | X-H torsion
[ 10718 10713 10712 10709 ] final   -0.12 input   66.30 | X-H torsion
[ 10763 10752 10751 10750 ] final   89.37 input  -60.55 | X-H torsion
[ 11005 11000 10999 10996 ] final   -6.34 input  -57.11 | X-H torsion

> <Gold.Protein.ActiveResidues>
 VAL166  LYS551  ARG553  GLY616  TRP617  ASP618  TYR619  PRO620  LYS621  CYS622 
 ASP623  PHE694  ASN695  SER759  ASP760  ASP761  ALA762  ILE779  LEU786  VAL792 
 PHE793  MET794  SER795  GLU796  ALA797  LYS798  CYS799  TRP800  GLU811  SER814 

> <Gold.Protein.RotatedAtoms>
  152.1657  134.8876  160.0538 H   0  0  0  0  0  0  0  0  0  0  0  0  # atno 6907 bound_to 6896
  151.9855  133.3767  159.4132 H   0  0  0  0  0  0  0  0  0  0  0  0  # atno 6908 bound_to 6896
  150.6894  134.3916  159.5122 H   0  0  0  0  0  0  0  0  0  0  0  0  # atno 6909 bound_to 6896
  145.7373  140.8969  143.0548 H   0  0  0  0  0  0  0  0  0  0  0  0  # atno 7974 bound_to 7965
  154.4491  140.1934  156.0573 H   0  0  0  0  0  0  0  0  0  0  0  0  # atno 8008 bound_to 7997
  156.0609  140.3297  155.7433 H   0  0  0  0  0  0  0  0  0  0  0  0  # atno 8009 bound_to 7997
  155.5413  140.0586  157.2860 H   0  0  0  0  0  0  0  0  0  0  0  0  # atno 8010 bound_to 7997
  139.6236  144.7105  151.2582 H   0  0  0  0  0  0  0  0  0  0  0  0  # atno 10167 bound_to 10162
  156.8252  130.5470  149.5693 H   0  0  0  0  0  0  0  0  0  0  0  0  # atno 10718 bound_to 10713
  153.1864  135.4473  155.0094 H   0  0  0  0  0  0  0  0  0  0  0  0  # atno 10763 bound_to 10752
  154.8063  135.3276  154.7425 H   0  0  0  0  0  0  0  0  0  0  0  0  # atno 10764 bound_to 10752
  153.7884  135.6972  153.4931 H   0  0  0  0  0  0  0  0  0  0  0  0  # atno 10765 bound_to 10752
  140.7009  133.8990  155.8682 H   0  0  0  0  0  0  0  0  0  0  0  0  # atno 11005 bound_to 11000
  144.6878  139.9413  143.7475 LP  0  0  0  0  0  0  0  0  0  0  0  0  # atno 17320 bound_to 7965
  146.0481  139.3484  143.0656 LP  0  0  0  0  0  0  0  0  0  0  0  0  # atno 17321 bound_to 7965
  140.7397  143.6610  150.8164 LP  0  0  0  0  0  0  0  0  0  0  0  0  # atno 17342 bound_to 10162
  140.0224  143.5528  152.2795 LP  0  0  0  0  0  0  0  0  0  0  0  0  # atno 17343 bound_to 10162
  156.0966  130.5937  150.9823 LP  0  0  0  0  0  0  0  0  0  0  0  0  # atno 17370 bound_to 10713
  157.6436  131.0907  150.8200 LP  0  0  0  0  0  0  0  0  0  0  0  0  # atno 17371 bound_to 10713
  141.0164  134.0949  157.4167 LP  0  0  0  0  0  0  0  0  0  0  0  0  # atno 17394 bound_to 11000
  139.8897  135.0107  156.6694 LP  0  0  0  0  0  0  0  0  0  0  0  0  # atno 17395 bound_to 11000

$$$$
