AV-unprocessed.smi:1060|AV-procd|sdf|4657|dock3
  -GOLD-   22720 3163D 1   1.00000     0.00000
 Structure written by MMmdl.
 37 38  0  0  0  0  0  0  0  0  1 V2000
  145.9355  134.9421  156.0513 O   0  0  0  0  0  0  0  0  0  0  0  0
  146.5621  135.9618  155.7666 C   0  0  0  0  0  0  0  0  0  0  0  0
  147.2630  136.7394  156.8799 C   0  0  0  0  0  0  0  0  0  0  0  0
  147.0742  136.0596  158.1115 O   0  0  0  0  0  0  0  0  0  0  0  0
  147.8295  136.6235  159.1700 C   0  0  0  0  0  0  0  0  0  0  0  0
  147.1029  136.3587  160.4944 C   0  0  1  0  0  0  0  0  0  0  0  0
  147.1784  134.9042  160.9545 C   0  0  0  0  0  0  0  0  0  0  0  0
  146.9608  135.0457  162.4437 C   0  0  0  0  0  0  0  0  0  0  0  0
  147.7294  136.3278  162.7512 C   0  0  0  0  0  0  0  0  0  0  0  0
  147.7082  137.0990  161.5519 O   0  0  0  0  0  0  0  0  0  0  0  0
  146.6652  136.4941  154.5323 N   0  0  0  0  0  0  0  0  0  0  0  0
  146.1653  136.0182  153.3085 C   0  0  0  0  0  0  0  0  0  0  0  0
  146.0479  134.7063  152.9740 C   0  0  0  0  0  0  0  0  0  0  0  0
  145.5327  134.2823  151.6828 C   0  0  0  0  0  0  0  0  0  0  0  0
  145.4590  132.8123  151.2987 C   0  0  0  0  0  0  0  0  0  0  0  0
  146.1675  132.5634  150.1966 F   0  0  0  0  0  0  0  0  0  0  0  0
  145.9249  132.0379  152.2790 F   0  0  0  0  0  0  0  0  0  0  0  0
  144.1932  132.4681  151.0650 F   0  0  0  0  0  0  0  0  0  0  0  0
  145.2041  135.2596  150.8178 C   0  0  0  0  0  0  0  0  0  0  0  0
  145.3215  136.6102  151.1537 N   0  0  0  0  0  0  0  0  0  0  0  0
  145.7834  137.0607  152.3416 C   0  0  0  0  0  0  0  0  0  0  0  0
  145.8629  138.2693  152.5589 O   0  0  0  0  0  0  0  0  0  0  0  0
  145.0463  137.2830  150.4528 H   0  0  0  0  0  0  0  0  0  0  0  0
  148.3254  136.8203  156.6448 H   0  0  0  0  0  0  0  0  0  0  0  0
  146.8544  137.7497  156.9385 H   0  0  0  0  0  0  0  0  0  0  0  0
  148.8157  136.1570  159.1919 H   0  0  0  0  0  0  0  0  0  0  0  0
  147.9740  137.6946  159.0197 H   0  0  0  0  0  0  0  0  0  0  0  0
  146.0549  136.6534  160.4195 H   0  0  0  0  0  0  0  0  0  0  0  0
  146.4379  134.2658  160.4720 H   0  0  0  0  0  0  0  0  0  0  0  0
  148.1685  134.4893  160.7606 H   0  0  0  0  0  0  0  0  0  0  0  0
  145.8993  135.1828  162.6549 H   0  0  0  0  0  0  0  0  0  0  0  0
  147.3158  134.1874  163.0148 H   0  0  0  0  0  0  0  0  0  0  0  0
  147.2973  136.8792  163.5865 H   0  0  0  0  0  0  0  0  0  0  0  0
  148.7675  136.1010  162.9965 H   0  0  0  0  0  0  0  0  0  0  0  0
  147.1522  137.3771  154.4715 H   0  0  0  0  0  0  0  0  0  0  0  0
  146.3501  133.9299  153.6574 H   0  0  0  0  0  0  0  0  0  0  0  0
  144.8366  135.0884  149.8168 H   0  0  0  0  0  0  0  0  0  0  0  0
  1  2  2  0  0  0  0
  2  3  1  0  0  0  0
  2 11  1  0  0  0  0
  3  4  1  0  0  0  0
  3 24  1  0  0  0  0
  3 25  1  0  0  0  0
  4  5  1  0  0  0  0
  5  6  1  0  0  0  0
  5 26  1  0  0  0  0
  5 27  1  0  0  0  0
  6 10  1  0  0  0  0
  6  7  1  0  0  0  0
  6 28  1  0  0  0  0
  7  8  1  0  0  0  0
  7 29  1  0  0  0  0
  7 30  1  0  0  0  0
  8  9  1  0  0  0  0
  8 31  1  0  0  0  0
  8 32  1  0  0  0  0
  9 10  1  0  0  0  0
  9 33  1  0  0  0  0
  9 34  1  0  0  0  0
 11 12  1  0  0  0  0
 11 35  1  0  0  0  0
 12 21  1  0  0  0  0
 12 13  2  0  0  0  0
 13 14  1  0  0  0  0
 13 36  1  0  0  0  0
 14 15  1  0  0  0  0
 14 19  2  0  0  0  0
 15 16  1  0  0  0  0
 15 17  1  0  0  0  0
 15 18  1  0  0  0  0
 19 20  1  0  0  0  0
 19 37  1  0  0  0  0
 20 23  1  0  0  0  0
 20 21  1  0  0  0  0
 21 22  2  0  0  0  0
M  END
> <s_m_source_file>
AV-unprocessed.smi

> <i_m_source_file_index>
1060

> <i_lp_mmshare_version>
43012

> <i_f3d_flags>
0

> <s_epik_input>
Tz1jMVtuSF1bY0hdYyhDKEYpKEYpRilbY0hdYzFbTkhdQyg9TylbQ0gyXU9bQ0gyXVtDQEBIXTJbQ0gyXVtDSDJdW0NIMl1PMg==

> <s_epik_cmdline>
J2VwaWtfcHl0aG9uJywgJy1waCcsICc3LjAnLCAnLXRuJywgJzgnLCAnLW1hJywgJzIwMCcsICctbWV0YWxfYmluZGluZycsICctaW1hZScsICc8aW5maWxlLm1hZT4nLCAnLW9tYWUnLCAnPG91dGZpbGUubWFlPic=

> <r_lp_tautomer_probability>
0.999

> <r_epik_Ionization_Penalty>
0.00950091

> <r_epik_Ionization_Penalty_Charging>
0.00950081

> <r_epik_Ionization_Penalty_Neutral>
1.00143e-07

> <r_epik_State_Penalty>
0.00721819

> <r_epik_Charging_Adjusted_Penalty>
0.016719

> <i_epik_Tot_Q>
0

> <i_epik_Tot_abs_Q>
0

> <r_epik_Metal_State_Penalty>
0.323303

> <b_epik_Metal_Only>
0

> <s_lp_Force_Field>
OPLS_2005

> <r_lp_Energy>
32.1884

> <b_lp_Chiralities_Consistent>
1

> <s_lp_Variant>
AV-unprocessed.smi:1060-2

> <Gold.Version>
5.8.1

> <Gold.Id.Protein>
6NUR|6NUR_protein|mol2

> <Gold.PLP.Fitness>
45.1466

> <Gold.PLP.PLP>
-34.7436

> <Gold.PLP.part.hbond>
-3.0000

> <Gold.PLP.part.metal>
0.0000

> <Gold.PLP.part.buried>
-4.5836

> <Gold.PLP.part.nonpolar>
-27.2924

> <Gold.PLP.part.repulsive>
0.5719

> <Gold.PLP.ligand.clash>
0.0000

> <Gold.PLP.ligand.torsion>
0.5093

> <Gold.PLP.Chemscore.Hbond>
2.7644

> <Gold.PLP.Chemscore.CHOScore>
1.0000

> <Gold.PLP.Chemscore.Metal>
0.0000

> <Gold.Chemscore.Hbonds>
donor molecule, donor type, donor heavy atom, donor atom, acceptor molecule, acceptor atom, score
      L1  H    20    23       P1 10171  1.00
      P1  H  6931  6943       L1    10  1.00
      P1  H  6934  6947       L1    10  0.64
      L1  C    19    37       P1  7921  0.94

> <Gold.PLP.Chemscore.Internal.Correction>
0.1285

> <Gold.Rescore>
     Score         DG    S(hbond)    S(metal)    S(lipo)     H(rot)  DE(clash)    DE(int)     intcor
     12.65     -13.33       1.89        0.00      55.80       1.95       0.01       0.67       ----

> <Gold.Chemscore.Fitness>
12.6496

> <Gold.Chemscore.DG>
-13.3346

> <Gold.Chemscore.ZeroCoef>
-5.4800

> <Gold.Chemscore.Hbond>
1.8936

> <Gold.Chemscore.Metal>
0.0000

> <Gold.Chemscore.Lipo>
55.8040

> <Gold.Chemscore.Internal_Hbond>
0.0000

> <Gold.Chemscore.DEClash>
0.0117

> <Gold.Chemscore.DEInternal>
0.6733

> <Gold.Chemscore.Rot>
1.9527

> <Gold.Chemscore.Internal.Correction>
   9.000000E+99

> <Gold.Chemscore.Hbonds>
donor molecule, donor type, donor heavy atom, donor atom, acceptor molecule, acceptor atom, score
      L1  H    20    23       P1 10171  0.96
      P1  H  6931  6943       L1    10  0.25
      P1  H  6934  6947       L1    10  0.14

> <Gold.Chemscore.Hbond.Weighted>
-6.3246

> <Gold.Chemscore.Metal.Weighted>
-0.0000

> <Gold.Chemscore.Lipo.Weighted>
-6.5291

> <Gold.Chemscore.Internal_Hbond.Weighted>
0.0000

> <Gold.Chemscore.DEClash.Weighted>
0.0117

> <Gold.Chemscore.DEInternal.Weighted>
0.6733

> <Gold.Chemscore.Rot.Weighted>
4.9990

> <Gold.Chemscore.Internal.Correction.Weighted>
   9.000000E+99

> <Gold.Protein.RotatedTorsions>
[ 6907 6896 6895 6894 ] final   94.88 input  -60.11 | X-H torsion
[ 7974 7965 7964 7962 ] final -167.94 input  175.53 | X-H torsion
[ 8008 7997 7996 7995 ] final   27.33 input   59.86 | X-H torsion
[ 10167 10162 10161 10158 ] final   -5.29 input  -65.29 | X-H torsion
[ 10718 10713 10712 10709 ] final  131.20 input   66.30 | X-H torsion
[ 10763 10752 10751 10750 ] final  129.01 input  -60.55 | X-H torsion
[ 11005 11000 10999 10996 ] final  111.22 input  -57.11 | X-H torsion

> <Gold.Protein.ActiveResidues>
 VAL166  LYS551  ARG553  GLY616  TRP617  ASP618  TYR619  PRO620  LYS621  CYS622 
 ASP623  PHE694  ASN695  SER759  ASP760  ASP761  ALA762  ILE779  LEU786  VAL792 
 PHE793  MET794  SER795  GLU796  ALA797  LYS798  CYS799  TRP800  GLU811  SER814 

> <Gold.Protein.RotatedAtoms>
  152.5447  134.1126  159.8364 H   0  0  0  0  0  0  0  0  0  0  0  0  # atno 6907 bound_to 6896
  151.1191  133.5110  159.2610 H   0  0  0  0  0  0  0  0  0  0  0  0  # atno 6908 bound_to 6896
  151.1799  135.0366  159.8842 H   0  0  0  0  0  0  0  0  0  0  0  0  # atno 6909 bound_to 6896
  144.7213  140.2444  143.6287 H   0  0  0  0  0  0  0  0  0  0  0  0  # atno 7974 bound_to 7965
  155.0413  140.3169  155.4723 H   0  0  0  0  0  0  0  0  0  0  0  0  # atno 8008 bound_to 7997
  156.2854  140.2162  156.5480 H   0  0  0  0  0  0  0  0  0  0  0  0  # atno 8009 bound_to 7997
  154.7287  140.0483  157.0694 H   0  0  0  0  0  0  0  0  0  0  0  0  # atno 8010 bound_to 7997
  140.6958  143.6325  150.8510 H   0  0  0  0  0  0  0  0  0  0  0  0  # atno 10167 bound_to 10162
  157.4990  131.1093  150.9454 H   0  0  0  0  0  0  0  0  0  0  0  0  # atno 10718 bound_to 10713
  153.7348  135.3233  155.3293 H   0  0  0  0  0  0  0  0  0  0  0  0  # atno 10763 bound_to 10752
  154.8314  135.4530  154.1086 H   0  0  0  0  0  0  0  0  0  0  0  0  # atno 10764 bound_to 10752
  153.2243  135.6952  153.8044 H   0  0  0  0  0  0  0  0  0  0  0  0  # atno 10765 bound_to 10752
  139.8899  134.9503  156.6399 H   0  0  0  0  0  0  0  0  0  0  0  0  # atno 11005 bound_to 11000
  145.8289  139.2077  143.1894 LP  0  0  0  0  0  0  0  0  0  0  0  0  # atno 17320 bound_to 7965
  146.0449  140.8128  142.9810 LP  0  0  0  0  0  0  0  0  0  0  0  0  # atno 17321 bound_to 7965
  140.0042  143.5711  152.2864 LP  0  0  0  0  0  0  0  0  0  0  0  0  # atno 17342 bound_to 10162
  139.6412  144.7655  151.2336 LP  0  0  0  0  0  0  0  0  0  0  0  0  # atno 17343 bound_to 10162
  157.0131  130.5644  149.5323 LP  0  0  0  0  0  0  0  0  0  0  0  0  # atno 17370 bound_to 10713
  156.0217  130.5312  150.8295 LP  0  0  0  0  0  0  0  0  0  0  0  0  # atno 17371 bound_to 10713
  140.7602  133.8824  155.8412 LP  0  0  0  0  0  0  0  0  0  0  0  0  # atno 17394 bound_to 11000
  140.9928  134.1255  157.4392 LP  0  0  0  0  0  0  0  0  0  0  0  0  # atno 17395 bound_to 11000

$$$$
