AV-unprocessed.smi:72|AV-procd|sdf|743|dock2
  -GOLD-   2262017 73D 1   1.00000     0.00000
 Structure written by MMmdl.
 29 30  0  0  0  0  0  0  0  0  1 V2000
  150.4293  134.3657  155.8809 N   0  0  0  0  0  0  0  0  0  0  0  0
  150.5105  135.7018  155.5489 C   0  0  0  0  0  0  0  0  0  0  0  0
  149.2941  136.3672  155.3423 N   0  0  0  0  0  0  0  0  0  0  0  0
  149.3655  137.6258  155.0450 C   0  0  0  0  0  0  0  0  0  0  0  0
  150.6442  138.3052  154.9412 N   0  0  0  0  0  0  0  0  0  0  0  0
  150.7217  139.7744  154.5918 C   0  0  2  0  0  0  0  0  0  0  0  0
  151.3442  140.4552  155.6414 O   0  0  0  0  0  0  0  0  0  0  0  0
  150.6231  141.6454  155.9416 C   0  0  2  0  0  0  0  0  0  0  0  0
  150.8666  142.0396  157.4060 C   0  0  0  0  0  0  0  0  0  0  0  0
  150.1188  143.1930  157.7256 O   0  0  0  0  0  0  0  0  0  0  0  0
  149.1780  141.2385  155.6482 C   0  0  1  0  0  0  0  0  0  0  0  0
  148.3153  142.3458  155.4657 O   0  0  0  0  0  0  0  0  0  0  0  0
  149.3151  140.3651  154.4045 C   0  0  1  0  0  0  0  0  0  0  0  0
  149.2377  141.1105  153.2034 O   0  0  0  0  0  0  0  0  0  0  0  0
  151.8410  137.5622  155.1334 C   0  0  0  0  0  0  0  0  0  0  0  0
  152.9382  138.1053  155.0057 O   0  0  0  0  0  0  0  0  0  0  0  0
  151.7075  136.2071  155.4604 N   0  0  0  0  0  0  0  0  0  0  0  0
  151.3555  139.8578  153.7078 H   0  0  0  0  0  0  0  0  0  0  0  0
  150.9296  142.4387  155.2567 H   0  0  0  0  0  0  0  0  0  0  0  0
  148.7978  140.6290  156.4691 H   0  0  0  0  0  0  0  0  0  0  0  0
  148.5565  139.5814  154.3754 H   0  0  0  0  0  0  0  0  0  0  0  0
  151.2383  133.7864  156.0516 H   0  0  0  0  0  0  0  0  0  0  0  0
  149.5567  133.8654  155.9702 H   0  0  0  0  0  0  0  0  0  0  0  0
  148.4883  138.2456  154.8538 H   0  0  0  0  0  0  0  0  0  0  0  0
  150.5364  141.2407  158.0705 H   0  0  0  0  0  0  0  0  0  0  0  0
  151.9263  142.2073  157.6012 H   0  0  0  0  0  0  0  0  0  0  0  0
  149.9345  143.6606  156.9251 H   0  0  0  0  0  0  0  0  0  0  0  0
  148.8251  143.1381  155.5379 H   0  0  0  0  0  0  0  0  0  0  0  0
  149.0159  140.5222  152.4980 H   0  0  0  0  0  0  0  0  0  0  0  0
  1  2  1  0  0  0  0
  1 22  1  0  0  0  0
  1 23  1  0  0  0  0
  2 17  2  0  0  0  0
  2  3  1  0  0  0  0
  3  4  2  0  0  0  0
  4  5  1  0  0  0  0
  4 24  1  0  0  0  0
  5  6  1  0  0  0  0
  5 15  1  0  0  0  0
  6 18  1  0  0  0  0
  6 13  1  0  0  0  0
  6  7  1  0  0  0  0
  7  8  1  0  0  0  0
  8 19  1  0  0  0  0
  8  9  1  0  0  0  0
  8 11  1  0  0  0  0
  9 10  1  0  0  0  0
  9 25  1  0  0  0  0
  9 26  1  0  0  0  0
 10 27  1  0  0  0  0
 11 20  1  0  0  0  0
 11 12  1  0  0  0  0
 11 13  1  0  0  0  0
 12 28  1  0  0  0  0
 13 21  1  0  0  0  0
 13 14  1  0  0  0  0
 14 29  1  0  0  0  0
 15 16  2  0  0  0  0
 15 17  1  0  0  0  0
M  END
> <s_m_source_file>
AV-unprocessed.smi

> <i_m_source_file_index>
72

> <i_lp_mmshare_version>
43012

> <i_f3d_flags>
0

> <s_epik_input>
W05IMl1jMW5bY0hdbihjKD1PKW4xKVtDQEBIXTJPW0NASF0oW0NIMl1bT0hdKVtDQEBIXShbT0hdKVtDQEhdMltPSF0=

> <s_epik_cmdline>
J2VwaWtfcHl0aG9uJywgJy1waCcsICc3LjAnLCAnLXRuJywgJzgnLCAnLW1hJywgJzIwMCcsICctbWV0YWxfYmluZGluZycsICctaW1hZScsICc8aW5maWxlLm1hZT4nLCAnLW9tYWUnLCAnPG91dGZpbGUubWFlPic=

> <r_lp_tautomer_probability>
4.77166e-05

> <r_epik_Ionization_Penalty>
1.3546

> <r_epik_Ionization_Penalty_Charging>
1.46833e-10

> <r_epik_Ionization_Penalty_Neutral>
1.3546

> <r_epik_State_Penalty>
3.51908

> <r_epik_Charging_Adjusted_Penalty>
3.51908

> <i_epik_Tot_Q>
0

> <i_epik_Tot_abs_Q>
0

> <r_epik_Metal_State_Penalty>
3.44088

> <b_epik_Metal_Only>
1

> <s_epik_Chemistry_Notes>
This compound contains an acetal/aminal-like group ( X-CH(R)-Y where X, Y are N, S, or O) that may be acid/base labile, releasing an aldehyde.

> <s_lp_Force_Field>
OPLS_2005

> <r_lp_Energy>
30.18

> <b_lp_Chiralities_Consistent>
1

> <s_lp_Variant>
AV-unprocessed.smi:72-81

> <Gold.Version>
5.8.1

> <Gold.Id.Protein>
6NUR|6NUR_protein|mol2

> <Gold.PLP.Fitness>
41.9380

> <Gold.PLP.PLP>
-27.6854

> <Gold.PLP.part.hbond>
-6.8641

> <Gold.PLP.part.metal>
0.0000

> <Gold.PLP.part.buried>
-2.8973

> <Gold.PLP.part.nonpolar>
-18.3943

> <Gold.PLP.part.repulsive>
0.3436

> <Gold.PLP.ligand.clash>
0.0000

> <Gold.PLP.ligand.torsion>
0.0091

> <Gold.PLP.Chemscore.Hbond>
4.7520

> <Gold.PLP.Chemscore.CHOScore>
0.0000

> <Gold.PLP.Chemscore.Metal>
0.0000

> <Gold.Chemscore.Hbonds>
donor molecule, donor type, donor heavy atom, donor atom, acceptor molecule, acceptor atom, score
      L1  H    10    27       P1  8028  1.00
      L1  H    12    28       P1  8028  0.98
      L1  H    14    29       P1  7957  0.77
      P1  H  8011  8017       L1    14  1.00
      P1  H 10752 10764       L1    17  1.00

> <Gold.PLP.Chemscore.Internal.Correction>
0.0148

> <Gold.Rescore>
     Score         DG    S(hbond)    S(metal)    S(lipo)     H(rot)  DE(clash)    DE(int)     intcor
      9.58     -11.00       3.82        0.00      27.01       4.06       0.99       0.44       ----

> <Gold.Chemscore.Fitness>
9.5802

> <Gold.Chemscore.DG>
-11.0018

> <Gold.Chemscore.ZeroCoef>
-5.4800

> <Gold.Chemscore.Hbond>
3.8189

> <Gold.Chemscore.Metal>
0.0000

> <Gold.Chemscore.Lipo>
27.0124

> <Gold.Chemscore.Internal_Hbond>
0.0000

> <Gold.Chemscore.DEClash>
0.9858

> <Gold.Chemscore.DEInternal>
0.4358

> <Gold.Chemscore.Rot>
4.0600

> <Gold.Chemscore.Internal.Correction>
   9.000000E+99

> <Gold.Chemscore.Hbonds>
donor molecule, donor type, donor heavy atom, donor atom, acceptor molecule, acceptor atom, score
      L1  H    10    27       P1  8028  0.97
      L1  H    12    28       P1  8028  0.91
      L1  H    14    29       P1  7957  0.73
      P1  H  8011  8017       L1    14  0.25
      P1  H 10752 10764       L1    17  0.30

> <Gold.Chemscore.Hbond.Weighted>
-12.7550

> <Gold.Chemscore.Metal.Weighted>
-0.0000

> <Gold.Chemscore.Lipo.Weighted>
-3.1604

> <Gold.Chemscore.Internal_Hbond.Weighted>
0.0000

> <Gold.Chemscore.DEClash.Weighted>
0.9858

> <Gold.Chemscore.DEInternal.Weighted>
0.4358

> <Gold.Chemscore.Rot.Weighted>
10.3936

> <Gold.Chemscore.Internal.Correction.Weighted>
   9.000000E+99

> <Gold.Protein.RotatedTorsions>
[ 6907 6896 6895 6894 ] final  -58.43 input  -60.11 | X-H torsion
[ 7974 7965 7964 7962 ] final   95.60 input  175.53 | X-H torsion
[ 8008 7997 7996 7995 ] final   50.26 input   59.86 | X-H torsion
[ 10167 10162 10161 10158 ] final  -61.74 input  -65.29 | X-H torsion
[ 10718 10713 10712 10709 ] final  132.70 input   66.30 | X-H torsion
[ 10763 10752 10751 10750 ] final  -56.15 input  -60.55 | X-H torsion
[ 11005 11000 10999 10996 ] final  -64.13 input  -57.11 | X-H torsion

> <Gold.Protein.ActiveResidues>
 VAL166  LYS551  ARG553  GLY616  TRP617  ASP618  TYR619  PRO620  LYS621  CYS622 
 ASP623  PHE694  ASN695  SER759  ASP760  ASP761  ALA762  ILE779  LEU786  VAL792 
 PHE793  MET794  SER795  GLU796  ALA797  LYS798  CYS799  TRP800  GLU811  SER814 

> <Gold.Protein.RotatedAtoms>
  150.8007  134.7099  159.6597 H   0  0  0  0  0  0  0  0  0  0  0  0  # atno 6907 bound_to 6896
  152.4124  134.6098  160.0032 H   0  0  0  0  0  0  0  0  0  0  0  0  # atno 6908 bound_to 6896
  151.6337  133.3293  159.3150 H   0  0  0  0  0  0  0  0  0  0  0  0  # atno 6909 bound_to 6896
  145.4500  139.2294  143.3045 H   0  0  0  0  0  0  0  0  0  0  0  0  # atno 7974 bound_to 7965
  155.4158  140.3444  155.4267 H   0  0  0  0  0  0  0  0  0  0  0  0  # atno 8008 bound_to 7997
  156.1422  140.1545  156.8934 H   0  0  0  0  0  0  0  0  0  0  0  0  # atno 8009 bound_to 7997
  154.4980  140.0822  156.7719 H   0  0  0  0  0  0  0  0  0  0  0  0  # atno 8010 bound_to 7997
  140.5986  143.2356  151.5980 H   0  0  0  0  0  0  0  0  0  0  0  0  # atno 10167 bound_to 10162
  157.4846  131.1087  150.9637 H   0  0  0  0  0  0  0  0  0  0  0  0  # atno 10718 bound_to 10713
  154.2021  135.6409  153.5090 H   0  0  0  0  0  0  0  0  0  0  0  0  # atno 10763 bound_to 10752
  153.0009  135.5454  154.6304 H   0  0  0  0  0  0  0  0  0  0  0  0  # atno 10764 bound_to 10752
  154.5720  135.2917  155.0791 H   0  0  0  0  0  0  0  0  0  0  0  0  # atno 10765 bound_to 10752
  141.1415  133.6661  156.5785 H   0  0  0  0  0  0  0  0  0  0  0  0  # atno 11005 bound_to 11000
  146.2509  140.5258  142.8894 LP  0  0  0  0  0  0  0  0  0  0  0  0  # atno 17320 bound_to 7965
  144.8067  140.6313  143.6442 LP  0  0  0  0  0  0  0  0  0  0  0  0  # atno 17321 bound_to 7965
  139.5275  144.3015  152.1070 LP  0  0  0  0  0  0  0  0  0  0  0  0  # atno 17342 bound_to 10162
  140.2191  144.4484  150.6350 LP  0  0  0  0  0  0  0  0  0  0  0  0  # atno 17343 bound_to 10162
  157.0359  130.5730  149.5349 LP  0  0  0  0  0  0  0  0  0  0  0  0  # atno 17370 bound_to 10713
  156.0140  130.5233  150.8076 LP  0  0  0  0  0  0  0  0  0  0  0  0  # atno 17371 bound_to 10713
  140.3856  134.7485  157.4689 LP  0  0  0  0  0  0  0  0  0  0  0  0  # atno 17394 bound_to 11000
  140.0604  134.6003  155.8755 LP  0  0  0  0  0  0  0  0  0  0  0  0  # atno 17395 bound_to 11000

$$$$
