AV-unprocessed.smi:1965|AV-procd|sdf|7943|dock1
  -GOLD-   2272010113D 1   1.00000     0.00000
 Structure written by MMmdl.
 36 38  0  0  0  0  0  0  0  0  3 V2000
  142.2878  137.2780  153.4123 O   0  0  0  0  0  0  0  0  0  0  0  0
  141.8019  136.2300  153.8353 C   0  0  0  0  0  0  0  0  0  0  0  0
  140.5030  136.1017  154.2121 N   0  5  0  0  0  0  0  0  0  0  0  0
  139.6017  137.0875  154.0454 C   0  0  0  0  0  0  0  0  0  0  0  0
  139.8387  138.1784  153.3078 N   0  0  0  0  0  0  0  0  0  0  0  0
  138.7682  139.0740  153.2808 C   0  0  0  0  0  0  0  0  0  0  0  0
  137.6906  138.6551  154.0150 C   0  0  0  0  0  0  0  0  0  0  0  0
  137.9874  137.1108  154.7611 S   0  0  0  0  0  0  0  0  0  0  0  0
  142.5884  135.1433  153.9380 N   0  0  0  0  0  0  0  0  0  0  0  0
  143.9997  135.0535  153.5805 C   0  0  1  0  0  0  0  0  0  0  0  0
  144.9110  134.6448  154.7583 C   0  0  0  0  0  0  0  0  0  0  0  0
  145.8239  133.5517  154.1934 C   0  0  0  0  0  0  0  0  0  0  0  0
  144.9865  132.9119  153.1715 N   0  3  2  0  0  0  0  0  0  0  0  0
  145.6287  131.9735  152.2280 C   0  0  0  0  0  0  0  0  0  0  0  0
  144.5333  131.3205  151.3578 C   0  0  0  0  0  0  0  0  0  0  0  0
  143.6197  132.3690  150.6839 C   0  0  0  0  0  0  0  0  0  0  0  0
  143.0737  133.3867  151.7071 C   0  0  0  0  0  0  0  0  0  0  0  0
  144.2539  133.9921  152.4900 C   0  0  1  0  0  0  0  0  0  0  0  0
  138.8604  139.9870  152.7117 H   0  0  0  0  0  0  0  0  0  0  0  0
  136.7440  139.1543  154.1576 H   0  0  0  0  0  0  0  0  0  0  0  0
  142.1573  134.3015  154.2913 H   0  0  0  0  0  0  0  0  0  0  0  0
  144.3147  136.0241  153.1926 H   0  0  0  0  0  0  0  0  0  0  0  0
  145.4737  135.4867  155.1624 H   0  0  0  0  0  0  0  0  0  0  0  0
  144.3148  134.2298  155.5727 H   0  0  0  0  0  0  0  0  0  0  0  0
  146.7051  133.9929  153.7248 H   0  0  0  0  0  0  0  0  0  0  0  0
  146.1531  132.8436  154.9545 H   0  0  0  0  0  0  0  0  0  0  0  0
  146.3536  132.5028  151.6077 H   0  0  0  0  0  0  0  0  0  0  0  0
  146.1733  131.2093  152.7835 H   0  0  0  0  0  0  0  0  0  0  0  0
  144.9885  130.6804  150.6015 H   0  0  0  0  0  0  0  0  0  0  0  0
  143.9225  130.6682  151.9834 H   0  0  0  0  0  0  0  0  0  0  0  0
  144.1853  132.8980  149.9158 H   0  0  0  0  0  0  0  0  0  0  0  0
  142.7946  131.8738  150.1714 H   0  0  0  0  0  0  0  0  0  0  0  0
  142.5131  134.1697  151.1951 H   0  0  0  0  0  0  0  0  0  0  0  0
  142.3778  132.8906  152.3855 H   0  0  0  0  0  0  0  0  0  0  0  0
  144.9382  134.4470  151.7702 H   0  0  0  0  0  0  0  0  0  0  0  0
  144.2928  132.3838  153.6817 H   0  0  0  0  0  0  0  0  0  0  0  0
  1  2  2  0  0  0  0
  2  3  1  0  0  0  0
  2  9  1  0  0  0  0
  3  4  1  0  0  0  0
  4  8  1  0  0  0  0
  4  5  2  0  0  0  0
  5  6  1  0  0  0  0
  6  7  2  0  0  0  0
  6 19  1  0  0  0  0
  7  8  1  0  0  0  0
  7 20  1  0  0  0  0
  9 10  1  0  0  0  0
  9 21  1  0  0  0  0
 10 18  1  0  0  0  0
 10 11  1  0  0  0  0
 10 22  1  0  0  0  0
 11 12  1  0  0  0  0
 11 23  1  0  0  0  0
 11 24  1  0  0  0  0
 12 13  1  0  0  0  0
 12 25  1  0  0  0  0
 12 26  1  0  0  0  0
 13 18  1  0  0  0  0
 13 14  1  0  0  0  0
 13 36  1  0  0  0  0
 14 15  1  0  0  0  0
 14 27  1  0  0  0  0
 14 28  1  0  0  0  0
 15 16  1  0  0  0  0
 15 29  1  0  0  0  0
 15 30  1  0  0  0  0
 16 17  1  0  0  0  0
 16 31  1  0  0  0  0
 16 32  1  0  0  0  0
 17 18  1  0  0  0  0
 17 33  1  0  0  0  0
 17 34  1  0  0  0  0
 18 35  1  0  0  0  0
M  CHG  1   3  -1
M  CHG  1  13   1
M  END
> <s_m_source_file>
AV-unprocessed.smi

> <i_m_source_file_index>
1965

> <i_lp_mmshare_version>
43012

> <i_f3d_flags>
0

> <s_epik_input>
czFbY0hdW2NIXW5jMVtOSF1DKD1PKVtOSF1bQ0BIXShbQ0gyXVtDSDJdMilbQ0BASF0oTjIzKVtDSDJdW0NIMl1bQ0gyXVtDSDJdMw==

> <s_epik_cmdline>
J2VwaWtfcHl0aG9uJywgJy1waCcsICc3LjAnLCAnLXRuJywgJzgnLCAnLW1hJywgJzIwMCcsICctbWV0YWxfYmluZGluZycsICctaW1hZScsICc8aW5maWxlLm1hZT4nLCAnLW9tYWUnLCAnPG91dGZpbGUubWFlPic=

> <r_lp_tautomer_probability>
1

> <r_epik_Ionization_Penalty>
7.4116

> <r_epik_Ionization_Penalty_Charging>
6.13869

> <r_epik_Ionization_Penalty_Neutral>
1.27291

> <r_epik_State_Penalty>
6.13761

> <r_epik_Charging_Adjusted_Penalty>
12.2763

> <i_epik_Tot_Q>
0

> <i_epik_Tot_abs_Q>
2

> <r_epik_Metal_State_Penalty>
2.08142

> <b_epik_Metal_Only>
1

> <s_lp_Force_Field>
OPLS_2005

> <r_lp_Energy>
32.5812

> <b_lp_Chiralities_Consistent>
1

> <s_lp_Variant>
AV-unprocessed.smi:1965-12

> <Gold.Version>
5.8.1

> <Gold.Id.Protein>
6NUR|6NUR_protein|mol2

> <Gold.PLP.Fitness>
36.9105

> <Gold.PLP.PLP>
-28.1770

> <Gold.PLP.part.hbond>
-1.6191

> <Gold.PLP.part.metal>
0.0000

> <Gold.PLP.part.buried>
-5.7323

> <Gold.PLP.part.nonpolar>
-22.2652

> <Gold.PLP.part.repulsive>
0.4337

> <Gold.PLP.ligand.clash>
0.0000

> <Gold.PLP.ligand.torsion>
0.0373

> <Gold.PLP.Chemscore.Hbond>
1.9500

> <Gold.PLP.Chemscore.CHOScore>
0.9838

> <Gold.PLP.Chemscore.Metal>
0.0000

> <Gold.Chemscore.Hbonds>
donor molecule, donor type, donor heavy atom, donor atom, acceptor molecule, acceptor atom, score
      L1  H    13    36       P1 10957  1.95
      L1  C     6    19       P1 10160  0.98

> <Gold.PLP.Chemscore.Internal.Correction>
0.0067

> <Gold.Rescore>
     Score         DG    S(hbond)    S(metal)    S(lipo)     H(rot)  DE(clash)    DE(int)     intcor
     11.26     -13.10       0.98        0.00      59.04       1.00       0.15       1.69       ----

> <Gold.Chemscore.Fitness>
11.2570

> <Gold.Chemscore.DG>
-13.0973

> <Gold.Chemscore.ZeroCoef>
-5.4800

> <Gold.Chemscore.Hbond>
0.9789

> <Gold.Chemscore.Metal>
0.0000

> <Gold.Chemscore.Lipo>
59.0405

> <Gold.Chemscore.Internal_Hbond>
0.0000

> <Gold.Chemscore.DEClash>
0.1514

> <Gold.Chemscore.DEInternal>
1.6889

> <Gold.Chemscore.Rot>
1.0000

> <Gold.Chemscore.Internal.Correction>
   9.000000E+99

> <Gold.Chemscore.Hbonds>
donor molecule, donor type, donor heavy atom, donor atom, acceptor molecule, acceptor atom, score
      L1  H    13    36       P1 10957  0.23

> <Gold.Chemscore.Hbond.Weighted>
-3.2696

> <Gold.Chemscore.Metal.Weighted>
-0.0000

> <Gold.Chemscore.Lipo.Weighted>
-6.9077

> <Gold.Chemscore.Internal_Hbond.Weighted>
0.0000

> <Gold.Chemscore.DEClash.Weighted>
0.1514

> <Gold.Chemscore.DEInternal.Weighted>
1.6889

> <Gold.Chemscore.Rot.Weighted>
2.5600

> <Gold.Chemscore.Internal.Correction.Weighted>
   9.000000E+99

> <Gold.Protein.RotatedTorsions>
[ 6907 6896 6895 6894 ] final  -56.32 input  -60.11 | X-H torsion
[ 7974 7965 7964 7962 ] final  -46.93 input  175.53 | X-H torsion
[ 8008 7997 7996 7995 ] final -139.79 input   59.86 | X-H torsion
[ 10167 10162 10161 10158 ] final   78.25 input  -65.29 | X-H torsion
[ 10718 10713 10712 10709 ] final -132.78 input   66.30 | X-H torsion
[ 10763 10752 10751 10750 ] final  -51.48 input  -60.55 | X-H torsion
[ 11005 11000 10999 10996 ] final -106.48 input  -57.11 | X-H torsion

> <Gold.Protein.ActiveResidues>
 VAL166  LYS551  ARG553  GLY616  TRP617  ASP618  TYR619  PRO620  LYS621  CYS622 
 ASP623  PHE694  ASN695  SER759  ASP760  ASP761  ALA762  ILE779  LEU786  VAL792 
 PHE793  MET794  SER795  GLU796  ALA797  LYS798  CYS799  TRP800  GLU811  SER814 

> <Gold.Protein.RotatedAtoms>
  150.8177  134.7368  159.6744 H   0  0  0  0  0  0  0  0  0  0  0  0  # atno 6907 bound_to 6896
  152.4295  134.5802  159.9955 H   0  0  0  0  0  0  0  0  0  0  0  0  # atno 6908 bound_to 6896
  151.5994  133.3320  159.3080 H   0  0  0  0  0  0  0  0  0  0  0  0  # atno 6909 bound_to 6896
  145.9668  140.7424  142.9430 H   0  0  0  0  0  0  0  0  0  0  0  0  # atno 7974 bound_to 7965
  155.4507  140.0538  157.3001 H   0  0  0  0  0  0  0  0  0  0  0  0  # atno 8008 bound_to 7997
  154.4778  140.2068  155.9791 H   0  0  0  0  0  0  0  0  0  0  0  0  # atno 8009 bound_to 7997
  156.1160  140.3196  155.8144 H   0  0  0  0  0  0  0  0  0  0  0  0  # atno 8010 bound_to 7997
  139.9729  144.5881  150.7969 H   0  0  0  0  0  0  0  0  0  0  0  0  # atno 10167 bound_to 10162
  156.2381  130.7079  151.0929 H   0  0  0  0  0  0  0  0  0  0  0  0  # atno 10718 bound_to 10713
  154.1272  135.6525  153.4914 H   0  0  0  0  0  0  0  0  0  0  0  0  # atno 10763 bound_to 10752
  153.0206  135.5284  154.7037 H   0  0  0  0  0  0  0  0  0  0  0  0  # atno 10764 bound_to 10752
  154.6262  135.2970  155.0240 H   0  0  0  0  0  0  0  0  0  0  0  0  # atno 10765 bound_to 10752
  141.1002  133.8898  157.1861 H   0  0  0  0  0  0  0  0  0  0  0  0  # atno 11005 bound_to 11000
  144.6827  140.2682  143.7309 LP  0  0  0  0  0  0  0  0  0  0  0  0  # atno 17320 bound_to 7965
  145.7962  139.1946  143.2074 LP  0  0  0  0  0  0  0  0  0  0  0  0  # atno 17321 bound_to 7965
  140.7516  143.2975  151.3167 LP  0  0  0  0  0  0  0  0  0  0  0  0  # atno 17342 bound_to 10162
  139.6467  144.0437  152.2596 LP  0  0  0  0  0  0  0  0  0  0  0  0  # atno 17343 bound_to 10162
  157.7163  131.0707  150.6312 LP  0  0  0  0  0  0  0  0  0  0  0  0  # atno 17370 bound_to 10713
  156.6384  130.4451  149.5761 LP  0  0  0  0  0  0  0  0  0  0  0  0  # atno 17371 bound_to 10713
  139.9851  135.0085  156.9843 LP  0  0  0  0  0  0  0  0  0  0  0  0  # atno 17394 bound_to 11000
  140.5041  134.1068  155.7256 LP  0  0  0  0  0  0  0  0  0  0  0  0  # atno 17395 bound_to 11000

$$$$
