AV-unprocessed.smi:1489|AV-procd|sdf|6026|dock3
  -GOLD-   22720 6123D 1   1.00000     0.00000
 Structure written by MMmdl.
 46 48  0  0  0  0  0  0  0  0  1 V2000
  148.8170  135.3454  156.1560 O   0  0  0  0  0  0  0  0  0  0  0  0
  148.9089  135.6673  154.9721 C   0  0  0  0  0  0  0  0  0  0  0  0
  149.4101  136.8260  154.5097 N   0  0  0  0  0  0  0  0  0  0  0  0
  149.9318  137.9393  155.2255 C   0  0  0  0  0  0  0  0  0  0  0  0
  150.2014  137.9615  156.6146 C   0  0  0  0  0  0  0  0  0  0  0  0
  150.7124  139.1395  157.1923 C   0  0  0  0  0  0  0  0  0  0  0  0
  150.9380  140.2705  156.3729 C   0  0  0  0  0  0  0  0  0  0  0  0
  151.4525  141.4665  156.9121 N   0  0  0  0  0  0  0  0  0  0  0  0
  150.9723  142.7705  156.4812 C   0  0  0  0  0  0  0  0  0  0  0  0
  151.6740  143.7650  157.4045 C   0  0  0  0  0  0  0  0  0  0  0  0
  151.8124  142.9853  158.7120 C   0  0  0  0  0  0  0  0  0  0  0  0
  151.9916  141.5302  158.2637 C   0  0  0  0  0  0  0  0  0  0  0  0
  150.6828  140.2464  155.0436 N   0  0  0  0  0  0  0  0  0  0  0  0
  150.1929  139.1157  154.4948 C   0  0  0  0  0  0  0  0  0  0  0  0
  148.5125  134.8799  153.9618 N   0  0  0  0  0  0  0  0  0  0  0  0
  147.9228  133.5521  154.1062 C   0  0  2  0  0  0  0  0  0  0  0  0
  148.7780  132.5228  153.3451 C   0  0  0  0  0  0  0  0  0  0  0  0
  148.1693  131.1116  153.4259 C   0  0  0  0  0  0  0  0  0  0  0  0
  146.7062  131.0792  152.9459 C   0  0  2  0  0  0  0  0  0  0  0  0
  146.6509  131.2816  151.5476 O   0  0  0  0  0  0  0  0  0  0  0  0
  145.8502  132.1373  153.6674 C   0  0  0  0  0  0  0  0  0  0  0  0
  146.4701  133.5436  153.5888 C   0  0  0  0  0  0  0  0  0  0  0  0
  149.4302  136.9211  153.5049 H   0  0  0  0  0  0  0  0  0  0  0  0
  150.0296  137.1119  157.2551 H   0  0  0  0  0  0  0  0  0  0  0  0
  150.9281  139.1560  158.2501 H   0  0  0  0  0  0  0  0  0  0  0  0
  151.2046  142.9603  155.4329 H   0  0  0  0  0  0  0  0  0  0  0  0
  149.8905  142.8217  156.6113 H   0  0  0  0  0  0  0  0  0  0  0  0
  152.6633  144.0013  157.0104 H   0  0  0  0  0  0  0  0  0  0  0  0
  151.1235  144.6991  157.5191 H   0  0  0  0  0  0  0  0  0  0  0  0
  152.6340  143.3404  159.3345 H   0  0  0  0  0  0  0  0  0  0  0  0
  150.8911  143.0780  159.2886 H   0  0  0  0  0  0  0  0  0  0  0  0
  151.4824  140.8481  158.9453 H   0  0  0  0  0  0  0  0  0  0  0  0
  153.0481  141.2618  158.2342 H   0  0  0  0  0  0  0  0  0  0  0  0
  150.0041  139.1536  153.4319 H   0  0  0  0  0  0  0  0  0  0  0  0
  148.6267  135.2237  153.0195 H   0  0  0  0  0  0  0  0  0  0  0  0
  147.9229  133.2761  155.1627 H   0  0  0  0  0  0  0  0  0  0  0  0
  148.8712  132.8190  152.2992 H   0  0  0  0  0  0  0  0  0  0  0  0
  149.7905  132.5062  153.7506 H   0  0  0  0  0  0  0  0  0  0  0  0
  148.7722  130.4091  152.8490 H   0  0  0  0  0  0  0  0  0  0  0  0
  148.2111  130.7684  154.4602 H   0  0  0  0  0  0  0  0  0  0  0  0
  146.2894  130.0904  153.1404 H   0  0  0  0  0  0  0  0  0  0  0  0
  147.4995  131.0837  151.1815 H   0  0  0  0  0  0  0  0  0  0  0  0
  144.8390  132.1500  153.2587 H   0  0  0  0  0  0  0  0  0  0  0  0
  145.7490  131.8561  154.7163 H   0  0  0  0  0  0  0  0  0  0  0  0
  145.8610  134.2403  154.1661 H   0  0  0  0  0  0  0  0  0  0  0  0
  146.4434  133.8966  152.5568 H   0  0  0  0  0  0  0  0  0  0  0  0
  1  2  2  0  0  0  0
  2  3  1  0  0  0  0
  2 15  1  0  0  0  0
  3  4  1  0  0  0  0
  3 23  1  0  0  0  0
  4 14  1  0  0  0  0
  4  5  2  0  0  0  0
  5  6  1  0  0  0  0
  5 24  1  0  0  0  0
  6  7  2  0  0  0  0
  6 25  1  0  0  0  0
  7  8  1  0  0  0  0
  7 13  1  0  0  0  0
  8 12  1  0  0  0  0
  8  9  1  0  0  0  0
  9 10  1  0  0  0  0
  9 26  1  0  0  0  0
  9 27  1  0  0  0  0
 10 11  1  0  0  0  0
 10 28  1  0  0  0  0
 10 29  1  0  0  0  0
 11 12  1  0  0  0  0
 11 30  1  0  0  0  0
 11 31  1  0  0  0  0
 12 32  1  0  0  0  0
 12 33  1  0  0  0  0
 13 14  2  0  0  0  0
 14 34  1  0  0  0  0
 15 16  1  0  0  0  0
 15 35  1  0  0  0  0
 16 22  1  0  0  0  0
 16 17  1  0  0  0  0
 16 36  1  0  0  0  0
 17 18  1  0  0  0  0
 17 37  1  0  0  0  0
 17 38  1  0  0  0  0
 18 19  1  0  0  0  0
 18 39  1  0  0  0  0
 18 40  1  0  0  0  0
 19 20  1  0  0  0  0
 19 21  1  0  0  0  0
 19 41  1  0  0  0  0
 20 42  1  0  0  0  0
 21 22  1  0  0  0  0
 21 43  1  0  0  0  0
 21 44  1  0  0  0  0
 22 45  1  0  0  0  0
 22 46  1  0  0  0  0
M  END
> <s_m_source_file>
AV-unprocessed.smi

> <i_m_source_file_index>
1489

> <i_lp_mmshare_version>
43012

> <i_f3d_flags>
0

> <s_epik_input>
W0NIMl0xW0NIMl1bQ0BIXShbT0hdKVtDSDJdW0NIMl1bQ0BIXTFbTkhdQyg9TylbTkhdYzJbY0hdW2NIXWMobltjSF0yKU4zW0NIMl1bQ0gyXVtDSDJdW0NIMl0z

> <s_epik_cmdline>
J2VwaWtfcHl0aG9uJywgJy1waCcsICc3LjAnLCAnLXRuJywgJzgnLCAnLW1hJywgJzIwMCcsICctbWV0YWxfYmluZGluZycsICctaW1hZScsICc8aW5maWxlLm1hZT4nLCAnLW9tYWUnLCAnPG91dGZpbGUubWFlPic=

> <r_lp_tautomer_probability>
1

> <r_epik_Ionization_Penalty>
0.104121

> <r_epik_Ionization_Penalty_Charging>
0

> <r_epik_Ionization_Penalty_Neutral>
0.104121

> <r_epik_State_Penalty>
0.0934704

> <r_epik_Charging_Adjusted_Penalty>
0.0934704

> <i_epik_Tot_Q>
0

> <i_epik_Tot_abs_Q>
0

> <r_epik_Metal_State_Penalty>
0.0794432

> <b_epik_Metal_Only>
0

> <s_lp_Force_Field>
OPLS_2005

> <r_lp_Energy>
35.391

> <b_lp_Chiralities_Consistent>
1

> <s_lp_Variant>
AV-unprocessed.smi:1489-2

> <Gold.Version>
5.8.1

> <Gold.Id.Protein>
6NUR|6NUR_protein|mol2

> <Gold.PLP.Fitness>
46.5604

> <Gold.PLP.PLP>
-32.5010

> <Gold.PLP.part.hbond>
-3.8671

> <Gold.PLP.part.metal>
0.0000

> <Gold.PLP.part.buried>
-3.3201

> <Gold.PLP.part.nonpolar>
-24.2876

> <Gold.PLP.part.repulsive>
0.0970

> <Gold.PLP.ligand.clash>
0.0000

> <Gold.PLP.ligand.torsion>
0.3649

> <Gold.PLP.Chemscore.Hbond>
3.9000

> <Gold.PLP.Chemscore.CHOScore>
0.9684

> <Gold.PLP.Chemscore.Metal>
0.0000

> <Gold.Chemscore.Hbonds>
donor molecule, donor type, donor heavy atom, donor atom, acceptor molecule, acceptor atom, score
      L1  H     3    23       P1  7948  0.98
      L1  H    15    35       P1  7948  1.00
      L1  H    20    42       P1 10747  1.00
      P1  H  7989  7998       L1    13  0.85
      L1  C    14    34       P1  7957  1.00

> <Gold.PLP.Chemscore.Internal.Correction>
0.1840

> <Gold.Rescore>
     Score         DG    S(hbond)    S(metal)    S(lipo)     H(rot)  DE(clash)    DE(int)     intcor
     20.35     -21.98       3.04        0.00      85.13       1.41       0.20       1.43       ----

> <Gold.Chemscore.Fitness>
20.3495

> <Gold.Chemscore.DG>
-21.9826

> <Gold.Chemscore.ZeroCoef>
-5.4800

> <Gold.Chemscore.Hbond>
3.0388

> <Gold.Chemscore.Metal>
0.0000

> <Gold.Chemscore.Lipo>
85.1346

> <Gold.Chemscore.Internal_Hbond>
0.0000

> <Gold.Chemscore.DEClash>
0.2001

> <Gold.Chemscore.DEInternal>
1.4330

> <Gold.Chemscore.Rot>
1.4093

> <Gold.Chemscore.Internal.Correction>
   9.000000E+99

> <Gold.Chemscore.Hbonds>
donor molecule, donor type, donor heavy atom, donor atom, acceptor molecule, acceptor atom, score
      L1  H     3    23       P1  7948  0.85
      L1  H    15    35       P1  7948  0.70
      L1  H    20    42       P1 10747  1.00
      P1  H  7989  7998       L1    13  0.14

> <Gold.Chemscore.Hbond.Weighted>
-10.1496

> <Gold.Chemscore.Metal.Weighted>
-0.0000

> <Gold.Chemscore.Lipo.Weighted>
-9.9608

> <Gold.Chemscore.Internal_Hbond.Weighted>
0.0000

> <Gold.Chemscore.DEClash.Weighted>
0.2001

> <Gold.Chemscore.DEInternal.Weighted>
1.4330

> <Gold.Chemscore.Rot.Weighted>
3.6077

> <Gold.Chemscore.Internal.Correction.Weighted>
   9.000000E+99

> <Gold.Protein.RotatedTorsions>
[ 6907 6896 6895 6894 ] final   40.57 input  -60.11 | X-H torsion
[ 7974 7965 7964 7962 ] final   35.85 input  175.53 | X-H torsion
[ 8008 7997 7996 7995 ] final -159.13 input   59.86 | X-H torsion
[ 10167 10162 10161 10158 ] final  -71.06 input  -65.29 | X-H torsion
[ 10718 10713 10712 10709 ] final   18.61 input   66.30 | X-H torsion
[ 10763 10752 10751 10750 ] final -144.83 input  -60.55 | X-H torsion
[ 11005 11000 10999 10996 ] final   35.67 input  -57.11 | X-H torsion

> <Gold.Protein.ActiveResidues>
 VAL166  LYS551  ARG553  GLY616  TRP617  ASP618  TYR619  PRO620  LYS621  CYS622 
 ASP623  PHE694  ASN695  SER759  ASP760  ASP761  ALA762  ILE779  LEU786  VAL792 
 PHE793  MET794  SER795  GLU796  ALA797  LYS798  CYS799  TRP800  GLU811  SER814 

> <Gold.Protein.RotatedAtoms>
  152.1841  134.8728  160.0523 H   0  0  0  0  0  0  0  0  0  0  0  0  # atno 6907 bound_to 6896
  151.9641  133.3700  159.4055 H   0  0  0  0  0  0  0  0  0  0  0  0  # atno 6908 bound_to 6896
  150.6923  134.4132  159.5215 H   0  0  0  0  0  0  0  0  0  0  0  0  # atno 6909 bound_to 6896
  146.1253  139.6091  142.9262 H   0  0  0  0  0  0  0  0  0  0  0  0  # atno 7974 bound_to 7965
  155.7579  140.0835  157.2169 H   0  0  0  0  0  0  0  0  0  0  0  0  # atno 8008 bound_to 7997
  154.4006  140.1548  156.2855 H   0  0  0  0  0  0  0  0  0  0  0  0  # atno 8009 bound_to 7997
  155.8868  140.3417  155.5930 H   0  0  0  0  0  0  0  0  0  0  0  0  # atno 8010 bound_to 7997
  140.5303  143.2322  151.7273 H   0  0  0  0  0  0  0  0  0  0  0  0  # atno 10167 bound_to 10162
  157.0987  130.6459  149.5867 H   0  0  0  0  0  0  0  0  0  0  0  0  # atno 10718 bound_to 10713
  154.8411  135.3429  154.6408 H   0  0  0  0  0  0  0  0  0  0  0  0  # atno 10763 bound_to 10752
  153.7019  135.6969  153.5065 H   0  0  0  0  0  0  0  0  0  0  0  0  # atno 10764 bound_to 10752
  153.2516  135.4351  155.0758 H   0  0  0  0  0  0  0  0  0  0  0  0  # atno 10765 bound_to 10752
  140.2403  134.3422  155.7928 H   0  0  0  0  0  0  0  0  0  0  0  0  # atno 11005 bound_to 11000
  145.5378  141.0423  143.2347 LP  0  0  0  0  0  0  0  0  0  0  0  0  # atno 17320 bound_to 7965
  144.7637  139.6896  143.7224 LP  0  0  0  0  0  0  0  0  0  0  0  0  # atno 17321 bound_to 7965
  139.4952  144.4124  152.0066 LP  0  0  0  0  0  0  0  0  0  0  0  0  # atno 17342 bound_to 10162
  140.3226  144.3410  150.6006 LP  0  0  0  0  0  0  0  0  0  0  0  0  # atno 17343 bound_to 10162
  155.9879  130.4920  150.7146 LP  0  0  0  0  0  0  0  0  0  0  0  0  # atno 17370 bound_to 10713
  157.4659  131.0888  151.0695 LP  0  0  0  0  0  0  0  0  0  0  0  0  # atno 17371 bound_to 10713
  141.2211  133.7295  156.8875 LP  0  0  0  0  0  0  0  0  0  0  0  0  # atno 17394 bound_to 11000
  140.1660  134.9133  157.2774 LP  0  0  0  0  0  0  0  0  0  0  0  0  # atno 17395 bound_to 11000

$$$$
