AV-unprocessed.smi:3226|AV-procd|sdf|12314|dock7
  -GOLD-   2272018163D 1   1.00000     0.00000
 Structure written by MMmdl.
 41 43  0  0  0  0  0  0  0  0  2 V2000
  152.9277  129.6368  155.0748 C   0  0  0  0  0  0  0  0  0  0  0  0
  151.4221  129.7709  155.3286 C   0  0  0  0  0  0  0  0  0  0  0  0
  151.0599  131.0761  155.9674 C   0  0  0  0  0  0  0  0  0  0  0  0
  151.6411  131.5338  157.0828 N   0  0  0  0  0  0  0  0  0  0  0  0
  151.0623  132.7625  157.3284 N   0  0  0  0  0  0  0  0  0  0  0  0
  150.1961  132.9296  156.3311 C   0  0  0  0  0  0  0  0  0  0  0  0
  150.1398  131.9184  155.4506 N   0  0  0  0  0  0  0  0  0  0  0  0
  149.3068  131.8017  154.2656 C   0  0  0  0  0  0  0  0  0  0  0  0
  149.1997  133.1244  153.4894 C   0  0  0  0  0  0  0  0  0  0  0  0
  148.3013  133.0041  152.3231 N   0  3  0  0  0  0  0  0  0  0  0  0
  146.9785  132.4319  152.6406 C   0  0  0  0  0  0  0  0  0  0  0  0
  146.2486  131.9737  151.3641 C   0  0  1  0  0  0  0  0  0  0  0  0
  144.7484  131.5965  151.5709 C   0  0  0  0  0  0  0  0  0  0  0  0
  144.0237  132.4567  150.5099 C   0  0  1  0  0  0  0  0  0  0  0  0
  144.1432  133.9039  150.9357 C   0  0  0  0  0  0  0  0  0  0  0  0
  145.4194  134.2592  150.7779 C   0  0  0  0  0  0  0  0  0  0  0  0
  146.1635  133.0487  150.2480 C   0  0  2  0  0  0  0  0  0  0  0  0
  145.0617  132.4243  149.3833 C   0  0  0  0  0  0  0  0  0  0  0  0
  153.1605  128.6763  154.6148 H   0  0  0  0  0  0  0  0  0  0  0  0
  153.4912  129.7059  156.0058 H   0  0  0  0  0  0  0  0  0  0  0  0
  153.2862  130.4210  154.4076 H   0  0  0  0  0  0  0  0  0  0  0  0
  150.8731  129.6514  154.3949 H   0  0  0  0  0  0  0  0  0  0  0  0
  151.0899  128.9623  155.9807 H   0  0  0  0  0  0  0  0  0  0  0  0
  149.5827  133.8142  156.2421 H   0  0  0  0  0  0  0  0  0  0  0  0
  149.7147  131.0172  153.6267 H   0  0  0  0  0  0  0  0  0  0  0  0
  148.3156  131.4646  154.5697 H   0  0  0  0  0  0  0  0  0  0  0  0
  148.8130  133.8991  154.1527 H   0  0  0  0  0  0  0  0  0  0  0  0
  150.1850  133.4538  153.1571 H   0  0  0  0  0  0  0  0  0  0  0  0
  148.1674  133.9223  151.9238 H   0  0  0  0  0  0  0  0  0  0  0  0
  147.1056  131.6007  153.3351 H   0  0  0  0  0  0  0  0  0  0  0  0
  146.3819  133.1887  153.1515 H   0  0  0  0  0  0  0  0  0  0  0  0
  146.7766  131.1084  150.9588 H   0  0  0  0  0  0  0  0  0  0  0  0
  144.5904  130.5328  151.3880 H   0  0  0  0  0  0  0  0  0  0  0  0
  144.3889  131.8163  152.5772 H   0  0  0  0  0  0  0  0  0  0  0  0
  143.0175  132.1407  150.2332 H   0  0  0  0  0  0  0  0  0  0  0  0
  143.3317  134.5025  151.3228 H   0  0  0  0  0  0  0  0  0  0  0  0
  145.8748  135.2107  151.0094 H   0  0  0  0  0  0  0  0  0  0  0  0
  147.0921  133.2746  149.7231 H   0  0  0  0  0  0  0  0  0  0  0  0
  145.2934  131.4198  149.0236 H   0  0  0  0  0  0  0  0  0  0  0  0
  144.7842  133.0474  148.5303 H   0  0  0  0  0  0  0  0  0  0  0  0
  148.7450  132.4135  151.6342 H   0  0  0  0  0  0  0  0  0  0  0  0
  1  2  1  0  0  0  0
  1 19  1  0  0  0  0
  1 20  1  0  0  0  0
  1 21  1  0  0  0  0
  2  3  1  0  0  0  0
  2 22  1  0  0  0  0
  2 23  1  0  0  0  0
  3  7  1  0  0  0  0
  3  4  2  0  0  0  0
  4  5  1  0  0  0  0
  5  6  2  0  0  0  0
  6  7  1  0  0  0  0
  6 24  1  0  0  0  0
  7  8  1  0  0  0  0
  8  9  1  0  0  0  0
  8 25  1  0  0  0  0
  8 26  1  0  0  0  0
  9 10  1  0  0  0  0
  9 27  1  0  0  0  0
  9 28  1  0  0  0  0
 10 11  1  0  0  0  0
 10 29  1  0  0  0  0
 10 41  1  0  0  0  0
 11 12  1  0  0  0  0
 11 30  1  0  0  0  0
 11 31  1  0  0  0  0
 12 17  1  0  0  0  0
 12 13  1  0  0  0  0
 12 32  1  0  0  0  0
 13 14  1  0  0  0  0
 13 33  1  0  0  0  0
 13 34  1  0  0  0  0
 14 18  1  0  0  0  0
 14 15  1  0  0  0  0
 14 35  1  0  0  0  0
 15 16  2  0  0  0  0
 15 36  1  0  0  0  0
 16 17  1  0  0  0  0
 16 37  1  0  0  0  0
 17 18  1  0  0  0  0
 17 38  1  0  0  0  0
 18 39  1  0  0  0  0
 18 40  1  0  0  0  0
M  CHG  1  10   1
M  END
> <s_m_source_file>
AV-unprocessed.smi

> <i_m_source_file_index>
3226

> <i_lp_mmshare_version>
43012

> <i_f3d_flags>
0

> <s_epik_input>
W0NIM11bQ0gyXWMxbm5bY0hdbjFbQ0gyXVtDSDJdW05IXVtDSDJdW0NASF0oW0NIMl1bQ0BASF0yMylbQ0BASF0oW0NIMl0zKVtDSF09W0NIXTI=

> <s_epik_cmdline>
J2VwaWtfcHl0aG9uJywgJy1waCcsICc3LjAnLCAnLXRuJywgJzgnLCAnLW1hJywgJzIwMCcsICctbWV0YWxfYmluZGluZycsICctaW1hZScsICc8aW5maWxlLm1hZT4nLCAnLW9tYWUnLCAnPG91dGZpbGUubWFlPic=

> <r_lp_tautomer_probability>
1

> <r_epik_Ionization_Penalty>
0.00175008

> <r_epik_Ionization_Penalty_Charging>
0.00173932

> <r_epik_Ionization_Penalty_Neutral>
1.07546e-05

> <r_epik_State_Penalty>
-0

> <r_epik_Charging_Adjusted_Penalty>
0.00173932

> <i_epik_Tot_Q>
1

> <i_epik_Tot_abs_Q>
1

> <r_epik_Metal_State_Penalty>
-0

> <b_epik_Metal_Only>
0

> <s_lp_Force_Field>
OPLS_2005

> <r_lp_Energy>
65.2823

> <b_lp_Chiralities_Consistent>
1

> <s_lp_Variant>
AV-unprocessed.smi:3226-2

> <Gold.Version>
5.8.1

> <Gold.Id.Protein>
6NUR|6NUR_protein|mol2

> <Gold.PLP.Fitness>
44.5874

> <Gold.PLP.PLP>
-39.3152

> <Gold.PLP.part.hbond>
-2.1953

> <Gold.PLP.part.metal>
0.0000

> <Gold.PLP.part.buried>
-3.1774

> <Gold.PLP.part.nonpolar>
-33.3646

> <Gold.PLP.part.repulsive>
0.0170

> <Gold.PLP.ligand.clash>
0.0000

> <Gold.PLP.ligand.torsion>
0.4338

> <Gold.PLP.Chemscore.Hbond>
2.0326

> <Gold.PLP.Chemscore.CHOScore>
0.0000

> <Gold.PLP.Chemscore.Metal>
0.0000

> <Gold.Chemscore.Hbonds>
donor molecule, donor type, donor heavy atom, donor atom, acceptor molecule, acceptor atom, score
      L1  H    10    29       P1  7948  0.09
      L1  H    10    41       P1 10747  0.93
      P1  H  6896  6907       L1     5  1.00

> <Gold.PLP.Chemscore.Internal.Correction>
0.0423

> <Gold.Rescore>
     Score         DG    S(hbond)    S(metal)    S(lipo)     H(rot)  DE(clash)    DE(int)     intcor
     16.40     -16.72       1.93        0.00      85.96       2.06       0.01       0.31       ----

> <Gold.Chemscore.Fitness>
16.3993

> <Gold.Chemscore.DG>
-16.7192

> <Gold.Chemscore.ZeroCoef>
-5.4800

> <Gold.Chemscore.Hbond>
1.9346

> <Gold.Chemscore.Metal>
0.0000

> <Gold.Chemscore.Lipo>
85.9603

> <Gold.Chemscore.Internal_Hbond>
0.0000

> <Gold.Chemscore.DEClash>
0.0072

> <Gold.Chemscore.DEInternal>
0.3127

> <Gold.Chemscore.Rot>
2.0623

> <Gold.Chemscore.Internal.Correction>
   9.000000E+99

> <Gold.Chemscore.Hbonds>
donor molecule, donor type, donor heavy atom, donor atom, acceptor molecule, acceptor atom, score
      L1  H    10    41       P1 10747  0.87
      P1  H  6896  6907       L1     5  0.76

> <Gold.Chemscore.Hbond.Weighted>
-6.4615

> <Gold.Chemscore.Metal.Weighted>
-0.0000

> <Gold.Chemscore.Lipo.Weighted>
-10.0574

> <Gold.Chemscore.Internal_Hbond.Weighted>
0.0000

> <Gold.Chemscore.DEClash.Weighted>
0.0072

> <Gold.Chemscore.DEInternal.Weighted>
0.3127

> <Gold.Chemscore.Rot.Weighted>
5.2796

> <Gold.Chemscore.Internal.Correction.Weighted>
   9.000000E+99

> <Gold.Protein.RotatedTorsions>
[ 6907 6896 6895 6894 ] final -162.50 input  -60.11 | X-H torsion
[ 7974 7965 7964 7962 ] final -140.41 input  175.53 | X-H torsion
[ 8008 7997 7996 7995 ] final  -66.83 input   59.86 | X-H torsion
[ 10167 10162 10161 10158 ] final   95.54 input  -65.29 | X-H torsion
[ 10718 10713 10712 10709 ] final   64.89 input   66.30 | X-H torsion
[ 10763 10752 10751 10750 ] final    0.68 input  -60.55 | X-H torsion
[ 11005 11000 10999 10996 ] final   57.51 input  -57.11 | X-H torsion

> <Gold.Protein.ActiveResidues>
 VAL166  LYS551  ARG553  GLY616  TRP617  ASP618  TYR619  PRO620  LYS621  CYS622 
 ASP623  PHE694  ASN695  SER759  ASP760  ASP761  ALA762  ILE779  LEU786  VAL792 
 PHE793  MET794  SER795  GLU796  ALA797  LYS798  CYS799  TRP800  GLU811  SER814 

> <Gold.Protein.RotatedAtoms>
  151.3813  133.3820  159.2710 H   0  0  0  0  0  0  0  0  0  0  0  0  # atno 6907 bound_to 6896
  150.9576  134.8969  159.7721 H   0  0  0  0  0  0  0  0  0  0  0  0  # atno 6908 bound_to 6896
  152.5137  134.3770  159.9390 H   0  0  0  0  0  0  0  0  0  0  0  0  # atno 6909 bound_to 6896
  144.8600  140.6204  143.5335 H   0  0  0  0  0  0  0  0  0  0  0  0  # atno 7974 bound_to 7965
  154.4760  140.0905  156.7263 H   0  0  0  0  0  0  0  0  0  0  0  0  # atno 8008 bound_to 7997
  155.4596  140.3460  155.4292 H   0  0  0  0  0  0  0  0  0  0  0  0  # atno 8009 bound_to 7997
  156.1117  140.1449  156.9318 H   0  0  0  0  0  0  0  0  0  0  0  0  # atno 8010 bound_to 7997
  139.7978  144.6826  150.9805 H   0  0  0  0  0  0  0  0  0  0  0  0  # atno 10167 bound_to 10162
  157.6070  130.9184  149.9905 H   0  0  0  0  0  0  0  0  0  0  0  0  # atno 10718 bound_to 10713
  153.3176  135.6967  153.7060 H   0  0  0  0  0  0  0  0  0  0  0  0  # atno 10763 bound_to 10752
  153.5912  135.3479  155.2912 H   0  0  0  0  0  0  0  0  0  0  0  0  # atno 10764 bound_to 10752
  154.8590  135.4318  154.2331 H   0  0  0  0  0  0  0  0  0  0  0  0  # atno 10765 bound_to 10752
  140.0447  134.5822  155.9337 H   0  0  0  0  0  0  0  0  0  0  0  0  # atno 11005 bound_to 11000
  145.4331  139.1546  143.4011 LP  0  0  0  0  0  0  0  0  0  0  0  0  # atno 17320 bound_to 7965
  146.2853  140.4449  142.8760 LP  0  0  0  0  0  0  0  0  0  0  0  0  # atno 17321 bound_to 7965
  140.7820  143.4313  151.0691 LP  0  0  0  0  0  0  0  0  0  0  0  0  # atno 17342 bound_to 10162
  139.7986  143.8116  152.3160 LP  0  0  0  0  0  0  0  0  0  0  0  0  # atno 17343 bound_to 10162
  156.1159  130.3648  149.9969 LP  0  0  0  0  0  0  0  0  0  0  0  0  # atno 17370 bound_to 10713
  156.8058  130.9307  151.3645 LP  0  0  0  0  0  0  0  0  0  0  0  0  # atno 17371 bound_to 10713
  141.1901  133.6567  156.5396 LP  0  0  0  0  0  0  0  0  0  0  0  0  # atno 17394 bound_to 11000
  140.4012  134.7354  157.4781 LP  0  0  0  0  0  0  0  0  0  0  0  0  # atno 17395 bound_to 11000

$$$$
