AV-unprocessed.smi:1426|AV-procd|sdf|5805|dock4
  -GOLD-   22720 5453D 1   1.00000     0.00000
 Structure written by MMmdl.
 43 45  0  0  0  0  0  0  0  0  1 V2000
  151.6703  141.6640  157.3942 O   0  0  0  0  0  0  0  0  0  0  0  0
  150.9259  142.5375  156.9505 C   0  0  0  0  0  0  0  0  0  0  0  0
  150.9853  143.8220  157.3304 N   0  0  0  0  0  0  0  0  0  0  0  0
  151.9080  144.3704  158.3197 C   0  0  0  0  0  0  0  0  0  0  0  0
  151.8330  143.6062  159.6545 C   0  0  2  0  0  0  0  0  0  0  0  0
  152.0757  144.4753  160.8717 C   0  0  0  0  0  0  0  0  0  0  0  0
  152.4011  143.4389  161.9434 C   0  0  0  0  0  0  0  0  0  0  0  0
  153.0099  142.3466  161.2599 O   0  0  0  0  0  0  0  0  0  0  0  0
  152.9022  142.5297  159.8515 C   0  0  0  0  0  0  0  0  0  0  0  0
  149.9644  142.3531  156.0297 N   0  0  0  0  0  0  0  0  0  0  0  0
  149.5813  141.1632  155.3430 C   0  0  0  0  0  0  0  0  0  0  0  0
  150.4356  140.0373  155.2322 C   0  0  0  0  0  0  0  0  0  0  0  0
  150.0022  138.9084  154.5157 C   0  0  0  0  0  0  0  0  0  0  0  0
  148.7245  138.9394  153.9341 C   0  0  0  0  0  0  0  0  0  0  0  0
  147.8912  139.9924  154.0467 N   0  0  0  0  0  0  0  0  0  0  0  0
  148.2893  141.0830  154.7467 C   0  0  0  0  0  0  0  0  0  0  0  0
  147.3612  142.1435  154.8579 N   0  0  0  0  0  0  0  0  0  0  0  0
  146.4508  142.4484  153.7587 C   0  0  0  0  0  0  0  0  0  0  0  0
  145.3678  143.3279  154.3766 C   0  0  0  0  0  0  0  0  0  0  0  0
  145.2231  142.7280  155.7715 C   0  0  0  0  0  0  0  0  0  0  0  0
  146.6469  142.2847  156.1236 C   0  0  0  0  0  0  0  0  0  0  0  0
  150.3384  144.4712  156.9068 H   0  0  0  0  0  0  0  0  0  0  0  0
  152.9309  144.3798  157.9390 H   0  0  0  0  0  0  0  0  0  0  0  0
  151.6365  145.4138  158.4824 H   0  0  0  0  0  0  0  0  0  0  0  0
  150.8494  143.1434  159.7521 H   0  0  0  0  0  0  0  0  0  0  0  0
  152.9365  145.1258  160.7097 H   0  0  0  0  0  0  0  0  0  0  0  0
  151.2206  145.1000  161.1317 H   0  0  0  0  0  0  0  0  0  0  0  0
  153.0539  143.8363  162.7209 H   0  0  0  0  0  0  0  0  0  0  0  0
  151.4864  143.0829  162.4191 H   0  0  0  0  0  0  0  0  0  0  0  0
  152.6535  141.5952  159.3478 H   0  0  0  0  0  0  0  0  0  0  0  0
  153.8674  142.8703  159.4745 H   0  0  0  0  0  0  0  0  0  0  0  0
  149.4887  143.1889  155.7229 H   0  0  0  0  0  0  0  0  0  0  0  0
  151.4130  140.0080  155.6866 H   0  0  0  0  0  0  0  0  0  0  0  0
  150.6365  138.0405  154.4131 H   0  0  0  0  0  0  0  0  0  0  0  0
  148.3572  138.0939  153.3717 H   0  0  0  0  0  0  0  0  0  0  0  0
  146.9677  142.9544  152.9430 H   0  0  0  0  0  0  0  0  0  0  0  0
  145.9946  141.5393  153.3649 H   0  0  0  0  0  0  0  0  0  0  0  0
  145.7176  144.3589  154.4473 H   0  0  0  0  0  0  0  0  0  0  0  0
  144.4375  143.3211  153.8081 H   0  0  0  0  0  0  0  0  0  0  0  0
  144.8041  143.4263  156.4962 H   0  0  0  0  0  0  0  0  0  0  0  0
  144.5683  141.8567  155.7271 H   0  0  0  0  0  0  0  0  0  0  0  0
  146.6447  141.3588  156.7008 H   0  0  0  0  0  0  0  0  0  0  0  0
  147.1378  143.0541  156.7201 H   0  0  0  0  0  0  0  0  0  0  0  0
  1  2  2  0  0  0  0
  2  3  1  0  0  0  0
  2 10  1  0  0  0  0
  3  4  1  0  0  0  0
  3 22  1  0  0  0  0
  4  5  1  0  0  0  0
  4 23  1  0  0  0  0
  4 24  1  0  0  0  0
  5  9  1  0  0  0  0
  5  6  1  0  0  0  0
  5 25  1  0  0  0  0
  6  7  1  0  0  0  0
  6 26  1  0  0  0  0
  6 27  1  0  0  0  0
  7  8  1  0  0  0  0
  7 28  1  0  0  0  0
  7 29  1  0  0  0  0
  8  9  1  0  0  0  0
  9 30  1  0  0  0  0
  9 31  1  0  0  0  0
 10 11  1  0  0  0  0
 10 32  1  0  0  0  0
 11 16  1  0  0  0  0
 11 12  2  0  0  0  0
 12 13  1  0  0  0  0
 12 33  1  0  0  0  0
 13 14  2  0  0  0  0
 13 34  1  0  0  0  0
 14 15  1  0  0  0  0
 14 35  1  0  0  0  0
 15 16  2  0  0  0  0
 16 17  1  0  0  0  0
 17 21  1  0  0  0  0
 17 18  1  0  0  0  0
 18 19  1  0  0  0  0
 18 36  1  0  0  0  0
 18 37  1  0  0  0  0
 19 20  1  0  0  0  0
 19 38  1  0  0  0  0
 19 39  1  0  0  0  0
 20 21  1  0  0  0  0
 20 40  1  0  0  0  0
 20 41  1  0  0  0  0
 21 42  1  0  0  0  0
 21 43  1  0  0  0  0
M  END
> <s_m_source_file>
AV-unprocessed.smi

> <i_m_source_file_index>
1426

> <i_lp_mmshare_version>
43012

> <i_f3d_flags>
0

> <s_epik_input>
W0NIMl0xT1tDSDJdW0NIMl1bQ0BIXTFbQ0gyXVtOSF1DKD1PKVtOSF1jMltjSF1bY0hdW2NIXW5jMk4zW0NIMl1bQ0gyXVtDSDJdW0NIMl0z

> <s_epik_cmdline>
J2VwaWtfcHl0aG9uJywgJy1waCcsICc3LjAnLCAnLXRuJywgJzgnLCAnLW1hJywgJzIwMCcsICctbWV0YWxfYmluZGluZycsICctaW1hZScsICc8aW5maWxlLm1hZT4nLCAnLW9tYWUnLCAnPG91dGZpbGUubWFlPic=

> <r_lp_tautomer_probability>
1

> <r_epik_Ionization_Penalty>
0.0999657

> <r_epik_Ionization_Penalty_Charging>
0

> <r_epik_Ionization_Penalty_Neutral>
0.0999657

> <r_epik_State_Penalty>
0.0894442

> <r_epik_Charging_Adjusted_Penalty>
0.0894442

> <i_epik_Tot_Q>
0

> <i_epik_Tot_abs_Q>
0

> <r_epik_Metal_State_Penalty>
0.076486

> <b_epik_Metal_Only>
0

> <s_lp_Force_Field>
OPLS_2005

> <r_lp_Energy>
47.443

> <b_lp_Chiralities_Consistent>
1

> <s_lp_Variant>
AV-unprocessed.smi:1426-1

> <Gold.Version>
5.8.1

> <Gold.Id.Protein>
6NUR|6NUR_protein|mol2

> <Gold.PLP.Fitness>
54.5494

> <Gold.PLP.PLP>
-47.6435

> <Gold.PLP.part.hbond>
-2.0000

> <Gold.PLP.part.metal>
0.0000

> <Gold.PLP.part.buried>
-5.4781

> <Gold.PLP.part.nonpolar>
-40.3835

> <Gold.PLP.part.repulsive>
1.0295

> <Gold.PLP.ligand.clash>
0.0000

> <Gold.PLP.ligand.torsion>
1.1693

> <Gold.PLP.Chemscore.Hbond>
1.9760

> <Gold.PLP.Chemscore.CHOScore>
1.0000

> <Gold.PLP.Chemscore.Metal>
0.0000

> <Gold.Chemscore.Hbonds>
donor molecule, donor type, donor heavy atom, donor atom, acceptor molecule, acceptor atom, score
      L1  H     3    22       P1  8028  0.98
      L1  H    10    32       P1  8028  1.00
      L1  C    14    35       P1  7948  1.00

> <Gold.PLP.Chemscore.Internal.Correction>
0.3164

> <Gold.Rescore>
     Score         DG    S(hbond)    S(metal)    S(lipo)     H(rot)  DE(clash)    DE(int)     intcor
     18.55     -20.98       1.95        0.00     106.91       1.38       0.09       2.34       ----

> <Gold.Chemscore.Fitness>
18.5457

> <Gold.Chemscore.DG>
-20.9817

> <Gold.Chemscore.ZeroCoef>
-5.4800

> <Gold.Chemscore.Hbond>
1.9535

> <Gold.Chemscore.Metal>
0.0000

> <Gold.Chemscore.Lipo>
106.9122

> <Gold.Chemscore.Internal_Hbond>
0.0000

> <Gold.Chemscore.DEClash>
0.0931

> <Gold.Chemscore.DEInternal>
2.3428

> <Gold.Chemscore.Rot>
1.3796

> <Gold.Chemscore.Internal.Correction>
   9.000000E+99

> <Gold.Chemscore.Hbonds>
donor molecule, donor type, donor heavy atom, donor atom, acceptor molecule, acceptor atom, score
      L1  H     3    22       P1  8028  0.79
      L1  H    10    32       P1  8028  1.00

> <Gold.Chemscore.Hbond.Weighted>
-6.5246

> <Gold.Chemscore.Metal.Weighted>
-0.0000

> <Gold.Chemscore.Lipo.Weighted>
-12.5087

> <Gold.Chemscore.Internal_Hbond.Weighted>
0.0000

> <Gold.Chemscore.DEClash.Weighted>
0.0931

> <Gold.Chemscore.DEInternal.Weighted>
2.3428

> <Gold.Chemscore.Rot.Weighted>
3.5317

> <Gold.Chemscore.Internal.Correction.Weighted>
   9.000000E+99

> <Gold.Protein.RotatedTorsions>
[ 6907 6896 6895 6894 ] final  -21.36 input  -60.11 | X-H torsion
[ 7974 7965 7964 7962 ] final  160.15 input  175.53 | X-H torsion
[ 8008 7997 7996 7995 ] final   43.34 input   59.86 | X-H torsion
[ 10167 10162 10161 10158 ] final  -44.57 input  -65.29 | X-H torsion
[ 10718 10713 10712 10709 ] final  110.18 input   66.30 | X-H torsion
[ 10763 10752 10751 10750 ] final -147.38 input  -60.55 | X-H torsion
[ 11005 11000 10999 10996 ] final   10.62 input  -57.11 | X-H torsion

> <Gold.Protein.ActiveResidues>
 VAL166  LYS551  ARG553  GLY616  TRP617  ASP618  TYR619  PRO620  LYS621  CYS622 
 ASP623  PHE694  ASN695  SER759  ASP760  ASP761  ALA762  ILE779  LEU786  VAL792 
 PHE793  MET794  SER795  GLU796  ALA797  LYS798  CYS799  TRP800  GLU811  SER814 

> <Gold.Protein.RotatedAtoms>
  151.2344  135.0566  159.9000 H   0  0  0  0  0  0  0  0  0  0  0  0  # atno 6907 bound_to 6896
  152.5401  134.0502  159.8116 H   0  0  0  0  0  0  0  0  0  0  0  0  # atno 6908 bound_to 6896
  151.0686  133.5436  159.2660 H   0  0  0  0  0  0  0  0  0  0  0  0  # atno 6909 bound_to 6896
  144.7752  139.7717  143.6281 H   0  0  0  0  0  0  0  0  0  0  0  0  # atno 7974 bound_to 7965
  155.3011  140.3385  155.4247 H   0  0  0  0  0  0  0  0  0  0  0  0  # atno 8008 bound_to 7997
  156.2001  140.1729  156.7956 H   0  0  0  0  0  0  0  0  0  0  0  0  # atno 8009 bound_to 7997
  154.5548  140.0698  156.8709 H   0  0  0  0  0  0  0  0  0  0  0  0  # atno 8010 bound_to 7997
  140.6892  143.2923  151.3514 H   0  0  0  0  0  0  0  0  0  0  0  0  # atno 10167 bound_to 10162
  157.6506  131.0928  150.6564 H   0  0  0  0  0  0  0  0  0  0  0  0  # atno 10718 bound_to 10713
  154.8288  135.3362  154.6809 H   0  0  0  0  0  0  0  0  0  0  0  0  # atno 10763 bound_to 10752
  153.7432  135.6944  153.4967 H   0  0  0  0  0  0  0  0  0  0  0  0  # atno 10764 bound_to 10752
  153.2229  135.4442  155.0460 H   0  0  0  0  0  0  0  0  0  0  0  0  # atno 10765 bound_to 10752
  140.5124  134.0639  155.7822 H   0  0  0  0  0  0  0  0  0  0  0  0  # atno 11005 bound_to 11000
  146.1926  139.5175  142.9795 LP  0  0  0  0  0  0  0  0  0  0  0  0  # atno 17320 bound_to 7965
  145.6207  141.0323  143.1916 LP  0  0  0  0  0  0  0  0  0  0  0  0  # atno 17321 bound_to 7965
  139.6278  144.0781  152.2449 LP  0  0  0  0  0  0  0  0  0  0  0  0  # atno 17342 bound_to 10162
  140.0245  144.6127  150.7538 LP  0  0  0  0  0  0  0  0  0  0  0  0  # atno 17343 bound_to 10162
  156.6876  130.4585  149.5609 LP  0  0  0  0  0  0  0  0  0  0  0  0  # atno 17370 bound_to 10713
  156.1885  130.6544  151.1034 LP  0  0  0  0  0  0  0  0  0  0  0  0  # atno 17371 bound_to 10713
  141.1378  133.9191  157.2394 LP  0  0  0  0  0  0  0  0  0  0  0  0  # atno 17394 bound_to 11000
  139.9651  135.0144  156.9366 LP  0  0  0  0  0  0  0  0  0  0  0  0  # atno 17395 bound_to 11000

$$$$
