AV-unprocessed.smi:1302|AV-procd|sdf|5427|dock8
  -GOLD-   22720 4583D 1   1.00000     0.00000
 Structure written by MMmdl.
 43 44  0  0  0  0  0  0  0  0  1 V2000
  152.4603  143.1117  161.7467 C   0  0  0  0  0  0  0  0  0  0  0  0
  153.2557  142.3381  160.6867 C   0  0  0  0  0  0  0  0  0  0  0  0
  152.5599  142.3742  159.3168 C   0  0  0  0  0  0  0  0  0  0  0  0
  153.4398  140.9590  161.1295 N   0  0  0  0  0  0  0  0  0  0  0  0
  153.9274  139.9577  160.3782 C   0  0  0  0  0  0  0  0  0  0  0  0
  154.2541  140.0885  159.1983 O   0  0  0  0  0  0  0  0  0  0  0  0
  153.9917  138.6158  161.0488 C   0  0  0  0  0  0  0  0  0  0  0  0
  154.3696  138.5059  162.4035 C   0  0  0  0  0  0  0  0  0  0  0  0
  154.3988  137.2342  163.0073 C   0  0  0  0  0  0  0  0  0  0  0  0
  154.0416  136.0984  162.2434 C   0  0  0  0  0  0  0  0  0  0  0  0
  154.0686  134.8144  162.8286 N   0  0  0  0  0  0  0  0  0  0  0  0
  154.6029  134.7530  164.1862 C   0  0  0  0  0  0  0  0  0  0  0  0
  154.2887  133.3949  164.8443 C   0  0  1  0  0  0  0  0  0  0  0  0
  152.8232  133.2577  165.2946 C   0  0  0  0  0  0  0  0  0  0  0  0
  154.6939  132.3241  163.9885 O   0  0  0  0  0  0  0  0  0  0  0  0
  154.1257  132.3567  162.6799 C   0  0  2  0  0  0  0  0  0  0  0  0
  154.6624  131.1525  161.8994 C   0  0  0  0  0  0  0  0  0  0  0  0
  154.4828  133.6884  161.9966 C   0  0  0  0  0  0  0  0  0  0  0  0
  153.6607  136.2074  160.9468 N   0  0  0  0  0  0  0  0  0  0  0  0
  153.6345  137.4284  160.3721 C   0  0  0  0  0  0  0  0  0  0  0  0
  152.3313  144.1544  161.4553 H   0  0  0  0  0  0  0  0  0  0  0  0
  152.9737  143.1007  162.7089 H   0  0  0  0  0  0  0  0  0  0  0  0
  151.4685  142.6822  161.8923 H   0  0  0  0  0  0  0  0  0  0  0  0
  154.2333  142.8145  160.5929 H   0  0  0  0  0  0  0  0  0  0  0  0
  152.4201  143.4004  158.9761 H   0  0  0  0  0  0  0  0  0  0  0  0
  151.5783  141.9006  159.3569 H   0  0  0  0  0  0  0  0  0  0  0  0
  153.1488  141.8561  158.5592 H   0  0  0  0  0  0  0  0  0  0  0  0
  153.1737  140.7494  162.0807 H   0  0  0  0  0  0  0  0  0  0  0  0
  154.6367  139.3802  162.9794 H   0  0  0  0  0  0  0  0  0  0  0  0
  154.6785  137.1470  164.0465 H   0  0  0  0  0  0  0  0  0  0  0  0
  155.6836  134.8904  164.1311 H   0  0  0  0  0  0  0  0  0  0  0  0
  154.2196  135.5561  164.8142 H   0  0  0  0  0  0  0  0  0  0  0  0
  154.9020  133.3130  165.7421 H   0  0  0  0  0  0  0  0  0  0  0  0
  152.5802  134.0059  166.0494 H   0  0  0  0  0  0  0  0  0  0  0  0
  152.6413  132.2766  165.7334 H   0  0  0  0  0  0  0  0  0  0  0  0
  152.1226  133.3925  164.4711 H   0  0  0  0  0  0  0  0  0  0  0  0
  153.0419  132.2590  162.7466 H   0  0  0  0  0  0  0  0  0  0  0  0
  154.2498  131.1230  160.8906 H   0  0  0  0  0  0  0  0  0  0  0  0
  154.3968  130.2180  162.3940 H   0  0  0  0  0  0  0  0  0  0  0  0
  155.7492  131.1882  161.8160 H   0  0  0  0  0  0  0  0  0  0  0  0
  153.9920  133.7372  161.0235 H   0  0  0  0  0  0  0  0  0  0  0  0
  155.5584  133.7474  161.8235 H   0  0  0  0  0  0  0  0  0  0  0  0
  153.3148  137.4472  159.3404 H   0  0  0  0  0  0  0  0  0  0  0  0
  1  2  1  0  0  0  0
  1 21  1  0  0  0  0
  1 22  1  0  0  0  0
  1 23  1  0  0  0  0
  2  3  1  0  0  0  0
  2  4  1  0  0  0  0
  2 24  1  0  0  0  0
  3 25  1  0  0  0  0
  3 26  1  0  0  0  0
  3 27  1  0  0  0  0
  4  5  1  0  0  0  0
  4 28  1  0  0  0  0
  5  6  2  0  0  0  0
  5  7  1  0  0  0  0
  7 20  1  0  0  0  0
  7  8  2  0  0  0  0
  8  9  1  0  0  0  0
  8 29  1  0  0  0  0
  9 10  2  0  0  0  0
  9 30  1  0  0  0  0
 10 11  1  0  0  0  0
 10 19  1  0  0  0  0
 11 18  1  0  0  0  0
 11 12  1  0  0  0  0
 12 13  1  0  0  0  0
 12 31  1  0  0  0  0
 12 32  1  0  0  0  0
 13 14  1  0  0  0  0
 13 15  1  0  0  0  0
 13 33  1  0  0  0  0
 14 34  1  0  0  0  0
 14 35  1  0  0  0  0
 14 36  1  0  0  0  0
 15 16  1  0  0  0  0
 16 17  1  0  0  0  0
 16 18  1  0  0  0  0
 16 37  1  0  0  0  0
 17 38  1  0  0  0  0
 17 39  1  0  0  0  0
 17 40  1  0  0  0  0
 18 41  1  0  0  0  0
 18 42  1  0  0  0  0
 19 20  2  0  0  0  0
 20 43  1  0  0  0  0
M  END
> <s_m_source_file>
AV-unprocessed.smi

> <i_m_source_file_index>
1302

> <i_lp_mmshare_version>
43012

> <i_f3d_flags>
0

> <s_epik_input>
W0NIM11bQ0hdKFtDSDNdKVtOSF1DKD1PKWMxW2NIXVtjSF1jKG5bY0hdMSlOMltDSDJdW0NAQEhdKFtDSDNdKU9bQ0BASF0oW0NIM10pW0NIMl0y

> <s_epik_cmdline>
J2VwaWtfcHl0aG9uJywgJy1waCcsICc3LjAnLCAnLXRuJywgJzgnLCAnLW1hJywgJzIwMCcsICctbWV0YWxfYmluZGluZycsICctaW1hZScsICc8aW5maWxlLm1hZT4nLCAnLW9tYWUnLCAnPG91dGZpbGUubWFlPic=

> <r_lp_tautomer_probability>
1

> <r_epik_Ionization_Penalty>
2.23089e-05

> <r_epik_Ionization_Penalty_Charging>
0

> <r_epik_Ionization_Penalty_Neutral>
2.23089e-05

> <r_epik_State_Penalty>
-0

> <r_epik_Charging_Adjusted_Penalty>
0

> <i_epik_Tot_Q>
0

> <i_epik_Tot_abs_Q>
0

> <r_epik_Metal_State_Penalty>
-0

> <b_epik_Metal_Only>
0

> <s_lp_Force_Field>
OPLS_2005

> <r_lp_Energy>
20.4022

> <b_lp_Chiralities_Consistent>
1

> <s_lp_Variant>
AV-unprocessed.smi:1302-3

> <Gold.Version>
5.8.1

> <Gold.Id.Protein>
6NUR|6NUR_protein|mol2

> <Gold.PLP.Fitness>
37.8096

> <Gold.PLP.PLP>
-35.9354

> <Gold.PLP.part.hbond>
-1.1867

> <Gold.PLP.part.metal>
0.0000

> <Gold.PLP.part.buried>
-4.1782

> <Gold.PLP.part.nonpolar>
-30.9331

> <Gold.PLP.part.repulsive>
0.0440

> <Gold.PLP.ligand.clash>
0.0000

> <Gold.PLP.ligand.torsion>
1.0733

> <Gold.PLP.Chemscore.Hbond>
1.2286

> <Gold.PLP.Chemscore.CHOScore>
0.0000

> <Gold.PLP.Chemscore.Metal>
0.0000

> <Gold.Chemscore.Hbonds>
donor molecule, donor type, donor heavy atom, donor atom, acceptor molecule, acceptor atom, score
      P1  H  6896  6908       L1    19  0.81
      P1  H  7997  8009       L1     6  0.87

> <Gold.PLP.Chemscore.Internal.Correction>
0.3350

> <Gold.Rescore>
     Score         DG    S(hbond)    S(metal)    S(lipo)     H(rot)  DE(clash)    DE(int)     intcor
     15.90     -18.25       1.43        0.00      93.33       1.15       0.02       2.33       ----

> <Gold.Chemscore.Fitness>
15.8951

> <Gold.Chemscore.DG>
-18.2458

> <Gold.Chemscore.ZeroCoef>
-5.4800

> <Gold.Chemscore.Hbond>
1.4348

> <Gold.Chemscore.Metal>
0.0000

> <Gold.Chemscore.Lipo>
93.3308

> <Gold.Chemscore.Internal_Hbond>
0.0000

> <Gold.Chemscore.DEClash>
0.0164

> <Gold.Chemscore.DEInternal>
2.3342

> <Gold.Chemscore.Rot>
1.1508

> <Gold.Chemscore.Internal.Correction>
   9.000000E+99

> <Gold.Chemscore.Hbonds>
donor molecule, donor type, donor heavy atom, donor atom, acceptor molecule, acceptor atom, score
      P1  H  6896  6908       L1    19  0.66
      P1  H  7997  8009       L1     6  0.81

> <Gold.Chemscore.Hbond.Weighted>
-4.7922

> <Gold.Chemscore.Metal.Weighted>
-0.0000

> <Gold.Chemscore.Lipo.Weighted>
-10.9197

> <Gold.Chemscore.Internal_Hbond.Weighted>
0.0000

> <Gold.Chemscore.DEClash.Weighted>
0.0164

> <Gold.Chemscore.DEInternal.Weighted>
2.3342

> <Gold.Chemscore.Rot.Weighted>
2.9461

> <Gold.Chemscore.Internal.Correction.Weighted>
   9.000000E+99

> <Gold.Protein.RotatedTorsions>
[ 6907 6896 6895 6894 ] final  -75.17 input  -60.11 | X-H torsion
[ 7974 7965 7964 7962 ] final  143.93 input  175.53 | X-H torsion
[ 8008 7997 7996 7995 ] final  116.96 input   59.86 | X-H torsion
[ 10167 10162 10161 10158 ] final   80.19 input  -65.29 | X-H torsion
[ 10718 10713 10712 10709 ] final  165.04 input   66.30 | X-H torsion
[ 10763 10752 10751 10750 ] final  129.34 input  -60.55 | X-H torsion
[ 11005 11000 10999 10996 ] final -152.01 input  -57.11 | X-H torsion

> <Gold.Protein.ActiveResidues>
 VAL166  LYS551  ARG553  GLY616  TRP617  ASP618  TYR619  PRO620  LYS621  CYS622 
 ASP623  PHE694  ASN695  SER759  ASP760  ASP761  ALA762  ILE779  LEU786  VAL792 
 PHE793  MET794  SER795  GLU796  ALA797  LYS798  CYS799  TRP800  GLU811  SER814 

> <Gold.Protein.RotatedAtoms>
  150.7068  134.4761  159.5447 H   0  0  0  0  0  0  0  0  0  0  0  0  # atno 6907 bound_to 6896
  152.2407  134.8228  160.0470 H   0  0  0  0  0  0  0  0  0  0  0  0  # atno 6908 bound_to 6896
  151.9011  133.3503  159.3868 H   0  0  0  0  0  0  0  0  0  0  0  0  # atno 6909 bound_to 6896
  144.8878  139.5602  143.5812 H   0  0  0  0  0  0  0  0  0  0  0  0  # atno 7974 bound_to 7965
  156.2468  140.2906  156.0604 H   0  0  0  0  0  0  0  0  0  0  0  0  # atno 8008 bound_to 7997
  155.1782  140.0403  157.2894 H   0  0  0  0  0  0  0  0  0  0  0  0  # atno 8009 bound_to 7997
  154.6278  140.2492  155.7478 H   0  0  0  0  0  0  0  0  0  0  0  0  # atno 8010 bound_to 7997
  139.9524  144.6017  150.8149 H   0  0  0  0  0  0  0  0  0  0  0  0  # atno 10167 bound_to 10162
  157.0858  131.0404  151.2557 H   0  0  0  0  0  0  0  0  0  0  0  0  # atno 10718 bound_to 10713
  153.7403  135.3225  155.3302 H   0  0  0  0  0  0  0  0  0  0  0  0  # atno 10763 bound_to 10752
  154.8297  135.4543  154.1034 H   0  0  0  0  0  0  0  0  0  0  0  0  # atno 10764 bound_to 10752
  153.2206  135.6947  153.8086 H   0  0  0  0  0  0  0  0  0  0  0  0  # atno 10765 bound_to 10752
  140.7234  134.3701  157.5179 H   0  0  0  0  0  0  0  0  0  0  0  0  # atno 11005 bound_to 11000
  146.3035  139.7504  142.9073 LP  0  0  0  0  0  0  0  0  0  0  0  0  # atno 17320 bound_to 7965
  145.3837  141.0362  143.3163 LP  0  0  0  0  0  0  0  0  0  0  0  0  # atno 17321 bound_to 7965
  140.7579  143.3095  151.2879 LP  0  0  0  0  0  0  0  0  0  0  0  0  # atno 17342 bound_to 10162
  139.6618  144.0175  152.2697 LP  0  0  0  0  0  0  0  0  0  0  0  0  # atno 17343 bound_to 10162
  157.4762  130.7738  149.7370 LP  0  0  0  0  0  0  0  0  0  0  0  0  # atno 17370 bound_to 10713
  155.9911  130.3940  150.2999 LP  0  0  0  0  0  0  0  0  0  0  0  0  # atno 17371 bound_to 10713
  139.8843  134.8970  156.2714 LP  0  0  0  0  0  0  0  0  0  0  0  0  # atno 17394 bound_to 11000
  140.9983  133.7166  156.0921 LP  0  0  0  0  0  0  0  0  0  0  0  0  # atno 17395 bound_to 11000

$$$$
