AV-unprocessed.smi:1521|AV-procd|sdf|6131|dock1
  -GOLD-   22720 6273D 1   1.00000     0.00000
 Structure written by MMmdl.
 36 37  0  0  0  0  0  0  0  0  1 V2000
  146.5967  136.8660  154.6911 O   0  0  0  0  0  0  0  0  0  0  0  0
  147.4712  136.0822  154.3230 C   0  0  0  0  0  0  0  0  0  0  0  0
  148.6465  135.9421  154.9524 N   0  0  0  0  0  0  0  0  0  0  0  0
  149.0456  136.6577  156.1600 C   0  0  0  0  0  0  0  0  0  0  0  0
  150.3142  137.4955  155.9254 C   0  0  1  0  0  0  0  0  0  0  0  0
  150.1099  138.5551  154.8240 C   0  0  0  0  0  0  0  0  0  0  0  0
  151.3033  139.3137  154.6753 O   0  0  0  0  0  0  0  0  0  0  0  0
  151.6465  139.9789  155.8834 C   0  0  0  0  0  0  0  0  0  0  0  0
  151.8455  138.9332  156.9924 C   0  0  0  0  0  0  0  0  0  0  0  0
  150.6515  138.1753  157.1304 O   0  0  0  0  0  0  0  0  0  0  0  0
  147.3875  135.2438  153.2737 N   0  0  0  0  0  0  0  0  0  0  0  0
  146.3407  135.0721  152.3519 C   0  0  0  0  0  0  0  0  0  0  0  0
  145.9128  133.8742  151.8741 C   0  0  0  0  0  0  0  0  0  0  0  0
  144.8144  133.7682  150.9284 C   0  0  0  0  0  0  0  0  0  0  0  0
  144.3989  132.4279  150.3425 C   0  0  0  0  0  0  0  0  0  0  0  0
  143.1127  132.1989  150.6034 F   0  0  0  0  0  0  0  0  0  0  0  0
  144.5657  132.4021  149.0196 F   0  0  0  0  0  0  0  0  0  0  0  0
  145.1120  131.4348  150.8735 F   0  0  0  0  0  0  0  0  0  0  0  0
  144.2432  134.9233  150.5400 C   0  0  0  0  0  0  0  0  0  0  0  0
  144.6630  136.1570  151.0421 N   0  0  0  0  0  0  0  0  0  0  0  0
  145.6737  136.3138  151.9261 C   0  0  0  0  0  0  0  0  0  0  0  0
  145.9837  137.4371  152.3217 O   0  0  0  0  0  0  0  0  0  0  0  0
  144.1742  136.9770  150.7126 H   0  0  0  0  0  0  0  0  0  0  0  0
  149.3055  135.2723  154.5836 H   0  0  0  0  0  0  0  0  0  0  0  0
  148.2205  137.3139  156.4376 H   0  0  0  0  0  0  0  0  0  0  0  0
  149.1855  135.9705  156.9964 H   0  0  0  0  0  0  0  0  0  0  0  0
  151.1321  136.8306  155.6405 H   0  0  0  0  0  0  0  0  0  0  0  0
  149.8788  138.0755  153.8726 H   0  0  0  0  0  0  0  0  0  0  0  0
  149.2733  139.2140  155.0627 H   0  0  0  0  0  0  0  0  0  0  0  0
  152.5632  140.5485  155.7299 H   0  0  0  0  0  0  0  0  0  0  0  0
  150.8662  140.6913  156.1564 H   0  0  0  0  0  0  0  0  0  0  0  0
  152.6857  138.2758  156.7633 H   0  0  0  0  0  0  0  0  0  0  0  0
  152.0687  139.4228  157.9405 H   0  0  0  0  0  0  0  0  0  0  0  0
  148.1657  134.6141  153.1431 H   0  0  0  0  0  0  0  0  0  0  0  0
  146.3643  132.9514  152.1995 H   0  0  0  0  0  0  0  0  0  0  0  0
  143.4382  134.9939  149.8235 H   0  0  0  0  0  0  0  0  0  0  0  0
  1  2  2  0  0  0  0
  2  3  1  0  0  0  0
  2 11  1  0  0  0  0
  3  4  1  0  0  0  0
  3 24  1  0  0  0  0
  4  5  1  0  0  0  0
  4 25  1  0  0  0  0
  4 26  1  0  0  0  0
  5 10  1  0  0  0  0
  5  6  1  0  0  0  0
  5 27  1  0  0  0  0
  6  7  1  0  0  0  0
  6 28  1  0  0  0  0
  6 29  1  0  0  0  0
  7  8  1  0  0  0  0
  8  9  1  0  0  0  0
  8 30  1  0  0  0  0
  8 31  1  0  0  0  0
  9 10  1  0  0  0  0
  9 32  1  0  0  0  0
  9 33  1  0  0  0  0
 11 12  1  0  0  0  0
 11 34  1  0  0  0  0
 12 21  1  0  0  0  0
 12 13  2  0  0  0  0
 13 14  1  0  0  0  0
 13 35  1  0  0  0  0
 14 15  1  0  0  0  0
 14 19  2  0  0  0  0
 15 16  1  0  0  0  0
 15 17  1  0  0  0  0
 15 18  1  0  0  0  0
 19 20  1  0  0  0  0
 19 36  1  0  0  0  0
 20 23  1  0  0  0  0
 20 21  1  0  0  0  0
 21 22  2  0  0  0  0
M  END
> <s_m_source_file>
AV-unprocessed.smi

> <i_m_source_file_index>
1521

> <i_lp_mmshare_version>
43012

> <i_f3d_flags>
0

> <s_epik_input>
Tz1jMVtuSF1bY0hdYyhDKEYpKEYpRilbY0hdYzFbTkhdQyg9TylbTkhdW0NIMl1bQ0BASF0yW0NIMl1PW0NIMl1bQ0gyXU8y

> <s_epik_cmdline>
J2VwaWtfcHl0aG9uJywgJy1waCcsICc3LjAnLCAnLXRuJywgJzgnLCAnLW1hJywgJzIwMCcsICctbWV0YWxfYmluZGluZycsICctaW1hZScsICc8aW5maWxlLm1hZT4nLCAnLW9tYWUnLCAnPG91dGZpbGUubWFlPic=

> <r_lp_tautomer_probability>
1

> <r_epik_Ionization_Penalty>
0.00396636

> <r_epik_Ionization_Penalty_Charging>
0.00394789

> <r_epik_Ionization_Penalty_Neutral>
1.84676e-05

> <r_epik_State_Penalty>
-0

> <r_epik_Charging_Adjusted_Penalty>
0.00394789

> <i_epik_Tot_Q>
0

> <i_epik_Tot_abs_Q>
0

> <r_epik_Metal_State_Penalty>
0.372669

> <b_epik_Metal_Only>
0

> <s_lp_Force_Field>
OPLS_2005

> <r_lp_Energy>
19.2224

> <b_lp_Chiralities_Consistent>
1

> <s_lp_Variant>
AV-unprocessed.smi:1521-2

> <Gold.Version>
5.8.1

> <Gold.Id.Protein>
6NUR|6NUR_protein|mol2

> <Gold.PLP.Fitness>
37.9323

> <Gold.PLP.PLP>
-29.5418

> <Gold.PLP.part.hbond>
-2.9366

> <Gold.PLP.part.metal>
0.0000

> <Gold.PLP.part.buried>
-0.5783

> <Gold.PLP.part.nonpolar>
-26.7966

> <Gold.PLP.part.repulsive>
0.4346

> <Gold.PLP.ligand.clash>
0.0000

> <Gold.PLP.ligand.torsion>
0.3279

> <Gold.PLP.Chemscore.Hbond>
2.0000

> <Gold.PLP.Chemscore.CHOScore>
1.0000

> <Gold.PLP.Chemscore.Metal>
0.0000

> <Gold.Chemscore.Hbonds>
donor molecule, donor type, donor heavy atom, donor atom, acceptor molecule, acceptor atom, score
      L1  H    20    23       P1 10171  1.00
      P1  H  7989  7998       L1     7  0.80
      L1  C    19    36       P1 10186  1.00

> <Gold.PLP.Chemscore.Internal.Correction>
0.0463

> <Gold.Rescore>
     Score         DG    S(hbond)    S(metal)    S(lipo)     H(rot)  DE(clash)    DE(int)     intcor
     10.59     -13.70       2.00        0.00      43.36       1.37       0.15       2.96       ----

> <Gold.Chemscore.Fitness>
10.5925

> <Gold.Chemscore.DG>
-13.7013

> <Gold.Chemscore.ZeroCoef>
-5.4800

> <Gold.Chemscore.Hbond>
1.9952

> <Gold.Chemscore.Metal>
0.0000

> <Gold.Chemscore.Lipo>
43.3625

> <Gold.Chemscore.Internal_Hbond>
0.0000

> <Gold.Chemscore.DEClash>
0.1534

> <Gold.Chemscore.DEInternal>
2.9555

> <Gold.Chemscore.Rot>
1.3735

> <Gold.Chemscore.Internal.Correction>
   9.000000E+99

> <Gold.Chemscore.Hbonds>
donor molecule, donor type, donor heavy atom, donor atom, acceptor molecule, acceptor atom, score
      L1  H    20    23       P1 10171  1.00
      P1  H  7989  7998       L1     7  0.12

> <Gold.Chemscore.Hbond.Weighted>
-6.6641

> <Gold.Chemscore.Metal.Weighted>
-0.0000

> <Gold.Chemscore.Lipo.Weighted>
-5.0734

> <Gold.Chemscore.Internal_Hbond.Weighted>
0.0000

> <Gold.Chemscore.DEClash.Weighted>
0.1534

> <Gold.Chemscore.DEInternal.Weighted>
2.9555

> <Gold.Chemscore.Rot.Weighted>
3.5162

> <Gold.Chemscore.Internal.Correction.Weighted>
   9.000000E+99

> <Gold.Protein.RotatedTorsions>
[ 6907 6896 6895 6894 ] final  -22.29 input  -60.11 | X-H torsion
[ 7974 7965 7964 7962 ] final  -54.41 input  175.53 | X-H torsion
[ 8008 7997 7996 7995 ] final   87.95 input   59.86 | X-H torsion
[ 10167 10162 10161 10158 ] final   67.03 input  -65.29 | X-H torsion
[ 10718 10713 10712 10709 ] final -163.33 input   66.30 | X-H torsion
[ 10763 10752 10751 10750 ] final   37.03 input  -60.55 | X-H torsion
[ 11005 11000 10999 10996 ] final  -98.84 input  -57.11 | X-H torsion

> <Gold.Protein.ActiveResidues>
 VAL166  LYS551  ARG553  GLY616  TRP617  ASP618  TYR619  PRO620  LYS621  CYS622 
 ASP623  PHE694  ASN695  SER759  ASP760  ASP761  ALA762  ILE779  LEU786  VAL792 
 PHE793  MET794  SER795  GLU796  ALA797  LYS798  CYS799  TRP800  GLU811  SER814 

> <Gold.Protein.RotatedAtoms>
  151.2208  135.0518  159.8948 H   0  0  0  0  0  0  0  0  0  0  0  0  # atno 6907 bound_to 6896
  152.5415  134.0642  159.8176 H   0  0  0  0  0  0  0  0  0  0  0  0  # atno 6908 bound_to 6896
  151.0808  133.5343  159.2652 H   0  0  0  0  0  0  0  0  0  0  0  0  # atno 6909 bound_to 6896
  145.8859  140.8108  142.9816 H   0  0  0  0  0  0  0  0  0  0  0  0  # atno 7974 bound_to 7965
  155.9817  140.3376  155.6670 H   0  0  0  0  0  0  0  0  0  0  0  0  # atno 8008 bound_to 7997
  155.6539  140.0708  157.2595 H   0  0  0  0  0  0  0  0  0  0  0  0  # atno 8009 bound_to 7997
  154.4194  140.1720  156.1691 H   0  0  0  0  0  0  0  0  0  0  0  0  # atno 8010 bound_to 7997
  140.0939  144.4963  150.7081 H   0  0  0  0  0  0  0  0  0  0  0  0  # atno 10167 bound_to 10162
  156.6232  130.8899  151.2962 H   0  0  0  0  0  0  0  0  0  0  0  0  # atno 10718 bound_to 10713
  153.0053  135.6289  154.2079 H   0  0  0  0  0  0  0  0  0  0  0  0  # atno 10763 bound_to 10752
  154.1823  135.2813  155.3050 H   0  0  0  0  0  0  0  0  0  0  0  0  # atno 10764 bound_to 10752
  154.5825  135.5643  153.7259 H   0  0  0  0  0  0  0  0  0  0  0  0  # atno 10765 bound_to 10752
  141.1330  133.8276  157.0892 H   0  0  0  0  0  0  0  0  0  0  0  0  # atno 11005 bound_to 11000
  144.6728  140.1455  143.7434 LP  0  0  0  0  0  0  0  0  0  0  0  0  # atno 17320 bound_to 7965
  145.8967  139.2407  143.1517 LP  0  0  0  0  0  0  0  0  0  0  0  0  # atno 17321 bound_to 7965
  140.7014  143.2437  151.4854 LP  0  0  0  0  0  0  0  0  0  0  0  0  # atno 17342 bound_to 10162
  139.5709  144.1931  152.1834 LP  0  0  0  0  0  0  0  0  0  0  0  0  # atno 17343 bound_to 10162
  157.7221  130.9573  150.1483 LP  0  0  0  0  0  0  0  0  0  0  0  0  # atno 17370 bound_to 10713
  156.2295  130.3681  149.8462 LP  0  0  0  0  0  0  0  0  0  0  0  0  # atno 17371 bound_to 10713
  140.0403  134.9858  157.0948 LP  0  0  0  0  0  0  0  0  0  0  0  0  # atno 17394 bound_to 11000
  140.4146  134.1945  155.7163 LP  0  0  0  0  0  0  0  0  0  0  0  0  # atno 17395 bound_to 11000

$$$$
