AV-unprocessed.smi:2244|AV-procd|sdf|9073|dock7
  -GOLD-   2272012283D 1   1.00000     0.00000
 Structure written by MMmdl.
 49 51  0  0  0  0  0  0  0  0  1 V2000
  143.5881  136.2428  162.8964 C   0  0  0  0  0  0  0  0  0  0  0  0
  144.1944  135.1470  161.9910 C   0  0  0  0  0  0  0  0  0  0  0  0
  144.3644  133.8763  162.8494 C   0  0  0  0  0  0  0  0  0  0  0  0
  143.1885  134.8798  160.8518 C   0  0  0  0  0  0  0  0  0  0  0  0
  145.5539  135.5596  161.3990 C   0  0  0  0  0  0  0  0  0  0  0  0
  146.7323  134.7969  161.5599 C   0  0  0  0  0  0  0  0  0  0  0  0
  147.9109  135.2805  160.9671 C   0  0  0  0  0  0  0  0  0  0  0  0
  147.8584  136.4921  160.2487 C   0  0  0  0  0  0  0  0  0  0  0  0
  149.0994  136.9054  159.6810 N   0  0  0  0  0  0  0  0  0  0  0  0
  149.4300  137.9869  158.9430 C   0  0  0  0  0  0  0  0  0  0  0  0
  148.5876  138.8332  158.6480 O   0  0  0  0  0  0  0  0  0  0  0  0
  150.7141  138.0768  158.5595 N   0  0  0  0  0  0  0  0  0  0  0  0
  151.2912  139.1533  157.7618 C   0  0  1  0  0  0  0  0  0  0  0  0
  150.6077  139.2432  156.3875 C   0  0  0  0  0  0  0  0  0  0  0  0
  151.0973  140.4807  155.6191 C   0  0  0  0  0  0  0  0  0  0  0  0
  150.8757  141.6548  156.3930 O   0  0  0  0  0  0  0  0  0  0  0  0
  151.5985  141.6622  157.6206 C   0  0  1  0  0  0  0  0  0  0  0  0
  151.3683  143.0004  158.2945 C   0  0  0  0  0  0  0  0  0  0  0  0
  151.9417  144.2700  157.7101 C   0  0  0  0  0  0  0  0  0  0  0  0
  152.4983  143.7146  158.9986 C   0  0  0  0  0  0  0  0  0  0  0  0
  151.1263  140.4897  158.5001 C   0  0  0  0  0  0  0  0  0  0  0  0
  146.6882  137.1712  160.1362 N   0  0  0  0  0  0  0  0  0  0  0  0
  145.5632  136.7177  160.6955 N   0  0  0  0  0  0  0  0  0  0  0  0
  142.6245  135.9317  163.3015 H   0  0  0  0  0  0  0  0  0  0  0  0
  143.4182  137.1700  162.3476 H   0  0  0  0  0  0  0  0  0  0  0  0
  144.2332  136.4665  163.7468 H   0  0  0  0  0  0  0  0  0  0  0  0
  145.0744  134.0394  163.6611 H   0  0  0  0  0  0  0  0  0  0  0  0
  144.7286  133.0345  162.2596 H   0  0  0  0  0  0  0  0  0  0  0  0
  143.4187  133.5688  163.2969 H   0  0  0  0  0  0  0  0  0  0  0  0
  142.2084  134.6046  161.2430 H   0  0  0  0  0  0  0  0  0  0  0  0
  143.5151  134.0650  160.2048 H   0  0  0  0  0  0  0  0  0  0  0  0
  143.0566  135.7631  160.2260 H   0  0  0  0  0  0  0  0  0  0  0  0
  146.7587  133.8703  162.1118 H   0  0  0  0  0  0  0  0  0  0  0  0
  148.8345  134.7283  161.0644 H   0  0  0  0  0  0  0  0  0  0  0  0
  149.8670  136.2741  159.8584 H   0  0  0  0  0  0  0  0  0  0  0  0
  151.3414  137.3382  158.8461 H   0  0  0  0  0  0  0  0  0  0  0  0
  152.3580  138.9690  157.6205 H   0  0  0  0  0  0  0  0  0  0  0  0
  150.8015  138.3424  155.8046 H   0  0  0  0  0  0  0  0  0  0  0  0
  149.5259  139.3061  156.5149 H   0  0  0  0  0  0  0  0  0  0  0  0
  152.1556  140.3903  155.3700 H   0  0  0  0  0  0  0  0  0  0  0  0
  150.5568  140.5734  154.6770 H   0  0  0  0  0  0  0  0  0  0  0  0
  152.6646  141.5585  157.4098 H   0  0  0  0  0  0  0  0  0  0  0  0
  150.3883  143.0933  158.7586 H   0  0  0  0  0  0  0  0  0  0  0  0
  152.5591  144.1843  156.8183 H   0  0  0  0  0  0  0  0  0  0  0  0
  151.3320  145.1692  157.7705 H   0  0  0  0  0  0  0  0  0  0  0  0
  152.2611  144.2437  159.9192 H   0  0  0  0  0  0  0  0  0  0  0  0
  153.4859  143.2592  158.9639 H   0  0  0  0  0  0  0  0  0  0  0  0
  150.0786  140.6371  158.7681 H   0  0  0  0  0  0  0  0  0  0  0  0
  151.6879  140.4732  159.4351 H   0  0  0  0  0  0  0  0  0  0  0  0
  1  2  1  0  0  0  0
  1 24  1  0  0  0  0
  1 25  1  0  0  0  0
  1 26  1  0  0  0  0
  2  3  1  0  0  0  0
  2  4  1  0  0  0  0
  2  5  1  0  0  0  0
  3 27  1  0  0  0  0
  3 28  1  0  0  0  0
  3 29  1  0  0  0  0
  4 30  1  0  0  0  0
  4 31  1  0  0  0  0
  4 32  1  0  0  0  0
  5 23  1  0  0  0  0
  5  6  2  0  0  0  0
  6  7  1  0  0  0  0
  6 33  1  0  0  0  0
  7  8  2  0  0  0  0
  7 34  1  0  0  0  0
  8  9  1  0  0  0  0
  8 22  1  0  0  0  0
  9 10  1  0  0  0  0
  9 35  1  0  0  0  0
 10 11  2  0  0  0  0
 10 12  1  0  0  0  0
 12 13  1  0  0  0  0
 12 36  1  0  0  0  0
 13 21  1  0  0  0  0
 13 14  1  0  0  0  0
 13 37  1  0  0  0  0
 14 15  1  0  0  0  0
 14 38  1  0  0  0  0
 14 39  1  0  0  0  0
 15 16  1  0  0  0  0
 15 40  1  0  0  0  0
 15 41  1  0  0  0  0
 16 17  1  0  0  0  0
 17 18  1  0  0  0  0
 17 21  1  0  0  0  0
 17 42  1  0  0  0  0
 18 20  1  0  0  0  0
 18 19  1  0  0  0  0
 18 43  1  0  0  0  0
 19 20  1  0  0  0  0
 19 44  1  0  0  0  0
 19 45  1  0  0  0  0
 20 46  1  0  0  0  0
 20 47  1  0  0  0  0
 21 48  1  0  0  0  0
 21 49  1  0  0  0  0
 22 23  2  0  0  0  0
M  END
> <s_m_source_file>
AV-unprocessed.smi

> <i_m_source_file_index>
2244

> <i_lp_mmshare_version>
43012

> <i_f3d_flags>
0

> <s_epik_input>
W0NIM11DKFtDSDNdKShbQ0gzXSljMVtjSF1bY0hdYyhubjEpW05IXUMoPU8pW05IXVtDQEBIXTJbQ0gyXVtDSDJdT1tDQEhdKFtDSDJdMilbQ0hdM1tDSDJdW0NIMl0z

> <s_epik_cmdline>
J2VwaWtfcHl0aG9uJywgJy1waCcsICc3LjAnLCAnLXRuJywgJzgnLCAnLW1hJywgJzIwMCcsICctbWV0YWxfYmluZGluZycsICctaW1hZScsICc8aW5maWxlLm1hZT4nLCAnLW9tYWUnLCAnPG91dGZpbGUubWFlPic=

> <r_lp_tautomer_probability>
1

> <r_epik_Ionization_Penalty>
0.011369

> <r_epik_Ionization_Penalty_Charging>
0

> <r_epik_Ionization_Penalty_Neutral>
0.011369

> <r_epik_State_Penalty>
0.00456331

> <r_epik_Charging_Adjusted_Penalty>
0.00456331

> <i_epik_Tot_Q>
0

> <i_epik_Tot_abs_Q>
0

> <r_epik_Metal_State_Penalty>
-0

> <b_epik_Metal_Only>
0

> <s_lp_Force_Field>
OPLS_2005

> <r_lp_Energy>
27.405

> <b_lp_Chiralities_Consistent>
1

> <s_lp_Variant>
AV-unprocessed.smi:2244-2

> <Gold.Version>
5.8.1

> <Gold.Id.Protein>
6NUR|6NUR_protein|mol2

> <Gold.PLP.Fitness>
37.9569

> <Gold.PLP.PLP>
-35.2124

> <Gold.PLP.part.hbond>
-2.0000

> <Gold.PLP.part.metal>
0.0000

> <Gold.PLP.part.buried>
-4.0286

> <Gold.PLP.part.nonpolar>
-29.9592

> <Gold.PLP.part.repulsive>
0.4251

> <Gold.PLP.ligand.clash>
0.0000

> <Gold.PLP.ligand.torsion>
0.6525

> <Gold.PLP.Chemscore.Hbond>
0.9913

> <Gold.PLP.Chemscore.CHOScore>
0.0000

> <Gold.PLP.Chemscore.Metal>
0.0000

> <Gold.Chemscore.Hbonds>
donor molecule, donor type, donor heavy atom, donor atom, acceptor molecule, acceptor atom, score
      P1  H  6934  6947       L1    22  0.91

> <Gold.PLP.Chemscore.Internal.Correction>
1.0759

> <Gold.Rescore>
     Score         DG    S(hbond)    S(metal)    S(lipo)     H(rot)  DE(clash)    DE(int)     intcor
     13.06     -16.04       0.39        0.00     107.48       1.30       0.10       2.89       ----

> <Gold.Chemscore.Fitness>
13.0572

> <Gold.Chemscore.DG>
-16.0446

> <Gold.Chemscore.ZeroCoef>
-5.4800

> <Gold.Chemscore.Hbond>
0.3947

> <Gold.Chemscore.Metal>
0.0000

> <Gold.Chemscore.Lipo>
107.4756

> <Gold.Chemscore.Internal_Hbond>
0.0000

> <Gold.Chemscore.DEClash>
0.0965

> <Gold.Chemscore.DEInternal>
2.8909

> <Gold.Chemscore.Rot>
1.3002

> <Gold.Chemscore.Internal.Correction>
   9.000000E+99

> <Gold.Chemscore.Hbonds>
donor molecule, donor type, donor heavy atom, donor atom, acceptor molecule, acceptor atom, score
      P1  H  6934  6947       L1    22  0.26

> <Gold.Chemscore.Hbond.Weighted>
-1.3183

> <Gold.Chemscore.Metal.Weighted>
-0.0000

> <Gold.Chemscore.Lipo.Weighted>
-12.5746

> <Gold.Chemscore.Internal_Hbond.Weighted>
0.0000

> <Gold.Chemscore.DEClash.Weighted>
0.0965

> <Gold.Chemscore.DEInternal.Weighted>
2.8909

> <Gold.Chemscore.Rot.Weighted>
3.3284

> <Gold.Chemscore.Internal.Correction.Weighted>
   9.000000E+99

> <Gold.Protein.RotatedTorsions>
[ 6907 6896 6895 6894 ] final  175.56 input  -60.11 | X-H torsion
[ 7974 7965 7964 7962 ] final  -70.79 input  175.53 | X-H torsion
[ 8008 7997 7996 7995 ] final   65.15 input   59.86 | X-H torsion
[ 10167 10162 10161 10158 ] final -157.64 input  -65.29 | X-H torsion
[ 10718 10713 10712 10709 ] final   81.14 input   66.30 | X-H torsion
[ 10763 10752 10751 10750 ] final -106.44 input  -60.55 | X-H torsion
[ 11005 11000 10999 10996 ] final   -0.63 input  -57.11 | X-H torsion

> <Gold.Protein.ActiveResidues>
 VAL166  LYS551  ARG553  GLY616  TRP617  ASP618  TYR619  PRO620  LYS621  CYS622 
 ASP623  PHE694  ASN695  SER759  ASP760  ASP761  ALA762  ILE779  LEU786  VAL792 
 PHE793  MET794  SER795  GLU796  ALA797  LYS798  CYS799  TRP800  GLU811  SER814 

> <Gold.Protein.RotatedAtoms>
  151.7343  133.3319  159.3348 H   0  0  0  0  0  0  0  0  0  0  0  0  # atno 6907 bound_to 6896
  150.7600  134.6335  159.6208 H   0  0  0  0  0  0  0  0  0  0  0  0  # atno 6908 bound_to 6896
  152.3572  134.6926  160.0270 H   0  0  0  0  0  0  0  0  0  0  0  0  # atno 6909 bound_to 6896
  145.6864  140.9169  143.0805 H   0  0  0  0  0  0  0  0  0  0  0  0  # atno 7974 bound_to 7965
  155.6572  140.3497  155.4769 H   0  0  0  0  0  0  0  0  0  0  0  0  # atno 8008 bound_to 7997
  155.9799  140.1172  157.0759 H   0  0  0  0  0  0  0  0  0  0  0  0  # atno 8009 bound_to 7997
  154.4188  140.1140  156.5407 H   0  0  0  0  0  0  0  0  0  0  0  0  # atno 8010 bound_to 7997
  139.6754  143.9672  152.2307 H   0  0  0  0  0  0  0  0  0  0  0  0  # atno 10167 bound_to 10162
  157.6825  130.9990  150.2182 H   0  0  0  0  0  0  0  0  0  0  0  0  # atno 10718 bound_to 10713
  154.8012  135.4712  154.0280 H   0  0  0  0  0  0  0  0  0  0  0  0  # atno 10763 bound_to 10752
  153.1784  135.6836  153.8518 H   0  0  0  0  0  0  0  0  0  0  0  0  # atno 10764 bound_to 10752
  153.8076  135.3221  155.3375 H   0  0  0  0  0  0  0  0  0  0  0  0  # atno 10765 bound_to 10752
  140.6384  133.9512  155.8312 H   0  0  0  0  0  0  0  0  0  0  0  0  # atno 11005 bound_to 11000
  144.7010  139.8764  143.7444 LP  0  0  0  0  0  0  0  0  0  0  0  0  # atno 17320 bound_to 7965
  146.0920  139.3910  143.0400 LP  0  0  0  0  0  0  0  0  0  0  0  0  # atno 17321 bound_to 7965
  139.9448  144.6658  150.8230 LP  0  0  0  0  0  0  0  0  0  0  0  0  # atno 17342 bound_to 10162
  140.7633  143.3221  151.2599 LP  0  0  0  0  0  0  0  0  0  0  0  0  # atno 17343 bound_to 10162
  156.2839  130.3737  149.7908 LP  0  0  0  0  0  0  0  0  0  0  0  0  # atno 17370 bound_to 10713
  156.5588  130.8374  151.3322 LP  0  0  0  0  0  0  0  0  0  0  0  0  # atno 17371 bound_to 10713
  141.0625  134.0326  157.3639 LP  0  0  0  0  0  0  0  0  0  0  0  0  # atno 17394 bound_to 11000
  139.9089  135.0186  156.7608 LP  0  0  0  0  0  0  0  0  0  0  0  0  # atno 17395 bound_to 11000

$$$$
