AV-unprocessed.smi:365|AV-procd|sdf|2428|dock2
  -GOLD-   2262022363D 1   1.00000     0.00000
 Structure written by MMmdl.
 53 54  0  0  0  0  0  0  0  0  1 V2000
  147.2833  135.8353  156.3476 C   0  0  0  0  0  0  0  0  0  0  0  0
  147.9543  136.3038  155.0408 C   0  0  1  0  0  0  0  0  0  0  0  0
  147.2469  135.8828  153.8266 N   0  0  0  0  0  0  0  0  0  0  0  0
  145.9716  135.4715  153.6895 C   0  0  0  0  0  0  0  0  0  0  0  0
  145.1759  135.4285  154.6283 O   0  0  0  0  0  0  0  0  0  0  0  0
  145.5299  135.0669  152.2628 C   0  0  0  0  0  0  0  0  0  0  0  0
  144.0558  134.6123  152.2963 C   0  0  0  0  0  0  0  0  0  0  0  0
  146.3945  133.8990  151.7360 C   0  0  0  0  0  0  0  0  0  0  0  0
  145.6932  136.2656  151.3032 C   0  0  0  0  0  0  0  0  0  0  0  0
  148.3238  137.7939  155.0341 C   0  0  0  0  0  0  0  0  0  0  0  0
  148.0514  138.5144  155.9949 O   0  0  0  0  0  0  0  0  0  0  0  0
  148.9712  138.2382  153.9458 N   0  0  0  0  0  0  0  0  0  0  0  0
  149.4543  139.6020  153.7563 C   0  0  0  0  0  0  0  0  0  0  0  0
  150.1704  140.1797  154.9686 C   0  0  0  0  0  0  0  0  0  0  0  0
  151.1556  139.4277  155.6365 C   0  0  0  0  0  0  0  0  0  0  0  0
  151.7921  139.9774  156.7659 C   0  0  0  0  0  0  0  0  0  0  0  0
  151.4228  141.2737  157.2088 C   0  0  0  0  0  0  0  0  0  0  0  0
  152.0246  141.8871  158.3331 N   0  0  0  0  0  0  0  0  0  0  0  0
  151.6605  143.2801  158.5967 C   0  0  0  0  0  0  0  0  0  0  0  0
  152.6271  143.9136  159.6114 C   0  0  0  0  0  0  0  0  0  0  0  0
  152.6830  143.1166  160.7886 O   0  0  0  0  0  0  0  0  0  0  0  0
  153.1796  141.8122  160.5133 C   0  0  0  0  0  0  0  0  0  0  0  0
  152.2339  141.0893  159.5393 C   0  0  0  0  0  0  0  0  0  0  0  0
  150.4714  141.9897  156.5611 N   0  0  0  0  0  0  0  0  0  0  0  0
  149.8651  141.4587  155.4793 C   0  0  0  0  0  0  0  0  0  0  0  0
  147.9434  135.9967  157.2005 H   0  0  0  0  0  0  0  0  0  0  0  0
  147.0511  134.7705  156.3126 H   0  0  0  0  0  0  0  0  0  0  0  0
  146.3598  136.3760  156.5543 H   0  0  0  0  0  0  0  0  0  0  0  0
  148.8992  135.7615  154.9813 H   0  0  0  0  0  0  0  0  0  0  0  0
  147.8002  135.8962  152.9823 H   0  0  0  0  0  0  0  0  0  0  0  0
  143.7238  134.2801  151.3121 H   0  0  0  0  0  0  0  0  0  0  0  0
  143.3879  135.4173  152.6056 H   0  0  0  0  0  0  0  0  0  0  0  0
  143.9098  133.7803  152.9870 H   0  0  0  0  0  0  0  0  0  0  0  0
  146.2939  133.0086  152.3586 H   0  0  0  0  0  0  0  0  0  0  0  0
  147.4526  134.1632  151.7031 H   0  0  0  0  0  0  0  0  0  0  0  0
  146.1015  133.6170  150.7242 H   0  0  0  0  0  0  0  0  0  0  0  0
  145.4423  135.9860  150.2794 H   0  0  0  0  0  0  0  0  0  0  0  0
  146.7196  136.6349  151.2968 H   0  0  0  0  0  0  0  0  0  0  0  0
  145.0435  137.0990  151.5737 H   0  0  0  0  0  0  0  0  0  0  0  0
  149.1585  137.5800  153.2034 H   0  0  0  0  0  0  0  0  0  0  0  0
  150.1528  139.5989  152.9194 H   0  0  0  0  0  0  0  0  0  0  0  0
  148.6297  140.2552  153.4649 H   0  0  0  0  0  0  0  0  0  0  0  0
  151.4224  138.4394  155.2918 H   0  0  0  0  0  0  0  0  0  0  0  0
  152.5405  139.3861  157.2705 H   0  0  0  0  0  0  0  0  0  0  0  0
  151.6739  143.8808  157.6873 H   0  0  0  0  0  0  0  0  0  0  0  0
  150.6410  143.3085  158.9832 H   0  0  0  0  0  0  0  0  0  0  0  0
  153.6249  144.0205  159.1827 H   0  0  0  0  0  0  0  0  0  0  0  0
  152.2873  144.9145  159.8776 H   0  0  0  0  0  0  0  0  0  0  0  0
  154.1886  141.8742  160.1022 H   0  0  0  0  0  0  0  0  0  0  0  0
  153.2518  141.2559  161.4478 H   0  0  0  0  0  0  0  0  0  0  0  0
  151.2720  140.9024  160.0183 H   0  0  0  0  0  0  0  0  0  0  0  0
  152.6718  140.1237  159.2862 H   0  0  0  0  0  0  0  0  0  0  0  0
  149.1096  142.0771  155.0170 H   0  0  0  0  0  0  0  0  0  0  0  0
  1  2  1  0  0  0  0
  1 26  1  0  0  0  0
  1 27  1  0  0  0  0
  1 28  1  0  0  0  0
  2  3  1  0  0  0  0
  2 10  1  0  0  0  0
  2 29  1  0  0  0  0
  3  4  1  0  0  0  0
  3 30  1  0  0  0  0
  4  5  2  0  0  0  0
  4  6  1  0  0  0  0
  6  7  1  0  0  0  0
  6  8  1  0  0  0  0
  6  9  1  0  0  0  0
  7 31  1  0  0  0  0
  7 32  1  0  0  0  0
  7 33  1  0  0  0  0
  8 34  1  0  0  0  0
  8 35  1  0  0  0  0
  8 36  1  0  0  0  0
  9 37  1  0  0  0  0
  9 38  1  0  0  0  0
  9 39  1  0  0  0  0
 10 11  2  0  0  0  0
 10 12  1  0  0  0  0
 12 13  1  0  0  0  0
 12 40  1  0  0  0  0
 13 14  1  0  0  0  0
 13 41  1  0  0  0  0
 13 42  1  0  0  0  0
 14 25  1  0  0  0  0
 14 15  2  0  0  0  0
 15 16  1  0  0  0  0
 15 43  1  0  0  0  0
 16 17  2  0  0  0  0
 16 44  1  0  0  0  0
 17 18  1  0  0  0  0
 17 24  1  0  0  0  0
 18 23  1  0  0  0  0
 18 19  1  0  0  0  0
 19 20  1  0  0  0  0
 19 45  1  0  0  0  0
 19 46  1  0  0  0  0
 20 21  1  0  0  0  0
 20 47  1  0  0  0  0
 20 48  1  0  0  0  0
 21 22  1  0  0  0  0
 22 23  1  0  0  0  0
 22 49  1  0  0  0  0
 22 50  1  0  0  0  0
 23 51  1  0  0  0  0
 23 52  1  0  0  0  0
 24 25  2  0  0  0  0
 25 53  1  0  0  0  0
M  END
> <s_m_source_file>
AV-unprocessed.smi

> <i_m_source_file_index>
365

> <i_lp_mmshare_version>
43012

> <i_f3d_flags>
0

> <s_epik_input>
W0NIM11DKFtDSDNdKShbQ0gzXSlDKD1PKVtOSF1bQ0BASF0oW0NIM10pQyg9TylbTkhdW0NIMl1jMVtjSF1bY0hdYyhuW2NIXTEpTjJbQ0gyXVtDSDJdT1tDSDJdW0NIMl0y

> <s_epik_cmdline>
J2VwaWtfcHl0aG9uJywgJy1waCcsICc3LjAnLCAnLXRuJywgJzgnLCAnLW1hJywgJzIwMCcsICctbWV0YWxfYmluZGluZycsICctaW1hZScsICc8aW5maWxlLm1hZT4nLCAnLW9tYWUnLCAnPG91dGZpbGUubWFlPic=

> <r_lp_tautomer_probability>
1

> <r_epik_Ionization_Penalty>
0.00484327

> <r_epik_Ionization_Penalty_Charging>
0

> <r_epik_Ionization_Penalty_Neutral>
0.00484327

> <r_epik_State_Penalty>
0.0035131

> <r_epik_Charging_Adjusted_Penalty>
0.0035131

> <i_epik_Tot_Q>
0

> <i_epik_Tot_abs_Q>
0

> <r_epik_Metal_State_Penalty>
-0

> <b_epik_Metal_Only>
0

> <s_lp_Force_Field>
OPLS_2005

> <r_lp_Energy>
26.0036

> <b_lp_Chiralities_Consistent>
1

> <s_lp_Variant>
AV-unprocessed.smi:365-2

> <Gold.Version>
5.8.1

> <Gold.Id.Protein>
6NUR|6NUR_protein|mol2

> <Gold.PLP.Fitness>
44.4156

> <Gold.PLP.PLP>
-37.3026

> <Gold.PLP.part.hbond>
-2.0000

> <Gold.PLP.part.metal>
0.0000

> <Gold.PLP.part.buried>
-1.7818

> <Gold.PLP.part.nonpolar>
-34.0051

> <Gold.PLP.part.repulsive>
0.2000

> <Gold.PLP.ligand.clash>
0.0000

> <Gold.PLP.ligand.torsion>
0.7251

> <Gold.PLP.Chemscore.Hbond>
2.0000

> <Gold.PLP.Chemscore.CHOScore>
0.5852

> <Gold.PLP.Chemscore.Metal>
0.0000

> <Gold.Chemscore.Hbonds>
donor molecule, donor type, donor heavy atom, donor atom, acceptor molecule, acceptor atom, score
      L1  H     3    30       P1  7948  1.00
      L1  H    12    40       P1  7948  1.00
      L1  C    25    53       P1  8028  0.44

> <Gold.PLP.Chemscore.Internal.Correction>
0.8076

> <Gold.Rescore>
     Score         DG    S(hbond)    S(metal)    S(lipo)     H(rot)  DE(clash)    DE(int)     intcor
     13.63     -18.67       1.99        0.00     100.65       2.04       1.55       3.49       ----

> <Gold.Chemscore.Fitness>
13.6301

> <Gold.Chemscore.DG>
-18.6742

> <Gold.Chemscore.ZeroCoef>
-5.4800

> <Gold.Chemscore.Hbond>
1.9856

> <Gold.Chemscore.Metal>
0.0000

> <Gold.Chemscore.Lipo>
100.6531

> <Gold.Chemscore.Internal_Hbond>
0.0000

> <Gold.Chemscore.DEClash>
1.5509

> <Gold.Chemscore.DEInternal>
3.4932

> <Gold.Chemscore.Rot>
2.0367

> <Gold.Chemscore.Internal.Correction>
   9.000000E+99

> <Gold.Chemscore.Hbonds>
donor molecule, donor type, donor heavy atom, donor atom, acceptor molecule, acceptor atom, score
      L1  H     3    30       P1  7948  0.99
      L1  H    12    40       P1  7948  0.99

> <Gold.Chemscore.Hbond.Weighted>
-6.6318

> <Gold.Chemscore.Metal.Weighted>
-0.0000

> <Gold.Chemscore.Lipo.Weighted>
-11.7764

> <Gold.Chemscore.Internal_Hbond.Weighted>
0.0000

> <Gold.Chemscore.DEClash.Weighted>
1.5509

> <Gold.Chemscore.DEInternal.Weighted>
3.4932

> <Gold.Chemscore.Rot.Weighted>
5.2140

> <Gold.Chemscore.Internal.Correction.Weighted>
   9.000000E+99

> <Gold.Protein.RotatedTorsions>
[ 6907 6896 6895 6894 ] final  130.08 input  -60.11 | X-H torsion
[ 7974 7965 7964 7962 ] final  162.03 input  175.53 | X-H torsion
[ 8008 7997 7996 7995 ] final  161.38 input   59.86 | X-H torsion
[ 10167 10162 10161 10158 ] final  -29.62 input  -65.29 | X-H torsion
[ 10718 10713 10712 10709 ] final   18.63 input   66.30 | X-H torsion
[ 10763 10752 10751 10750 ] final  -69.85 input  -60.55 | X-H torsion
[ 11005 11000 10999 10996 ] final  114.62 input  -57.11 | X-H torsion

> <Gold.Protein.ActiveResidues>
 VAL166  LYS551  ARG553  GLY616  TRP617  ASP618  TYR619  PRO620  LYS621  CYS622 
 ASP623  PHE694  ASN695  SER759  ASP760  ASP761  ALA762  ILE779  LEU786  VAL792 
 PHE793  MET794  SER795  GLU796  ALA797  LYS798  CYS799  TRP800  GLU811  SER814 

> <Gold.Protein.RotatedAtoms>
  152.3561  133.6239  159.5980 H   0  0  0  0  0  0  0  0  0  0  0  0  # atno 6907 bound_to 6896
  150.7569  133.9498  159.3491 H   0  0  0  0  0  0  0  0  0  0  0  0  # atno 6908 bound_to 6896
  151.7343  135.0869  160.0356 H   0  0  0  0  0  0  0  0  0  0  0  0  # atno 6909 bound_to 6896
  144.7656  139.7982  143.6316 H   0  0  0  0  0  0  0  0  0  0  0  0  # atno 7974 bound_to 7965
  156.2107  140.1779  156.7701 H   0  0  0  0  0  0  0  0  0  0  0  0  # atno 8008 bound_to 7997
  154.5718  140.0681  156.9006 H   0  0  0  0  0  0  0  0  0  0  0  0  # atno 8009 bound_to 7997
  155.2659  140.3339  155.4271 H   0  0  0  0  0  0  0  0  0  0  0  0  # atno 8010 bound_to 7997
  140.7258  143.3914  151.1424 H   0  0  0  0  0  0  0  0  0  0  0  0  # atno 10167 bound_to 10162
  157.0991  130.6460  149.5868 H   0  0  0  0  0  0  0  0  0  0  0  0  # atno 10718 bound_to 10713
  154.4092  135.6013  153.5943 H   0  0  0  0  0  0  0  0  0  0  0  0  # atno 10763 bound_to 10752
  152.9790  135.5925  154.4090 H   0  0  0  0  0  0  0  0  0  0  0  0  # atno 10764 bound_to 10752
  154.3900  135.2842  155.2139 H   0  0  0  0  0  0  0  0  0  0  0  0  # atno 10765 bound_to 10752
  139.8986  134.9571  156.6919 H   0  0  0  0  0  0  0  0  0  0  0  0  # atno 11005 bound_to 11000
  146.1761  139.4932  142.9896 LP  0  0  0  0  0  0  0  0  0  0  0  0  # atno 17320 bound_to 7965
  145.6480  141.0269  143.1776 LP  0  0  0  0  0  0  0  0  0  0  0  0  # atno 17321 bound_to 7965
  139.7519  143.8766  152.3079 LP  0  0  0  0  0  0  0  0  0  0  0  0  # atno 17342 bound_to 10162
  139.8622  144.7111  150.9086 LP  0  0  0  0  0  0  0  0  0  0  0  0  # atno 17343 bound_to 10162
  155.9878  130.4919  150.7142 LP  0  0  0  0  0  0  0  0  0  0  0  0  # atno 17370 bound_to 10713
  157.4656  131.0888  151.0698 LP  0  0  0  0  0  0  0  0  0  0  0  0  # atno 17371 bound_to 10713
  140.7218  133.9134  155.8152 LP  0  0  0  0  0  0  0  0  0  0  0  0  # atno 17394 bound_to 11000
  141.0222  134.0874  157.4108 LP  0  0  0  0  0  0  0  0  0  0  0  0  # atno 17395 bound_to 11000

$$$$
