AV-unprocessed.smi:1656|AV-procd|sdf|6646|dock2
  -GOLD-   22720 7353D 1   1.00000     0.00000
 Structure written by MMmdl.
 49 52  0  0  0  0  0  0  0  0  1 V2000
  145.0338  144.3036  153.4856 C   0  0  0  0  0  0  0  0  0  0  0  0
  145.2802  143.3629  154.6343 C   0  0  0  0  0  0  0  0  0  0  0  0
  146.4400  142.7945  154.6814 N   0  0  0  0  0  0  0  0  0  0  0  0
  146.7715  141.9195  155.6978 N   0  0  0  0  0  0  0  0  0  0  0  0
  148.1435  141.3966  155.6178 C   0  0  0  0  0  0  0  0  0  0  0  0
  148.9652  141.6749  156.8847 C   0  0  0  0  0  0  0  0  0  0  0  0
  148.7548  141.0349  157.9155 O   0  0  0  0  0  0  0  0  0  0  0  0
  149.8865  142.6486  156.7828 N   0  0  0  0  0  0  0  0  0  0  0  0
  150.8267  143.1192  157.8055 C   0  0  0  0  0  0  0  0  0  0  0  0
  151.7126  141.9627  158.3451 C   0  0  0  0  0  0  0  0  0  0  0  0
  152.6419  142.4904  159.4598 C   0  0  1  0  0  0  0  0  0  0  0  0
  153.5441  143.6088  158.8940 C   0  0  0  0  0  0  0  0  0  0  0  0
  152.6636  144.7695  158.3815 C   0  0  2  0  0  0  0  0  0  0  0  0
  151.8155  145.3280  159.5430 C   0  0  0  0  0  0  0  0  0  0  0  0
  150.9167  144.2049  160.1004 C   0  0  2  0  0  0  0  0  0  0  0  0
  151.7937  143.0479  160.6218 C   0  0  0  0  0  0  0  0  0  0  0  0
  149.9897  143.6840  158.9817 C   0  0  0  0  0  0  0  0  0  0  0  0
  151.7347  144.2558  157.2602 C   0  0  0  0  0  0  0  0  0  0  0  0
  145.9363  141.5574  156.7142 C   0  0  0  0  0  0  0  0  0  0  0  0
  146.2699  140.7625  157.5944 O   0  0  0  0  0  0  0  0  0  0  0  0
  144.6243  142.2054  156.6546 C   0  0  0  0  0  0  0  0  0  0  0  0
  143.7235  141.8637  157.7078 C   0  0  0  0  0  0  0  0  0  0  0  0
  142.9948  141.6054  158.5696 N   0  0  0  0  0  0  0  0  0  0  0  0
  144.2908  143.0742  155.6675 C   0  0  0  0  0  0  0  0  0  0  0  0
  142.9437  143.7759  155.5625 C   0  0  0  0  0  0  0  0  0  0  0  0
  144.2292  143.9343  152.8496 H   0  0  0  0  0  0  0  0  0  0  0  0
  145.9199  144.4236  152.8605 H   0  0  0  0  0  0  0  0  0  0  0  0
  144.7530  145.2926  153.8481 H   0  0  0  0  0  0  0  0  0  0  0  0
  148.1201  140.3233  155.4184 H   0  0  0  0  0  0  0  0  0  0  0  0
  148.6699  141.8400  154.7709 H   0  0  0  0  0  0  0  0  0  0  0  0
  149.9606  143.1052  155.8853 H   0  0  0  0  0  0  0  0  0  0  0  0
  151.0894  141.1542  158.7298 H   0  0  0  0  0  0  0  0  0  0  0  0
  152.3202  141.5283  157.5512 H   0  0  0  0  0  0  0  0  0  0  0  0
  153.2649  141.6742  159.8265 H   0  0  0  0  0  0  0  0  0  0  0  0
  154.2297  143.9666  159.6631 H   0  0  0  0  0  0  0  0  0  0  0  0
  154.1642  143.2203  158.0851 H   0  0  0  0  0  0  0  0  0  0  0  0
  153.3013  145.5611  157.9869 H   0  0  0  0  0  0  0  0  0  0  0  0
  152.4619  145.7206  160.3291 H   0  0  0  0  0  0  0  0  0  0  0  0
  151.2063  146.1645  159.1983 H   0  0  0  0  0  0  0  0  0  0  0  0
  150.3120  144.5979  160.9183 H   0  0  0  0  0  0  0  0  0  0  0  0
  151.1687  142.2610  161.0457 H   0  0  0  0  0  0  0  0  0  0  0  0
  152.4397  143.3970  161.4284 H   0  0  0  0  0  0  0  0  0  0  0  0
  149.3431  144.4910  158.6337 H   0  0  0  0  0  0  0  0  0  0  0  0
  149.3281  142.9134  159.3806 H   0  0  0  0  0  0  0  0  0  0  0  0
  152.3425  143.9075  156.4250 H   0  0  0  0  0  0  0  0  0  0  0  0
  151.1267  145.0752  156.8739 H   0  0  0  0  0  0  0  0  0  0  0  0
  142.2507  143.4585  156.3410 H   0  0  0  0  0  0  0  0  0  0  0  0
  142.4728  143.5648  154.6020 H   0  0  0  0  0  0  0  0  0  0  0  0
  143.0693  144.8552  155.6544 H   0  0  0  0  0  0  0  0  0  0  0  0
  1  2  1  0  0  0  0
  1 26  1  0  0  0  0
  1 27  1  0  0  0  0
  1 28  1  0  0  0  0
  2 24  1  0  0  0  0
  2  3  2  0  0  0  0
  3  4  1  0  0  0  0
  4  5  1  0  0  0  0
  4 19  1  0  0  0  0
  5  6  1  0  0  0  0
  5 29  1  0  0  0  0
  5 30  1  0  0  0  0
  6  7  2  0  0  0  0
  6  8  1  0  0  0  0
  8  9  1  0  0  0  0
  8 31  1  0  0  0  0
  9 17  1  0  0  0  0
  9 18  1  0  0  0  0
  9 10  1  0  0  0  0
 10 11  1  0  0  0  0
 10 32  1  0  0  0  0
 10 33  1  0  0  0  0
 11 16  1  0  0  0  0
 11 12  1  0  0  0  0
 11 34  1  0  0  0  0
 12 13  1  0  0  0  0
 12 35  1  0  0  0  0
 12 36  1  0  0  0  0
 13 14  1  0  0  0  0
 13 18  1  0  0  0  0
 13 37  1  0  0  0  0
 14 15  1  0  0  0  0
 14 38  1  0  0  0  0
 14 39  1  0  0  0  0
 15 16  1  0  0  0  0
 15 17  1  0  0  0  0
 15 40  1  0  0  0  0
 16 41  1  0  0  0  0
 16 42  1  0  0  0  0
 17 43  1  0  0  0  0
 17 44  1  0  0  0  0
 18 45  1  0  0  0  0
 18 46  1  0  0  0  0
 19 20  2  0  0  0  0
 19 21  1  0  0  0  0
 21 22  1  0  0  0  0
 21 24  2  0  0  0  0
 22 23  3  0  0  0  0
 24 25  1  0  0  0  0
 25 47  1  0  0  0  0
 25 48  1  0  0  0  0
 25 49  1  0  0  0  0
M  END
> <s_m_source_file>
AV-unprocessed.smi

> <i_m_source_file_index>
1656

> <i_lp_mmshare_version>
43012

> <i_f3d_flags>
0

> <s_epik_input>
TiNDYyhjMVtDSDNdKWMoPU8pbihuYzFbQ0gzXSlbQ0gyXUMoPU8pW05IXUMyM1tDSDJdW0NASF00W0NIMl1bQ0BASF0oW0NIMl0zKVtDSDJdW0NASF0oW0NIMl00KVtDSDJdMg==

> <s_epik_cmdline>
J2VwaWtfcHl0aG9uJywgJy1waCcsICc3LjAnLCAnLXRuJywgJzgnLCAnLW1hJywgJzIwMCcsICctbWV0YWxfYmluZGluZycsICctaW1hZScsICc8aW5maWxlLm1hZT4nLCAnLW9tYWUnLCAnPG91dGZpbGUubWFlPic=

> <r_lp_tautomer_probability>
1

> <r_epik_Ionization_Penalty>
2.33831e-08

> <r_epik_Ionization_Penalty_Charging>
2.51001e-11

> <r_epik_Ionization_Penalty_Neutral>
2.3358e-08

> <r_epik_State_Penalty>
-0

> <r_epik_Charging_Adjusted_Penalty>
2.51001e-11

> <i_epik_Tot_Q>
0

> <i_epik_Tot_abs_Q>
0

> <r_epik_Metal_State_Penalty>
-0

> <b_epik_Metal_Only>
0

> <s_lp_Force_Field>
OPLS_2005

> <r_lp_Energy>
45.1543

> <b_lp_Chiralities_Consistent>
1

> <s_lp_Variant>
AV-unprocessed.smi:1656-1

> <Gold.Version>
5.8.1

> <Gold.Id.Protein>
6NUR|6NUR_protein|mol2

> <Gold.PLP.Fitness>
45.2147

> <Gold.PLP.PLP>
-45.0945

> <Gold.PLP.part.hbond>
-1.0000

> <Gold.PLP.part.metal>
0.0000

> <Gold.PLP.part.buried>
-7.0044

> <Gold.PLP.part.nonpolar>
-38.2781

> <Gold.PLP.part.repulsive>
0.2693

> <Gold.PLP.ligand.clash>
0.0000

> <Gold.PLP.ligand.torsion>
0.2015

> <Gold.PLP.Chemscore.Hbond>
0.1716

> <Gold.PLP.Chemscore.CHOScore>
0.0000

> <Gold.PLP.Chemscore.Metal>
0.0000

> <Gold.Chemscore.Hbonds>
donor molecule, donor type, donor heavy atom, donor atom, acceptor molecule, acceptor atom, score
      L1  H     8    31       P1  8028  0.32

> <Gold.PLP.Chemscore.Internal.Correction>
0.0084

> <Gold.Rescore>
     Score         DG    S(hbond)    S(metal)    S(lipo)     H(rot)  DE(clash)    DE(int)     intcor
     15.13     -18.48       0.17        0.00     137.94       1.44       0.29       3.06       ----

> <Gold.Chemscore.Fitness>
15.1304

> <Gold.Chemscore.DG>
-18.4835

> <Gold.Chemscore.ZeroCoef>
-5.4800

> <Gold.Chemscore.Hbond>
0.1681

> <Gold.Chemscore.Metal>
0.0000

> <Gold.Chemscore.Lipo>
137.9397

> <Gold.Chemscore.Internal_Hbond>
0.0000

> <Gold.Chemscore.DEClash>
0.2944

> <Gold.Chemscore.DEInternal>
3.0586

> <Gold.Chemscore.Rot>
1.4442

> <Gold.Chemscore.Internal.Correction>
   9.000000E+99

> <Gold.Chemscore.Hbonds>
donor molecule, donor type, donor heavy atom, donor atom, acceptor molecule, acceptor atom, score
      L1  H     8    31       P1  8028  0.32

> <Gold.Chemscore.Hbond.Weighted>
-0.5616

> <Gold.Chemscore.Metal.Weighted>
-0.0000

> <Gold.Chemscore.Lipo.Weighted>
-16.1389

> <Gold.Chemscore.Internal_Hbond.Weighted>
0.0000

> <Gold.Chemscore.DEClash.Weighted>
0.2944

> <Gold.Chemscore.DEInternal.Weighted>
3.0586

> <Gold.Chemscore.Rot.Weighted>
3.6971

> <Gold.Chemscore.Internal.Correction.Weighted>
   9.000000E+99

> <Gold.Protein.RotatedTorsions>
[ 6907 6896 6895 6894 ] final  -93.47 input  -60.11 | X-H torsion
[ 7974 7965 7964 7962 ] final  152.71 input  175.53 | X-H torsion
[ 8008 7997 7996 7995 ] final -144.78 input   59.86 | X-H torsion
[ 10167 10162 10161 10158 ] final -160.84 input  -65.29 | X-H torsion
[ 10718 10713 10712 10709 ] final  113.23 input   66.30 | X-H torsion
[ 10763 10752 10751 10750 ] final   81.50 input  -60.55 | X-H torsion
[ 11005 11000 10999 10996 ] final -154.46 input  -57.11 | X-H torsion

> <Gold.Protein.ActiveResidues>
 VAL166  LYS551  ARG553  GLY616  TRP617  ASP618  TYR619  PRO620  LYS621  CYS622 
 ASP623  PHE694  ASN695  SER759  ASP760  ASP761  ALA762  ILE779  LEU786  VAL792 
 PHE793  MET794  SER795  GLU796  ALA797  LYS798  CYS799  TRP800  GLU811  SER814 

> <Gold.Protein.RotatedAtoms>
  150.6923  134.1962  159.4304 H   0  0  0  0  0  0  0  0  0  0  0  0  # atno 6907 bound_to 6896
  151.9931  134.9966  160.0571 H   0  0  0  0  0  0  0  0  0  0  0  0  # atno 6908 bound_to 6896
  152.1649  133.4571  159.4916 H   0  0  0  0  0  0  0  0  0  0  0  0  # atno 6909 bound_to 6896
  144.8204  139.6704  143.6103 H   0  0  0  0  0  0  0  0  0  0  0  0  # atno 7974 bound_to 7965
  155.5326  140.0601  157.2886 H   0  0  0  0  0  0  0  0  0  0  0  0  # atno 8008 bound_to 7997
  154.4479  140.1933  156.0554 H   0  0  0  0  0  0  0  0  0  0  0  0  # atno 8009 bound_to 7997
  156.0642  140.3268  155.7501 H   0  0  0  0  0  0  0  0  0  0  0  0  # atno 8010 bound_to 7997
  139.6509  144.0085  152.2161 H   0  0  0  0  0  0  0  0  0  0  0  0  # atno 10167 bound_to 10162
  157.6349  131.0980  150.7010 H   0  0  0  0  0  0  0  0  0  0  0  0  # atno 10718 bound_to 10713
  153.1122  135.4763  154.9055 H   0  0  0  0  0  0  0  0  0  0  0  0  # atno 10763 bound_to 10752
  154.7492  135.3102  154.8591 H   0  0  0  0  0  0  0  0  0  0  0  0  # atno 10764 bound_to 10752
  153.9177  135.6858  153.4802 H   0  0  0  0  0  0  0  0  0  0  0  0  # atno 10765 bound_to 10752
  140.6970  134.3978  157.5213 H   0  0  0  0  0  0  0  0  0  0  0  0  # atno 11005 bound_to 11000
  146.2509  139.6198  142.9428 LP  0  0  0  0  0  0  0  0  0  0  0  0  # atno 17320 bound_to 7965
  145.5118  141.0435  143.2484 LP  0  0  0  0  0  0  0  0  0  0  0  0  # atno 17321 bound_to 7965
  139.9799  144.6435  150.7910 LP  0  0  0  0  0  0  0  0  0  0  0  0  # atno 17342 bound_to 10162
  140.7537  143.3014  151.3072 LP  0  0  0  0  0  0  0  0  0  0  0  0  # atno 17343 bound_to 10162
  156.7343  130.4719  149.5492 LP  0  0  0  0  0  0  0  0  0  0  0  0  # atno 17370 bound_to 10713
  156.1581  130.6355  151.0683 LP  0  0  0  0  0  0  0  0  0  0  0  0  # atno 17371 bound_to 10713
  139.8907  134.8798  156.2356 LP  0  0  0  0  0  0  0  0  0  0  0  0  # atno 17394 bound_to 11000
  141.0194  133.7050  156.1243 LP  0  0  0  0  0  0  0  0  0  0  0  0  # atno 17395 bound_to 11000

$$$$
