AV-unprocessed.smi:3143|AV-procd|sdf|11974|dock7
  -GOLD-   2272017373D 1   1.00000     0.00000
 Structure written by MMmdl.
 38 39  0  0  0  0  0  0  0  0  2 V2000
  148.4509  141.3083  154.8782 C   0  0  0  0  0  0  0  0  0  0  0  0
  149.6238  141.0576  155.8391 C   0  0  2  0  0  0  0  0  0  0  0  0
  150.3880  142.3134  156.0226 N   0  3  0  0  0  0  0  0  0  0  0  0
  150.7807  142.6080  157.4170 C   0  0  0  0  0  0  0  0  0  0  0  0
  151.6944  143.8407  157.4815 C   0  0  0  0  0  0  0  0  0  0  0  0
  151.8254  144.3492  158.8338 N   0  0  0  0  0  0  0  0  0  0  0  0
  152.1508  143.6587  159.9826 C   0  0  0  0  0  0  0  0  0  0  0  0
  152.1399  144.5554  161.0124 C   0  0  0  0  0  0  0  0  0  0  0  0
  151.7846  145.7836  160.3878 C   0  0  0  0  0  0  0  0  0  0  0  0
  151.5936  145.6560  159.0843 N   0  0  0  0  0  0  0  0  0  0  0  0
  150.5179  139.9253  155.2945 C   0  0  0  0  0  0  0  0  0  0  0  0
  150.4045  139.5972  154.1123 O   0  0  0  0  0  0  0  0  0  0  0  0
  151.3900  139.3127  156.1241 N   0  0  0  0  0  0  0  0  0  0  0  0
  151.5325  139.6647  157.5362 C   0  0  0  0  0  0  0  0  0  0  0  0
  152.4071  138.5725  158.1515 C   0  0  0  0  0  0  0  0  0  0  0  0
  153.2262  138.0512  156.9798 C   0  0  0  0  0  0  0  0  0  0  0  0
  152.3037  138.2249  155.7731 C   0  0  0  0  0  0  0  0  0  0  0  0
  147.8536  140.4078  154.7305 H   0  0  0  0  0  0  0  0  0  0  0  0
  148.7988  141.6381  153.8982 H   0  0  0  0  0  0  0  0  0  0  0  0
  147.7846  142.0782  155.2680 H   0  0  0  0  0  0  0  0  0  0  0  0
  149.2136  140.7872  156.8121 H   0  0  0  0  0  0  0  0  0  0  0  0
  151.2177  142.2679  155.4476 H   0  0  0  0  0  0  0  0  0  0  0  0
  149.8835  142.7792  158.0134 H   0  0  0  0  0  0  0  0  0  0  0  0
  151.2900  141.7429  157.8432 H   0  0  0  0  0  0  0  0  0  0  0  0
  152.6900  143.5998  157.1060 H   0  0  0  0  0  0  0  0  0  0  0  0
  151.3004  144.6374  156.8490 H   0  0  0  0  0  0  0  0  0  0  0  0
  152.3617  142.5993  159.9733 H   0  0  0  0  0  0  0  0  0  0  0  0
  152.3506  144.3629  162.0540 H   0  0  0  0  0  0  0  0  0  0  0  0
  151.6593  146.7565  160.8399 H   0  0  0  0  0  0  0  0  0  0  0  0
  152.0241  140.6357  157.6120 H   0  0  0  0  0  0  0  0  0  0  0  0
  150.5691  139.7320  158.0439 H   0  0  0  0  0  0  0  0  0  0  0  0
  153.0253  138.9374  158.9724 H   0  0  0  0  0  0  0  0  0  0  0  0
  151.7746  137.7727  158.5390 H   0  0  0  0  0  0  0  0  0  0  0  0
  154.1157  138.6698  156.8529 H   0  0  0  0  0  0  0  0  0  0  0  0
  153.5536  137.0202  157.1171 H   0  0  0  0  0  0  0  0  0  0  0  0
  151.7257  137.3147  155.6061 H   0  0  0  0  0  0  0  0  0  0  0  0
  152.8790  138.4363  154.8712 H   0  0  0  0  0  0  0  0  0  0  0  0
  149.8133  143.0785  155.7000 H   0  0  0  0  0  0  0  0  0  0  0  0
  1  2  1  0  0  0  0
  1 18  1  0  0  0  0
  1 19  1  0  0  0  0
  1 20  1  0  0  0  0
  2  3  1  0  0  0  0
  2 11  1  0  0  0  0
  2 21  1  0  0  0  0
  3  4  1  0  0  0  0
  3 22  1  0  0  0  0
  3 38  1  0  0  0  0
  4  5  1  0  0  0  0
  4 23  1  0  0  0  0
  4 24  1  0  0  0  0
  5  6  1  0  0  0  0
  5 25  1  0  0  0  0
  5 26  1  0  0  0  0
  6 10  1  0  0  0  0
  6  7  1  0  0  0  0
  7  8  2  0  0  0  0
  7 27  1  0  0  0  0
  8  9  1  0  0  0  0
  8 28  1  0  0  0  0
  9 10  2  0  0  0  0
  9 29  1  0  0  0  0
 11 12  2  0  0  0  0
 11 13  1  0  0  0  0
 13 17  1  0  0  0  0
 13 14  1  0  0  0  0
 14 15  1  0  0  0  0
 14 30  1  0  0  0  0
 14 31  1  0  0  0  0
 15 16  1  0  0  0  0
 15 32  1  0  0  0  0
 15 33  1  0  0  0  0
 16 17  1  0  0  0  0
 16 34  1  0  0  0  0
 16 35  1  0  0  0  0
 17 36  1  0  0  0  0
 17 37  1  0  0  0  0
M  CHG  1   3   1
M  END
> <s_m_source_file>
AV-unprocessed.smi

> <i_m_source_file_index>
3143

> <i_lp_mmshare_version>
43012

> <i_f3d_flags>
0

> <s_epik_input>
W0NIMl0xW0NIMl1bQ0gyXVtDSDJdTjFDKD1PKVtDQEhdKFtDSDNdKVtOSF1bQ0gyXVtDSDJdbjJbY0hdW2NIXVtjSF1uMg==

> <s_epik_cmdline>
J2VwaWtfcHl0aG9uJywgJy1waCcsICc3LjAnLCAnLXRuJywgJzgnLCAnLW1hJywgJzIwMCcsICctbWV0YWxfYmluZGluZycsICctaW1hZScsICc8aW5maWxlLm1hZT4nLCAnLW9tYWUnLCAnPG91dGZpbGUubWFlPic=

> <r_lp_tautomer_probability>
1

> <r_epik_Ionization_Penalty>
0.203171

> <r_epik_Ionization_Penalty_Charging>
0.203168

> <r_epik_Ionization_Penalty_Neutral>
2.46932e-06

> <r_epik_State_Penalty>
0.193072

> <r_epik_Charging_Adjusted_Penalty>
0.39624

> <i_epik_Tot_Q>
1

> <i_epik_Tot_abs_Q>
1

> <r_epik_Metal_State_Penalty>
0.193323

> <b_epik_Metal_Only>
0

> <s_lp_Force_Field>
OPLS_2005

> <r_lp_Energy>
30.2015

> <b_lp_Chiralities_Consistent>
1

> <s_lp_Variant>
AV-unprocessed.smi:3143-1

> <Gold.Version>
5.8.1

> <Gold.Id.Protein>
6NUR|6NUR_protein|mol2

> <Gold.PLP.Fitness>
44.1132

> <Gold.PLP.PLP>
-38.1149

> <Gold.PLP.part.hbond>
-3.0000

> <Gold.PLP.part.metal>
0.0000

> <Gold.PLP.part.buried>
-4.3736

> <Gold.PLP.part.nonpolar>
-32.1829

> <Gold.PLP.part.repulsive>
0.8307

> <Gold.PLP.ligand.clash>
0.0000

> <Gold.PLP.ligand.torsion>
1.1427

> <Gold.PLP.Chemscore.Hbond>
2.7500

> <Gold.PLP.Chemscore.CHOScore>
0.0000

> <Gold.PLP.Chemscore.Metal>
0.0000

> <Gold.Chemscore.Hbonds>
donor molecule, donor type, donor heavy atom, donor atom, acceptor molecule, acceptor atom, score
      L1  H     3    38       P1  8028  2.00
      P1  H  7989  7998       L1    12  0.75

> <Gold.PLP.Chemscore.Internal.Correction>
0.0336

> <Gold.Rescore>
     Score         DG    S(hbond)    S(metal)    S(lipo)     H(rot)  DE(clash)    DE(int)     intcor
     15.27     -17.11       1.74        0.00      90.13       1.84       0.44       1.40       ----

> <Gold.Chemscore.Fitness>
15.2742

> <Gold.Chemscore.DG>
-17.1115

> <Gold.Chemscore.ZeroCoef>
-5.4800

> <Gold.Chemscore.Hbond>
1.7360

> <Gold.Chemscore.Metal>
0.0000

> <Gold.Chemscore.Lipo>
90.1292

> <Gold.Chemscore.Internal_Hbond>
0.0000

> <Gold.Chemscore.DEClash>
0.4390

> <Gold.Chemscore.DEInternal>
1.3983

> <Gold.Chemscore.Rot>
1.8405

> <Gold.Chemscore.Internal.Correction>
   9.000000E+99

> <Gold.Chemscore.Hbonds>
donor molecule, donor type, donor heavy atom, donor atom, acceptor molecule, acceptor atom, score
      L1  H     3    38       P1  8028  1.00
      P1  H  7989  7998       L1    12  0.09

> <Gold.Chemscore.Hbond.Weighted>
-5.7981

> <Gold.Chemscore.Metal.Weighted>
-0.0000

> <Gold.Chemscore.Lipo.Weighted>
-10.5451

> <Gold.Chemscore.Internal_Hbond.Weighted>
0.0000

> <Gold.Chemscore.DEClash.Weighted>
0.4390

> <Gold.Chemscore.DEInternal.Weighted>
1.3983

> <Gold.Chemscore.Rot.Weighted>
4.7117

> <Gold.Chemscore.Internal.Correction.Weighted>
   9.000000E+99

> <Gold.Protein.RotatedTorsions>
[ 6907 6896 6895 6894 ] final   16.27 input  -60.11 | X-H torsion
[ 7974 7965 7964 7962 ] final -117.88 input  175.53 | X-H torsion
[ 8008 7997 7996 7995 ] final  -27.51 input   59.86 | X-H torsion
[ 10167 10162 10161 10158 ] final -151.48 input  -65.29 | X-H torsion
[ 10718 10713 10712 10709 ] final   37.88 input   66.30 | X-H torsion
[ 10763 10752 10751 10750 ] final   41.01 input  -60.55 | X-H torsion
[ 11005 11000 10999 10996 ] final  177.43 input  -57.11 | X-H torsion

> <Gold.Protein.ActiveResidues>
 VAL166  LYS551  ARG553  GLY616  TRP617  ASP618  TYR619  PRO620  LYS621  CYS622 
 ASP623  PHE694  ASN695  SER759  ASP760  ASP761  ALA762  ILE779  LEU786  VAL792 
 PHE793  MET794  SER795  GLU796  ALA797  LYS798  CYS799  TRP800  GLU811  SER814 

> <Gold.Protein.RotatedAtoms>
  151.8313  135.0620  160.0436 H   0  0  0  0  0  0  0  0  0  0  0  0  # atno 6907 bound_to 6896
  152.2878  133.5528  159.5547 H   0  0  0  0  0  0  0  0  0  0  0  0  # atno 6908 bound_to 6896
  150.7217  134.0388  159.3800 H   0  0  0  0  0  0  0  0  0  0  0  0  # atno 6909 bound_to 6896
  145.0801  140.8420  143.4044 H   0  0  0  0  0  0  0  0  0  0  0  0  # atno 7974 bound_to 7965
  154.4374  140.1870  156.0943 H   0  0  0  0  0  0  0  0  0  0  0  0  # atno 8008 bound_to 7997
  156.0341  140.3327  155.7146 H   0  0  0  0  0  0  0  0  0  0  0  0  # atno 8009 bound_to 7997
  155.5795  140.0620  157.2777 H   0  0  0  0  0  0  0  0  0  0  0  0  # atno 8010 bound_to 7997
  139.7264  143.8876  152.2520 H   0  0  0  0  0  0  0  0  0  0  0  0  # atno 10167 bound_to 10162
  157.3522  130.7604  149.6986 H   0  0  0  0  0  0  0  0  0  0  0  0  # atno 10718 bound_to 10713
  152.9920  135.6174  154.2718 H   0  0  0  0  0  0  0  0  0  0  0  0  # atno 10763 bound_to 10752
  154.2451  135.2787  155.2840 H   0  0  0  0  0  0  0  0  0  0  0  0  # atno 10764 bound_to 10752
  154.5336  135.5781  153.6837 H   0  0  0  0  0  0  0  0  0  0  0  0  # atno 10765 bound_to 10752
  140.3840  134.6921  157.4468 H   0  0  0  0  0  0  0  0  0  0  0  0  # atno 11005 bound_to 11000
  145.1188  139.2707  143.5599 LP  0  0  0  0  0  0  0  0  0  0  0  0  # atno 17320 bound_to 7965
  146.3531  140.0806  142.8618 LP  0  0  0  0  0  0  0  0  0  0  0  0  # atno 17321 bound_to 7965
  139.8787  144.7029  150.8903 LP  0  0  0  0  0  0  0  0  0  0  0  0  # atno 17342 bound_to 10162
  140.7763  143.3679  151.1705 LP  0  0  0  0  0  0  0  0  0  0  0  0  # atno 17343 bound_to 10162
  155.9723  130.4137  150.4097 LP  0  0  0  0  0  0  0  0  0  0  0  0  # atno 17370 bound_to 10713
  157.2162  131.0472  151.2572 LP  0  0  0  0  0  0  0  0  0  0  0  0  # atno 17371 bound_to 10713
  140.0456  134.6204  155.8925 LP  0  0  0  0  0  0  0  0  0  0  0  0  # atno 17394 bound_to 11000
  141.1914  133.6571  156.5453 LP  0  0  0  0  0  0  0  0  0  0  0  0  # atno 17395 bound_to 11000

$$$$
