AV-unprocessed.smi:2812|AV-procd|sdf|10835|dock8
  -GOLD-   2272015273D 1   1.00000     0.00000
 Structure written by MMmdl.
 55 56  0  0  0  0  0  0  0  0  2 V2000
  144.3713  135.5386  150.4350 C   0  0  0  0  0  0  0  0  0  0  0  0
  144.8100  134.1772  150.9512 C   0  0  0  0  0  0  0  0  0  0  0  0
  144.0776  132.9972  150.5409 C   0  0  0  0  0  0  0  0  0  0  0  0
  144.4490  131.7965  151.0047 C   0  0  0  0  0  0  0  0  0  0  0  0
  145.5423  131.6470  151.8701 N   0  0  0  0  0  0  0  0  0  0  0  0
  145.8794  130.2896  152.3073 C   0  0  0  0  0  0  0  0  0  0  0  0
  146.3005  132.7057  152.2769 C   0  0  0  0  0  0  0  0  0  0  0  0
  147.2992  132.5351  152.9801 O   0  0  0  0  0  0  0  0  0  0  0  0
  145.8569  134.0404  151.8068 C   0  0  0  0  0  0  0  0  0  0  0  0
  146.5728  135.1847  152.1908 N   0  0  0  0  0  0  0  0  0  0  0  0
  146.0686  136.2545  152.8302 C   0  0  0  0  0  0  0  0  0  0  0  0
  144.9029  136.3629  153.2132 O   0  0  0  0  0  0  0  0  0  0  0  0
  146.9874  137.2210  152.9682 N   0  0  0  0  0  0  0  0  0  0  0  0
  146.7435  138.5285  153.5721 C   0  0  0  0  0  0  0  0  0  0  0  0
  148.0405  139.3658  153.7762 C   0  0  2  0  0  0  0  0  0  0  0  0
  149.0686  138.5548  154.6088 C   0  0  0  0  0  0  0  0  0  0  0  0
  150.3741  139.3201  154.8303 C   0  0  0  0  0  0  0  0  0  0  0  0
  150.0653  140.6651  155.4810 C   0  0  0  0  0  0  0  0  0  0  0  0
  149.0672  141.4543  154.6258 C   0  0  0  0  0  0  0  0  0  0  0  0
  147.7927  140.7066  154.4116 N   0  3  1  0  0  0  0  0  0  0  0  0
  146.7736  141.5490  153.7135 C   0  0  0  0  0  0  0  0  0  0  0  0
  146.4333  142.8746  154.4370 C   0  0  0  0  0  0  0  0  0  0  0  0
  145.7129  142.6341  155.7747 C   0  0  0  0  0  0  0  0  0  0  0  0
  145.5832  143.7761  153.5289 C   0  0  0  0  0  0  0  0  0  0  0  0
  143.5099  135.4507  149.7725 H   0  0  0  0  0  0  0  0  0  0  0  0
  145.1772  136.0154  149.8764 H   0  0  0  0  0  0  0  0  0  0  0  0
  144.0921  136.1892  151.2643 H   0  0  0  0  0  0  0  0  0  0  0  0
  143.2335  133.0787  149.8718 H   0  0  0  0  0  0  0  0  0  0  0  0
  143.9406  130.8821  150.7356 H   0  0  0  0  0  0  0  0  0  0  0  0
  145.9643  130.2412  153.3941 H   0  0  0  0  0  0  0  0  0  0  0  0
  146.8320  129.9781  151.8766 H   0  0  0  0  0  0  0  0  0  0  0  0
  145.1292  129.5550  152.0126 H   0  0  0  0  0  0  0  0  0  0  0  0
  147.5103  135.2599  151.8242 H   0  0  0  0  0  0  0  0  0  0  0  0
  147.9188  137.0452  152.6201 H   0  0  0  0  0  0  0  0  0  0  0  0
  146.0285  139.0296  152.9214 H   0  0  0  0  0  0  0  0  0  0  0  0
  146.2441  138.3717  154.5286 H   0  0  0  0  0  0  0  0  0  0  0  0
  148.4777  139.5579  152.7950 H   0  0  0  0  0  0  0  0  0  0  0  0
  148.6327  138.2930  155.5741 H   0  0  0  0  0  0  0  0  0  0  0  0
  149.3123  137.6124  154.1184 H   0  0  0  0  0  0  0  0  0  0  0  0
  151.0503  138.7413  155.4601 H   0  0  0  0  0  0  0  0  0  0  0  0
  150.8830  139.4732  153.8776 H   0  0  0  0  0  0  0  0  0  0  0  0
  149.6572  140.5114  156.4811 H   0  0  0  0  0  0  0  0  0  0  0  0
  150.9850  141.2377  155.6050 H   0  0  0  0  0  0  0  0  0  0  0  0
  148.8881  142.3986  155.1347 H   0  0  0  0  0  0  0  0  0  0  0  0
  149.5123  141.6981  153.6596 H   0  0  0  0  0  0  0  0  0  0  0  0
  147.1130  141.7469  152.6955 H   0  0  0  0  0  0  0  0  0  0  0  0
  145.8288  141.0221  153.6219 H   0  0  0  0  0  0  0  0  0  0  0  0
  147.3458  143.4328  154.6389 H   0  0  0  0  0  0  0  0  0  0  0  0
  144.7851  142.0789  155.6317 H   0  0  0  0  0  0  0  0  0  0  0  0
  145.4625  143.5781  156.2600 H   0  0  0  0  0  0  0  0  0  0  0  0
  146.3354  142.0702  156.4695 H   0  0  0  0  0  0  0  0  0  0  0  0
  144.6279  143.3094  153.2856 H   0  0  0  0  0  0  0  0  0  0  0  0
  146.0981  143.9882  152.5913 H   0  0  0  0  0  0  0  0  0  0  0  0
  145.3716  144.7321  154.0093 H   0  0  0  0  0  0  0  0  0  0  0  0
  147.4143  140.5132  155.3277 H   0  0  0  0  0  0  0  0  0  0  0  0
  1  2  1  0  0  0  0
  1 25  1  0  0  0  0
  1 26  1  0  0  0  0
  1 27  1  0  0  0  0
  2  9  2  0  0  0  0
  2  3  1  0  0  0  0
  3  4  2  0  0  0  0
  3 28  1  0  0  0  0
  4  5  1  0  0  0  0
  4 29  1  0  0  0  0
  5  6  1  0  0  0  0
  5  7  1  0  0  0  0
  6 30  1  0  0  0  0
  6 31  1  0  0  0  0
  6 32  1  0  0  0  0
  7  8  2  0  0  0  0
  7  9  1  0  0  0  0
  9 10  1  0  0  0  0
 10 11  1  0  0  0  0
 10 33  1  0  0  0  0
 11 12  2  0  0  0  0
 11 13  1  0  0  0  0
 13 14  1  0  0  0  0
 13 34  1  0  0  0  0
 14 15  1  0  0  0  0
 14 35  1  0  0  0  0
 14 36  1  0  0  0  0
 15 20  1  0  0  0  0
 15 16  1  0  0  0  0
 15 37  1  0  0  0  0
 16 17  1  0  0  0  0
 16 38  1  0  0  0  0
 16 39  1  0  0  0  0
 17 18  1  0  0  0  0
 17 40  1  0  0  0  0
 17 41  1  0  0  0  0
 18 19  1  0  0  0  0
 18 42  1  0  0  0  0
 18 43  1  0  0  0  0
 19 20  1  0  0  0  0
 19 44  1  0  0  0  0
 19 45  1  0  0  0  0
 20 21  1  0  0  0  0
 20 55  1  0  0  0  0
 21 22  1  0  0  0  0
 21 46  1  0  0  0  0
 21 47  1  0  0  0  0
 22 23  1  0  0  0  0
 22 24  1  0  0  0  0
 22 48  1  0  0  0  0
 23 49  1  0  0  0  0
 23 50  1  0  0  0  0
 23 51  1  0  0  0  0
 24 52  1  0  0  0  0
 24 53  1  0  0  0  0
 24 54  1  0  0  0  0
M  CHG  1  20   1
M  END
> <s_m_source_file>
AV-unprocessed.smi

> <i_m_source_file_index>
2812

> <i_lp_mmshare_version>
43012

> <i_f3d_flags>
0

> <s_epik_input>
W0NIM11jMVtjSF1bY0hdbihbQ0gzXSljKD1PKWMxW05IXUMoPU8pW05IXVtDSDJdW0NAQEhdMltDSDJdW0NIMl1bQ0gyXVtDSDJdTjJbQ0gyXVtDSF0oW0NIM10pW0NIM10=

> <s_epik_cmdline>
J2VwaWtfcHl0aG9uJywgJy1waCcsICc3LjAnLCAnLXRuJywgJzgnLCAnLW1hJywgJzIwMCcsICctbWV0YWxfYmluZGluZycsICctaW1hZScsICc8aW5maWxlLm1hZT4nLCAnLW9tYWUnLCAnPG91dGZpbGUubWFlPic=

> <r_lp_tautomer_probability>
1

> <r_epik_Ionization_Penalty>
0.0010902

> <r_epik_Ionization_Penalty_Charging>
0.00107091

> <r_epik_Ionization_Penalty_Neutral>
1.92854e-05

> <r_epik_State_Penalty>
0.000697184

> <r_epik_Charging_Adjusted_Penalty>
0.0017681

> <i_epik_Tot_Q>
1

> <i_epik_Tot_abs_Q>
1

> <r_epik_Metal_State_Penalty>
-0

> <b_epik_Metal_Only>
0

> <s_lp_Force_Field>
OPLS_2005

> <r_lp_Energy>
39.8559

> <b_lp_Chiralities_Consistent>
1

> <s_lp_Variant>
AV-unprocessed.smi:2812-3

> <Gold.Version>
5.8.1

> <Gold.Id.Protein>
6NUR|6NUR_protein|mol2

> <Gold.PLP.Fitness>
50.5444

> <Gold.PLP.PLP>
-45.4808

> <Gold.PLP.part.hbond>
-1.7285

> <Gold.PLP.part.metal>
0.0000

> <Gold.PLP.part.buried>
-4.5907

> <Gold.PLP.part.nonpolar>
-39.4721

> <Gold.PLP.part.repulsive>
0.3551

> <Gold.PLP.ligand.clash>
0.0000

> <Gold.PLP.ligand.torsion>
0.6288

> <Gold.PLP.Chemscore.Hbond>
1.8545

> <Gold.PLP.Chemscore.CHOScore>
0.0000

> <Gold.PLP.Chemscore.Metal>
0.0000

> <Gold.Chemscore.Hbonds>
donor molecule, donor type, donor heavy atom, donor atom, acceptor molecule, acceptor atom, score
      L1  H    10    33       P1  7948  0.91
      L1  H    13    34       P1  7948  0.96

> <Gold.PLP.Chemscore.Internal.Correction>
0.7578

> <Gold.Rescore>
     Score         DG    S(hbond)    S(metal)    S(lipo)     H(rot)  DE(clash)    DE(int)     intcor
     18.88     -19.69       1.89        0.00     100.61       1.52       0.12       0.70       ----

> <Gold.Chemscore.Fitness>
18.8788

> <Gold.Chemscore.DG>
-19.6939

> <Gold.Chemscore.ZeroCoef>
-5.4800

> <Gold.Chemscore.Hbond>
1.8930

> <Gold.Chemscore.Metal>
0.0000

> <Gold.Chemscore.Lipo>
100.6127

> <Gold.Chemscore.Internal_Hbond>
0.0000

> <Gold.Chemscore.DEClash>
0.1155

> <Gold.Chemscore.DEInternal>
0.6997

> <Gold.Chemscore.Rot>
1.5157

> <Gold.Chemscore.Internal.Correction>
   9.000000E+99

> <Gold.Chemscore.Hbonds>
donor molecule, donor type, donor heavy atom, donor atom, acceptor molecule, acceptor atom, score
      L1  H    10    33       P1  7948  0.84
      L1  H    13    34       P1  7948  0.89

> <Gold.Chemscore.Hbond.Weighted>
-6.3225

> <Gold.Chemscore.Metal.Weighted>
-0.0000

> <Gold.Chemscore.Lipo.Weighted>
-11.7717

> <Gold.Chemscore.Internal_Hbond.Weighted>
0.0000

> <Gold.Chemscore.DEClash.Weighted>
0.1155

> <Gold.Chemscore.DEInternal.Weighted>
0.6997

> <Gold.Chemscore.Rot.Weighted>
3.8803

> <Gold.Chemscore.Internal.Correction.Weighted>
   9.000000E+99

> <Gold.Protein.RotatedTorsions>
[ 6907 6896 6895 6894 ] final  125.66 input  -60.11 | X-H torsion
[ 7974 7965 7964 7962 ] final   12.87 input  175.53 | X-H torsion
[ 8008 7997 7996 7995 ] final  154.63 input   59.86 | X-H torsion
[ 10167 10162 10161 10158 ] final  -23.98 input  -65.29 | X-H torsion
[ 10718 10713 10712 10709 ] final  -10.69 input   66.30 | X-H torsion
[ 10763 10752 10751 10750 ] final   84.76 input  -60.55 | X-H torsion
[ 11005 11000 10999 10996 ] final   12.06 input  -57.11 | X-H torsion

> <Gold.Protein.ActiveResidues>
 VAL166  LYS551  ARG553  GLY616  TRP617  ASP618  TYR619  PRO620  LYS621  CYS622 
 ASP623  PHE694  ASN695  SER759  ASP760  ASP761  ALA762  ILE779  LEU786  VAL792 
 PHE793  MET794  SER795  GLU796  ALA797  LYS798  CYS799  TRP800  GLU811  SER814 

> <Gold.Protein.RotatedAtoms>
  152.3972  133.6765  159.6286 H   0  0  0  0  0  0  0  0  0  0  0  0  # atno 6907 bound_to 6896
  150.7869  133.8853  159.3306 H   0  0  0  0  0  0  0  0  0  0  0  0  # atno 6908 bound_to 6896
  151.6626  135.0989  160.0234 H   0  0  0  0  0  0  0  0  0  0  0  0  # atno 6909 bound_to 6896
  146.2342  139.9272  142.8501 H   0  0  0  0  0  0  0  0  0  0  0  0  # atno 7974 bound_to 7965
  156.2521  140.1961  156.6676 H   0  0  0  0  0  0  0  0  0  0  0  0  # atno 8008 bound_to 7997
  154.6417  140.0583  156.9879 H   0  0  0  0  0  0  0  0  0  0  0  0  # atno 8009 bound_to 7997
  155.1553  140.3255  155.4425 H   0  0  0  0  0  0  0  0  0  0  0  0  # atno 8010 bound_to 7997
  140.7288  143.4394  151.0680 H   0  0  0  0  0  0  0  0  0  0  0  0  # atno 10167 bound_to 10162
  156.6699  130.5006  149.6003 H   0  0  0  0  0  0  0  0  0  0  0  0  # atno 10718 bound_to 10713
  153.1411  135.4642  154.9497 H   0  0  0  0  0  0  0  0  0  0  0  0  # atno 10763 bound_to 10752
  154.7748  135.3170  154.8117 H   0  0  0  0  0  0  0  0  0  0  0  0  # atno 10764 bound_to 10752
  153.8640  135.6910  153.4834 H   0  0  0  0  0  0  0  0  0  0  0  0  # atno 10765 bound_to 10752
  140.4962  134.0791  155.7783 H   0  0  0  0  0  0  0  0  0  0  0  0  # atno 11005 bound_to 11000
  145.2079  140.9883  143.4118 LP  0  0  0  0  0  0  0  0  0  0  0  0  # atno 17320 bound_to 7965
  144.9717  139.3873  143.6306 LP  0  0  0  0  0  0  0  0  0  0  0  0  # atno 17321 bound_to 7965
  139.8059  143.8018  152.3167 LP  0  0  0  0  0  0  0  0  0  0  0  0  # atno 17342 bound_to 10162
  139.8051  144.7358  150.9772 LP  0  0  0  0  0  0  0  0  0  0  0  0  # atno 17343 bound_to 10162
  156.1947  130.6582  151.1100 LP  0  0  0  0  0  0  0  0  0  0  0  0  # atno 17370 bound_to 10713
  157.7081  131.0747  150.6598 LP  0  0  0  0  0  0  0  0  0  0  0  0  # atno 17371 bound_to 10713
  141.1459  133.9056  157.2217 LP  0  0  0  0  0  0  0  0  0  0  0  0  # atno 17394 bound_to 11000
  139.9740  135.0119  156.9583 LP  0  0  0  0  0  0  0  0  0  0  0  0  # atno 17395 bound_to 11000

$$$$
