AV-unprocessed.smi:237|AV-procd|sdf|1818|dock7
  -GOLD-   2262020413D 1   1.00000     0.00000
 Structure written by MMmdl.
 53 56  0  0  0  0  0  0  0  0  1 V2000
  156.7867  140.2894  159.4736 C   0  0  0  0  0  0  0  0  0  0  0  0
  155.4296  139.9725  160.1052 C   0  0  0  0  0  0  0  0  0  0  0  0
  154.4984  139.7290  159.0631 O   0  0  0  0  0  0  0  0  0  0  0  0
  153.1420  139.6262  159.4807 C   0  0  0  0  0  0  0  0  0  0  0  0
  152.3822  140.9791  159.5472 C   0  0  1  0  0  0  0  0  0  0  0  0
  153.1457  141.9236  160.5038 C   0  0  0  0  0  0  0  0  0  0  0  0
  152.5051  143.3158  160.5780 C   0  0  0  0  0  0  0  0  0  0  0  0
  152.3918  143.9092  159.1701 C   0  0  0  0  0  0  0  0  0  0  0  0
  151.6121  142.9550  158.2569 C   0  0  0  0  0  0  0  0  0  0  0  0
  152.2212  141.6233  158.2315 N   0  0  0  0  0  0  0  0  0  0  0  0
  151.6449  140.8422  157.2889 C   0  0  0  0  0  0  0  0  0  0  0  0
  152.4172  140.2020  156.3708 N   0  0  0  0  0  0  0  0  0  0  0  0
  151.8439  139.4552  155.4227 C   0  0  0  0  0  0  0  0  0  0  0  0
  150.5462  139.2206  155.2151 N   0  0  0  0  0  0  0  0  0  0  0  0
  149.7718  139.8593  156.1392 C   0  0  0  0  0  0  0  0  0  0  0  0
  150.2372  140.6855  157.1992 C   0  0  0  0  0  0  0  0  0  0  0  0
  149.1641  141.1819  157.9263 N   0  0  0  0  0  0  0  0  0  0  0  0
  148.1199  140.6754  157.3293 C   0  0  0  0  0  0  0  0  0  0  0  0
  148.3923  139.8540  156.2569 N   0  0  0  0  0  0  0  0  0  0  0  0
  147.4270  139.1638  155.4126 C   0  0  0  0  0  0  0  0  0  0  0  0
  147.3304  139.6962  153.9618 C   0  0  0  0  0  0  0  0  0  0  0  0
  146.4892  138.7047  153.1463 C   0  0  0  0  0  0  0  0  0  0  0  0
  146.2199  139.2017  151.8510 O   0  0  0  0  0  0  0  0  0  0  0  0
  147.0015  141.1867  153.7650 C   0  0  0  0  0  0  0  0  0  0  0  0
  148.3849  141.5151  153.5180 O   0  0  0  0  0  0  0  0  0  0  0  0
  148.6587  140.1142  153.3079 C   0  0  0  0  0  0  0  0  0  0  0  0
  157.5400  140.4756  160.2392 H   0  0  0  0  0  0  0  0  0  0  0  0
  156.7257  141.1749  158.8406 H   0  0  0  0  0  0  0  0  0  0  0  0
  157.1340  139.4602  158.8567 H   0  0  0  0  0  0  0  0  0  0  0  0
  155.5257  139.1026  160.7541 H   0  0  0  0  0  0  0  0  0  0  0  0
  155.1006  140.8115  160.7197 H   0  0  0  0  0  0  0  0  0  0  0  0
  152.6279  138.9322  158.8141 H   0  0  0  0  0  0  0  0  0  0  0  0
  153.1286  139.1570  160.4651 H   0  0  0  0  0  0  0  0  0  0  0  0
  151.3901  140.8247  159.9709 H   0  0  0  0  0  0  0  0  0  0  0  0
  153.1864  141.4902  161.5037 H   0  0  0  0  0  0  0  0  0  0  0  0
  154.1797  142.0245  160.1703 H   0  0  0  0  0  0  0  0  0  0  0  0
  151.5156  143.2450  161.0312 H   0  0  0  0  0  0  0  0  0  0  0  0
  153.0979  143.9707  161.2170 H   0  0  0  0  0  0  0  0  0  0  0  0
  151.8964  144.8796  159.2085 H   0  0  0  0  0  0  0  0  0  0  0  0
  153.3873  144.0813  158.7587 H   0  0  0  0  0  0  0  0  0  0  0  0
  150.5810  142.8823  158.6068 H   0  0  0  0  0  0  0  0  0  0  0  0
  151.5775  143.3640  157.2458 H   0  0  0  0  0  0  0  0  0  0  0  0
  152.5216  138.9817  154.7280 H   0  0  0  0  0  0  0  0  0  0  0  0
  147.1143  140.8902  157.6599 H   0  0  0  0  0  0  0  0  0  0  0  0
  147.6915  138.1057  155.4073 H   0  0  0  0  0  0  0  0  0  0  0  0
  146.4598  139.2218  155.9128 H   0  0  0  0  0  0  0  0  0  0  0  0
  147.0080  137.7518  153.0352 H   0  0  0  0  0  0  0  0  0  0  0  0
  145.5449  138.4867  153.6460 H   0  0  0  0  0  0  0  0  0  0  0  0
  145.5014  139.8131  151.9060 H   0  0  0  0  0  0  0  0  0  0  0  0
  146.3796  141.3873  152.8910 H   0  0  0  0  0  0  0  0  0  0  0  0
  146.5957  141.6888  154.6414 H   0  0  0  0  0  0  0  0  0  0  0  0
  149.5517  139.7720  153.8288 H   0  0  0  0  0  0  0  0  0  0  0  0
  148.7254  139.8750  152.2452 H   0  0  0  0  0  0  0  0  0  0  0  0
  1  2  1  0  0  0  0
  1 27  1  0  0  0  0
  1 28  1  0  0  0  0
  1 29  1  0  0  0  0
  2  3  1  0  0  0  0
  2 30  1  0  0  0  0
  2 31  1  0  0  0  0
  3  4  1  0  0  0  0
  4  5  1  0  0  0  0
  4 32  1  0  0  0  0
  4 33  1  0  0  0  0
  5 10  1  0  0  0  0
  5  6  1  0  0  0  0
  5 34  1  0  0  0  0
  6  7  1  0  0  0  0
  6 35  1  0  0  0  0
  6 36  1  0  0  0  0
  7  8  1  0  0  0  0
  7 37  1  0  0  0  0
  7 38  1  0  0  0  0
  8  9  1  0  0  0  0
  8 39  1  0  0  0  0
  8 40  1  0  0  0  0
  9 10  1  0  0  0  0
  9 41  1  0  0  0  0
  9 42  1  0  0  0  0
 10 11  1  0  0  0  0
 11 16  1  0  0  0  0
 11 12  2  0  0  0  0
 12 13  1  0  0  0  0
 13 14  2  0  0  0  0
 13 43  1  0  0  0  0
 14 15  1  0  0  0  0
 15 19  1  0  0  0  0
 15 16  2  0  0  0  0
 16 17  1  0  0  0  0
 17 18  2  0  0  0  0
 18 19  1  0  0  0  0
 18 44  1  0  0  0  0
 19 20  1  0  0  0  0
 20 21  1  0  0  0  0
 20 45  1  0  0  0  0
 20 46  1  0  0  0  0
 21 26  1  0  0  0  0
 21 22  1  0  0  0  0
 21 24  1  0  0  0  0
 22 23  1  0  0  0  0
 22 47  1  0  0  0  0
 22 48  1  0  0  0  0
 23 49  1  0  0  0  0
 24 25  1  0  0  0  0
 24 50  1  0  0  0  0
 24 51  1  0  0  0  0
 25 26  1  0  0  0  0
 26 52  1  0  0  0  0
 26 53  1  0  0  0  0
M  END
> <s_m_source_file>
AV-unprocessed.smi

> <i_m_source_file_index>
237

> <i_lp_mmshare_version>
43012

> <i_f3d_flags>
0

> <s_epik_input>
W0NIM11bQ0gyXU9bQ0gyXVtDQEBIXTFbQ0gyXVtDSDJdW0NIMl1bQ0gyXU4xYyhuW2NIXW4yKWMoYzIzKW5bY0hdbjNbQ0gyXUM0KFtDSDJdW09IXSlbQ0gyXU9bQ0gyXTQ=

> <s_epik_cmdline>
J2VwaWtfcHl0aG9uJywgJy1waCcsICc3LjAnLCAnLXRuJywgJzgnLCAnLW1hJywgJzIwMCcsICctbWV0YWxfYmluZGluZycsICctaW1hZScsICc8aW5maWxlLm1hZT4nLCAnLW9tYWUnLCAnPG91dGZpbGUubWFlPic=

> <r_lp_tautomer_probability>
1

> <r_epik_Ionization_Penalty>
0.00358373

> <r_epik_Ionization_Penalty_Charging>
0

> <r_epik_Ionization_Penalty_Neutral>
0.00358373

> <r_epik_State_Penalty>
0.00240903

> <r_epik_Charging_Adjusted_Penalty>
0.00240903

> <i_epik_Tot_Q>
0

> <i_epik_Tot_abs_Q>
0

> <r_epik_Metal_State_Penalty>
-0

> <b_epik_Metal_Only>
0

> <s_lp_Force_Field>
OPLS_2005

> <r_lp_Energy>
39.3208

> <b_lp_Chiralities_Consistent>
1

> <s_lp_Variant>
AV-unprocessed.smi:237-2

> <Gold.Version>
5.8.1

> <Gold.Id.Protein>
6NUR|6NUR_protein|mol2

> <Gold.PLP.Fitness>
47.6459

> <Gold.PLP.PLP>
-38.9488

> <Gold.PLP.part.hbond>
-4.5929

> <Gold.PLP.part.metal>
0.0000

> <Gold.PLP.part.buried>
0.8095

> <Gold.PLP.part.nonpolar>
-35.6065

> <Gold.PLP.part.repulsive>
1.0109

> <Gold.PLP.ligand.clash>
0.0000

> <Gold.PLP.ligand.torsion>
0.9076

> <Gold.PLP.Chemscore.Hbond>
3.3040

> <Gold.PLP.Chemscore.CHOScore>
0.0000

> <Gold.PLP.Chemscore.Metal>
0.0000

> <Gold.Chemscore.Hbonds>
donor molecule, donor type, donor heavy atom, donor atom, acceptor molecule, acceptor atom, score
      L1  H    23    49       P1 10175  1.00
      P1  H  7997  8008       L1     3  0.83
      P1  H  7997  8009       L1    12  0.77
      P1  H  8011  8017       L1    25  0.69

> <Gold.PLP.Chemscore.Internal.Correction>
0.6003

> <Gold.Rescore>
     Score         DG    S(hbond)    S(metal)    S(lipo)     H(rot)  DE(clash)    DE(int)     intcor
     14.19     -20.17       3.08        0.00     104.58       3.06       2.98       3.00       ----

> <Gold.Chemscore.Fitness>
14.1914

> <Gold.Chemscore.DG>
-20.1679

> <Gold.Chemscore.ZeroCoef>
-5.4800

> <Gold.Chemscore.Hbond>
3.0812

> <Gold.Chemscore.Metal>
0.0000

> <Gold.Chemscore.Lipo>
104.5768

> <Gold.Chemscore.Internal_Hbond>
0.0000

> <Gold.Chemscore.DEClash>
2.9765

> <Gold.Chemscore.DEInternal>
2.9999

> <Gold.Chemscore.Rot>
3.0620

> <Gold.Chemscore.Internal.Correction>
   9.000000E+99

> <Gold.Chemscore.Hbonds>
donor molecule, donor type, donor heavy atom, donor atom, acceptor molecule, acceptor atom, score
      L1  H    23    49       P1 10175  0.66
      P1  H  7997  8008       L1     3  0.52
      P1  H  7997  8009       L1    12  0.44
      P1  H  8011  8017       L1    25  0.25

> <Gold.Chemscore.Hbond.Weighted>
-10.2911

> <Gold.Chemscore.Metal.Weighted>
-0.0000

> <Gold.Chemscore.Lipo.Weighted>
-12.2355

> <Gold.Chemscore.Internal_Hbond.Weighted>
0.0000

> <Gold.Chemscore.DEClash.Weighted>
2.9765

> <Gold.Chemscore.DEInternal.Weighted>
2.9999

> <Gold.Chemscore.Rot.Weighted>
7.8388

> <Gold.Chemscore.Internal.Correction.Weighted>
   9.000000E+99

> <Gold.Protein.RotatedTorsions>
[ 6907 6896 6895 6894 ] final  -73.49 input  -60.11 | X-H torsion
[ 7974 7965 7964 7962 ] final  137.98 input  175.53 | X-H torsion
[ 8008 7997 7996 7995 ] final -139.81 input   59.86 | X-H torsion
[ 10167 10162 10161 10158 ] final  128.12 input  -65.29 | X-H torsion
[ 10718 10713 10712 10709 ] final  -14.34 input   66.30 | X-H torsion
[ 10763 10752 10751 10750 ] final -136.52 input  -60.55 | X-H torsion
[ 11005 11000 10999 10996 ] final  -63.85 input  -57.11 | X-H torsion

> <Gold.Protein.ActiveResidues>
 VAL166  LYS551  ARG553  GLY616  TRP617  ASP618  TYR619  PRO620  LYS621  CYS622 
 ASP623  PHE694  ASN695  SER759  ASP760  ASP761  ALA762  ILE779  LEU786  VAL792 
 PHE793  MET794  SER795  GLU796  ALA797  LYS798  CYS799  TRP800  GLU811  SER814 

> <Gold.Protein.RotatedAtoms>
  150.7128  134.5008  159.5560 H   0  0  0  0  0  0  0  0  0  0  0  0  # atno 6907 bound_to 6896
  152.2606  134.8035  160.0440 H   0  0  0  0  0  0  0  0  0  0  0  0  # atno 6908 bound_to 6896
  151.8750  133.3448  159.3784 H   0  0  0  0  0  0  0  0  0  0  0  0  # atno 6909 bound_to 6896
  144.9416  139.4924  143.5569 H   0  0  0  0  0  0  0  0  0  0  0  0  # atno 7974 bound_to 7965
  155.4510  140.0538  157.3001 H   0  0  0  0  0  0  0  0  0  0  0  0  # atno 8008 bound_to 7997
  154.4777  140.2068  155.9794 H   0  0  0  0  0  0  0  0  0  0  0  0  # atno 8009 bound_to 7997
  156.1158  140.3196  155.8142 H   0  0  0  0  0  0  0  0  0  0  0  0  # atno 8010 bound_to 7997
  139.5543  144.6837  151.4228 H   0  0  0  0  0  0  0  0  0  0  0  0  # atno 10167 bound_to 10162
  156.6173  130.4866  149.6178 H   0  0  0  0  0  0  0  0  0  0  0  0  # atno 10718 bound_to 10713
  154.8682  135.3670  154.5075 H   0  0  0  0  0  0  0  0  0  0  0  0  # atno 10763 bound_to 10752
  153.5712  135.7020  153.5509 H   0  0  0  0  0  0  0  0  0  0  0  0  # atno 10764 bound_to 10752
  153.3540  135.4064  155.1631 H   0  0  0  0  0  0  0  0  0  0  0  0  # atno 10765 bound_to 10752
  141.1406  133.6657  156.5744 H   0  0  0  0  0  0  0  0  0  0  0  0  # atno 11005 bound_to 11000
  146.3288  139.8439  142.8885 LP  0  0  0  0  0  0  0  0  0  0  0  0  # atno 17320 bound_to 7965
  145.2982  141.0187  143.3624 LP  0  0  0  0  0  0  0  0  0  0  0  0  # atno 17321 bound_to 7965
  140.6813  143.8075  150.7125 LP  0  0  0  0  0  0  0  0  0  0  0  0  # atno 17342 bound_to 10162
  140.1529  143.4341  152.2119 LP  0  0  0  0  0  0  0  0  0  0  0  0  # atno 17343 bound_to 10162
  156.2340  130.6812  151.1492 LP  0  0  0  0  0  0  0  0  0  0  0  0  # atno 17370 bound_to 10713
  157.7237  131.0664  150.6024 LP  0  0  0  0  0  0  0  0  0  0  0  0  # atno 17371 bound_to 10713
  140.3888  134.7459  157.4708 LP  0  0  0  0  0  0  0  0  0  0  0  0  # atno 17394 bound_to 11000
  140.0582  134.6033  155.8780 LP  0  0  0  0  0  0  0  0  0  0  0  0  # atno 17395 bound_to 11000

$$$$
