AV-unprocessed.smi:634|AV-procd|sdf|3135|dock1
  -GOLD-   22720 0 63D 1   1.00000     0.00000
 Structure written by MMmdl.
 32 33  0  0  0  0  0  0  0  0  2 V2000
  153.4144  142.6676  163.0674 C   0  0  0  0  0  0  0  0  0  0  0  0
  152.8815  142.8062  161.6822 C   0  0  0  0  0  0  0  0  0  0  0  0
  152.9755  142.0191  160.5698 C   0  0  0  0  0  0  0  0  0  0  0  0
  152.2305  142.7404  159.5975 C   0  0  0  0  0  0  0  0  0  0  0  0
  152.0376  142.3727  158.3212 N   0  5  0  0  0  0  0  0  0  0  0  0
  152.2609  141.0940  157.9397 C   0  0  0  0  0  0  0  0  0  0  0  0
  153.1192  140.3372  158.3982 O   0  0  0  0  0  0  0  0  0  0  0  0
  151.4372  140.6746  156.9639 N   0  0  0  0  0  0  0  0  0  0  0  0
  151.3938  139.3688  156.2912 C   0  0  1  0  0  0  0  0  0  0  0  0
  150.3434  139.4907  155.1696 C   0  0  0  0  0  0  0  0  0  0  0  0
  152.7758  139.0010  155.6524 C   0  0  0  0  0  0  0  0  0  0  0  0
  153.3769  137.7516  156.3108 C   0  0  0  0  0  0  0  0  0  0  0  0
  151.9429  136.7763  156.8608 S   0  0  0  0  0  0  0  0  0  0  0  0
  151.3420  136.1188  155.6900 O   0  0  0  0  0  0  0  0  0  0  0  0
  152.2732  136.0164  158.0761 O   0  0  0  0  0  0  0  0  0  0  0  0
  150.9552  138.2515  157.2783 C   0  0  0  0  0  0  0  0  0  0  0  0
  151.7425  143.8741  160.0728 N   0  0  0  0  0  0  0  0  0  0  0  0
  152.1505  143.9208  161.4113 O   0  0  0  0  0  0  0  0  0  0  0  0
  154.4968  142.7956  163.0778 H   0  0  0  0  0  0  0  0  0  0  0  0
  153.1857  141.6811  163.4707 H   0  0  0  0  0  0  0  0  0  0  0  0
  152.9793  143.4131  163.7334 H   0  0  0  0  0  0  0  0  0  0  0  0
  153.4904  141.0758  160.4671 H   0  0  0  0  0  0  0  0  0  0  0  0
  150.7594  141.3507  156.6436 H   0  0  0  0  0  0  0  0  0  0  0  0
  150.2275  138.5511  154.6282 H   0  0  0  0  0  0  0  0  0  0  0  0
  150.6234  140.2562  154.4448 H   0  0  0  0  0  0  0  0  0  0  0  0
  149.3643  139.7601  155.5679 H   0  0  0  0  0  0  0  0  0  0  0  0
  152.6412  138.7759  154.5935 H   0  0  0  0  0  0  0  0  0  0  0  0
  153.4852  139.8291  155.6776 H   0  0  0  0  0  0  0  0  0  0  0  0
  154.0039  137.1652  155.6398 H   0  0  0  0  0  0  0  0  0  0  0  0
  153.9577  138.0219  157.1928 H   0  0  0  0  0  0  0  0  0  0  0  0
  151.1848  138.5039  158.3136 H   0  0  0  0  0  0  0  0  0  0  0  0
  149.8930  138.0115  157.2283 H   0  0  0  0  0  0  0  0  0  0  0  0
  1  2  1  0  0  0  0
  1 19  1  0  0  0  0
  1 20  1  0  0  0  0
  1 21  1  0  0  0  0
  2 18  1  0  0  0  0
  2  3  2  0  0  0  0
  3  4  1  0  0  0  0
  3 22  1  0  0  0  0
  4  5  1  0  0  0  0
  4 17  2  0  0  0  0
  5  6  1  0  0  0  0
  6  7  2  0  0  0  0
  6  8  1  0  0  0  0
  8  9  1  0  0  0  0
  8 23  1  0  0  0  0
  9 16  1  0  0  0  0
  9 10  1  0  0  0  0
  9 11  1  0  0  0  0
 10 24  1  0  0  0  0
 10 25  1  0  0  0  0
 10 26  1  0  0  0  0
 11 12  1  0  0  0  0
 11 27  1  0  0  0  0
 11 28  1  0  0  0  0
 12 13  1  0  0  0  0
 12 29  1  0  0  0  0
 12 30  1  0  0  0  0
 13 14  2  0  0  0  0
 13 15  2  0  0  0  0
 13 16  1  0  0  0  0
 16 31  1  0  0  0  0
 16 32  1  0  0  0  0
 17 18  1  0  0  0  0
M  CHG  1   5  -1
M  END
> <s_m_source_file>
AV-unprocessed.smi

> <i_m_source_file_index>
634

> <i_lp_mmshare_version>
43012

> <i_f3d_flags>
0

> <s_epik_input>
W0NIM11jMVtjSF1jKG5vMSlbTkhdQyg9TylbTkhdW0NAQF0yKFtDSDNdKVtDSDJdW0NIMl1TKD1PKSg9TylbQ0gyXTI=

> <s_epik_cmdline>
J2VwaWtfcHl0aG9uJywgJy1waCcsICc3LjAnLCAnLXRuJywgJzgnLCAnLW1hJywgJzIwMCcsICctbWV0YWxfYmluZGluZycsICctaW1hZScsICc8aW5maWxlLm1hZT4nLCAnLW9tYWUnLCAnPG91dGZpbGUubWFlPic=

> <r_lp_tautomer_probability>
1

> <r_epik_Ionization_Penalty>
6.15572

> <r_epik_Ionization_Penalty_Charging>
6.1556

> <r_epik_Ionization_Penalty_Neutral>
0.000118136

> <r_epik_State_Penalty>
6.15558

> <r_epik_Charging_Adjusted_Penalty>
12.3112

> <i_epik_Tot_Q>
-1

> <i_epik_Tot_abs_Q>
1

> <r_epik_Metal_State_Penalty>
2.10569

> <b_epik_Metal_Only>
1

> <s_lp_Force_Field>
OPLS_2005

> <r_lp_Energy>
-1.37943

> <b_lp_Chiralities_Consistent>
1

> <s_lp_Variant>
AV-unprocessed.smi:634-3

> <Gold.Version>
5.8.1

> <Gold.Id.Protein>
6NUR|6NUR_protein|mol2

> <Gold.PLP.Fitness>
34.6348

> <Gold.PLP.PLP>
-29.1011

> <Gold.PLP.part.hbond>
-3.0000

> <Gold.PLP.part.metal>
0.0000

> <Gold.PLP.part.buried>
-2.2426

> <Gold.PLP.part.nonpolar>
-23.5273

> <Gold.PLP.part.repulsive>
0.3778

> <Gold.PLP.ligand.clash>
0.0000

> <Gold.PLP.ligand.torsion>
0.3286

> <Gold.PLP.Chemscore.Hbond>
2.0582

> <Gold.PLP.Chemscore.CHOScore>
0.0000

> <Gold.PLP.Chemscore.Metal>
0.0000

> <Gold.Chemscore.Hbonds>
donor molecule, donor type, donor heavy atom, donor atom, acceptor molecule, acceptor atom, score
      P1  H  6896  6907       L1    15  0.17
      P1  H  7997  8010       L1     7  0.90
      P1  H 10752 10764       L1    14  1.00

> <Gold.PLP.Chemscore.Internal.Correction>
0.0160

> <Gold.Rescore>
     Score         DG    S(hbond)    S(metal)    S(lipo)     H(rot)  DE(clash)    DE(int)     intcor
     13.72     -16.22       1.74        0.00      63.91       1.00       0.20       2.30       ----

> <Gold.Chemscore.Fitness>
13.7243

> <Gold.Chemscore.DG>
-16.2190

> <Gold.Chemscore.ZeroCoef>
-5.4800

> <Gold.Chemscore.Hbond>
1.7428

> <Gold.Chemscore.Metal>
0.0000

> <Gold.Chemscore.Lipo>
63.9141

> <Gold.Chemscore.Internal_Hbond>
0.0000

> <Gold.Chemscore.DEClash>
0.1979

> <Gold.Chemscore.DEInternal>
2.2969

> <Gold.Chemscore.Rot>
1.0000

> <Gold.Chemscore.Internal.Correction>
   9.000000E+99

> <Gold.Chemscore.Hbonds>
donor molecule, donor type, donor heavy atom, donor atom, acceptor molecule, acceptor atom, score
      P1  H  6896  6907       L1    15  0.17
      P1  H  7997  8010       L1     7  0.57
      P1  H 10752 10764       L1    14  0.25

> <Gold.Chemscore.Hbond.Weighted>
-5.8211

> <Gold.Chemscore.Metal.Weighted>
-0.0000

> <Gold.Chemscore.Lipo.Weighted>
-7.4779

> <Gold.Chemscore.Internal_Hbond.Weighted>
0.0000

> <Gold.Chemscore.DEClash.Weighted>
0.1979

> <Gold.Chemscore.DEInternal.Weighted>
2.2969

> <Gold.Chemscore.Rot.Weighted>
2.5600

> <Gold.Chemscore.Internal.Correction.Weighted>
   9.000000E+99

> <Gold.Protein.RotatedTorsions>
[ 6907 6896 6895 6894 ] final    1.06 input  -60.11 | X-H torsion
[ 7974 7965 7964 7962 ] final -177.63 input  175.53 | X-H torsion
[ 8008 7997 7996 7995 ] final   35.25 input   59.86 | X-H torsion
[ 10167 10162 10161 10158 ] final    7.28 input  -65.29 | X-H torsion
[ 10718 10713 10712 10709 ] final  -19.14 input   66.30 | X-H torsion
[ 10763 10752 10751 10750 ] final  -50.77 input  -60.55 | X-H torsion
[ 11005 11000 10999 10996 ] final   78.66 input  -57.11 | X-H torsion

> <Gold.Protein.ActiveResidues>
 VAL166  LYS551  ARG553  GLY616  TRP617  ASP618  TYR619  PRO620  LYS621  CYS622 
 ASP623  PHE694  ASN695  SER759  ASP760  ASP761  ALA762  ILE779  LEU786  VAL792 
 PHE793  MET794  SER795  GLU796  ALA797  LYS798  CYS799  TRP800  GLU811  SER814 

> <Gold.Protein.RotatedAtoms>
  151.5865  135.1056  160.0028 H   0  0  0  0  0  0  0  0  0  0  0  0  # atno 6907 bound_to 6896
  152.4328  133.7303  159.6594 H   0  0  0  0  0  0  0  0  0  0  0  0  # atno 6908 bound_to 6896
  150.8222  133.8162  159.3157 H   0  0  0  0  0  0  0  0  0  0  0  0  # atno 6909 bound_to 6896
  144.7128  140.0991  143.6417 H   0  0  0  0  0  0  0  0  0  0  0  0  # atno 7974 bound_to 7965
  155.1680  140.3289  155.4398 H   0  0  0  0  0  0  0  0  0  0  0  0  # atno 8008 bound_to 7997
  156.2520  140.1948  156.6735 H   0  0  0  0  0  0  0  0  0  0  0  0  # atno 8009 bound_to 7997
  154.6357  140.0576  156.9772 H   0  0  0  0  0  0  0  0  0  0  0  0  # atno 8010 bound_to 7997
  140.6381  143.7839  150.7388 H   0  0  0  0  0  0  0  0  0  0  0  0  # atno 10167 bound_to 10162
  156.5497  130.4698  149.6458 H   0  0  0  0  0  0  0  0  0  0  0  0  # atno 10718 bound_to 10713
  154.1157  135.6542  153.4893 H   0  0  0  0  0  0  0  0  0  0  0  0  # atno 10763 bound_to 10752
  153.0242  135.5258  154.7147 H   0  0  0  0  0  0  0  0  0  0  0  0  # atno 10764 bound_to 10752
  154.6340  135.2980  155.0152 H   0  0  0  0  0  0  0  0  0  0  0  0  # atno 10765 bound_to 10752
  139.9204  134.7781  156.1678 H   0  0  0  0  0  0  0  0  0  0  0  0  # atno 11005 bound_to 11000
  145.9554  139.2762  143.1187 LP  0  0  0  0  0  0  0  0  0  0  0  0  # atno 17320 bound_to 7965
  145.9279  140.9070  143.0372 LP  0  0  0  0  0  0  0  0  0  0  0  0  # atno 17321 bound_to 7965
  140.1465  143.4395  152.2159 LP  0  0  0  0  0  0  0  0  0  0  0  0  # atno 17342 bound_to 10162
  139.5590  144.7393  151.4209 LP  0  0  0  0  0  0  0  0  0  0  0  0  # atno 17343 bound_to 10162
  156.2896  130.7116  151.1962 LP  0  0  0  0  0  0  0  0  0  0  0  0  # atno 17370 bound_to 10713
  157.7390  131.0534  150.5261 LP  0  0  0  0  0  0  0  0  0  0  0  0  # atno 17371 bound_to 10713
  141.0719  133.6793  156.2157 LP  0  0  0  0  0  0  0  0  0  0  0  0  # atno 17394 bound_to 11000
  140.6493  134.5084  157.5576 LP  0  0  0  0  0  0  0  0  0  0  0  0  # atno 17395 bound_to 11000

$$$$
