AV-unprocessed.smi:740|AV-procd|sdf|3548|dock3
  -GOLD-   22720 0543D 1   1.00000     0.00000
 Structure written by MMmdl.
 44 46  0  0  0  0  0  0  0  0  1 V2000
  152.0336  144.4164  159.5455 C   0  0  0  0  0  0  0  0  0  0  0  0
  152.7176  143.1633  160.0632 C   0  0  0  0  0  0  0  0  0  0  0  0
  153.0983  142.1591  159.1449 C   0  0  0  0  0  0  0  0  0  0  0  0
  153.7337  140.9776  159.5856 C   0  0  0  0  0  0  0  0  0  0  0  0
  154.1831  139.8796  158.8721 N   0  0  0  0  0  0  0  0  0  0  0  0
  154.6768  139.1147  159.8413 C   0  0  0  0  0  0  0  0  0  0  0  0
  154.6027  139.5887  161.0998 N   0  0  0  0  0  0  0  0  0  0  0  0
  155.0705  138.9311  162.3070 C   0  0  0  0  0  0  0  0  0  0  0  0
  155.7296  139.9139  163.2936 C   0  0  2  0  0  0  0  0  0  0  0  0
  157.1206  139.9485  163.0372 O   0  0  0  0  0  0  0  0  0  0  0  0
  155.5048  139.4887  164.7595 C   0  0  0  0  0  0  0  0  0  0  0  0
  155.8595  140.5577  165.6999 N   0  0  0  0  0  0  0  0  0  0  0  0
  156.4069  140.3464  166.9047 C   0  0  0  0  0  0  0  0  0  0  0  0
  156.7032  139.2543  167.3887 O   0  0  0  0  0  0  0  0  0  0  0  0
  156.6236  141.6591  167.6442 C   0  0  0  0  0  0  0  0  0  0  0  0
  156.0920  142.7111  166.6590 C   0  0  2  0  0  0  0  0  0  0  0  0
  154.9448  143.5650  167.2239 C   0  0  0  0  0  0  0  0  0  0  0  0
  155.6364  141.8602  165.4751 C   0  0  0  0  0  0  0  0  0  0  0  0
  155.1307  142.3456  164.4630 O   0  0  0  0  0  0  0  0  0  0  0  0
  153.9821  140.8277  160.9814 C   0  0  0  0  0  0  0  0  0  0  0  0
  153.6087  141.8202  161.9048 C   0  0  0  0  0  0  0  0  0  0  0  0
  152.9727  142.9935  161.4478 C   0  0  0  0  0  0  0  0  0  0  0  0
  152.5695  144.0573  162.4534 C   0  0  0  0  0  0  0  0  0  0  0  0
  151.9473  144.4031  158.4586 H   0  0  0  0  0  0  0  0  0  0  0  0
  152.5997  145.3053  159.8244 H   0  0  0  0  0  0  0  0  0  0  0  0
  151.0289  144.5006  159.9604 H   0  0  0  0  0  0  0  0  0  0  0  0
  152.9032  142.2874  158.0904 H   0  0  0  0  0  0  0  0  0  0  0  0
  155.1174  138.1521  159.6255 H   0  0  0  0  0  0  0  0  0  0  0  0
  154.2153  138.4443  162.7779 H   0  0  0  0  0  0  0  0  0  0  0  0
  155.7654  138.1373  162.0298 H   0  0  0  0  0  0  0  0  0  0  0  0
  155.3185  140.9099  163.1227 H   0  0  0  0  0  0  0  0  0  0  0  0
  157.5219  139.1979  163.4478 H   0  0  0  0  0  0  0  0  0  0  0  0
  154.4515  139.2448  164.9099 H   0  0  0  0  0  0  0  0  0  0  0  0
  156.0440  138.5659  164.9820 H   0  0  0  0  0  0  0  0  0  0  0  0
  156.0746  141.6528  168.5865 H   0  0  0  0  0  0  0  0  0  0  0  0
  157.6825  141.8043  167.8604 H   0  0  0  0  0  0  0  0  0  0  0  0
  156.9058  143.3584  166.3296 H   0  0  0  0  0  0  0  0  0  0  0  0
  154.5915  144.2889  166.4888 H   0  0  0  0  0  0  0  0  0  0  0  0
  155.2727  144.1228  168.1013 H   0  0  0  0  0  0  0  0  0  0  0  0
  154.0948  142.9493  167.5212 H   0  0  0  0  0  0  0  0  0  0  0  0
  153.8071  141.6774  162.9567 H   0  0  0  0  0  0  0  0  0  0  0  0
  152.8203  143.7573  163.4714 H   0  0  0  0  0  0  0  0  0  0  0  0
  151.4945  144.2345  162.4127 H   0  0  0  0  0  0  0  0  0  0  0  0
  153.0843  144.9950  162.2442 H   0  0  0  0  0  0  0  0  0  0  0  0
  1  2  1  0  0  0  0
  1 24  1  0  0  0  0
  1 25  1  0  0  0  0
  1 26  1  0  0  0  0
  2 22  1  0  0  0  0
  2  3  2  0  0  0  0
  3  4  1  0  0  0  0
  3 27  1  0  0  0  0
  4 20  2  0  0  0  0
  4  5  1  0  0  0  0
  5  6  2  0  0  0  0
  6  7  1  0  0  0  0
  6 28  1  0  0  0  0
  7  8  1  0  0  0  0
  7 20  1  0  0  0  0
  8  9  1  0  0  0  0
  8 29  1  0  0  0  0
  8 30  1  0  0  0  0
  9 10  1  0  0  0  0
  9 11  1  0  0  0  0
  9 31  1  0  0  0  0
 10 32  1  0  0  0  0
 11 12  1  0  0  0  0
 11 33  1  0  0  0  0
 11 34  1  0  0  0  0
 12 18  1  0  0  0  0
 12 13  1  0  0  0  0
 13 14  2  0  0  0  0
 13 15  1  0  0  0  0
 15 16  1  0  0  0  0
 15 35  1  0  0  0  0
 15 36  1  0  0  0  0
 16 17  1  0  0  0  0
 16 18  1  0  0  0  0
 16 37  1  0  0  0  0
 17 38  1  0  0  0  0
 17 39  1  0  0  0  0
 17 40  1  0  0  0  0
 18 19  2  0  0  0  0
 20 21  1  0  0  0  0
 21 22  2  0  0  0  0
 21 41  1  0  0  0  0
 22 23  1  0  0  0  0
 23 42  1  0  0  0  0
 23 43  1  0  0  0  0
 23 44  1  0  0  0  0
M  END
> <s_m_source_file>
AV-unprocessed.smi

> <i_m_source_file_index>
740

> <i_lp_mmshare_version>
43012

> <i_f3d_flags>
0

> <s_epik_input>
W0NIM11jKFtjSF0xKWMoW0NIM10pW2NIXWMoYzEyKW4oW2NIXW4yKVtDSDJdW0NASF0oW09IXSlbQ0gyXU4zQyg9TylbQ0gyXVtDQEBIXShbQ0gzXSlDMz1P

> <s_epik_cmdline>
J2VwaWtfcHl0aG9uJywgJy1waCcsICc3LjAnLCAnLXRuJywgJzgnLCAnLW1hJywgJzIwMCcsICctbWV0YWxfYmluZGluZycsICctaW1hZScsICc8aW5maWxlLm1hZT4nLCAnLW9tYWUnLCAnPG91dGZpbGUubWFlPic=

> <r_lp_tautomer_probability>
1

> <r_epik_Ionization_Penalty>
0.104021

> <r_epik_Ionization_Penalty_Charging>
0

> <r_epik_Ionization_Penalty_Neutral>
0.104021

> <r_epik_State_Penalty>
0.0939354

> <r_epik_Charging_Adjusted_Penalty>
0.0939354

> <i_epik_Tot_Q>
0

> <i_epik_Tot_abs_Q>
0

> <r_epik_Metal_State_Penalty>
0.000101783

> <b_epik_Metal_Only>
0

> <s_lp_Force_Field>
OPLS_2005

> <r_lp_Energy>
16.7866

> <b_lp_Chiralities_Consistent>
1

> <s_lp_Variant>
AV-unprocessed.smi:740-3

> <Gold.Version>
5.8.1

> <Gold.Id.Protein>
6NUR|6NUR_protein|mol2

> <Gold.PLP.Fitness>
49.4044

> <Gold.PLP.PLP>
-48.6328

> <Gold.PLP.part.hbond>
-3.5785

> <Gold.PLP.part.metal>
0.0000

> <Gold.PLP.part.buried>
-4.0832

> <Gold.PLP.part.nonpolar>
-40.5988

> <Gold.PLP.part.repulsive>
0.0621

> <Gold.PLP.ligand.clash>
0.0000

> <Gold.PLP.ligand.torsion>
1.1207

> <Gold.PLP.Chemscore.Hbond>
1.0000

> <Gold.PLP.Chemscore.CHOScore>
0.0000

> <Gold.PLP.Chemscore.Metal>
0.0000

> <Gold.Chemscore.Hbonds>
donor molecule, donor type, donor heavy atom, donor atom, acceptor molecule, acceptor atom, score
      P1  H  7997  8008       L1     5  1.00

> <Gold.PLP.Chemscore.Internal.Correction>
0.0130

> <Gold.Rescore>
     Score         DG    S(hbond)    S(metal)    S(lipo)     H(rot)  DE(clash)    DE(int)     intcor
     14.77     -17.22       0.97        0.00     123.37       2.31       0.21       2.25       ----

> <Gold.Chemscore.Fitness>
14.7651

> <Gold.Chemscore.DG>
-17.2233

> <Gold.Chemscore.ZeroCoef>
-5.4800

> <Gold.Chemscore.Hbond>
0.9683

> <Gold.Chemscore.Metal>
0.0000

> <Gold.Chemscore.Lipo>
123.3728

> <Gold.Chemscore.Internal_Hbond>
0.0000

> <Gold.Chemscore.DEClash>
0.2119

> <Gold.Chemscore.DEInternal>
2.2463

> <Gold.Chemscore.Rot>
2.3147

> <Gold.Chemscore.Internal.Correction>
   9.000000E+99

> <Gold.Chemscore.Hbonds>
donor molecule, donor type, donor heavy atom, donor atom, acceptor molecule, acceptor atom, score
      P1  H  7997  8008       L1     5  0.96

> <Gold.Chemscore.Hbond.Weighted>
-3.2342

> <Gold.Chemscore.Metal.Weighted>
-0.0000

> <Gold.Chemscore.Lipo.Weighted>
-14.4346

> <Gold.Chemscore.Internal_Hbond.Weighted>
0.0000

> <Gold.Chemscore.DEClash.Weighted>
0.2119

> <Gold.Chemscore.DEInternal.Weighted>
2.2463

> <Gold.Chemscore.Rot.Weighted>
5.9256

> <Gold.Chemscore.Internal.Correction.Weighted>
   9.000000E+99

> <Gold.Protein.RotatedTorsions>
[ 6907 6896 6895 6894 ] final   67.10 input  -60.11 | X-H torsion
[ 7974 7965 7964 7962 ] final -112.07 input  175.53 | X-H torsion
[ 8008 7997 7996 7995 ] final -111.90 input   59.86 | X-H torsion
[ 10167 10162 10161 10158 ] final -122.66 input  -65.29 | X-H torsion
[ 10718 10713 10712 10709 ] final  -95.33 input   66.30 | X-H torsion
[ 10763 10752 10751 10750 ] final -104.64 input  -60.55 | X-H torsion
[ 11005 11000 10999 10996 ] final  -98.56 input  -57.11 | X-H torsion

> <Gold.Protein.ActiveResidues>
 VAL166  LYS551  ARG553  GLY616  TRP617  ASP618  TYR619  PRO620  LYS621  CYS622 
 ASP623  PHE694  ASN695  SER759  ASP760  ASP761  ALA762  ILE779  LEU786  VAL792 
 PHE793  MET794  SER795  GLU796  ALA797  LYS798  CYS799  TRP800  GLU811  SER814 

> <Gold.Protein.RotatedAtoms>
  152.4528  134.5356  159.9823 H   0  0  0  0  0  0  0  0  0  0  0  0  # atno 6907 bound_to 6896
  151.5424  133.3425  159.2946 H   0  0  0  0  0  0  0  0  0  0  0  0  # atno 6908 bound_to 6896
  150.8463  134.7804  159.7036 H   0  0  0  0  0  0  0  0  0  0  0  0  # atno 6909 bound_to 6896
  145.1484  140.8816  143.3661 H   0  0  0  0  0  0  0  0  0  0  0  0  # atno 7974 bound_to 7965
  154.9969  140.0394  157.2343 H   0  0  0  0  0  0  0  0  0  0  0  0  # atno 8008 bound_to 7997
  154.7578  140.2779  155.6216 H   0  0  0  0  0  0  0  0  0  0  0  0  # atno 8009 bound_to 7997
  156.2898  140.2634  156.2349 H   0  0  0  0  0  0  0  0  0  0  0  0  # atno 8010 bound_to 7997
  140.0118  143.5433  152.2259 H   0  0  0  0  0  0  0  0  0  0  0  0  # atno 10167 bound_to 10162
  156.0041  130.5104  150.6059 H   0  0  0  0  0  0  0  0  0  0  0  0  # atno 10718 bound_to 10713
  154.7892  135.4778  154.0015 H   0  0  0  0  0  0  0  0  0  0  0  0  # atno 10763 bound_to 10752
  153.1606  135.6808  153.8755 H   0  0  0  0  0  0  0  0  0  0  0  0  # atno 10764 bound_to 10752
  153.8370  135.3184  155.3401 H   0  0  0  0  0  0  0  0  0  0  0  0  # atno 10765 bound_to 10752
  141.1340  133.8255  157.0856 H   0  0  0  0  0  0  0  0  0  0  0  0  # atno 11005 bound_to 11000
  145.0457  139.3223  143.5954 LP  0  0  0  0  0  0  0  0  0  0  0  0  # atno 17320 bound_to 7965
  146.3497  139.9847  142.8692 LP  0  0  0  0  0  0  0  0  0  0  0  0  # atno 17321 bound_to 7965
  139.6199  144.7627  151.2763 LP  0  0  0  0  0  0  0  0  0  0  0  0  # atno 17342 bound_to 10162
  140.7378  143.6667  150.8117 LP  0  0  0  0  0  0  0  0  0  0  0  0  # atno 17343 bound_to 10162
  157.3900  131.0794  151.1402 LP  0  0  0  0  0  0  0  0  0  0  0  0  # atno 17370 bound_to 10713
  157.2097  130.6432  149.5769 LP  0  0  0  0  0  0  0  0  0  0  0  0  # atno 17371 bound_to 10713
  140.0424  134.9847  157.0986 LP  0  0  0  0  0  0  0  0  0  0  0  0  # atno 17394 bound_to 11000
  140.4115  134.1977  155.7163 LP  0  0  0  0  0  0  0  0  0  0  0  0  # atno 17395 bound_to 11000

$$$$
