#       Name:                AV-unprocessed.smi:951
#       Creating user name   scv26
#       Creation time:       Fri Mar 27 02:16:05 2020


#       File generated by GOLD software.
#

@<TRIPOS>MOLECULE
AV-unprocessed.smi:951
    56    58     1
SMALL
NO_CHARGES


@<TRIPOS>ATOM
      1 ****         0.5656  -0.6390  -1.1512 O.2            1 S1                 0.0000
      2 ****         0.1456  -1.1249  -0.0998 C.2            1 S1                 0.0000
      3 ****         0.9503  -1.5478   0.8867 N.am           1 S1                 0.0000
      4 ****         2.4056  -1.4691   0.8674 C.3            1 S1                 0.0000
      5 ****         3.0236  -2.6063   0.0370 C.3            1 S1                 0.0000
      6 ****         4.5378  -2.5379   0.0112 C.ar           1 S1                 0.0000
      7 ****         5.3417  -3.3442   0.8460 C.ar           1 S1                 0.0000
      8 ****         6.7454  -3.2240   0.7749 C.ar           1 S1                 0.0000
      9 ****         7.3145  -2.3012  -0.1272 C.ar           1 S1                 0.0000
     10 ****         6.4641  -1.5194  -0.9357 C.ar           1 S1                 0.0000
     11 ****         5.1242  -1.6638  -0.8386 N.pl3          1 S1                 1.0000
     12 ****        -1.3680  -1.2995   0.1332 C.3            1 S1                 0.0000
     13 ****        -1.8742  -2.5201  -0.6516 C.3            1 S1                 0.0000
     14 ****        -3.3185  -2.1960  -0.9754 C.3            1 S1                 0.0000
     15 ****        -3.3585  -0.6728  -1.0800 C.3            1 S1                 0.0000
     16 ****        -2.2083  -0.1714  -0.3208 N.am           1 S1                 0.0000
     17 ****        -2.0070   1.1354  -0.0070 C.2            1 S1                 0.0000
     18 ****        -1.0982   1.4859   0.7465 O.2            1 S1                 0.0000
     19 ****        -2.9473   2.2169  -0.5959 C.3            1 S1                 0.0000
     20 ****        -2.2016   3.4952  -1.0589 C.3            1 S1                 0.0000
     21 ****        -1.7983   4.4467   0.0862 C.3            1 S1                 0.0000
     22 ****        -2.9898   4.7710   0.9991 C.3            1 S1                 0.0000
     23 ****        -3.6443   3.4891   1.5333 C.3            1 S1                 0.0000
     24 ****        -4.0937   2.5772   0.3778 C.3            1 S1                 0.0000
     25 ****         0.5225  -1.9387   1.7138 H              1 S1                 0.0000
     26 ****         2.7183  -0.4966   0.4831 H              1 S1                 0.0000
     27 ****         2.7616  -1.5248   1.8965 H              1 S1                 0.0000
     28 ****         2.7156  -3.5723   0.4397 H              1 S1                 0.0000
     29 ****         2.6560  -2.5706  -0.9895 H              1 S1                 0.0000
     30 ****         4.8908  -4.0449   1.5338 H              1 S1                 0.0000
     31 ****         7.3776  -3.8319   1.4056 H              1 S1                 0.0000
     32 ****         8.3871  -2.1943  -0.1974 H              1 S1                 0.0000
     33 ****         6.8121  -0.7888  -1.6512 H              1 S1                 0.0000
     34 ****        -1.5653  -1.4421   1.1974 H              1 S1                 0.0000
     35 ****        -1.3268  -2.6443  -1.5880 H              1 S1                 0.0000
     36 ****        -1.7751  -3.4486  -0.0884 H              1 S1                 0.0000
     37 ****        -3.6754  -2.6931  -1.8778 H              1 S1                 0.0000
     38 ****        -3.9515  -2.5178  -0.1473 H              1 S1                 0.0000
     39 ****        -3.2516  -0.3756  -2.1242 H              1 S1                 0.0000
     40 ****        -4.3063  -0.2824  -0.7071 H              1 S1                 0.0000
     41 ****        -3.4012   1.8173  -1.5010 H              1 S1                 0.0000
     42 ****        -1.3182   3.2261  -1.6396 H              1 S1                 0.0000
     43 ****        -2.8488   4.0411  -1.7468 H              1 S1                 0.0000
     44 ****        -0.9925   4.0144   0.6782 H              1 S1                 0.0000
     45 ****        -1.3955   5.3698  -0.3316 H              1 S1                 0.0000
     46 ****        -2.6619   5.3963   1.8300 H              1 S1                 0.0000
     47 ****        -3.7270   5.3538   0.4453 H              1 S1                 0.0000
     48 ****        -2.9460   2.9595   2.1821 H              1 S1                 0.0000
     49 ****        -4.5028   3.7455   2.1546 H              1 S1                 0.0000
     50 ****        -4.8858   3.0783  -0.1799 H              1 S1                 0.0000
     51 ****        -4.5460   1.6718   0.7842 H              1 S1                 0.0000
     52 ****         4.5275  -1.0875  -1.4330 H              1 S1                 0.0000
     53 ****         1.5499  -0.5446  -1.3003 LP             1 S1                 0.0000
     54 ****        -0.0779  -0.3390  -1.8555 LP             1 S1                 0.0000
     55 ****        -0.4864   0.8020   1.1439 LP             1 S1                 0.0000
     56 ****        -0.9721   2.4545   0.9610 LP             1 S1                 0.0000
@<TRIPOS>BOND
    1    1    2 2     
    2    2    3 am    
    3    2   12 1     
    4    3    4 1     
    5    3   25 1     
    6    4    5 1     
    7    4   26 1     
    8    4   27 1     
    9    5    6 1     
   10    5   28 1     
   11    5   29 1     
   12    6   11 ar    
   13    6    7 ar    
   14    7    8 ar    
   15    7   30 1     
   16    8    9 ar    
   17    8   31 1     
   18    9   10 ar    
   19    9   32 1     
   20   10   11 ar    
   21   10   33 1     
   22   11   52 1     
   23   12   16 1     
   24   12   13 1     
   25   12   34 1     
   26   13   14 1     
   27   13   35 1     
   28   13   36 1     
   29   14   15 1     
   30   14   37 1     
   31   14   38 1     
   32   15   16 1     
   33   15   39 1     
   34   15   40 1     
   35   16   17 am    
   36   17   18 2     
   37   17   19 1     
   38   19   24 1     
   39   19   20 1     
   40   19   41 1     
   41   20   21 1     
   42   20   42 1     
   43   20   43 1     
   44   21   22 1     
   45   21   44 1     
   46   21   45 1     
   47   22   23 1     
   48   22   46 1     
   49   22   47 1     
   50   23   24 1     
   51   23   48 1     
   52   23   49 1     
   53   24   50 1     
   54   24   51 1     
   55    1   53 1     
   56    1   54 1     
   57   18   55 1     
   58   18   56 1     
@<TRIPOS>SUBSTRUCTURE
      1 S1             1
@<TRIPOS>SET
LONE_PAIRS      STATIC     ATOMS    <user>   **** ""
4 53 54 55 56
DONOR_HYDROGENS      STATIC     ATOMS    <user>   **** ""
2 25 52
ATOM$BLUE        STATIC     ATOMS    COLORGROUP SYSTEM
4 53 54 55 56
ATOM$RED        STATIC     ATOMS    COLORGROUP SYSTEM
2 25 52
