#       Name:                AV-unprocessed.smi:3315
#       Creating user name   scv26
#       Creation time:       Fri Mar 27 19:08:55 2020


#       File generated by GOLD software.
#

@<TRIPOS>MOLECULE
AV-unprocessed.smi:3315
    44    45     1
SMALL
NO_CHARGES


@<TRIPOS>ATOM
      1 ****        -3.1752   3.0127   0.8777 C.3            1 S1                 0.0000
      2 ****        -2.4737   1.7920   1.0801 O.3            1 S1                 0.0000
      3 ****        -1.0468   1.8653   1.2086 C.3            1 S1                 0.0000
      4 ****        -0.6582   2.7997   2.3612 C.3            1 S1                 0.0000
      5 ****        -0.3959   2.0580  -0.1752 C.3            1 S1                 0.0000
      6 ****        -0.5106   0.5455  -0.3549 C.3            1 S1                 0.0000
      7 ****         0.6345  -0.0299  -1.0524 N.am           1 S1                 0.0000
      8 ****         0.7224  -1.3137  -1.4262 C.2            1 S1                 0.0000
      9 ****        -0.1619  -2.1427  -1.2117 O.2            1 S1                 0.0000
     10 ****         1.8880  -1.5608  -2.0473 N.am           1 S1                 0.0000
     11 ****         2.3485  -2.7819  -2.6040 C.2            1 S1                 0.0000
     12 ****         1.6265  -4.0098  -2.6603 C.2            1 S1                 0.0000
     13 ****         2.5034  -4.8466  -3.2893 C.2            1 S1                 0.0000
     14 ****         3.6568  -4.1946  -3.5925 O.3            1 S1                 0.0000
     15 ****         3.5481  -2.8707  -3.1504 N.2            1 S1                 0.0000
     16 ****        -0.4743   0.4099   1.1891 C.3            1 S1                 0.0000
     17 ****         0.9117   0.2210   1.8350 C.3            1 S1                 0.0000
     18 ****        -1.3651  -0.6837   1.7885 C.3            1 S1                 0.0000
     19 ****        -4.2141   2.7891   0.6363 H              1 S1                 0.0000
     20 ****        -2.7644   3.5979   0.0558 H              1 S1                 0.0000
     21 ****        -3.1801   3.6269   1.7779 H              1 S1                 0.0000
     22 ****         0.4159   2.7942   2.5426 H              1 S1                 0.0000
     23 ****        -1.1481   2.5062   3.2898 H              1 S1                 0.0000
     24 ****        -0.9240   3.8361   2.1548 H              1 S1                 0.0000
     25 ****        -0.9666   2.6382  -0.8992 H              1 S1                 0.0000
     26 ****         0.6337   2.4148  -0.1134 H              1 S1                 0.0000
     27 ****        -1.4754   0.2650  -0.7842 H              1 S1                 0.0000
     28 ****         1.4034   0.5888  -1.2644 H              1 S1                 0.0000
     29 ****         2.5231  -0.7812  -2.1347 H              1 S1                 0.0000
     30 ****         0.6357  -4.2529  -2.3082 H              1 S1                 0.0000
     31 ****         2.4562  -5.8853  -3.5814 H              1 S1                 0.0000
     32 ****         1.3200  -0.7695   1.6308 H              1 S1                 0.0000
     33 ****         0.8657   0.3319   2.9189 H              1 S1                 0.0000
     34 ****         1.6396   0.9451   1.4691 H              1 S1                 0.0000
     35 ****        -0.9164  -1.6719   1.6814 H              1 S1                 0.0000
     36 ****        -2.3385  -0.7301   1.3002 H              1 S1                 0.0000
     37 ****        -1.5425  -0.5142   2.8508 H              1 S1                 0.0000
     38 ****        -2.6749   1.1976   0.3015 LP             1 S1                 0.0000
     39 ****        -2.8296   1.3766   1.9173 LP             1 S1                 0.0000
     40 ****        -0.9983  -1.8699  -0.7361 LP             1 S1                 0.0000
     41 ****        -0.0440  -3.0889  -1.5129 LP             1 S1                 0.0000
     42 ****         3.8024  -4.2090  -4.5817 LP             1 S1                 0.0000
     43 ****         4.4265  -4.6406  -3.1357 LP             1 S1                 0.0000
     44 ****         4.2328  -2.1463  -3.2310 LP             1 S1                 0.0000
@<TRIPOS>BOND
    1    1    2 1     
    2    1   19 1     
    3    1   20 1     
    4    1   21 1     
    5    2    3 1     
    6    3   16 1     
    7    3    4 1     
    8    3    5 1     
    9    4   22 1     
   10    4   23 1     
   11    4   24 1     
   12    5    6 1     
   13    5   25 1     
   14    5   26 1     
   15    6    7 1     
   16    6   16 1     
   17    6   27 1     
   18    7    8 am    
   19    7   28 1     
   20    8    9 2     
   21    8   10 am    
   22   10   11 1     
   23   10   29 1     
   24   11   15 2     
   25   11   12 1     
   26   12   13 2     
   27   12   30 1     
   28   13   14 1     
   29   13   31 1     
   30   14   15 1     
   31   16   17 1     
   32   16   18 1     
   33   17   32 1     
   34   17   33 1     
   35   17   34 1     
   36   18   35 1     
   37   18   36 1     
   38   18   37 1     
   39    2   38 1     
   40    2   39 1     
   41    9   40 1     
   42    9   41 1     
   43   14   42 1     
   44   14   43 1     
   45   15   44 1     
@<TRIPOS>SUBSTRUCTURE
      1 S1             1
@<TRIPOS>SET
LONE_PAIRS      STATIC     ATOMS    <user>   **** ""
7 38 39 40 41 42 43 44
DONOR_HYDROGENS      STATIC     ATOMS    <user>   **** ""
2 28 29
ATOM$BLUE        STATIC     ATOMS    COLORGROUP SYSTEM
7 38 39 40 41 42 43 44
ATOM$RED        STATIC     ATOMS    COLORGROUP SYSTEM
2 28 29
