AV-unprocessed.smi:229|AV-procd|sdf|1762|dock7
  -GOLD-   2262020293D 1   1.00000     0.00000
 Structure written by MMmdl.
 58 62  0  0  0  0  0  0  0  0  1 V2000
  147.9299  132.1931  158.8181 C   0  0  0  0  0  0  0  0  0  0  0  0
  148.6303  133.5559  158.7512 C   0  0  0  0  0  0  0  0  0  0  0  0
  148.5872  134.1801  157.3486 C   0  0  1  0  0  0  0  0  0  0  0  0
  149.4239  135.4672  157.2666 C   0  0  0  0  0  0  0  0  0  0  0  0
  149.4115  135.9673  155.8999 N   0  0  0  0  0  0  0  0  0  0  0  0
  149.9290  137.2012  155.7261 C   0  0  0  0  0  0  0  0  0  0  0  0
  149.8781  137.7157  154.4730 N   0  0  0  0  0  0  0  0  0  0  0  0
  150.3776  138.9312  154.2285 C   0  0  0  0  0  0  0  0  0  0  0  0
  150.9647  139.7790  155.0764 N   0  0  0  0  0  0  0  0  0  0  0  0
  151.0258  139.2576  156.3352 C   0  0  0  0  0  0  0  0  0  0  0  0
  150.5385  137.9852  156.7465 C   0  0  0  0  0  0  0  0  0  0  0  0
  150.7903  137.7984  158.1008 N   0  0  0  0  0  0  0  0  0  0  0  0
  151.3850  138.9002  158.4704 C   0  0  0  0  0  0  0  0  0  0  0  0
  151.5620  139.8321  157.4730 N   0  0  0  0  0  0  0  0  0  0  0  0
  152.1888  141.1367  157.5969 C   0  0  0  0  0  0  0  0  0  0  0  0
  152.2618  141.6219  159.0610 C   0  0  1  0  0  0  0  0  0  0  0  0
  153.4071  141.0443  159.6580 O   0  0  0  0  0  0  0  0  0  0  0  0
  152.3859  143.1538  159.1858 C   0  0  1  0  0  0  0  0  0  0  0  0
  151.4413  143.9501  158.2835 C   0  0  0  0  0  0  0  0  0  0  0  0
  151.3172  145.2881  158.9922 C   0  0  0  0  0  0  0  0  0  0  0  0
  151.7430  144.9806  160.4296 C   0  0  0  0  0  0  0  0  0  0  0  0
  151.9439  143.5740  160.4684 O   0  0  0  0  0  0  0  0  0  0  0  0
  149.9112  134.9923  154.9422 C   0  0  0  0  0  0  0  0  0  0  0  0
  149.1224  133.6657  155.0518 C   0  0  2  0  0  0  0  0  0  0  0  0
  149.7785  132.5673  154.2204 C   0  0  0  0  0  0  0  0  0  0  0  0
  148.9897  132.5908  152.9202 C   0  0  0  0  0  0  0  0  0  0  0  0
  147.6659  132.7961  153.3760 O   0  0  0  0  0  0  0  0  0  0  0  0
  147.7067  133.7472  154.4333 C   0  0  0  0  0  0  0  0  0  0  0  0
  149.1065  133.2291  156.4152 O   0  0  0  0  0  0  0  0  0  0  0  0
  147.9711  131.7848  159.8281 H   0  0  0  0  0  0  0  0  0  0  0  0
  148.4008  131.4719  158.1495 H   0  0  0  0  0  0  0  0  0  0  0  0
  146.8800  132.2756  158.5355 H   0  0  0  0  0  0  0  0  0  0  0  0
  148.1514  134.2303  159.4618 H   0  0  0  0  0  0  0  0  0  0  0  0
  149.6660  133.4518  159.0773 H   0  0  0  0  0  0  0  0  0  0  0  0
  147.5507  134.4170  157.1074 H   0  0  0  0  0  0  0  0  0  0  0  0
  149.0218  136.2240  157.9417 H   0  0  0  0  0  0  0  0  0  0  0  0
  150.4467  135.2592  157.5815 H   0  0  0  0  0  0  0  0  0  0  0  0
  150.2957  139.2731  153.2074 H   0  0  0  0  0  0  0  0  0  0  0  0
  151.7101  139.0653  159.4875 H   0  0  0  0  0  0  0  0  0  0  0  0
  153.1881  141.0878  157.1618 H   0  0  0  0  0  0  0  0  0  0  0  0
  151.6170  141.8362  156.9870 H   0  0  0  0  0  0  0  0  0  0  0  0
  151.3759  141.2824  159.5995 H   0  0  0  0  0  0  0  0  0  0  0  0
  153.6814  141.5968  160.3740 H   0  0  0  0  0  0  0  0  0  0  0  0
  153.4149  143.4807  159.0217 H   0  0  0  0  0  0  0  0  0  0  0  0
  151.8102  144.0474  157.2620 H   0  0  0  0  0  0  0  0  0  0  0  0
  150.4640  143.4669  158.2452 H   0  0  0  0  0  0  0  0  0  0  0  0
  151.9828  146.0303  158.5501 H   0  0  0  0  0  0  0  0  0  0  0  0
  150.2986  145.6739  158.9378 H   0  0  0  0  0  0  0  0  0  0  0  0
  152.6787  145.4872  160.6704 H   0  0  0  0  0  0  0  0  0  0  0  0
  150.9932  145.2837  161.1611 H   0  0  0  0  0  0  0  0  0  0  0  0
  149.8488  135.3912  153.9285 H   0  0  0  0  0  0  0  0  0  0  0  0
  150.9679  134.8147  155.1481 H   0  0  0  0  0  0  0  0  0  0  0  0
  150.8495  132.7080  154.0708 H   0  0  0  0  0  0  0  0  0  0  0  0
  149.6383  131.5978  154.7010 H   0  0  0  0  0  0  0  0  0  0  0  0
  149.2976  133.4231  152.2855 H   0  0  0  0  0  0  0  0  0  0  0  0
  149.0824  131.6654  152.3512 H   0  0  0  0  0  0  0  0  0  0  0  0
  146.9148  133.5149  155.1447 H   0  0  0  0  0  0  0  0  0  0  0  0
  147.5061  134.7398  154.0281 H   0  0  0  0  0  0  0  0  0  0  0  0
  1  2  1  0  0  0  0
  1 30  1  0  0  0  0
  1 31  1  0  0  0  0
  1 32  1  0  0  0  0
  2  3  1  0  0  0  0
  2 33  1  0  0  0  0
  2 34  1  0  0  0  0
  3 29  1  0  0  0  0
  3  4  1  0  0  0  0
  3 35  1  0  0  0  0
  4  5  1  0  0  0  0
  4 36  1  0  0  0  0
  4 37  1  0  0  0  0
  5  6  1  0  0  0  0
  5 23  1  0  0  0  0
  6 11  1  0  0  0  0
  6  7  2  0  0  0  0
  7  8  1  0  0  0  0
  8  9  2  0  0  0  0
  8 38  1  0  0  0  0
  9 10  1  0  0  0  0
 10 14  1  0  0  0  0
 10 11  2  0  0  0  0
 11 12  1  0  0  0  0
 12 13  2  0  0  0  0
 13 14  1  0  0  0  0
 13 39  1  0  0  0  0
 14 15  1  0  0  0  0
 15 16  1  0  0  0  0
 15 40  1  0  0  0  0
 15 41  1  0  0  0  0
 16 17  1  0  0  0  0
 16 18  1  0  0  0  0
 16 42  1  0  0  0  0
 17 43  1  0  0  0  0
 18 22  1  0  0  0  0
 18 19  1  0  0  0  0
 18 44  1  0  0  0  0
 19 20  1  0  0  0  0
 19 45  1  0  0  0  0
 19 46  1  0  0  0  0
 20 21  1  0  0  0  0
 20 47  1  0  0  0  0
 20 48  1  0  0  0  0
 21 22  1  0  0  0  0
 21 49  1  0  0  0  0
 21 50  1  0  0  0  0
 23 24  1  0  0  0  0
 23 51  1  0  0  0  0
 23 52  1  0  0  0  0
 24 28  1  0  0  0  0
 24 25  1  0  0  0  0
 24 29  1  0  0  0  0
 25 26  1  0  0  0  0
 25 53  1  0  0  0  0
 25 54  1  0  0  0  0
 26 27  1  0  0  0  0
 26 55  1  0  0  0  0
 26 56  1  0  0  0  0
 27 28  1  0  0  0  0
 28 57  1  0  0  0  0
 28 58  1  0  0  0  0
M  END
> <s_m_source_file>
AV-unprocessed.smi

> <i_m_source_file_index>
229

> <i_lp_mmshare_version>
43012

> <i_f3d_flags>
0

> <s_epik_input>
W0NIMl0xT1tDSDJdW0NIMl1bQ0BdMTJbQ0gyXU4oW0NIMl1bQ0BIXShPMilbQ0gyXVtDSDNdKWMobltjSF1uMyljKGMzNCluW2NIXW40W0NIMl1bQ0BIXShbT0hdKVtDQEBIXTVbQ0gyXVtDSDJdW0NIMl1PNQ==

> <s_epik_cmdline>
J2VwaWtfcHl0aG9uJywgJy1waCcsICc3LjAnLCAnLXRuJywgJzgnLCAnLW1hJywgJzIwMCcsICctbWV0YWxfYmluZGluZycsICctaW1hZScsICc8aW5maWxlLm1hZT4nLCAnLW9tYWUnLCAnPG91dGZpbGUubWFlPic=

> <r_lp_tautomer_probability>
1

> <r_epik_Ionization_Penalty>
0.00318402

> <r_epik_Ionization_Penalty_Charging>
0

> <r_epik_Ionization_Penalty_Neutral>
0.00318402

> <r_epik_State_Penalty>
0.00215642

> <r_epik_Charging_Adjusted_Penalty>
0.00215642

> <i_epik_Tot_Q>
0

> <i_epik_Tot_abs_Q>
0

> <r_epik_Metal_State_Penalty>
-0

> <b_epik_Metal_Only>
0

> <s_lp_Force_Field>
OPLS_2005

> <r_lp_Energy>
58.1289

> <b_lp_Chiralities_Consistent>
1

> <s_lp_Variant>
AV-unprocessed.smi:229-16

> <Gold.Version>
5.8.1

> <Gold.Id.Protein>
6NUR|6NUR_protein|mol2

> <Gold.PLP.Fitness>
42.7851

> <Gold.PLP.PLP>
-40.1121

> <Gold.PLP.part.hbond>
-1.0000

> <Gold.PLP.part.metal>
0.0000

> <Gold.PLP.part.buried>
-7.4479

> <Gold.PLP.part.nonpolar>
-32.6827

> <Gold.PLP.part.repulsive>
0.4911

> <Gold.PLP.ligand.clash>
0.0000

> <Gold.PLP.ligand.torsion>
0.9479

> <Gold.PLP.Chemscore.Hbond>
0.4500

> <Gold.PLP.Chemscore.CHOScore>
1.0000

> <Gold.PLP.Chemscore.Metal>
0.0000

> <Gold.Chemscore.Hbonds>
donor molecule, donor type, donor heavy atom, donor atom, acceptor molecule, acceptor atom, score
      P1  H  7989  7998       L1     9  0.50
      L1  C     8    38       P1  7957  1.00

> <Gold.PLP.Chemscore.Internal.Correction>
0.2188

> <Gold.Rescore>
     Score         DG    S(hbond)    S(metal)    S(lipo)     H(rot)  DE(clash)    DE(int)     intcor
      8.72     -10.90       0.01        0.00      99.99       2.46       0.00       2.18       ----

> <Gold.Chemscore.Fitness>
8.7192

> <Gold.Chemscore.DG>
-10.9042

> <Gold.Chemscore.ZeroCoef>
-5.4800

> <Gold.Chemscore.Hbond>
0.0062

> <Gold.Chemscore.Metal>
0.0000

> <Gold.Chemscore.Lipo>
99.9904

> <Gold.Chemscore.Internal_Hbond>
0.0000

> <Gold.Chemscore.DEClash>
0.0019

> <Gold.Chemscore.DEInternal>
2.1831

> <Gold.Chemscore.Rot>
2.4591

> <Gold.Chemscore.Internal.Correction>
   9.000000E+99

> <Gold.Chemscore.Hbonds>
donor molecule, donor type, donor heavy atom, donor atom, acceptor molecule, acceptor atom, score
      P1  H  7989  7998       L1     9  0.02

> <Gold.Chemscore.Hbond.Weighted>
-0.0206

> <Gold.Chemscore.Metal.Weighted>
-0.0000

> <Gold.Chemscore.Lipo.Weighted>
-11.6989

> <Gold.Chemscore.Internal_Hbond.Weighted>
0.0000

> <Gold.Chemscore.DEClash.Weighted>
0.0019

> <Gold.Chemscore.DEInternal.Weighted>
2.1831

> <Gold.Chemscore.Rot.Weighted>
6.2953

> <Gold.Chemscore.Internal.Correction.Weighted>
   9.000000E+99

> <Gold.Protein.RotatedTorsions>
[ 6907 6896 6895 6894 ] final  151.37 input  -60.11 | X-H torsion
[ 7974 7965 7964 7962 ] final  -35.44 input  175.53 | X-H torsion
[ 8008 7997 7996 7995 ] final   -1.79 input   59.86 | X-H torsion
[ 10167 10162 10161 10158 ] final -111.44 input  -65.29 | X-H torsion
[ 10718 10713 10712 10709 ] final  -99.64 input   66.30 | X-H torsion
[ 10763 10752 10751 10750 ] final  -11.59 input  -60.55 | X-H torsion
[ 11005 11000 10999 10996 ] final -177.66 input  -57.11 | X-H torsion

> <Gold.Protein.ActiveResidues>
 VAL166  LYS551  ARG553  GLY616  TRP617  ASP618  TYR619  PRO620  LYS621  CYS622 
 ASP623  PHE694  ASN695  SER759  ASP760  ASP761  ALA762  ILE779  LEU786  VAL792 
 PHE793  MET794  SER795  GLU796  ALA797  LYS798  CYS799  TRP800  GLU811  SER814 

> <Gold.Protein.RotatedAtoms>
  152.1016  133.4252  159.4589 H   0  0  0  0  0  0  0  0  0  0  0  0  # atno 6907 bound_to 6896
  150.6864  134.2754  159.4614 H   0  0  0  0  0  0  0  0  0  0  0  0  # atno 6908 bound_to 6896
  152.0615  134.9591  160.0625 H   0  0  0  0  0  0  0  0  0  0  0  0  # atno 6909 bound_to 6896
  146.0746  140.6160  142.8937 H   0  0  0  0  0  0  0  0  0  0  0  0  # atno 7974 bound_to 7965
  154.6429  140.2550  155.7302 H   0  0  0  0  0  0  0  0  0  0  0  0  # atno 8008 bound_to 7997
  156.2537  140.2884  156.0750 H   0  0  0  0  0  0  0  0  0  0  0  0  # atno 8009 bound_to 7997
  155.1569  140.0383  157.2824 H   0  0  0  0  0  0  0  0  0  0  0  0  # atno 8010 bound_to 7997
  140.1336  143.4340  152.1611 H   0  0  0  0  0  0  0  0  0  0  0  0  # atno 10167 bound_to 10162
  156.0140  130.5292  150.6700 H   0  0  0  0  0  0  0  0  0  0  0  0  # atno 10718 bound_to 10713
  153.4859  135.7017  153.5911 H   0  0  0  0  0  0  0  0  0  0  0  0  # atno 10763 bound_to 10752
  153.4104  135.3850  155.2047 H   0  0  0  0  0  0  0  0  0  0  0  0  # atno 10764 bound_to 10752
  154.8719  135.3903  154.4314 H   0  0  0  0  0  0  0  0  0  0  0  0  # atno 10765 bound_to 10752
  140.4384  134.6454  157.4746 H   0  0  0  0  0  0  0  0  0  0  0  0  # atno 11005 bound_to 11000
  144.7253  140.4505  143.6978 LP  0  0  0  0  0  0  0  0  0  0  0  0  # atno 17320 bound_to 7965
  145.6330  139.1539  143.2958 LP  0  0  0  0  0  0  0  0  0  0  0  0  # atno 17321 bound_to 7965
  139.5507  144.7335  151.4443 LP  0  0  0  0  0  0  0  0  0  0  0  0  # atno 17342 bound_to 10162
  140.6802  143.8098  150.7112 LP  0  0  0  0  0  0  0  0  0  0  0  0  # atno 17343 bound_to 10162
  157.4425  131.0863  151.0929 LP  0  0  0  0  0  0  0  0  0  0  0  0  # atno 17370 bound_to 10713
  157.1469  130.6167  149.5571 LP  0  0  0  0  0  0  0  0  0  0  0  0  # atno 17371 bound_to 10713
  140.0086  134.6725  155.9415 LP  0  0  0  0  0  0  0  0  0  0  0  0  # atno 17394 bound_to 11000
  141.1716  133.6537  156.4673 LP  0  0  0  0  0  0  0  0  0  0  0  0  # atno 17395 bound_to 11000

$$$$
