AV-unprocessed.smi:3285|AV-procd|sdf|12586|dock7
  -GOLD-   2272018503D 1   1.00000     0.00000
 Structure written by MMmdl.
 45 46  0  0  0  0  0  0  0  0  2 V2000
  145.0262  143.5581  155.8140 C   0  0  0  0  0  0  0  0  0  0  0  0
  146.1047  142.7255  155.1827 C   0  0  0  0  0  0  0  0  0  0  0  0
  146.0334  142.4502  153.8917 N   0  0  0  0  0  0  0  0  0  0  0  0
  147.1569  141.6712  153.6025 O   0  0  0  0  0  0  0  0  0  0  0  0
  147.8704  141.5053  154.7442 C   0  0  0  0  0  0  0  0  0  0  0  0
  149.1195  140.6982  154.6304 C   0  0  0  0  0  0  0  0  0  0  0  0
  147.2611  142.1510  155.7861 C   0  0  0  0  0  0  0  0  0  0  0  0
  147.6984  142.2425  157.2265 C   0  0  0  0  0  0  0  0  0  0  0  0
  149.1506  141.7807  157.4224 C   0  0  0  0  0  0  0  0  0  0  0  0
  150.0969  142.6549  156.6963 N   0  3  0  0  0  0  0  0  0  0  0  0
  151.3033  143.0550  157.4526 C   0  0  2  0  0  0  0  0  0  0  0  0
  151.8334  141.8516  158.2518 C   0  0  0  0  0  0  0  0  0  0  0  0
  153.0672  142.2277  159.0893 C   0  0  0  0  0  0  0  0  0  0  0  0
  152.7898  143.4106  160.0391 C   0  0  2  0  0  0  0  0  0  0  0  0
  151.8932  142.9913  161.2219 C   0  0  0  0  0  0  0  0  0  0  0  0
  152.2539  144.6216  159.2331 C   0  0  2  0  0  0  0  0  0  0  0  0
  151.9984  145.8647  160.1016 C   0  0  0  0  0  0  0  0  0  0  0  0
  151.0170  144.2468  158.3909 C   0  0  0  0  0  0  0  0  0  0  0  0
  145.3418  143.9581  156.7771 H   0  0  0  0  0  0  0  0  0  0  0  0
  144.1254  142.9671  155.9792 H   0  0  0  0  0  0  0  0  0  0  0  0
  144.7576  144.4038  155.1803 H   0  0  0  0  0  0  0  0  0  0  0  0
  149.6160  140.5987  155.5954 H   0  0  0  0  0  0  0  0  0  0  0  0
  149.8196  141.1674  153.9392 H   0  0  0  0  0  0  0  0  0  0  0  0
  148.8984  139.6968  154.2608 H   0  0  0  0  0  0  0  0  0  0  0  0
  147.6058  143.2678  157.5860 H   0  0  0  0  0  0  0  0  0  0  0  0
  147.0435  141.6543  157.8701 H   0  0  0  0  0  0  0  0  0  0  0  0
  149.3967  141.7785  158.4851 H   0  0  0  0  0  0  0  0  0  0  0  0
  149.2546  140.7555  157.0672 H   0  0  0  0  0  0  0  0  0  0  0  0
  150.3806  142.2025  155.8390 H   0  0  0  0  0  0  0  0  0  0  0  0
  152.0738  143.3441  156.7358 H   0  0  0  0  0  0  0  0  0  0  0  0
  151.0504  141.4621  158.9034 H   0  0  0  0  0  0  0  0  0  0  0  0
  152.0926  141.0394  157.5715 H   0  0  0  0  0  0  0  0  0  0  0  0
  153.4126  141.3612  159.6544 H   0  0  0  0  0  0  0  0  0  0  0  0
  153.8846  142.4915  158.4168 H   0  0  0  0  0  0  0  0  0  0  0  0
  153.7485  143.7029  160.4702 H   0  0  0  0  0  0  0  0  0  0  0  0
  150.8847  142.7296  160.9033 H   0  0  0  0  0  0  0  0  0  0  0  0
  151.8103  143.7864  161.9622 H   0  0  0  0  0  0  0  0  0  0  0  0
  152.3096  142.1245  161.7359 H   0  0  0  0  0  0  0  0  0  0  0  0
  153.0407  144.9010  158.5305 H   0  0  0  0  0  0  0  0  0  0  0  0
  151.1613  145.7170  160.7840 H   0  0  0  0  0  0  0  0  0  0  0  0
  151.7640  146.7309  159.4823 H   0  0  0  0  0  0  0  0  0  0  0  0
  152.8765  146.1161  160.6968 H   0  0  0  0  0  0  0  0  0  0  0  0
  150.7131  145.1154  157.8069 H   0  0  0  0  0  0  0  0  0  0  0  0
  150.1767  144.0126  159.0455 H   0  0  0  0  0  0  0  0  0  0  0  0
  149.5950  143.4993  156.4607 H   0  0  0  0  0  0  0  0  0  0  0  0
  1  2  1  0  0  0  0
  1 19  1  0  0  0  0
  1 20  1  0  0  0  0
  1 21  1  0  0  0  0
  2  7  1  0  0  0  0
  2  3  2  0  0  0  0
  3  4  1  0  0  0  0
  4  5  1  0  0  0  0
  5  6  1  0  0  0  0
  5  7  2  0  0  0  0
  6 22  1  0  0  0  0
  6 23  1  0  0  0  0
  6 24  1  0  0  0  0
  7  8  1  0  0  0  0
  8  9  1  0  0  0  0
  8 25  1  0  0  0  0
  8 26  1  0  0  0  0
  9 10  1  0  0  0  0
  9 27  1  0  0  0  0
  9 28  1  0  0  0  0
 10 11  1  0  0  0  0
 10 29  1  0  0  0  0
 10 45  1  0  0  0  0
 11 18  1  0  0  0  0
 11 12  1  0  0  0  0
 11 30  1  0  0  0  0
 12 13  1  0  0  0  0
 12 31  1  0  0  0  0
 12 32  1  0  0  0  0
 13 14  1  0  0  0  0
 13 33  1  0  0  0  0
 13 34  1  0  0  0  0
 14 15  1  0  0  0  0
 14 16  1  0  0  0  0
 14 35  1  0  0  0  0
 15 36  1  0  0  0  0
 15 37  1  0  0  0  0
 15 38  1  0  0  0  0
 16 17  1  0  0  0  0
 16 18  1  0  0  0  0
 16 39  1  0  0  0  0
 17 40  1  0  0  0  0
 17 41  1  0  0  0  0
 17 42  1  0  0  0  0
 18 43  1  0  0  0  0
 18 44  1  0  0  0  0
M  CHG  1  10   1
M  END
> <s_m_source_file>
AV-unprocessed.smi

> <i_m_source_file_index>
3285

> <i_lp_mmshare_version>
43012

> <i_f3d_flags>
0

> <s_epik_input>
W0NIM11jMW5vYyhbQ0gzXSljMVtDSDJdW0NIMl1bTkhdW0NAQEhdMltDSDJdW0NIMl1bQ0BASF0oW0NIM10pW0NAQEhdKFtDSDNdKVtDSDJdMg==

> <s_epik_cmdline>
J2VwaWtfcHl0aG9uJywgJy1waCcsICc3LjAnLCAnLXRuJywgJzgnLCAnLW1hJywgJzIwMCcsICctbWV0YWxfYmluZGluZycsICctaW1hZScsICc8aW5maWxlLm1hZT4nLCAnLW9tYWUnLCAnPG91dGZpbGUubWFlPic=

> <r_lp_tautomer_probability>
1

> <r_epik_Ionization_Penalty>
0.000204615

> <r_epik_Ionization_Penalty_Charging>
0.000204615

> <r_epik_Ionization_Penalty_Neutral>
9.28663e-11

> <r_epik_State_Penalty>
-0

> <r_epik_Charging_Adjusted_Penalty>
0.000204615

> <i_epik_Tot_Q>
1

> <i_epik_Tot_abs_Q>
1

> <r_epik_Metal_State_Penalty>
-0

> <b_epik_Metal_Only>
0

> <s_lp_Force_Field>
OPLS_2005

> <r_lp_Energy>
13.9003

> <b_lp_Chiralities_Consistent>
1

> <s_lp_Variant>
AV-unprocessed.smi:3285-7

> <Gold.Version>
5.8.1

> <Gold.Id.Protein>
6NUR|6NUR_protein|mol2

> <Gold.PLP.Fitness>
43.9712

> <Gold.PLP.PLP>
-39.4928

> <Gold.PLP.part.hbond>
-1.0000

> <Gold.PLP.part.metal>
0.0000

> <Gold.PLP.part.buried>
-3.4963

> <Gold.PLP.part.nonpolar>
-34.8546

> <Gold.PLP.part.repulsive>
0.4236

> <Gold.PLP.ligand.clash>
0.1781

> <Gold.PLP.ligand.torsion>
0.6748

> <Gold.PLP.Chemscore.Hbond>
2.0000

> <Gold.PLP.Chemscore.CHOScore>
0.0000

> <Gold.PLP.Chemscore.Metal>
0.0000

> <Gold.Chemscore.Hbonds>
donor molecule, donor type, donor heavy atom, donor atom, acceptor molecule, acceptor atom, score
      L1  H    10    45       P1  8028  2.00

> <Gold.PLP.Chemscore.Internal.Correction>
0.0061

> <Gold.Rescore>
     Score         DG    S(hbond)    S(metal)    S(lipo)     H(rot)  DE(clash)    DE(int)     intcor
     17.48     -19.43       1.00        0.00     120.20       1.35       0.18       1.77       ----

> <Gold.Chemscore.Fitness>
17.4785

> <Gold.Chemscore.DG>
-19.4310

> <Gold.Chemscore.ZeroCoef>
-5.4800

> <Gold.Chemscore.Hbond>
0.9983

> <Gold.Chemscore.Metal>
0.0000

> <Gold.Chemscore.Lipo>
120.2030

> <Gold.Chemscore.Internal_Hbond>
0.0000

> <Gold.Chemscore.DEClash>
0.1816

> <Gold.Chemscore.DEInternal>
1.7709

> <Gold.Chemscore.Rot>
1.3465

> <Gold.Chemscore.Internal.Correction>
   9.000000E+99

> <Gold.Chemscore.Hbonds>
donor molecule, donor type, donor heavy atom, donor atom, acceptor molecule, acceptor atom, score
      L1  H    10    45       P1  8028  0.99

> <Gold.Chemscore.Hbond.Weighted>
-3.3342

> <Gold.Chemscore.Metal.Weighted>
-0.0000

> <Gold.Chemscore.Lipo.Weighted>
-14.0638

> <Gold.Chemscore.Internal_Hbond.Weighted>
0.0000

> <Gold.Chemscore.DEClash.Weighted>
0.1816

> <Gold.Chemscore.DEInternal.Weighted>
1.7709

> <Gold.Chemscore.Rot.Weighted>
3.4470

> <Gold.Chemscore.Internal.Correction.Weighted>
   9.000000E+99

> <Gold.Protein.RotatedTorsions>
[ 6907 6896 6895 6894 ] final -157.09 input  -60.11 | X-H torsion
[ 7974 7965 7964 7962 ] final  -32.29 input  175.53 | X-H torsion
[ 8008 7997 7996 7995 ] final   35.02 input   59.86 | X-H torsion
[ 10167 10162 10161 10158 ] final -144.69 input  -65.29 | X-H torsion
[ 10718 10713 10712 10709 ] final -142.66 input   66.30 | X-H torsion
[ 10763 10752 10751 10750 ] final   23.68 input  -60.55 | X-H torsion
[ 11005 11000 10999 10996 ] final  -66.38 input  -57.11 | X-H torsion

> <Gold.Protein.ActiveResidues>
 VAL166  LYS551  ARG553  GLY616  TRP617  ASP618  TYR619  PRO620  LYS621  CYS622 
 ASP623  PHE694  ASN695  SER759  ASP760  ASP761  ALA762  ILE779  LEU786  VAL792 
 PHE793  MET794  SER795  GLU796  ALA797  LYS798  CYS799  TRP800  GLU811  SER814 

> <Gold.Protein.RotatedAtoms>
  151.2975  133.4137  159.2637 H   0  0  0  0  0  0  0  0  0  0  0  0  # atno 6907 bound_to 6896
  151.0224  134.9479  159.8077 H   0  0  0  0  0  0  0  0  0  0  0  0  # atno 6908 bound_to 6896
  152.5327  134.2938  159.9105 H   0  0  0  0  0  0  0  0  0  0  0  0  # atno 6909 bound_to 6896
  146.1002  140.5773  142.8824 H   0  0  0  0  0  0  0  0  0  0  0  0  # atno 7974 bound_to 7965
  155.1643  140.3286  155.4405 H   0  0  0  0  0  0  0  0  0  0  0  0  # atno 8008 bound_to 7997
  156.2532  140.1954  156.6700 H   0  0  0  0  0  0  0  0  0  0  0  0  # atno 8009 bound_to 7997
  154.6382  140.0573  156.9800 H   0  0  0  0  0  0  0  0  0  0  0  0  # atno 8010 bound_to 7997
  139.7875  143.8013  152.2646 H   0  0  0  0  0  0  0  0  0  0  0  0  # atno 10167 bound_to 10162
  156.3486  130.7676  151.1825 H   0  0  0  0  0  0  0  0  0  0  0  0  # atno 10718 bound_to 10713
  153.0820  135.6621  154.0026 H   0  0  0  0  0  0  0  0  0  0  0  0  # atno 10763 bound_to 10752
  153.9645  135.2970  155.3433 H   0  0  0  0  0  0  0  0  0  0  0  0  # atno 10764 bound_to 10752
  154.7221  135.5160  153.8900 H   0  0  0  0  0  0  0  0  0  0  0  0  # atno 10765 bound_to 10752
  141.1480  133.6698  156.6130 H   0  0  0  0  0  0  0  0  0  0  0  0  # atno 11005 bound_to 11000
  144.7426  140.4984  143.6858 LP  0  0  0  0  0  0  0  0  0  0  0  0  # atno 17320 bound_to 7965
  145.5870  139.1493  143.3203 LP  0  0  0  0  0  0  0  0  0  0  0  0  # atno 17321 bound_to 7965
  139.8094  144.7342  150.9718 LP  0  0  0  0  0  0  0  0  0  0  0  0  # atno 17342 bound_to 10162
  140.7820  143.4266  151.0759 LP  0  0  0  0  0  0  0  0  0  0  0  0  # atno 17343 bound_to 10162
  157.7458  131.0434  150.4741 LP  0  0  0  0  0  0  0  0  0  0  0  0  # atno 17370 bound_to 10713
  156.4933  130.4100  149.6394 LP  0  0  0  0  0  0  0  0  0  0  0  0  # atno 17371 bound_to 10713
  140.3599  134.7696  157.4526 LP  0  0  0  0  0  0  0  0  0  0  0  0  # atno 17394 bound_to 11000
  140.0793  134.5753  155.8557 LP  0  0  0  0  0  0  0  0  0  0  0  0  # atno 17395 bound_to 11000

$$$$
