AV-unprocessed.smi:1516|AV-procd|sdf|6119|dock2
  -GOLD-   22720 6253D 1   1.00000     0.00000
 Structure written by MMmdl.
 46 47  0  0  0  0  0  0  0  0  2 V2000
  145.2813  135.7364  150.7641 C   0  0  0  0  0  0  0  0  0  0  0  0
  144.8242  136.2491  152.0583 N   0  0  0  0  0  0  0  0  0  0  0  0
  143.8258  135.4349  152.7562 C   0  0  0  0  0  0  0  0  0  0  0  0
  145.3013  137.4161  152.5498 C   0  0  0  0  0  0  0  0  0  0  0  0
  144.9540  137.8541  153.6489 O   0  0  0  0  0  0  0  0  0  0  0  0
  146.3201  138.2103  151.7070 C   0  0  0  0  0  0  0  0  0  0  0  0
  147.5975  138.4240  152.3859 N   0  0  0  0  0  0  0  0  0  0  0  0
  147.8607  139.4255  153.2385 C   0  0  0  0  0  0  0  0  0  0  0  0
  147.0497  140.3080  153.5194 O   0  0  0  0  0  0  0  0  0  0  0  0
  149.1127  139.3396  153.7200 N   0  0  0  0  0  0  0  0  0  0  0  0
  149.7443  140.1641  154.6900 C   0  0  0  0  0  0  0  0  0  0  0  0
  150.7887  139.6031  155.4540 C   0  0  0  0  0  0  0  0  0  0  0  0
  151.4306  140.3787  156.4410 C   0  0  0  0  0  0  0  0  0  0  0  0
  151.0197  141.7144  156.6666 C   0  0  0  0  0  0  0  0  0  0  0  0
  151.6245  142.5381  157.6414 N   0  0  0  0  0  0  0  0  0  0  0  0
  151.4518  143.9802  157.4507 C   0  0  0  0  0  0  0  0  0  0  0  0
  152.4621  144.7795  158.2919 C   0  0  0  0  0  0  0  0  0  0  0  0
  152.4011  144.3668  159.7696 C   0  0  0  0  0  0  0  0  0  0  0  0
  152.6052  142.8506  159.8982 C   0  0  0  0  0  0  0  0  0  0  0  0
  151.5924  142.0807  159.0336 C   0  0  0  0  0  0  0  0  0  0  0  0
  149.9996  142.2038  155.9190 N   0  3  0  0  0  0  0  0  0  0  0  0
  149.3586  141.4980  154.9626 C   0  0  0  0  0  0  0  0  0  0  0  0
  146.3646  135.8220  150.6629 H   0  0  0  0  0  0  0  0  0  0  0  0
  144.8186  136.2984  149.9521 H   0  0  0  0  0  0  0  0  0  0  0  0
  145.0369  134.6831  150.6248 H   0  0  0  0  0  0  0  0  0  0  0  0
  142.9732  136.0368  153.0724 H   0  0  0  0  0  0  0  0  0  0  0  0
  144.2644  134.9674  153.6384 H   0  0  0  0  0  0  0  0  0  0  0  0
  143.4269  134.6391  152.1267 H   0  0  0  0  0  0  0  0  0  0  0  0
  146.5210  137.6599  150.7877 H   0  0  0  0  0  0  0  0  0  0  0  0
  145.8993  139.1738  151.4154 H   0  0  0  0  0  0  0  0  0  0  0  0
  148.3212  137.7422  152.2121 H   0  0  0  0  0  0  0  0  0  0  0  0
  149.6894  138.6095  153.3281 H   0  0  0  0  0  0  0  0  0  0  0  0
  151.1003  138.5821  155.2876 H   0  0  0  0  0  0  0  0  0  0  0  0
  152.2200  139.9314  157.0263 H   0  0  0  0  0  0  0  0  0  0  0  0
  151.5625  144.2679  156.4066 H   0  0  0  0  0  0  0  0  0  0  0  0
  150.4349  144.2480  157.7408 H   0  0  0  0  0  0  0  0  0  0  0  0
  153.4693  144.6127  157.9078 H   0  0  0  0  0  0  0  0  0  0  0  0
  152.2666  145.8477  158.1935 H   0  0  0  0  0  0  0  0  0  0  0  0
  153.1608  144.8999  160.3422 H   0  0  0  0  0  0  0  0  0  0  0  0
  151.4354  144.6476  160.1921 H   0  0  0  0  0  0  0  0  0  0  0  0
  153.6191  142.5919  159.5896 H   0  0  0  0  0  0  0  0  0  0  0  0
  152.5123  142.5464  160.9413 H   0  0  0  0  0  0  0  0  0  0  0  0
  150.5851  142.2152  159.4300 H   0  0  0  0  0  0  0  0  0  0  0  0
  151.8220  141.0158  159.0884 H   0  0  0  0  0  0  0  0  0  0  0  0
  148.5582  142.0284  154.4691 H   0  0  0  0  0  0  0  0  0  0  0  0
  149.6962  143.1629  156.0879 H   0  0  0  0  0  0  0  0  0  0  0  0
  1  2  1  0  0  0  0
  1 23  1  0  0  0  0
  1 24  1  0  0  0  0
  1 25  1  0  0  0  0
  2  3  1  0  0  0  0
  2  4  1  0  0  0  0
  3 26  1  0  0  0  0
  3 27  1  0  0  0  0
  3 28  1  0  0  0  0
  4  5  2  0  0  0  0
  4  6  1  0  0  0  0
  6  7  1  0  0  0  0
  6 29  1  0  0  0  0
  6 30  1  0  0  0  0
  7  8  1  0  0  0  0
  7 31  1  0  0  0  0
  8  9  2  0  0  0  0
  8 10  1  0  0  0  0
 10 11  1  0  0  0  0
 10 32  1  0  0  0  0
 11 22  1  0  0  0  0
 11 12  2  0  0  0  0
 12 13  1  0  0  0  0
 12 33  1  0  0  0  0
 13 14  2  0  0  0  0
 13 34  1  0  0  0  0
 14 15  1  0  0  0  0
 14 21  1  0  0  0  0
 15 20  1  0  0  0  0
 15 16  1  0  0  0  0
 16 17  1  0  0  0  0
 16 35  1  0  0  0  0
 16 36  1  0  0  0  0
 17 18  1  0  0  0  0
 17 37  1  0  0  0  0
 17 38  1  0  0  0  0
 18 19  1  0  0  0  0
 18 39  1  0  0  0  0
 18 40  1  0  0  0  0
 19 20  1  0  0  0  0
 19 41  1  0  0  0  0
 19 42  1  0  0  0  0
 20 43  1  0  0  0  0
 20 44  1  0  0  0  0
 21 22  2  0  0  0  0
 21 46  1  0  0  0  0
 22 45  1  0  0  0  0
M  CHG  1  21   1
M  END
> <s_m_source_file>
AV-unprocessed.smi

> <i_m_source_file_index>
1516

> <i_lp_mmshare_version>
43012

> <i_f3d_flags>
0

> <s_epik_input>
W0NIM11OKFtDSDNdKUMoPU8pW0NIMl1bTkhdQyg9TylbTkhdYzFbY0hdW2NIXWMobltjSF0xKU4yW0NIMl1bQ0gyXVtDSDJdW0NIMl1bQ0gyXTI=

> <s_epik_cmdline>
J2VwaWtfcHl0aG9uJywgJy1waCcsICc3LjAnLCAnLXRuJywgJzgnLCAnLW1hJywgJzIwMCcsICctbWV0YWxfYmluZGluZycsICctaW1hZScsICc8aW5maWxlLm1hZT4nLCAnLW9tYWUnLCAnPG91dGZpbGUubWFlPic=

> <r_lp_tautomer_probability>
0.999994

> <r_epik_Ionization_Penalty>
0.630512

> <r_epik_Ionization_Penalty_Charging>
0.630494

> <r_epik_Ionization_Penalty_Neutral>
1.88157e-05

> <r_epik_State_Penalty>
0.647303

> <r_epik_Charging_Adjusted_Penalty>
1.2778

> <i_epik_Tot_Q>
1

> <i_epik_Tot_abs_Q>
1

> <r_epik_Metal_State_Penalty>
0.825198

> <b_epik_Metal_Only>
0

> <s_lp_Force_Field>
OPLS_2005

> <r_lp_Energy>
27.3098

> <b_lp_Chiralities_Consistent>
1

> <s_lp_Variant>
AV-unprocessed.smi:1516-2

> <Gold.Version>
5.8.1

> <Gold.Id.Protein>
6NUR|6NUR_protein|mol2

> <Gold.PLP.Fitness>
56.4217

> <Gold.PLP.PLP>
-48.2027

> <Gold.PLP.part.hbond>
-4.0000

> <Gold.PLP.part.metal>
0.0000

> <Gold.PLP.part.buried>
-1.8031

> <Gold.PLP.part.nonpolar>
-44.7797

> <Gold.PLP.part.repulsive>
0.6786

> <Gold.PLP.ligand.clash>
0.0000

> <Gold.PLP.ligand.torsion>
0.6227

> <Gold.PLP.Chemscore.Hbond>
3.0000

> <Gold.PLP.Chemscore.CHOScore>
0.0000

> <Gold.PLP.Chemscore.Metal>
0.0000

> <Gold.Chemscore.Hbonds>
donor molecule, donor type, donor heavy atom, donor atom, acceptor molecule, acceptor atom, score
      L1  H     7    31       P1  7948  1.00
      L1  H    21    46       P1  8028  2.00

> <Gold.PLP.Chemscore.Internal.Correction>
0.4643

> <Gold.Rescore>
     Score         DG    S(hbond)    S(metal)    S(lipo)     H(rot)  DE(clash)    DE(int)     intcor
     18.36     -20.38       1.98        0.00     103.93       1.52       0.25       1.77       ----

> <Gold.Chemscore.Fitness>
18.3649

> <Gold.Chemscore.DG>
-20.3798

> <Gold.Chemscore.ZeroCoef>
-5.4800

> <Gold.Chemscore.Hbond>
1.9823

> <Gold.Chemscore.Metal>
0.0000

> <Gold.Chemscore.Lipo>
103.9295

> <Gold.Chemscore.Internal_Hbond>
0.0000

> <Gold.Chemscore.DEClash>
0.2469

> <Gold.Chemscore.DEInternal>
1.7680

> <Gold.Chemscore.Rot>
1.5159

> <Gold.Chemscore.Internal.Correction>
   9.000000E+99

> <Gold.Chemscore.Hbonds>
donor molecule, donor type, donor heavy atom, donor atom, acceptor molecule, acceptor atom, score
      L1  H     7    31       P1  7948  0.99
      L1  H    21    46       P1  8028  0.98

> <Gold.Chemscore.Hbond.Weighted>
-6.6208

> <Gold.Chemscore.Metal.Weighted>
-0.0000

> <Gold.Chemscore.Lipo.Weighted>
-12.1598

> <Gold.Chemscore.Internal_Hbond.Weighted>
0.0000

> <Gold.Chemscore.DEClash.Weighted>
0.2469

> <Gold.Chemscore.DEInternal.Weighted>
1.7680

> <Gold.Chemscore.Rot.Weighted>
3.8807

> <Gold.Chemscore.Internal.Correction.Weighted>
   9.000000E+99

> <Gold.Protein.RotatedTorsions>
[ 6907 6896 6895 6894 ] final   76.47 input  -60.11 | X-H torsion
[ 7974 7965 7964 7962 ] final  107.55 input  175.53 | X-H torsion
[ 8008 7997 7996 7995 ] final   71.71 input   59.86 | X-H torsion
[ 10167 10162 10161 10158 ] final -106.12 input  -65.29 | X-H torsion
[ 10718 10713 10712 10709 ] final -100.69 input   66.30 | X-H torsion
[ 10763 10752 10751 10750 ] final  132.61 input  -60.55 | X-H torsion
[ 11005 11000 10999 10996 ] final  111.36 input  -57.11 | X-H torsion

> <Gold.Protein.ActiveResidues>
 VAL166  LYS551  ARG553  GLY616  TRP617  ASP618  TYR619  PRO620  LYS621  CYS622 
 ASP623  PHE694  ASN695  SER759  ASP760  ASP761  ALA762  ILE779  LEU786  VAL792 
 PHE793  MET794  SER795  GLU796  ALA797  LYS798  CYS799  TRP800  GLU811  SER814 

> <Gold.Protein.RotatedAtoms>
  152.5074  134.3964  159.9401 H   0  0  0  0  0  0  0  0  0  0  0  0  # atno 6907 bound_to 6896
  151.3926  133.3777  159.2730 H   0  0  0  0  0  0  0  0  0  0  0  0  # atno 6908 bound_to 6896
  150.9421  134.8850  159.7678 H   0  0  0  0  0  0  0  0  0  0  0  0  # atno 6909 bound_to 6896
  145.2922  139.2596  143.3858 H   0  0  0  0  0  0  0  0  0  0  0  0  # atno 7974 bound_to 7965
  155.7579  140.3487  155.5183 H   0  0  0  0  0  0  0  0  0  0  0  0  # atno 8008 bound_to 7997
  155.8942  140.1023  157.1418 H   0  0  0  0  0  0  0  0  0  0  0  0  # atno 8009 bound_to 7997
  154.4036  140.1298  156.4341 H   0  0  0  0  0  0  0  0  0  0  0  0  # atno 8010 bound_to 7997
  140.1911  143.3891  152.1205 H   0  0  0  0  0  0  0  0  0  0  0  0  # atno 10167 bound_to 10162
  156.0171  130.5339  150.6854 H   0  0  0  0  0  0  0  0  0  0  0  0  # atno 10718 bound_to 10713
  153.7936  135.3151  155.3381 H   0  0  0  0  0  0  0  0  0  0  0  0  # atno 10763 bound_to 10752
  154.8116  135.4663  154.0535 H   0  0  0  0  0  0  0  0  0  0  0  0  # atno 10764 bound_to 10752
  153.1861  135.6901  153.8501 H   0  0  0  0  0  0  0  0  0  0  0  0  # atno 10765 bound_to 10752
  139.8902  134.9506  156.6420 H   0  0  0  0  0  0  0  0  0  0  0  0  # atno 11005 bound_to 11000
  146.3181  140.3416  142.8648 LP  0  0  0  0  0  0  0  0  0  0  0  0  # atno 17320 bound_to 7965
  144.9163  140.7816  143.5776 LP  0  0  0  0  0  0  0  0  0  0  0  0  # atno 17321 bound_to 7965
  139.5255  144.7097  151.5245 LP  0  0  0  0  0  0  0  0  0  0  0  0  # atno 17342 bound_to 10162
  140.6455  143.8803  150.6733 LP  0  0  0  0  0  0  0  0  0  0  0  0  # atno 17343 bound_to 10162
  157.4547  131.0876  151.0809 LP  0  0  0  0  0  0  0  0  0  0  0  0  # atno 17370 bound_to 10713
  157.1314  130.6104  149.5530 LP  0  0  0  0  0  0  0  0  0  0  0  0  # atno 17371 bound_to 10713
  140.7586  133.8836  155.8401 LP  0  0  0  0  0  0  0  0  0  0  0  0  # atno 17394 bound_to 11000
  140.9941  134.1239  157.4380 LP  0  0  0  0  0  0  0  0  0  0  0  0  # atno 17395 bound_to 11000

$$$$
