#       Name:                AV-unprocessed.smi:3330
#       Creating user name   scv26
#       Creation time:       Fri Mar 27 19:16:38 2020


#       File generated by GOLD software.
#

@<TRIPOS>MOLECULE
AV-unprocessed.smi:3330
    44    45     1
SMALL
NO_CHARGES


@<TRIPOS>ATOM
      1 ****        -1.5030  -1.7775  -1.6869 C.3            1 S1                 0.0000
      2 ****        -1.0011  -0.9252  -0.5069 C.3            1 S1                 0.0000
      3 ****         0.4774  -0.8689  -0.5576 N.4            1 S1                 1.0000
      4 ****         1.0484   0.4927  -0.5336 C.3            1 S1                 0.0000
      5 ****         2.5834   0.4440  -0.5140 C.3            1 S1                 0.0000
      6 ****         3.1573   1.7911  -0.4693 N.am           1 S1                 0.0000
      7 ****         3.4883   2.5078  -1.5511 C.2            1 S1                 0.0000
      8 ****         3.3789   2.1752  -2.7305 O.2            1 S1                 0.0000
      9 ****         4.0256   3.8462  -1.0929 C.3            1 S1                 0.0000
     10 ****         3.8950   3.6737   0.3383 N.am           1 S1                 0.0000
     11 ****         3.3853   2.4790   0.6643 C.2            1 S1                 0.0000
     12 ****         3.1604   2.0906   1.8096 O.2            1 S1                 0.0000
     13 ****        -1.4804  -1.4564   0.8718 C.3            1 S1                 0.0000
     14 ****        -1.0811  -0.5412   2.0452 C.3            1 S1                 0.0000
     15 ****        -2.9180  -1.6961   0.8956 N.pl3          1 S1                 0.0000
     16 ****        -3.5819  -2.8898   1.0907 C.2            1 S1                 0.0000
     17 ****        -4.9205  -2.6278   1.0297 C.2            1 S1                 0.0000
     18 ****        -4.9804  -1.2263   0.7936 C.2            1 S1                 0.0000
     19 ****        -3.7821  -0.6714   0.7145 N.2            1 S1                 0.0000
     20 ****        -2.5902  -1.7633  -1.7649 H              1 S1                 0.0000
     21 ****        -1.1899  -2.8172  -1.5865 H              1 S1                 0.0000
     22 ****        -1.1117  -1.4031  -2.6335 H              1 S1                 0.0000
     23 ****        -1.3995   0.0809  -0.6510 H              1 S1                 0.0000
     24 ****         0.8442  -1.3915   0.2250 H              1 S1                 0.0000
     25 ****         0.7009   1.0396  -1.4114 H              1 S1                 0.0000
     26 ****         0.6808   1.0258   0.3438 H              1 S1                 0.0000
     27 ****         2.9276  -0.1315   0.3474 H              1 S1                 0.0000
     28 ****         2.9519  -0.0898  -1.3919 H              1 S1                 0.0000
     29 ****         5.0655   3.9867  -1.3893 H              1 S1                 0.0000
     30 ****         3.4137   4.6724  -1.4565 H              1 S1                 0.0000
     31 ****         4.1547   4.3870   1.0044 H              1 S1                 0.0000
     32 ****        -1.0044  -2.4240   1.0390 H              1 S1                 0.0000
     33 ****         0.0016  -0.4769   2.1531 H              1 S1                 0.0000
     34 ****        -1.4738  -0.9223   2.9886 H              1 S1                 0.0000
     35 ****        -1.4638   0.4712   1.9126 H              1 S1                 0.0000
     36 ****        -3.0528  -3.8173   1.2533 H              1 S1                 0.0000
     37 ****        -5.7337  -3.3300   1.1386 H              1 S1                 0.0000
     38 ****        -5.8532  -0.6004   0.6785 H              1 S1                 0.0000
     39 ****         0.7803  -1.3160  -1.4111 H              1 S1                 0.0000
     40 ****         3.0060   1.2773  -2.9642 LP             1 S1                 0.0000
     41 ****         3.6629   2.8028  -3.4554 LP             1 S1                 0.0000
     42 ****         2.7706   1.1824   1.9621 LP             1 S1                 0.0000
     43 ****         3.3674   2.6830   2.5882 LP             1 S1                 0.0000
     44 ****        -3.5637   0.2915   0.5561 LP             1 S1                 0.0000
@<TRIPOS>BOND
    1    1    2 1     
    2    1   20 1     
    3    1   21 1     
    4    1   22 1     
    5    2    3 1     
    6    2   13 1     
    7    2   23 1     
    8    3    4 1     
    9    3   24 1     
   10    3   39 1     
   11    4    5 1     
   12    4   25 1     
   13    4   26 1     
   14    5    6 1     
   15    5   27 1     
   16    5   28 1     
   17    6   11 am    
   18    6    7 am    
   19    7    8 2     
   20    7    9 1     
   21    9   10 1     
   22    9   29 1     
   23    9   30 1     
   24   10   11 am    
   25   10   31 1     
   26   11   12 2     
   27   13   14 1     
   28   13   15 1     
   29   13   32 1     
   30   14   33 1     
   31   14   34 1     
   32   14   35 1     
   33   15   19 1     
   34   15   16 1     
   35   16   17 2     
   36   16   36 1     
   37   17   18 1     
   38   17   37 1     
   39   18   19 2     
   40   18   38 1     
   41    8   40 1     
   42    8   41 1     
   43   12   42 1     
   44   12   43 1     
   45   19   44 1     
@<TRIPOS>SUBSTRUCTURE
      1 S1             1
@<TRIPOS>SET
LONE_PAIRS      STATIC     ATOMS    <user>   **** ""
5 40 41 42 43 44
DONOR_HYDROGENS      STATIC     ATOMS    <user>   **** ""
3 24 39 31
ATOM$BLUE        STATIC     ATOMS    COLORGROUP SYSTEM
5 40 41 42 43 44
ATOM$RED        STATIC     ATOMS    COLORGROUP SYSTEM
3 24 39 31
