AV-unprocessed.smi:3199|AV-procd|sdf|12231|dock8
  -GOLD-   2272018 63D 1   1.00000     0.00000
 Structure written by MMmdl.
 35 36  0  0  0  0  0  0  0  0  1 V2000
  153.5192  142.8828  163.2916 C   0  0  0  0  0  0  0  0  0  0  0  0
  152.9520  142.8885  161.8875 C   0  0  0  0  0  0  0  0  0  0  0  0
  152.1205  143.9398  161.4467 C   0  0  0  0  0  0  0  0  0  0  0  0
  151.6230  143.8940  160.1301 C   0  0  0  0  0  0  0  0  0  0  0  0
  151.9729  142.8030  159.3085 C   0  0  0  0  0  0  0  0  0  0  0  0
  151.4705  142.7091  157.8812 C   0  0  0  0  0  0  0  0  0  0  0  0
  150.7170  141.3948  157.6200 C   0  0  0  0  0  0  0  0  0  0  0  0
  149.8528  141.4916  156.4499 N   0  0  0  0  0  0  0  0  0  0  0  0
  150.0925  140.9194  155.2599 C   0  0  0  0  0  0  0  0  0  0  0  0
  151.0880  140.2298  155.0370 O   0  0  0  0  0  0  0  0  0  0  0  0
  149.0338  141.1693  154.1756 C   0  0  2  0  0  0  0  0  0  0  0  0
  147.8382  142.0555  154.5852 C   0  0  0  0  0  0  0  0  0  0  0  0
  146.6550  141.1075  154.5448 C   0  0  0  0  0  0  0  0  0  0  0  0
  147.0966  140.0936  153.4998 C   0  0  0  0  0  0  0  0  0  0  0  0
  148.4707  139.9130  153.7998 O   0  0  0  0  0  0  0  0  0  0  0  0
  152.8102  141.8030  159.8466 C   0  0  0  0  0  0  0  0  0  0  0  0
  153.2926  141.8389  161.1075 N   0  0  0  0  0  0  0  0  0  0  0  0
  153.2326  143.7818  163.8380 H   0  0  0  0  0  0  0  0  0  0  0  0
  154.6083  142.8366  163.2614 H   0  0  0  0  0  0  0  0  0  0  0  0
  153.1531  142.0171  163.8444 H   0  0  0  0  0  0  0  0  0  0  0  0
  151.8695  144.7634  162.0989 H   0  0  0  0  0  0  0  0  0  0  0  0
  150.9864  144.6842  159.7597 H   0  0  0  0  0  0  0  0  0  0  0  0
  150.8227  143.5641  157.6828 H   0  0  0  0  0  0  0  0  0  0  0  0
  152.3162  142.7984  157.1980 H   0  0  0  0  0  0  0  0  0  0  0  0
  151.4290  140.5878  157.4445 H   0  0  0  0  0  0  0  0  0  0  0  0
  150.1310  141.1072  158.4946 H   0  0  0  0  0  0  0  0  0  0  0  0
  149.0130  142.0441  156.5466 H   0  0  0  0  0  0  0  0  0  0  0  0
  149.5240  141.6067  153.3042 H   0  0  0  0  0  0  0  0  0  0  0  0
  147.9305  142.5415  155.5566 H   0  0  0  0  0  0  0  0  0  0  0  0
  147.7034  142.8462  153.8459 H   0  0  0  0  0  0  0  0  0  0  0  0
  146.5344  140.6173  155.5117 H   0  0  0  0  0  0  0  0  0  0  0  0
  145.7174  141.6029  154.2905 H   0  0  0  0  0  0  0  0  0  0  0  0
  146.5445  139.1556  153.5597 H   0  0  0  0  0  0  0  0  0  0  0  0
  146.9902  140.4972  152.4916 H   0  0  0  0  0  0  0  0  0  0  0  0
  153.1042  140.9528  159.2489 H   0  0  0  0  0  0  0  0  0  0  0  0
  1  2  1  0  0  0  0
  1 18  1  0  0  0  0
  1 19  1  0  0  0  0
  1 20  1  0  0  0  0
  2 17  1  0  0  0  0
  2  3  2  0  0  0  0
  3  4  1  0  0  0  0
  3 21  1  0  0  0  0
  4  5  2  0  0  0  0
  4 22  1  0  0  0  0
  5  6  1  0  0  0  0
  5 16  1  0  0  0  0
  6  7  1  0  0  0  0
  6 23  1  0  0  0  0
  6 24  1  0  0  0  0
  7  8  1  0  0  0  0
  7 25  1  0  0  0  0
  7 26  1  0  0  0  0
  8  9  1  0  0  0  0
  8 27  1  0  0  0  0
  9 10  2  0  0  0  0
  9 11  1  0  0  0  0
 11 15  1  0  0  0  0
 11 12  1  0  0  0  0
 11 28  1  0  0  0  0
 12 13  1  0  0  0  0
 12 29  1  0  0  0  0
 12 30  1  0  0  0  0
 13 14  1  0  0  0  0
 13 31  1  0  0  0  0
 13 32  1  0  0  0  0
 14 15  1  0  0  0  0
 14 33  1  0  0  0  0
 14 34  1  0  0  0  0
 16 17  2  0  0  0  0
 16 35  1  0  0  0  0
M  END
> <s_m_source_file>
AV-unprocessed.smi

> <i_m_source_file_index>
3199

> <i_lp_mmshare_version>
43012

> <i_f3d_flags>
0

> <s_epik_input>
W0NIM11jMVtjSF1bY0hdYyhbY0hdbjEpW0NIMl1bQ0gyXVtOSF1DKD1PKVtDQEBIXTJbQ0gyXVtDSDJdW0NIMl1PMg==

> <s_epik_cmdline>
J2VwaWtfcHl0aG9uJywgJy1waCcsICc3LjAnLCAnLXRuJywgJzgnLCAnLW1hJywgJzIwMCcsICctbWV0YWxfYmluZGluZycsICctaW1hZScsICc8aW5maWxlLm1hZT4nLCAnLW9tYWUnLCAnPG91dGZpbGUubWFlPic=

> <r_epik_Ionization_Penalty>
0.0519155

> <r_epik_Ionization_Penalty_Charging>
0

> <r_epik_Ionization_Penalty_Neutral>
0.0519155

> <r_epik_State_Penalty>
0.0445047

> <r_epik_Charging_Adjusted_Penalty>
0.0445047

> <i_epik_Tot_Q>
0

> <i_epik_Tot_abs_Q>
0

> <r_epik_Metal_State_Penalty>
0.0408967

> <b_epik_Metal_Only>
0

> <s_lp_Force_Field>
OPLS_2005

> <r_lp_Energy>
17.3487

> <b_lp_Chiralities_Consistent>
1

> <s_lp_Variant>
AV-unprocessed.smi:3199-1

> <Gold.Version>
5.8.1

> <Gold.Id.Protein>
6NUR|6NUR_protein|mol2

> <Gold.PLP.Fitness>
43.0432

> <Gold.PLP.PLP>
-40.4108

> <Gold.PLP.part.hbond>
-1.0000

> <Gold.PLP.part.metal>
0.0000

> <Gold.PLP.part.buried>
-4.4521

> <Gold.PLP.part.nonpolar>
-35.6565

> <Gold.PLP.part.repulsive>
1.6666

> <Gold.PLP.ligand.clash>
0.0000

> <Gold.PLP.ligand.torsion>
0.1920

> <Gold.PLP.Chemscore.Hbond>
1.0000

> <Gold.PLP.Chemscore.CHOScore>
0.0000

> <Gold.PLP.Chemscore.Metal>
0.0000

> <Gold.Chemscore.Hbonds>
donor molecule, donor type, donor heavy atom, donor atom, acceptor molecule, acceptor atom, score
      P1  H  7989  7998       L1    10  1.00

> <Gold.PLP.Chemscore.Internal.Correction>
0.0164

> <Gold.Rescore>
     Score         DG    S(hbond)    S(metal)    S(lipo)     H(rot)  DE(clash)    DE(int)     intcor
     16.45     -16.88       0.81        0.00     106.93       1.49       0.09       0.34       ----

> <Gold.Chemscore.Fitness>
16.4490

> <Gold.Chemscore.DG>
-16.8759

> <Gold.Chemscore.ZeroCoef>
-5.4800

> <Gold.Chemscore.Hbond>
0.8052

> <Gold.Chemscore.Metal>
0.0000

> <Gold.Chemscore.Lipo>
106.9259

> <Gold.Chemscore.Internal_Hbond>
0.0000

> <Gold.Chemscore.DEClash>
0.0904

> <Gold.Chemscore.DEInternal>
0.3365

> <Gold.Chemscore.Rot>
1.4859

> <Gold.Chemscore.Internal.Correction>
   9.000000E+99

> <Gold.Chemscore.Hbonds>
donor molecule, donor type, donor heavy atom, donor atom, acceptor molecule, acceptor atom, score
      P1  H  7989  7998       L1    10  0.34

> <Gold.Chemscore.Hbond.Weighted>
-2.6895

> <Gold.Chemscore.Metal.Weighted>
-0.0000

> <Gold.Chemscore.Lipo.Weighted>
-12.5103

> <Gold.Chemscore.Internal_Hbond.Weighted>
0.0000

> <Gold.Chemscore.DEClash.Weighted>
0.0904

> <Gold.Chemscore.DEInternal.Weighted>
0.3365

> <Gold.Chemscore.Rot.Weighted>
3.8039

> <Gold.Chemscore.Internal.Correction.Weighted>
   9.000000E+99

> <Gold.Protein.RotatedTorsions>
[ 6907 6896 6895 6894 ] final -172.98 input  -60.11 | X-H torsion
[ 7974 7965 7964 7962 ] final  175.43 input  175.53 | X-H torsion
[ 8008 7997 7996 7995 ] final  135.18 input   59.86 | X-H torsion
[ 10167 10162 10161 10158 ] final  -10.10 input  -65.29 | X-H torsion
[ 10718 10713 10712 10709 ] final  132.45 input   66.30 | X-H torsion
[ 10763 10752 10751 10750 ] final  -69.60 input  -60.55 | X-H torsion
[ 11005 11000 10999 10996 ] final   62.94 input  -57.11 | X-H torsion

> <Gold.Protein.ActiveResidues>
 VAL166  LYS551  ARG553  GLY616  TRP617  ASP618  TYR619  PRO620  LYS621  CYS622 
 ASP623  PHE694  ASN695  SER759  ASP760  ASP761  ALA762  ILE779  LEU786  VAL792 
 PHE793  MET794  SER795  GLU796  ALA797  LYS798  CYS799  TRP800  GLU811  SER814 

> <Gold.Protein.RotatedAtoms>
  151.5488  133.3421  159.2948 H   0  0  0  0  0  0  0  0  0  0  0  0  # atno 6907 bound_to 6896
  150.8491  134.7813  159.7005 H   0  0  0  0  0  0  0  0  0  0  0  0  # atno 6908 bound_to 6896
  152.4542  134.5337  159.9870 H   0  0  0  0  0  0  0  0  0  0  0  0  # atno 6909 bound_to 6896
  144.7202  139.9945  143.6440 H   0  0  0  0  0  0  0  0  0  0  0  0  # atno 7974 bound_to 7965
  156.3002  140.2477  156.3539 H   0  0  0  0  0  0  0  0  0  0  0  0  # atno 8008 bound_to 7997
  154.8940  140.0408  157.1874 H   0  0  0  0  0  0  0  0  0  0  0  0  # atno 8009 bound_to 7997
  154.8568  140.2914  155.5568 H   0  0  0  0  0  0  0  0  0  0  0  0  # atno 8010 bound_to 7997
  140.7105  143.5785  150.9017 H   0  0  0  0  0  0  0  0  0  0  0  0  # atno 10167 bound_to 10162
  157.4869  131.1088  150.9608 H   0  0  0  0  0  0  0  0  0  0  0  0  # atno 10718 bound_to 10713
  154.4057  135.6020  153.5923 H   0  0  0  0  0  0  0  0  0  0  0  0  # atno 10763 bound_to 10752
  152.9789  135.5917  154.4130 H   0  0  0  0  0  0  0  0  0  0  0  0  # atno 10764 bound_to 10752
  154.3935  135.2842  155.2118 H   0  0  0  0  0  0  0  0  0  0  0  0  # atno 10765 bound_to 10752
  140.0058  134.6372  155.9858 H   0  0  0  0  0  0  0  0  0  0  0  0  # atno 11005 bound_to 11000
  146.0385  139.3399  143.0712 LP  0  0  0  0  0  0  0  0  0  0  0  0  # atno 17320 bound_to 7965
  145.8365  140.9603  143.0822 LP  0  0  0  0  0  0  0  0  0  0  0  0  # atno 17321 bound_to 7965
  139.9511  143.6271  152.3029 LP  0  0  0  0  0  0  0  0  0  0  0  0  # atno 17342 bound_to 10162
  139.6790  144.7657  151.1643 LP  0  0  0  0  0  0  0  0  0  0  0  0  # atno 17343 bound_to 10162
  157.0322  130.5716  149.5344 LP  0  0  0  0  0  0  0  0  0  0  0  0  # atno 17370 bound_to 10713
  156.0152  130.5246  150.8112 LP  0  0  0  0  0  0  0  0  0  0  0  0  # atno 17371 bound_to 10713
  141.1675  133.6537  156.4533 LP  0  0  0  0  0  0  0  0  0  0  0  0  # atno 17394 bound_to 11000
  140.4644  134.6811  157.5100 LP  0  0  0  0  0  0  0  0  0  0  0  0  # atno 17395 bound_to 11000

$$$$
