AV-unprocessed.smi:492|AV-procd|sdf|2709|dock6
  -GOLD-   2262023153D 1   1.00000     0.00000
 Structure written by MMmdl.
 46 48  0  0  0  0  0  0  0  0  1 V2000
  141.9627  146.5459  154.9982 C   0  0  0  0  0  0  0  0  0  0  0  0
  143.1898  146.7300  154.3072 O   0  0  0  0  0  0  0  0  0  0  0  0
  144.0270  145.6434  154.1712 C   0  0  0  0  0  0  0  0  0  0  0  0
  144.9574  145.4819  153.1139 C   0  0  0  0  0  0  0  0  0  0  0  0
  145.7765  144.3377  153.0523 C   0  0  0  0  0  0  0  0  0  0  0  0
  145.6857  143.3409  154.0444 C   0  0  0  0  0  0  0  0  0  0  0  0
  146.5613  142.1043  153.9586 C   0  0  0  0  0  0  0  0  0  0  0  0
  147.3167  141.9027  155.1416 O   0  0  0  0  0  0  0  0  0  0  0  0
  148.7139  141.8328  154.9064 C   0  0  0  0  0  0  0  0  0  0  0  0
  149.4331  141.3722  156.1840 C   0  0  1  0  0  0  0  0  0  0  0  0
  148.6918  140.3223  156.7726 O   0  0  0  0  0  0  0  0  0  0  0  0
  150.9075  140.9784  155.9529 C   0  0  0  0  0  0  0  0  0  0  0  0
  151.6424  140.7862  157.1953 N   0  0  0  0  0  0  0  0  0  0  0  0
  152.3039  139.6794  157.6146 C   0  0  0  0  0  0  0  0  0  0  0  0
  152.3577  138.4308  156.7927 C   0  0  0  0  0  0  0  0  0  0  0  0
  152.8992  139.7735  158.8039 N   0  0  0  0  0  0  0  0  0  0  0  0
  152.5927  141.0628  159.1949 C   0  0  0  0  0  0  0  0  0  0  0  0
  152.9335  141.7722  160.3687 C   0  0  0  0  0  0  0  0  0  0  0  0
  152.4985  143.1015  160.5510 C   0  0  0  0  0  0  0  0  0  0  0  0
  151.7187  143.7396  159.5646 C   0  0  0  0  0  0  0  0  0  0  0  0
  151.3684  143.0509  158.3874 C   0  0  0  0  0  0  0  0  0  0  0  0
  151.8048  141.7240  158.2104 C   0  0  0  0  0  0  0  0  0  0  0  0
  144.7548  143.4921  155.0929 C   0  0  0  0  0  0  0  0  0  0  0  0
  143.9373  144.6368  155.1545 C   0  0  0  0  0  0  0  0  0  0  0  0
  141.4162  147.4885  155.0186 H   0  0  0  0  0  0  0  0  0  0  0  0
  142.1298  146.2392  156.0316 H   0  0  0  0  0  0  0  0  0  0  0  0
  141.3304  145.8096  154.5003 H   0  0  0  0  0  0  0  0  0  0  0  0
  145.0622  146.2223  152.3356 H   0  0  0  0  0  0  0  0  0  0  0  0
  146.4781  144.2294  152.2381 H   0  0  0  0  0  0  0  0  0  0  0  0
  145.9212  141.2406  153.7737 H   0  0  0  0  0  0  0  0  0  0  0  0
  147.2362  142.2002  153.1066 H   0  0  0  0  0  0  0  0  0  0  0  0
  148.9049  141.1141  154.1079 H   0  0  0  0  0  0  0  0  0  0  0  0
  149.0998  142.7972  154.5717 H   0  0  0  0  0  0  0  0  0  0  0  0
  149.4002  142.1961  156.8968 H   0  0  0  0  0  0  0  0  0  0  0  0
  149.1845  139.5212  156.6787 H   0  0  0  0  0  0  0  0  0  0  0  0
  150.9697  140.0543  155.3775 H   0  0  0  0  0  0  0  0  0  0  0  0
  151.4132  141.7367  155.3551 H   0  0  0  0  0  0  0  0  0  0  0  0
  152.9112  137.6516  157.3178 H   0  0  0  0  0  0  0  0  0  0  0  0
  152.8564  138.6220  155.8430 H   0  0  0  0  0  0  0  0  0  0  0  0
  151.3510  138.0609  156.5977 H   0  0  0  0  0  0  0  0  0  0  0  0
  153.5312  141.2921  161.1293 H   0  0  0  0  0  0  0  0  0  0  0  0
  152.7652  143.6342  161.4520 H   0  0  0  0  0  0  0  0  0  0  0  0
  151.3902  144.7582  159.7110 H   0  0  0  0  0  0  0  0  0  0  0  0
  150.7734  143.5375  157.6292 H   0  0  0  0  0  0  0  0  0  0  0  0
  144.6629  142.7326  155.8555 H   0  0  0  0  0  0  0  0  0  0  0  0
  143.2314  144.7426  155.9653 H   0  0  0  0  0  0  0  0  0  0  0  0
  1  2  1  0  0  0  0
  1 25  1  0  0  0  0
  1 26  1  0  0  0  0
  1 27  1  0  0  0  0
  2  3  1  0  0  0  0
  3 24  1  0  0  0  0
  3  4  2  0  0  0  0
  4  5  1  0  0  0  0
  4 28  1  0  0  0  0
  5  6  2  0  0  0  0
  5 29  1  0  0  0  0
  6  7  1  0  0  0  0
  6 23  1  0  0  0  0
  7  8  1  0  0  0  0
  7 30  1  0  0  0  0
  7 31  1  0  0  0  0
  8  9  1  0  0  0  0
  9 10  1  0  0  0  0
  9 32  1  0  0  0  0
  9 33  1  0  0  0  0
 10 11  1  0  0  0  0
 10 12  1  0  0  0  0
 10 34  1  0  0  0  0
 11 35  1  0  0  0  0
 12 13  1  0  0  0  0
 12 36  1  0  0  0  0
 12 37  1  0  0  0  0
 13 22  1  0  0  0  0
 13 14  1  0  0  0  0
 14 15  1  0  0  0  0
 14 16  2  0  0  0  0
 15 38  1  0  0  0  0
 15 39  1  0  0  0  0
 15 40  1  0  0  0  0
 16 17  1  0  0  0  0
 17 22  2  0  0  0  0
 17 18  1  0  0  0  0
 18 19  2  0  0  0  0
 18 41  1  0  0  0  0
 19 20  1  0  0  0  0
 19 42  1  0  0  0  0
 20 21  2  0  0  0  0
 20 43  1  0  0  0  0
 21 22  1  0  0  0  0
 21 44  1  0  0  0  0
 23 24  2  0  0  0  0
 23 45  1  0  0  0  0
 24 46  1  0  0  0  0
M  END
> <s_m_source_file>
AV-unprocessed.smi

> <i_m_source_file_index>
492

> <i_lp_mmshare_version>
43012

> <i_f3d_flags>
0

> <s_epik_input>
W0NIM11PYzFbY0hdW2NIXWMoW2NIXVtjSF0xKVtDSDJdT1tDSDJdW0NASF0oW09IXSlbQ0gyXW4oYyhuMilbQ0gzXSljKGMyMylbY0hdW2NIXVtjSF1bY0hdMw==

> <s_epik_cmdline>
J2VwaWtfcHl0aG9uJywgJy1waCcsICc3LjAnLCAnLXRuJywgJzgnLCAnLW1hJywgJzIwMCcsICctbWV0YWxfYmluZGluZycsICctaW1hZScsICc8aW5maWxlLm1hZT4nLCAnLW9tYWUnLCAnPG91dGZpbGUubWFlPic=

> <r_lp_tautomer_probability>
1

> <r_epik_Ionization_Penalty>
0.132603

> <r_epik_Ionization_Penalty_Charging>
0

> <r_epik_Ionization_Penalty_Neutral>
0.132603

> <r_epik_State_Penalty>
0.121982

> <r_epik_Charging_Adjusted_Penalty>
0.121982

> <i_epik_Tot_Q>
0

> <i_epik_Tot_abs_Q>
0

> <r_epik_Metal_State_Penalty>
0.000135431

> <b_epik_Metal_Only>
0

> <s_lp_Force_Field>
OPLS_2005

> <r_lp_Energy>
18.9568

> <b_lp_Chiralities_Consistent>
1

> <s_lp_Variant>
AV-unprocessed.smi:492-2

> <Gold.Version>
5.8.1

> <Gold.Id.Protein>
6NUR|6NUR_protein|mol2

> <Gold.PLP.Fitness>
50.7101

> <Gold.PLP.PLP>
-52.3348

> <Gold.PLP.part.hbond>
-1.5173

> <Gold.PLP.part.metal>
0.0000

> <Gold.PLP.part.buried>
-6.0878

> <Gold.PLP.part.nonpolar>
-45.0992

> <Gold.PLP.part.repulsive>
0.1647

> <Gold.PLP.ligand.clash>
0.0000

> <Gold.PLP.ligand.torsion>
0.9448

> <Gold.PLP.Chemscore.Hbond>
0.0000

> <Gold.PLP.Chemscore.CHOScore>
0.0000

> <Gold.PLP.Chemscore.Metal>
0.0000

> <Gold.PLP.Chemscore.Internal.Correction>
0.2648

> <Gold.Rescore>
     Score         DG    S(hbond)    S(metal)    S(lipo)     H(rot)  DE(clash)    DE(int)     intcor
     14.96     -15.77       0.00        0.00     140.47       2.40       0.05       0.76       ----

> <Gold.Chemscore.Fitness>
14.9645

> <Gold.Chemscore.DG>
-15.7735

> <Gold.Chemscore.ZeroCoef>
-5.4800

> <Gold.Chemscore.Hbond>
0.0000

> <Gold.Chemscore.Metal>
0.0000

> <Gold.Chemscore.Lipo>
140.4723

> <Gold.Chemscore.Internal_Hbond>
0.0000

> <Gold.Chemscore.DEClash>
0.0522

> <Gold.Chemscore.DEInternal>
0.7569

> <Gold.Chemscore.Rot>
2.3991

> <Gold.Chemscore.Internal.Correction>
   9.000000E+99

> <Gold.Chemscore.Hbond.Weighted>
-0.0000

> <Gold.Chemscore.Metal.Weighted>
-0.0000

> <Gold.Chemscore.Lipo.Weighted>
-16.4353

> <Gold.Chemscore.Internal_Hbond.Weighted>
0.0000

> <Gold.Chemscore.DEClash.Weighted>
0.0522

> <Gold.Chemscore.DEInternal.Weighted>
0.7569

> <Gold.Chemscore.Rot.Weighted>
6.1417

> <Gold.Chemscore.Internal.Correction.Weighted>
   9.000000E+99

> <Gold.Protein.RotatedTorsions>
[ 6907 6896 6895 6894 ] final  130.81 input  -60.11 | X-H torsion
[ 7974 7965 7964 7962 ] final -139.99 input  175.53 | X-H torsion
[ 8008 7997 7996 7995 ] final   71.78 input   59.86 | X-H torsion
[ 10167 10162 10161 10158 ] final  -71.20 input  -65.29 | X-H torsion
[ 10718 10713 10712 10709 ] final -136.04 input   66.30 | X-H torsion
[ 10763 10752 10751 10750 ] final  -75.11 input  -60.55 | X-H torsion
[ 11005 11000 10999 10996 ] final -112.54 input  -57.11 | X-H torsion

> <Gold.Protein.ActiveResidues>
 VAL166  LYS551  ARG553  GLY616  TRP617  ASP618  TYR619  PRO620  LYS621  CYS622 
 ASP623  PHE694  ASN695  SER759  ASP760  ASP761  ALA762  ILE779  LEU786  VAL792 
 PHE793  MET794  SER795  GLU796  ALA797  LYS798  CYS799  TRP800  GLU811  SER814 

> <Gold.Protein.RotatedAtoms>
  152.3489  133.6155  159.5929 H   0  0  0  0  0  0  0  0  0  0  0  0  # atno 6907 bound_to 6896
  150.7525  133.9606  159.3523 H   0  0  0  0  0  0  0  0  0  0  0  0  # atno 6908 bound_to 6896
  151.7460  135.0844  160.0374 H   0  0  0  0  0  0  0  0  0  0  0  0  # atno 6909 bound_to 6896
  144.8633  140.6253  143.5314 H   0  0  0  0  0  0  0  0  0  0  0  0  # atno 7974 bound_to 7965
  155.7590  140.3487  155.5188 H   0  0  0  0  0  0  0  0  0  0  0  0  # atno 8008 bound_to 7997
  155.8932  140.1021  157.1425 H   0  0  0  0  0  0  0  0  0  0  0  0  # atno 8009 bound_to 7997
  154.4035  140.1300  156.4329 H   0  0  0  0  0  0  0  0  0  0  0  0  # atno 8010 bound_to 7997
  140.5292  143.2323  151.7292 H   0  0  0  0  0  0  0  0  0  0  0  0  # atno 10167 bound_to 10162
  156.2728  130.7275  151.1247 H   0  0  0  0  0  0  0  0  0  0  0  0  # atno 10718 bound_to 10713
  154.4821  135.5842  153.6397 H   0  0  0  0  0  0  0  0  0  0  0  0  # atno 10763 bound_to 10752
  152.9849  135.6092  154.3233 H   0  0  0  0  0  0  0  0  0  0  0  0  # atno 10764 bound_to 10752
  154.3125  135.2845  155.2538 H   0  0  0  0  0  0  0  0  0  0  0  0  # atno 10765 bound_to 10752
  141.0669  133.9444  157.2561 H   0  0  0  0  0  0  0  0  0  0  0  0  # atno 11005 bound_to 11000
  145.4270  139.1555  143.4043 LP  0  0  0  0  0  0  0  0  0  0  0  0  # atno 17320 bound_to 7965
  146.2877  140.4384  142.8751 LP  0  0  0  0  0  0  0  0  0  0  0  0  # atno 17321 bound_to 7965
  139.4948  144.4139  152.0050 LP  0  0  0  0  0  0  0  0  0  0  0  0  # atno 17342 bound_to 10162
  140.3240  144.3394  150.6002 LP  0  0  0  0  0  0  0  0  0  0  0  0  # atno 17343 bound_to 10162
  157.7289  131.0628  150.5797 LP  0  0  0  0  0  0  0  0  0  0  0  0  # atno 17370 bound_to 10713
  156.5895  130.4325  149.5942 LP  0  0  0  0  0  0  0  0  0  0  0  0  # atno 17371 bound_to 10713
  139.9485  135.0180  156.8924 LP  0  0  0  0  0  0  0  0  0  0  0  0  # atno 17394 bound_to 11000
  140.5755  134.0402  155.7445 LP  0  0  0  0  0  0  0  0  0  0  0  0  # atno 17395 bound_to 11000

$$$$
