AV-unprocessed.smi:1886|AV-procd|sdf|7654|dock5
  -GOLD-   22720 9383D 1   1.00000     0.00000
 Structure written by MMmdl.
 39 40  0  0  0  0  0  0  0  0  1 V2000
  148.1143  140.9613  158.0273 O   0  0  0  0  0  0  0  0  0  0  0  0
  148.3358  142.1456  157.7757 C   0  0  0  0  0  0  0  0  0  0  0  0
  149.1534  142.5689  156.8021 N   0  0  0  0  0  0  0  0  0  0  0  0
  149.8734  141.7008  155.8767 C   0  0  0  0  0  0  0  0  0  0  0  0
  148.9428  140.9899  154.9040 C   0  0  0  0  0  0  0  0  0  0  0  0
  147.9520  141.7268  154.2209 C   0  0  0  0  0  0  0  0  0  0  0  0
  147.1021  141.0621  153.3182 C   0  0  0  0  0  0  0  0  0  0  0  0
  147.2776  139.6785  153.1316 C   0  0  0  0  0  0  0  0  0  0  0  0
  148.2199  138.9599  153.7762 N   0  0  0  0  0  0  0  0  0  0  0  0
  149.0408  139.5980  154.6455 C   0  0  0  0  0  0  0  0  0  0  0  0
  150.0116  138.8248  155.3012 N   0  0  0  0  0  0  0  0  0  0  0  0
  149.7810  137.3900  155.1983 C   0  0  0  0  0  0  0  0  0  0  0  0
  150.7863  136.6368  156.0851 C   0  0  0  0  0  0  0  0  0  0  0  0
  152.1143  137.0019  155.7196 O   0  0  0  0  0  0  0  0  0  0  0  0
  152.3518  138.3970  155.8895 C   0  0  0  0  0  0  0  0  0  0  0  0
  151.3872  139.1966  154.9969 C   0  0  0  0  0  0  0  0  0  0  0  0
  147.7902  143.1694  158.4455 N   0  0  0  0  0  0  0  0  0  0  0  0
  146.8783  143.0419  159.5781 C   0  0  0  0  0  0  0  0  0  0  0  0
  146.9063  144.2752  160.4974 C   0  0  0  0  0  0  0  0  0  0  0  0
  146.2402  145.2691  159.9113 F   0  0  0  0  0  0  0  0  0  0  0  0
  146.3199  143.9980  161.6626 F   0  0  0  0  0  0  0  0  0  0  0  0
  148.1567  144.6794  160.7188 F   0  0  0  0  0  0  0  0  0  0  0  0
  149.2735  143.5635  156.6783 H   0  0  0  0  0  0  0  0  0  0  0  0
  150.5960  142.3061  155.3284 H   0  0  0  0  0  0  0  0  0  0  0  0
  150.4495  140.9436  156.4114 H   0  0  0  0  0  0  0  0  0  0  0  0
  147.8420  142.7888  154.3845 H   0  0  0  0  0  0  0  0  0  0  0  0
  146.3353  141.5997  152.7806 H   0  0  0  0  0  0  0  0  0  0  0  0
  146.6451  139.1343  152.4459 H   0  0  0  0  0  0  0  0  0  0  0  0
  148.7612  137.1546  155.5048 H   0  0  0  0  0  0  0  0  0  0  0  0
  149.8890  137.0725  154.1602 H   0  0  0  0  0  0  0  0  0  0  0  0
  150.6153  136.8631  157.1378 H   0  0  0  0  0  0  0  0  0  0  0  0
  150.6643  135.5604  155.9650 H   0  0  0  0  0  0  0  0  0  0  0  0
  152.2292  138.6722  156.9386 H   0  0  0  0  0  0  0  0  0  0  0  0
  153.3845  138.6177  155.6196 H   0  0  0  0  0  0  0  0  0  0  0  0
  151.6019  138.9947  153.9464 H   0  0  0  0  0  0  0  0  0  0  0  0
  151.5253  140.2667  155.1568 H   0  0  0  0  0  0  0  0  0  0  0  0
  148.0287  144.1075  158.1589 H   0  0  0  0  0  0  0  0  0  0  0  0
  145.8619  142.8496  159.2297 H   0  0  0  0  0  0  0  0  0  0  0  0
  147.1796  142.1598  160.1437 H   0  0  0  0  0  0  0  0  0  0  0  0
  1  2  2  0  0  0  0
  2  3  1  0  0  0  0
  2 17  1  0  0  0  0
  3  4  1  0  0  0  0
  3 23  1  0  0  0  0
  4  5  1  0  0  0  0
  4 24  1  0  0  0  0
  4 25  1  0  0  0  0
  5 10  1  0  0  0  0
  5  6  2  0  0  0  0
  6  7  1  0  0  0  0
  6 26  1  0  0  0  0
  7  8  2  0  0  0  0
  7 27  1  0  0  0  0
  8  9  1  0  0  0  0
  8 28  1  0  0  0  0
  9 10  2  0  0  0  0
 10 11  1  0  0  0  0
 11 16  1  0  0  0  0
 11 12  1  0  0  0  0
 12 13  1  0  0  0  0
 12 29  1  0  0  0  0
 12 30  1  0  0  0  0
 13 14  1  0  0  0  0
 13 31  1  0  0  0  0
 13 32  1  0  0  0  0
 14 15  1  0  0  0  0
 15 16  1  0  0  0  0
 15 33  1  0  0  0  0
 15 34  1  0  0  0  0
 16 35  1  0  0  0  0
 16 36  1  0  0  0  0
 17 18  1  0  0  0  0
 17 37  1  0  0  0  0
 18 19  1  0  0  0  0
 18 38  1  0  0  0  0
 18 39  1  0  0  0  0
 19 20  1  0  0  0  0
 19 21  1  0  0  0  0
 19 22  1  0  0  0  0
M  END
> <s_m_source_file>
AV-unprocessed.smi

> <i_m_source_file_index>
1886

> <i_lp_mmshare_version>
43012

> <i_f3d_flags>
0

> <s_epik_input>
RkMoRikoRilbQ0gyXVtOSF1DKD1PKVtOSF1bQ0gyXWMxW2NIXVtjSF1bY0hdbmMxTjJbQ0gyXVtDSDJdT1tDSDJdW0NIMl0y

> <s_epik_cmdline>
J2VwaWtfcHl0aG9uJywgJy1waCcsICc3LjAnLCAnLXRuJywgJzgnLCAnLW1hJywgJzIwMCcsICctbWV0YWxfYmluZGluZycsICctaW1hZScsICc8aW5maWxlLm1hZT4nLCAnLW9tYWUnLCAnPG91dGZpbGUubWFlPic=

> <r_lp_tautomer_probability>
1

> <r_epik_Ionization_Penalty>
0.00288023

> <r_epik_Ionization_Penalty_Charging>
0

> <r_epik_Ionization_Penalty_Neutral>
0.00288023

> <r_epik_State_Penalty>
0.00199456

> <r_epik_Charging_Adjusted_Penalty>
0.00199456

> <i_epik_Tot_Q>
0

> <i_epik_Tot_abs_Q>
0

> <r_epik_Metal_State_Penalty>
-0

> <b_epik_Metal_Only>
0

> <s_lp_Force_Field>
OPLS_2005

> <r_lp_Energy>
16.0982

> <b_lp_Chiralities_Consistent>
1

> <s_lp_Variant>
AV-unprocessed.smi:1886-1

> <Gold.Version>
5.8.1

> <Gold.Id.Protein>
6NUR|6NUR_protein|mol2

> <Gold.PLP.Fitness>
43.7592

> <Gold.PLP.PLP>
-36.5073

> <Gold.PLP.part.hbond>
-3.2064

> <Gold.PLP.part.metal>
0.0000

> <Gold.PLP.part.buried>
-4.4441

> <Gold.PLP.part.nonpolar>
-29.2388

> <Gold.PLP.part.repulsive>
0.4239

> <Gold.PLP.ligand.clash>
0.0000

> <Gold.PLP.ligand.torsion>
0.7084

> <Gold.PLP.Chemscore.Hbond>
2.8400

> <Gold.PLP.Chemscore.CHOScore>
0.0000

> <Gold.PLP.Chemscore.Metal>
0.0000

> <Gold.Chemscore.Hbonds>
donor molecule, donor type, donor heavy atom, donor atom, acceptor molecule, acceptor atom, score
      L1  H     3    23       P1  8028  0.82
      L1  H    17    37       P1  8029  0.99
      P1  H 10752 10765       L1    14  0.99

> <Gold.PLP.Chemscore.Internal.Correction>
0.1487

> <Gold.Rescore>
     Score         DG    S(hbond)    S(metal)    S(lipo)     H(rot)  DE(clash)    DE(int)     intcor
     13.47     -14.17       2.01        0.00      62.69       2.09       0.00       0.70       ----

> <Gold.Chemscore.Fitness>
13.4673

> <Gold.Chemscore.DG>
-14.1666

> <Gold.Chemscore.ZeroCoef>
-5.4800

> <Gold.Chemscore.Hbond>
2.0065

> <Gold.Chemscore.Metal>
0.0000

> <Gold.Chemscore.Lipo>
62.6939

> <Gold.Chemscore.Internal_Hbond>
0.0000

> <Gold.Chemscore.DEClash>
0.0000

> <Gold.Chemscore.DEInternal>
0.6993

> <Gold.Chemscore.Rot>
2.0899

> <Gold.Chemscore.Internal.Correction>
   9.000000E+99

> <Gold.Chemscore.Hbonds>
donor molecule, donor type, donor heavy atom, donor atom, acceptor molecule, acceptor atom, score
      L1  H     3    23       P1  8028  0.77
      L1  H    17    37       P1  8029  0.24
      P1  H 10752 10765       L1    14  0.76

> <Gold.Chemscore.Hbond.Weighted>
-6.7017

> <Gold.Chemscore.Metal.Weighted>
-0.0000

> <Gold.Chemscore.Lipo.Weighted>
-7.3352

> <Gold.Chemscore.Internal_Hbond.Weighted>
0.0000

> <Gold.Chemscore.DEClash.Weighted>
0.0000

> <Gold.Chemscore.DEInternal.Weighted>
0.6993

> <Gold.Chemscore.Rot.Weighted>
5.3502

> <Gold.Chemscore.Internal.Correction.Weighted>
   9.000000E+99

> <Gold.Protein.RotatedTorsions>
[ 6907 6896 6895 6894 ] final   55.06 input  -60.11 | X-H torsion
[ 7974 7965 7964 7962 ] final -130.24 input  175.53 | X-H torsion
[ 8008 7997 7996 7995 ] final   71.55 input   59.86 | X-H torsion
[ 10167 10162 10161 10158 ] final  -43.07 input  -65.29 | X-H torsion
[ 10718 10713 10712 10709 ] final  -49.41 input   66.30 | X-H torsion
[ 10763 10752 10751 10750 ] final -161.03 input  -60.55 | X-H torsion
[ 11005 11000 10999 10996 ] final  153.32 input  -57.11 | X-H torsion

> <Gold.Protein.ActiveResidues>
 VAL166  LYS551  ARG553  GLY616  TRP617  ASP618  TYR619  PRO620  LYS621  CYS622 
 ASP623  PHE694  ASN695  SER759  ASP760  ASP761  ALA762  ILE779  LEU786  VAL792 
 PHE793  MET794  SER795  GLU796  ALA797  LYS798  CYS799  TRP800  GLU811  SER814 

> <Gold.Protein.RotatedAtoms>
  152.3501  134.7018  160.0238 H   0  0  0  0  0  0  0  0  0  0  0  0  # atno 6907 bound_to 6896
  151.7375  133.3315  159.3364 H   0  0  0  0  0  0  0  0  0  0  0  0  # atno 6908 bound_to 6896
  150.7534  134.6242  159.6196 H   0  0  0  0  0  0  0  0  0  0  0  0  # atno 6909 bound_to 6896
  144.9494  140.7327  143.4797 H   0  0  0  0  0  0  0  0  0  0  0  0  # atno 7974 bound_to 7965
  155.7555  140.3487  155.5172 H   0  0  0  0  0  0  0  0  0  0  0  0  # atno 8008 bound_to 7997
  155.8963  140.1026  157.1403 H   0  0  0  0  0  0  0  0  0  0  0  0  # atno 8009 bound_to 7997
  154.4039  140.1294  156.4367 H   0  0  0  0  0  0  0  0  0  0  0  0  # atno 8010 bound_to 7997
  140.6947  143.3003  151.3300 H   0  0  0  0  0  0  0  0  0  0  0  0  # atno 10167 bound_to 10162
  156.1896  130.4152  149.9391 H   0  0  0  0  0  0  0  0  0  0  0  0  # atno 10718 bound_to 10713
  154.7339  135.3052  154.8845 H   0  0  0  0  0  0  0  0  0  0  0  0  # atno 10763 bound_to 10752
  153.9680  135.6745  153.4750 H   0  0  0  0  0  0  0  0  0  0  0  0  # atno 10764 bound_to 10752
  153.0944  135.4943  154.8672 H   0  0  0  0  0  0  0  0  0  0  0  0  # atno 10765 bound_to 10752
  140.1387  134.8753  157.2302 H   0  0  0  0  0  0  0  0  0  0  0  0  # atno 11005 bound_to 11000
  145.2868  139.1898  143.4762 LP  0  0  0  0  0  0  0  0  0  0  0  0  # atno 17320 bound_to 7965
  146.3315  140.2838  142.8611 LP  0  0  0  0  0  0  0  0  0  0  0  0  # atno 17321 bound_to 7965
  139.6388  144.0580  152.2537 LP  0  0  0  0  0  0  0  0  0  0  0  0  # atno 17342 bound_to 10162
  140.0078  144.6246  150.7673 LP  0  0  0  0  0  0  0  0  0  0  0  0  # atno 17343 bound_to 10162
  156.7135  130.8979  151.3611 LP  0  0  0  0  0  0  0  0  0  0  0  0  # atno 17370 bound_to 10713
  157.6920  130.9243  150.0541 LP  0  0  0  0  0  0  0  0  0  0  0  0  # atno 17371 bound_to 10713
  140.2750  134.3416  155.7361 LP  0  0  0  0  0  0  0  0  0  0  0  0  # atno 17394 bound_to 11000
  141.2182  133.7445  156.9279 LP  0  0  0  0  0  0  0  0  0  0  0  0  # atno 17395 bound_to 11000

$$$$
