AV-unprocessed.smi:2119|AV-procd|sdf|8634|dock7
  -GOLD-   2272011383D 1   1.00000     0.00000
 Structure written by MMmdl.
 48 50  0  0  0  0  0  0  0  0  2 V2000
  144.7249  136.8093  153.0490 O   0  0  0  0  0  0  0  0  0  0  0  0
  145.9277  136.6777  152.8230 C   0  0  0  0  0  0  0  0  0  0  0  0
  146.8702  137.4488  153.3823 N   0  0  0  0  0  0  0  0  0  0  0  0
  146.6066  138.5448  154.3072 C   0  0  0  0  0  0  0  0  0  0  0  0
  147.0386  139.9388  153.7677 C   0  0  2  0  0  0  0  0  0  0  0  0
  148.5034  140.3250  154.1200 C   0  0  2  0  0  0  0  0  0  0  0  0
  149.4472  139.1384  154.2408 C   0  0  0  0  0  0  0  0  0  0  0  0
  150.6259  139.7360  154.9982 C   0  0  0  0  0  0  0  0  0  0  0  0
  150.0574  140.6974  155.8775 O   0  0  0  0  0  0  0  0  0  0  0  0
  148.7130  140.9715  155.4964 C   0  0  0  0  0  0  0  0  0  0  0  0
  146.1062  141.0168  154.2138 N   0  3  0  0  0  0  0  0  0  0  0  0
  145.6261  140.8649  155.6091 C   0  0  0  0  0  0  0  0  0  0  0  0
  144.5259  141.8987  155.9018 C   0  0  0  0  0  0  0  0  0  0  0  0
  145.0216  143.2099  155.6562 O   0  0  0  0  0  0  0  0  0  0  0  0
  145.4135  143.3903  154.3002 C   0  0  0  0  0  0  0  0  0  0  0  0
  146.5486  142.4111  153.9585 C   0  0  0  0  0  0  0  0  0  0  0  0
  146.4718  135.7580  152.0087 N   0  0  0  0  0  0  0  0  0  0  0  0
  145.8099  134.7988  151.1963 C   0  0  0  0  0  0  0  0  0  0  0  0
  146.2279  133.4533  151.0545 C   0  0  0  0  0  0  0  0  0  0  0  0
  145.4742  132.5904  150.2360 C   0  0  0  0  0  0  0  0  0  0  0  0
  144.3281  133.1007  149.5962 C   0  0  0  0  0  0  0  0  0  0  0  0
  143.9103  134.3766  149.7335 N   0  0  0  0  0  0  0  0  0  0  0  0
  144.6372  135.1980  150.5205 C   0  0  0  0  0  0  0  0  0  0  0  0
  147.8360  137.2677  153.1498 H   0  0  0  0  0  0  0  0  0  0  0  0
  145.5450  138.5336  154.5560 H   0  0  0  0  0  0  0  0  0  0  0  0
  147.1387  138.3155  155.2305 H   0  0  0  0  0  0  0  0  0  0  0  0
  146.9777  139.9173  152.6788 H   0  0  0  0  0  0  0  0  0  0  0  0
  148.8998  141.0027  153.3629 H   0  0  0  0  0  0  0  0  0  0  0  0
  148.9886  138.3438  154.8316 H   0  0  0  0  0  0  0  0  0  0  0  0
  149.7424  138.7211  153.2775 H   0  0  0  0  0  0  0  0  0  0  0  0
  151.1995  138.9846  155.5414 H   0  0  0  0  0  0  0  0  0  0  0  0
  151.3003  140.2479  154.3105 H   0  0  0  0  0  0  0  0  0  0  0  0
  148.5322  142.0464  155.4864 H   0  0  0  0  0  0  0  0  0  0  0  0
  148.0541  140.5243  156.2418 H   0  0  0  0  0  0  0  0  0  0  0  0
  145.2309  139.8602  155.7630 H   0  0  0  0  0  0  0  0  0  0  0  0
  146.4511  140.9961  156.3098 H   0  0  0  0  0  0  0  0  0  0  0  0
  143.6431  141.7107  155.2886 H   0  0  0  0  0  0  0  0  0  0  0  0
  144.2108  141.8282  156.9430 H   0  0  0  0  0  0  0  0  0  0  0  0
  144.5588  143.2432  153.6377 H   0  0  0  0  0  0  0  0  0  0  0  0
  145.7497  144.4182  154.1632 H   0  0  0  0  0  0  0  0  0  0  0  0
  147.4222  142.6500  154.5660 H   0  0  0  0  0  0  0  0  0  0  0  0
  146.8349  142.5368  152.9146 H   0  0  0  0  0  0  0  0  0  0  0  0
  147.4802  135.7111  151.9982 H   0  0  0  0  0  0  0  0  0  0  0  0
  147.0956  133.0646  151.5648 H   0  0  0  0  0  0  0  0  0  0  0  0
  145.7659  131.5586  150.1058 H   0  0  0  0  0  0  0  0  0  0  0  0
  143.7275  132.4649  148.9625 H   0  0  0  0  0  0  0  0  0  0  0  0
  144.2712  136.2106  150.6099 H   0  0  0  0  0  0  0  0  0  0  0  0
  145.2812  140.8877  153.6452 H   0  0  0  0  0  0  0  0  0  0  0  0
  1  2  2  0  0  0  0
  2  3  1  0  0  0  0
  2 17  1  0  0  0  0
  3  4  1  0  0  0  0
  3 24  1  0  0  0  0
  4  5  1  0  0  0  0
  4 25  1  0  0  0  0
  4 26  1  0  0  0  0
  5  6  1  0  0  0  0
  5 11  1  0  0  0  0
  5 27  1  0  0  0  0
  6 10  1  0  0  0  0
  6  7  1  0  0  0  0
  6 28  1  0  0  0  0
  7  8  1  0  0  0  0
  7 29  1  0  0  0  0
  7 30  1  0  0  0  0
  8  9  1  0  0  0  0
  8 31  1  0  0  0  0
  8 32  1  0  0  0  0
  9 10  1  0  0  0  0
 10 33  1  0  0  0  0
 10 34  1  0  0  0  0
 11 16  1  0  0  0  0
 11 12  1  0  0  0  0
 11 48  1  0  0  0  0
 12 13  1  0  0  0  0
 12 35  1  0  0  0  0
 12 36  1  0  0  0  0
 13 14  1  0  0  0  0
 13 37  1  0  0  0  0
 13 38  1  0  0  0  0
 14 15  1  0  0  0  0
 15 16  1  0  0  0  0
 15 39  1  0  0  0  0
 15 40  1  0  0  0  0
 16 41  1  0  0  0  0
 16 42  1  0  0  0  0
 17 18  1  0  0  0  0
 17 43  1  0  0  0  0
 18 23  1  0  0  0  0
 18 19  2  0  0  0  0
 19 20  1  0  0  0  0
 19 44  1  0  0  0  0
 20 21  2  0  0  0  0
 20 45  1  0  0  0  0
 21 22  1  0  0  0  0
 21 46  1  0  0  0  0
 22 23  2  0  0  0  0
 23 47  1  0  0  0  0
M  CHG  1  11   1
M  END
> <s_m_source_file>
AV-unprocessed.smi

> <i_m_source_file_index>
2119

> <i_lp_mmshare_version>
43012

> <i_f3d_flags>
0

> <s_epik_input>
W2NIXTFuW2NIXVtjSF1bY0hdYzFbTkhdQyg9TylbTkhdW0NIMl1bQ0BIXShbQ0BASF0yW0NIMl1bQ0gyXU9bQ0gyXTIpTjNbQ0gyXVtDSDJdT1tDSDJdW0NIMl0z

> <s_epik_cmdline>
J2VwaWtfcHl0aG9uJywgJy1waCcsICc3LjAnLCAnLXRuJywgJzgnLCAnLW1hJywgJzIwMCcsICctbWV0YWxfYmluZGluZycsICctaW1hZScsICc8aW5maWxlLm1hZT4nLCAnLW9tYWUnLCAnPG91dGZpbGUubWFlPic=

> <r_epik_Ionization_Penalty>
0.987463

> <r_epik_Ionization_Penalty_Charging>
0.98326

> <r_epik_Ionization_Penalty_Neutral>
0.00420251

> <r_epik_State_Penalty>
1.01721

> <r_epik_Charging_Adjusted_Penalty>
2.00047

> <i_epik_Tot_Q>
1

> <i_epik_Tot_abs_Q>
1

> <r_epik_Metal_State_Penalty>
1.01439

> <b_epik_Metal_Only>
0

> <s_lp_Force_Field>
OPLS_2005

> <r_lp_Energy>
39.8774

> <b_lp_Chiralities_Consistent>
1

> <s_lp_Variant>
AV-unprocessed.smi:2119-5

> <Gold.Version>
5.8.1

> <Gold.Id.Protein>
6NUR|6NUR_protein|mol2

> <Gold.PLP.Fitness>
47.5933

> <Gold.PLP.PLP>
-36.3698

> <Gold.PLP.part.hbond>
-2.8254

> <Gold.PLP.part.metal>
0.0000

> <Gold.PLP.part.buried>
-4.6402

> <Gold.PLP.part.nonpolar>
-30.0083

> <Gold.PLP.part.repulsive>
2.1328

> <Gold.PLP.ligand.clash>
0.0000

> <Gold.PLP.ligand.torsion>
1.6583

> <Gold.PLP.Chemscore.Hbond>
3.7684

> <Gold.PLP.Chemscore.CHOScore>
1.0000

> <Gold.PLP.Chemscore.Metal>
0.0000

> <Gold.Chemscore.Hbonds>
donor molecule, donor type, donor heavy atom, donor atom, acceptor molecule, acceptor atom, score
      L1  H     3    24       P1  7948  0.83
      L1  H    11    48       P1 10175  2.00
      L1  H    17    43       P1  7948  1.00
      L1  C    23    47       P1 10171  1.00

> <Gold.PLP.Chemscore.Internal.Correction>
0.2349

> <Gold.Rescore>
     Score         DG    S(hbond)    S(metal)    S(lipo)     H(rot)  DE(clash)    DE(int)     intcor
     16.41     -21.22       2.84        0.00      90.63       1.70       1.47       3.34       ----

> <Gold.Chemscore.Fitness>
16.4059

> <Gold.Chemscore.DG>
-21.2171

> <Gold.Chemscore.ZeroCoef>
-5.4800

> <Gold.Chemscore.Hbond>
2.8415

> <Gold.Chemscore.Metal>
0.0000

> <Gold.Chemscore.Lipo>
90.6329

> <Gold.Chemscore.Internal_Hbond>
0.0000

> <Gold.Chemscore.DEClash>
1.4709

> <Gold.Chemscore.DEInternal>
3.3403

> <Gold.Chemscore.Rot>
1.7021

> <Gold.Chemscore.Internal.Correction>
   9.000000E+99

> <Gold.Chemscore.Hbonds>
donor molecule, donor type, donor heavy atom, donor atom, acceptor molecule, acceptor atom, score
      L1  H     3    24       P1  7948  0.79
      L1  H    11    48       P1 10175  0.78
      L1  H    17    43       P1  7948  0.94

> <Gold.Chemscore.Hbond.Weighted>
-9.4906

> <Gold.Chemscore.Metal.Weighted>
-0.0000

> <Gold.Chemscore.Lipo.Weighted>
-10.6040

> <Gold.Chemscore.Internal_Hbond.Weighted>
0.0000

> <Gold.Chemscore.DEClash.Weighted>
1.4709

> <Gold.Chemscore.DEInternal.Weighted>
3.3403

> <Gold.Chemscore.Rot.Weighted>
4.3575

> <Gold.Chemscore.Internal.Correction.Weighted>
   9.000000E+99

> <Gold.Protein.RotatedTorsions>
[ 6907 6896 6895 6894 ] final  -17.14 input  -60.11 | X-H torsion
[ 7974 7965 7964 7962 ] final -169.24 input  175.53 | X-H torsion
[ 8008 7997 7996 7995 ] final   12.76 input   59.86 | X-H torsion
[ 10167 10162 10161 10158 ] final -122.91 input  -65.29 | X-H torsion
[ 10718 10713 10712 10709 ] final  -85.33 input   66.30 | X-H torsion
[ 10763 10752 10751 10750 ] final  -44.49 input  -60.55 | X-H torsion
[ 11005 11000 10999 10996 ] final   60.72 input  -57.11 | X-H torsion

> <Gold.Protein.ActiveResidues>
 VAL166  LYS551  ARG553  GLY616  TRP617  ASP618  TYR619  PRO620  LYS621  CYS622 
 ASP623  PHE694  ASN695  SER759  ASP760  ASP761  ALA762  ILE779  LEU786  VAL792 
 PHE793  MET794  SER795  GLU796  ALA797  LYS798  CYS799  TRP800  GLU811  SER814 

> <Gold.Protein.RotatedAtoms>
  151.2979  135.0760  159.9227 H   0  0  0  0  0  0  0  0  0  0  0  0  # atno 6907 bound_to 6896
  152.5303  133.9864  159.7840 H   0  0  0  0  0  0  0  0  0  0  0  0  # atno 6908 bound_to 6896
  151.0145  133.5882  159.2709 H   0  0  0  0  0  0  0  0  0  0  0  0  # atno 6909 bound_to 6896
  144.7189  140.2251  143.6311 H   0  0  0  0  0  0  0  0  0  0  0  0  # atno 7974 bound_to 7965
  154.8250  140.2890  155.5760 H   0  0  0  0  0  0  0  0  0  0  0  0  # atno 8008 bound_to 7997
  156.3001  140.2543  156.3096 H   0  0  0  0  0  0  0  0  0  0  0  0  # atno 8009 bound_to 7997
  154.9295  140.0384  157.2030 H   0  0  0  0  0  0  0  0  0  0  0  0  # atno 8010 bound_to 7997
  140.0092  143.5459  152.2270 H   0  0  0  0  0  0  0  0  0  0  0  0  # atno 10167 bound_to 10162
  155.9998  130.4727  150.4546 H   0  0  0  0  0  0  0  0  0  0  0  0  # atno 10718 bound_to 10713
  154.0130  135.6679  153.4766 H   0  0  0  0  0  0  0  0  0  0  0  0  # atno 10763 bound_to 10752
  153.0613  135.5026  154.8095 H   0  0  0  0  0  0  0  0  0  0  0  0  # atno 10764 bound_to 10752
  154.6984  135.3074  154.9341 H   0  0  0  0  0  0  0  0  0  0  0  0  # atno 10765 bound_to 10752
  140.0212  134.6151  155.9638 H   0  0  0  0  0  0  0  0  0  0  0  0  # atno 11005 bound_to 11000
  145.8464  139.2154  143.1797 LP  0  0  0  0  0  0  0  0  0  0  0  0  # atno 17320 bound_to 7965
  146.0300  140.8267  142.9880 LP  0  0  0  0  0  0  0  0  0  0  0  0  # atno 17321 bound_to 7965
  139.6217  144.7630  151.2727 LP  0  0  0  0  0  0  0  0  0  0  0  0  # atno 17342 bound_to 10162
  140.7388  143.6637  150.8142 LP  0  0  0  0  0  0  0  0  0  0  0  0  # atno 17343 bound_to 10162
  157.2576  131.0560  151.2341 LP  0  0  0  0  0  0  0  0  0  0  0  0  # atno 17370 bound_to 10713
  157.3467  130.7061  149.6415 LP  0  0  0  0  0  0  0  0  0  0  0  0  # atno 17371 bound_to 10713
  141.1774  133.6542  156.4885 LP  0  0  0  0  0  0  0  0  0  0  0  0  # atno 17394 bound_to 11000
  140.4385  134.7037  157.4979 LP  0  0  0  0  0  0  0  0  0  0  0  0  # atno 17395 bound_to 11000

$$$$
