AV-unprocessed.smi:845|AV-procd|sdf|3930|dock1
  -GOLD-   22720 1393D 1   1.00000     0.00000
 Structure written by MMmdl.
 42 43  0  0  0  0  0  0  0  0  1 V2000
  145.8386  139.5307  156.9833 C   0  0  0  0  0  0  0  0  0  0  0  0
  145.5850  139.3775  155.4709 C   0  0  0  0  0  0  0  0  0  0  0  0
  144.2312  138.6981  155.2042 C   0  0  0  0  0  0  0  0  0  0  0  0
  146.7379  138.7511  154.6238 C   0  0  1  0  0  0  0  0  0  0  0  0
  146.4334  138.6908  153.0997 C   0  0  0  0  0  0  0  0  0  0  0  0
  146.7057  137.3797  152.5187 N   0  0  0  0  0  0  0  0  0  0  0  0
  145.7684  136.4865  152.1710 C   0  0  0  0  0  0  0  0  0  0  0  0
  144.5612  136.6804  152.3142 O   0  0  0  0  0  0  0  0  0  0  0  0
  146.3210  135.3781  151.6524 N   0  0  0  0  0  0  0  0  0  0  0  0
  145.6585  134.2188  151.1783 C   0  0  0  0  0  0  0  0  0  0  0  0
  144.3341  134.2524  151.0187 N   0  0  0  0  0  0  0  0  0  0  0  0
  143.8317  133.0368  150.5455 C   0  0  0  0  0  0  0  0  0  0  0  0
  144.7966  132.0806  150.3462 C   0  0  0  0  0  0  0  0  0  0  0  0
  146.3872  132.6690  150.7488 S   0  0  0  0  0  0  0  0  0  0  0  0
  148.0923  139.2310  154.9627 N   0  0  0  0  0  0  0  0  0  0  0  0
  149.1491  138.3970  154.3928 C   0  0  0  0  0  0  0  0  0  0  0  0
  150.5441  138.8404  154.8657 C   0  0  0  0  0  0  0  0  0  0  0  0
  150.7453  140.2110  154.5370 O   0  0  0  0  0  0  0  0  0  0  0  0
  149.7615  141.0638  155.1131 C   0  0  0  0  0  0  0  0  0  0  0  0
  148.3615  140.6326  154.6430 C   0  0  0  0  0  0  0  0  0  0  0  0
  145.7544  138.5867  157.5177 H   0  0  0  0  0  0  0  0  0  0  0  0
  145.0950  140.1964  157.4220 H   0  0  0  0  0  0  0  0  0  0  0  0
  146.8142  139.9635  157.2001 H   0  0  0  0  0  0  0  0  0  0  0  0
  145.4666  140.3963  155.1003 H   0  0  0  0  0  0  0  0  0  0  0  0
  144.2136  137.6768  155.5858 H   0  0  0  0  0  0  0  0  0  0  0  0
  144.0138  138.6591  154.1365 H   0  0  0  0  0  0  0  0  0  0  0  0
  143.4180  139.2428  155.6846 H   0  0  0  0  0  0  0  0  0  0  0  0
  146.7231  137.7087  154.9456 H   0  0  0  0  0  0  0  0  0  0  0  0
  145.3880  138.9274  152.9044 H   0  0  0  0  0  0  0  0  0  0  0  0
  147.0105  139.4369  152.5532 H   0  0  0  0  0  0  0  0  0  0  0  0
  147.6746  137.1413  152.3649 H   0  0  0  0  0  0  0  0  0  0  0  0
  147.3281  135.3594  151.5900 H   0  0  0  0  0  0  0  0  0  0  0  0
  142.7694  132.9387  150.3763 H   0  0  0  0  0  0  0  0  0  0  0  0
  144.6685  131.0697  149.9883 H   0  0  0  0  0  0  0  0  0  0  0  0
  148.9932  137.3542  154.6714 H   0  0  0  0  0  0  0  0  0  0  0  0
  149.1195  138.4382  153.3041 H   0  0  0  0  0  0  0  0  0  0  0  0
  150.6513  138.6973  155.9420 H   0  0  0  0  0  0  0  0  0  0  0  0
  151.3161  138.2410  154.3831 H   0  0  0  0  0  0  0  0  0  0  0  0
  149.8312  141.0281  156.2014 H   0  0  0  0  0  0  0  0  0  0  0  0
  149.9621  142.0922  154.8124 H   0  0  0  0  0  0  0  0  0  0  0  0
  148.2882  140.7932  153.5671 H   0  0  0  0  0  0  0  0  0  0  0  0
  147.6300  141.2852  155.1078 H   0  0  0  0  0  0  0  0  0  0  0  0
  1  2  1  0  0  0  0
  1 21  1  0  0  0  0
  1 22  1  0  0  0  0
  1 23  1  0  0  0  0
  2  3  1  0  0  0  0
  2  4  1  0  0  0  0
  2 24  1  0  0  0  0
  3 25  1  0  0  0  0
  3 26  1  0  0  0  0
  3 27  1  0  0  0  0
  4  5  1  0  0  0  0
  4 15  1  0  0  0  0
  4 28  1  0  0  0  0
  5  6  1  0  0  0  0
  5 29  1  0  0  0  0
  5 30  1  0  0  0  0
  6  7  1  0  0  0  0
  6 31  1  0  0  0  0
  7  8  2  0  0  0  0
  7  9  1  0  0  0  0
  9 10  1  0  0  0  0
  9 32  1  0  0  0  0
 10 14  1  0  0  0  0
 10 11  2  0  0  0  0
 11 12  1  0  0  0  0
 12 13  2  0  0  0  0
 12 33  1  0  0  0  0
 13 14  1  0  0  0  0
 13 34  1  0  0  0  0
 15 20  1  0  0  0  0
 15 16  1  0  0  0  0
 16 17  1  0  0  0  0
 16 35  1  0  0  0  0
 16 36  1  0  0  0  0
 17 18  1  0  0  0  0
 17 37  1  0  0  0  0
 17 38  1  0  0  0  0
 18 19  1  0  0  0  0
 19 20  1  0  0  0  0
 19 39  1  0  0  0  0
 19 40  1  0  0  0  0
 20 41  1  0  0  0  0
 20 42  1  0  0  0  0
M  END
> <s_m_source_file>
AV-unprocessed.smi

> <i_m_source_file_index>
845

> <i_lp_mmshare_version>
43012

> <i_f3d_flags>
0

> <s_epik_input>
W0NIMl0xW0NIMl1PW0NIMl1bQ0gyXU4xW0NASF0oW0NIXShbQ0gzXSlbQ0gzXSlbQ0gyXVtOSF1DKD1PKVtOSF1jMm5bY0hdW2NIXXMy

> <s_epik_cmdline>
J2VwaWtfcHl0aG9uJywgJy1waCcsICc3LjAnLCAnLXRuJywgJzgnLCAnLW1hJywgJzIwMCcsICctbWV0YWxfYmluZGluZycsICctaW1hZScsICc8aW5maWxlLm1hZT4nLCAnLW9tYWUnLCAnPG91dGZpbGUubWFlPic=

> <r_lp_tautomer_probability>
0.999

> <r_epik_Ionization_Penalty>
0.423897

> <r_epik_Ionization_Penalty_Charging>
0

> <r_epik_Ionization_Penalty_Neutral>
0.423897

> <r_epik_State_Penalty>
0.424384

> <r_epik_Charging_Adjusted_Penalty>
0.424384

> <i_epik_Tot_Q>
0

> <i_epik_Tot_abs_Q>
0

> <r_epik_Metal_State_Penalty>
0.434476

> <b_epik_Metal_Only>
0

> <s_lp_Force_Field>
OPLS_2005

> <r_lp_Energy>
35.7747

> <b_lp_Chiralities_Consistent>
1

> <s_lp_Variant>
AV-unprocessed.smi:845-4

> <Gold.Version>
5.8.1

> <Gold.Id.Protein>
6NUR|6NUR_protein|mol2

> <Gold.PLP.Fitness>
38.5311

> <Gold.PLP.PLP>
-27.5639

> <Gold.PLP.part.hbond>
-2.9559

> <Gold.PLP.part.metal>
0.0000

> <Gold.PLP.part.buried>
-4.5457

> <Gold.PLP.part.nonpolar>
-21.8189

> <Gold.PLP.part.repulsive>
0.6268

> <Gold.PLP.ligand.clash>
0.0000

> <Gold.PLP.ligand.torsion>
0.8682

> <Gold.PLP.Chemscore.Hbond>
3.0000

> <Gold.PLP.Chemscore.CHOScore>
1.0000

> <Gold.PLP.Chemscore.Metal>
0.0000

> <Gold.Chemscore.Hbonds>
donor molecule, donor type, donor heavy atom, donor atom, acceptor molecule, acceptor atom, score
      L1  H     6    31       P1  7948  1.00
      L1  H     9    32       P1  7948  1.00
      P1  H  7989  7998       L1    18  0.96
      L1  C    12    33       P1 10186  1.00

> <Gold.PLP.Chemscore.Internal.Correction>
0.7037

> <Gold.Rescore>
     Score         DG    S(hbond)    S(metal)    S(lipo)     H(rot)  DE(clash)    DE(int)     intcor
     15.51     -17.84       2.84        0.00      62.85       1.75       0.08       2.25       ----

> <Gold.Chemscore.Fitness>
15.5120

> <Gold.Chemscore.DG>
-17.8430

> <Gold.Chemscore.ZeroCoef>
-5.4800

> <Gold.Chemscore.Hbond>
2.8419

> <Gold.Chemscore.Metal>
0.0000

> <Gold.Chemscore.Lipo>
62.8487

> <Gold.Chemscore.Internal_Hbond>
0.0000

> <Gold.Chemscore.DEClash>
0.0813

> <Gold.Chemscore.DEInternal>
2.2497

> <Gold.Chemscore.Rot>
1.7509

> <Gold.Chemscore.Internal.Correction>
   9.000000E+99

> <Gold.Chemscore.Hbonds>
donor molecule, donor type, donor heavy atom, donor atom, acceptor molecule, acceptor atom, score
      L1  H     6    31       P1  7948  0.98
      L1  H     9    32       P1  7948  0.89
      P1  H  7989  7998       L1    18  0.83

> <Gold.Chemscore.Hbond.Weighted>
-9.4919

> <Gold.Chemscore.Metal.Weighted>
-0.0000

> <Gold.Chemscore.Lipo.Weighted>
-7.3533

> <Gold.Chemscore.Internal_Hbond.Weighted>
0.0000

> <Gold.Chemscore.DEClash.Weighted>
0.0813

> <Gold.Chemscore.DEInternal.Weighted>
2.2497

> <Gold.Chemscore.Rot.Weighted>
4.4823

> <Gold.Chemscore.Internal.Correction.Weighted>
   9.000000E+99

> <Gold.Protein.RotatedTorsions>
[ 6907 6896 6895 6894 ] final   15.18 input  -60.11 | X-H torsion
[ 7974 7965 7964 7962 ] final -155.81 input  175.53 | X-H torsion
[ 8008 7997 7996 7995 ] final   46.94 input   59.86 | X-H torsion
[ 10167 10162 10161 10158 ] final   84.86 input  -65.29 | X-H torsion
[ 10718 10713 10712 10709 ] final -124.08 input   66.30 | X-H torsion
[ 10763 10752 10751 10750 ] final   -0.02 input  -60.55 | X-H torsion
[ 11005 11000 10999 10996 ] final -178.50 input  -57.11 | X-H torsion

> <Gold.Protein.ActiveResidues>
 VAL166  LYS551  ARG553  GLY616  TRP617  ASP618  TYR619  PRO620  LYS621  CYS622 
 ASP623  PHE694  ASN695  SER759  ASP760  ASP761  ALA762  ILE779  LEU786  VAL792 
 PHE793  MET794  SER795  GLU796  ALA797  LYS798  CYS799  TRP800  GLU811  SER814 

> <Gold.Protein.RotatedAtoms>
  151.8140  135.0672  160.0416 H   0  0  0  0  0  0  0  0  0  0  0  0  # atno 6907 bound_to 6896
  152.2999  133.5641  159.5620 H   0  0  0  0  0  0  0  0  0  0  0  0  # atno 6908 bound_to 6896
  150.7269  134.0222  159.3747 H   0  0  0  0  0  0  0  0  0  0  0  0  # atno 6909 bound_to 6896
  144.7622  140.4198  143.5968 H   0  0  0  0  0  0  0  0  0  0  0  0  # atno 7974 bound_to 7965
  155.3608  140.3418  155.4241 H   0  0  0  0  0  0  0  0  0  0  0  0  # atno 8008 bound_to 7997
  156.1715  140.1633  156.8474 H   0  0  0  0  0  0  0  0  0  0  0  0  # atno 8009 bound_to 7997
  154.5238  140.0761  156.8203 H   0  0  0  0  0  0  0  0  0  0  0  0  # atno 8010 bound_to 7997
  139.9037  144.6314  150.8610 H   0  0  0  0  0  0  0  0  0  0  0  0  # atno 10167 bound_to 10162
  156.1556  130.6566  150.9977 H   0  0  0  0  0  0  0  0  0  0  0  0  # atno 10718 bound_to 10713
  153.3265  135.6972  153.6985 H   0  0  0  0  0  0  0  0  0  0  0  0  # atno 10763 bound_to 10752
  153.5804  135.3499  155.2873 H   0  0  0  0  0  0  0  0  0  0  0  0  # atno 10764 bound_to 10752
  154.8609  135.4294  154.2442 H   0  0  0  0  0  0  0  0  0  0  0  0  # atno 10765 bound_to 10752
  140.4291  134.6535  157.4703 H   0  0  0  0  0  0  0  0  0  0  0  0  # atno 11005 bound_to 11000
  145.6582  139.1576  143.2823 LP  0  0  0  0  0  0  0  0  0  0  0  0  # atno 17320 bound_to 7965
  146.1697  140.6665  142.9239 LP  0  0  0  0  0  0  0  0  0  0  0  0  # atno 17321 bound_to 7965
  140.7701  143.3417  151.2194 LP  0  0  0  0  0  0  0  0  0  0  0  0  # atno 17342 bound_to 10162
  139.7003  143.9544  152.2902 LP  0  0  0  0  0  0  0  0  0  0  0  0  # atno 17343 bound_to 10162
  157.6692  131.0865  150.7653 LP  0  0  0  0  0  0  0  0  0  0  0  0  # atno 17370 bound_to 10713
  156.7718  130.4831  149.5417 LP  0  0  0  0  0  0  0  0  0  0  0  0  # atno 17371 bound_to 10713
  140.0147  134.6638  155.9328 LP  0  0  0  0  0  0  0  0  0  0  0  0  # atno 17394 bound_to 11000
  141.1753  133.6540  156.4805 LP  0  0  0  0  0  0  0  0  0  0  0  0  # atno 17395 bound_to 11000

$$$$
