AV-unprocessed.smi:3278|AV-procd|sdf|12547|dock7
  -GOLD-   2272018463D 1   1.00000     0.00000
 Structure written by MMmdl.
 38 39  0  0  0  0  0  0  0  0  1 V2000
  154.6130  138.8445  154.9294 C   0  0  0  0  0  0  0  0  0  0  0  0
  153.2047  139.0254  154.6495 N   0  0  0  0  0  0  0  0  0  0  0  0
  152.3522  140.0003  155.1195 C   0  0  0  0  0  0  0  0  0  0  0  0
  151.1158  139.7660  154.5815 C   0  0  0  0  0  0  0  0  0  0  0  0
  149.8257  140.5409  154.7565 C   0  0  2  0  0  0  0  0  0  0  0  0
  148.6625  139.6393  155.2158 C   0  0  0  0  0  0  0  0  0  0  0  0
  149.4115  141.0978  153.5255 O   0  0  0  0  0  0  0  0  0  0  0  0
  150.0236  141.7374  155.7122 C   0  0  0  0  0  0  0  0  0  0  0  0
  150.3292  141.3065  157.0791 N   0  0  0  0  0  0  0  0  0  0  0  0
  151.3301  142.1079  157.7884 C   0  0  1  0  0  0  0  0  0  0  0  0
  150.8801  143.5776  157.9608 C   0  0  0  0  0  0  0  0  0  0  0  0
  151.9359  144.4469  158.6638 C   0  0  0  0  0  0  0  0  0  0  0  0
  152.2701  143.9465  160.0747 C   0  0  0  0  0  0  0  0  0  0  0  0
  152.9778  142.2800  160.0216 S   0  0  0  0  0  0  0  0  0  0  0  0
  151.6236  141.4487  159.1485 C   0  0  0  0  0  0  0  0  0  0  0  0
  151.3297  138.6072  153.7785 C   0  0  0  0  0  0  0  0  0  0  0  0
  152.5762  138.1668  153.8223 N   0  0  0  0  0  0  0  0  0  0  0  0
  154.9315  139.5370  155.7090 H   0  0  0  0  0  0  0  0  0  0  0  0
  155.1944  139.0341  154.0269 H   0  0  0  0  0  0  0  0  0  0  0  0
  154.7961  137.8239  155.2671 H   0  0  0  0  0  0  0  0  0  0  0  0
  152.6939  140.7748  155.7903 H   0  0  0  0  0  0  0  0  0  0  0  0
  148.8662  139.1798  156.1833 H   0  0  0  0  0  0  0  0  0  0  0  0
  148.4777  138.8347  154.5031 H   0  0  0  0  0  0  0  0  0  0  0  0
  147.7368  140.2075  155.3176 H   0  0  0  0  0  0  0  0  0  0  0  0
  149.6369  140.4953  152.8333 H   0  0  0  0  0  0  0  0  0  0  0  0
  150.8395  142.3588  155.3399 H   0  0  0  0  0  0  0  0  0  0  0  0
  149.1290  142.3596  155.6980 H   0  0  0  0  0  0  0  0  0  0  0  0
  150.6266  140.3360  157.0627 H   0  0  0  0  0  0  0  0  0  0  0  0
  152.2552  142.0967  157.2101 H   0  0  0  0  0  0  0  0  0  0  0  0
  150.6759  144.0307  156.9915 H   0  0  0  0  0  0  0  0  0  0  0  0
  149.9436  143.6154  158.5194 H   0  0  0  0  0  0  0  0  0  0  0  0
  152.8444  144.4810  158.0612 H   0  0  0  0  0  0  0  0  0  0  0  0
  151.5720  145.4730  158.7249 H   0  0  0  0  0  0  0  0  0  0  0  0
  152.9858  144.6153  160.5530 H   0  0  0  0  0  0  0  0  0  0  0  0
  151.3751  143.9350  160.6977 H   0  0  0  0  0  0  0  0  0  0  0  0
  150.7352  141.4610  159.7813 H   0  0  0  0  0  0  0  0  0  0  0  0
  151.9029  140.4034  159.0121 H   0  0  0  0  0  0  0  0  0  0  0  0
  150.6159  138.0776  153.1648 H   0  0  0  0  0  0  0  0  0  0  0  0
  1  2  1  0  0  0  0
  1 18  1  0  0  0  0
  1 19  1  0  0  0  0
  1 20  1  0  0  0  0
  2 17  1  0  0  0  0
  2  3  1  0  0  0  0
  3  4  2  0  0  0  0
  3 21  1  0  0  0  0
  4  5  1  0  0  0  0
  4 16  1  0  0  0  0
  5  6  1  0  0  0  0
  5  7  1  0  0  0  0
  5  8  1  0  0  0  0
  6 22  1  0  0  0  0
  6 23  1  0  0  0  0
  6 24  1  0  0  0  0
  7 25  1  0  0  0  0
  8  9  1  0  0  0  0
  8 26  1  0  0  0  0
  8 27  1  0  0  0  0
  9 10  1  0  0  0  0
  9 28  1  0  0  0  0
 10 15  1  0  0  0  0
 10 11  1  0  0  0  0
 10 29  1  0  0  0  0
 11 12  1  0  0  0  0
 11 30  1  0  0  0  0
 11 31  1  0  0  0  0
 12 13  1  0  0  0  0
 12 32  1  0  0  0  0
 12 33  1  0  0  0  0
 13 14  1  0  0  0  0
 13 34  1  0  0  0  0
 13 35  1  0  0  0  0
 14 15  1  0  0  0  0
 15 36  1  0  0  0  0
 15 37  1  0  0  0  0
 16 17  2  0  0  0  0
 16 38  1  0  0  0  0
M  END
> <s_m_source_file>
AV-unprocessed.smi

> <i_m_source_file_index>
3278

> <i_lp_mmshare_version>
43012

> <i_f3d_flags>
0

> <s_epik_input>
W0NIM11uMVtjSF1jKFtjSF1uMSlbQ0BAXShbQ0gzXSkoW09IXSlbQ0gyXVtOSF1bQ0BASF0yW0NIMl1bQ0gyXVtDSDJdU1tDSDJdMg==

> <s_epik_cmdline>
J2VwaWtfcHl0aG9uJywgJy1waCcsICc3LjAnLCAnLXRuJywgJzgnLCAnLW1hJywgJzIwMCcsICctbWV0YWxfYmluZGluZycsICctaW1hZScsICc8aW5maWxlLm1hZT4nLCAnLW9tYWUnLCAnPG91dGZpbGUubWFlPic=

> <r_lp_tautomer_probability>
1

> <r_epik_Ionization_Penalty>
2.06123

> <r_epik_Ionization_Penalty_Charging>
0

> <r_epik_Ionization_Penalty_Neutral>
2.06123

> <r_epik_State_Penalty>
2.1944

> <r_epik_Charging_Adjusted_Penalty>
2.1944

> <i_epik_Tot_Q>
0

> <i_epik_Tot_abs_Q>
0

> <r_epik_Metal_State_Penalty>
2.19434

> <b_epik_Metal_Only>
0

> <s_lp_Force_Field>
OPLS_2005

> <r_lp_Energy>
8.30166

> <b_lp_Chiralities_Consistent>
1

> <s_lp_Variant>
AV-unprocessed.smi:3278-8

> <Gold.Version>
5.8.1

> <Gold.Id.Protein>
6NUR|6NUR_protein|mol2

> <Gold.PLP.Fitness>
50.4865

> <Gold.PLP.PLP>
-40.3084

> <Gold.PLP.part.hbond>
-3.8631

> <Gold.PLP.part.metal>
0.0000

> <Gold.PLP.part.buried>
2.0566

> <Gold.PLP.part.nonpolar>
-37.9940

> <Gold.PLP.part.repulsive>
0.1581

> <Gold.PLP.ligand.clash>
0.0000

> <Gold.PLP.ligand.torsion>
0.3430

> <Gold.PLP.Chemscore.Hbond>
2.5776

> <Gold.PLP.Chemscore.CHOScore>
1.0245

> <Gold.PLP.Chemscore.Metal>
0.0000

> <Gold.Chemscore.Hbonds>
donor molecule, donor type, donor heavy atom, donor atom, acceptor molecule, acceptor atom, score
      L1  H     7    25       P1  7957  1.00
      P1  H  8011  8017       L1     7  0.30
      L1  C    16    38       P1  7948  0.29
      L1  C    16    38       P1  7949  0.32

> <Gold.PLP.Chemscore.Internal.Correction>
0.0579

> <Gold.Rescore>
     Score         DG    S(hbond)    S(metal)    S(lipo)     H(rot)  DE(clash)    DE(int)     intcor
     18.75     -20.08       1.86        0.00     113.90       1.93       0.85       0.48       ----

> <Gold.Chemscore.Fitness>
18.7521

> <Gold.Chemscore.DG>
-20.0832

> <Gold.Chemscore.ZeroCoef>
-5.4800

> <Gold.Chemscore.Hbond>
1.8637

> <Gold.Chemscore.Metal>
0.0000

> <Gold.Chemscore.Lipo>
113.9039

> <Gold.Chemscore.Internal_Hbond>
0.0000

> <Gold.Chemscore.DEClash>
0.8495

> <Gold.Chemscore.DEInternal>
0.4815

> <Gold.Chemscore.Rot>
1.9329

> <Gold.Chemscore.Internal.Correction>
   9.000000E+99

> <Gold.Chemscore.Hbonds>
donor molecule, donor type, donor heavy atom, donor atom, acceptor molecule, acceptor atom, score
      L1  H     7    25       P1  7957  0.94

> <Gold.Chemscore.Hbond.Weighted>
-6.2247

> <Gold.Chemscore.Metal.Weighted>
-0.0000

> <Gold.Chemscore.Lipo.Weighted>
-13.3268

> <Gold.Chemscore.Internal_Hbond.Weighted>
0.0000

> <Gold.Chemscore.DEClash.Weighted>
0.8495

> <Gold.Chemscore.DEInternal.Weighted>
0.4815

> <Gold.Chemscore.Rot.Weighted>
4.9483

> <Gold.Chemscore.Internal.Correction.Weighted>
   9.000000E+99

> <Gold.Protein.RotatedTorsions>
[ 6907 6896 6895 6894 ] final  161.91 input  -60.11 | X-H torsion
[ 7974 7965 7964 7962 ] final   79.00 input  175.53 | X-H torsion
[ 8008 7997 7996 7995 ] final   89.31 input   59.86 | X-H torsion
[ 10167 10162 10161 10158 ] final   87.78 input  -65.29 | X-H torsion
[ 10718 10713 10712 10709 ] final   54.06 input   66.30 | X-H torsion
[ 10763 10752 10751 10750 ] final  157.60 input  -60.55 | X-H torsion
[ 11005 11000 10999 10996 ] final  -16.43 input  -57.11 | X-H torsion

> <Gold.Protein.ActiveResidues>
 VAL166  LYS551  ARG553  GLY616  TRP617  ASP618  TYR619  PRO620  LYS621  CYS622 
 ASP623  PHE694  ASN695  SER759  ASP760  ASP761  ALA762  ILE779  LEU786  VAL792 
 PHE793  MET794  SER795  GLU796  ALA797  LYS798  CYS799  TRP800  GLU811  SER814 

> <Gold.Protein.RotatedAtoms>
  151.9484  133.3658  159.3990 H   0  0  0  0  0  0  0  0  0  0  0  0  # atno 6907 bound_to 6896
  150.6985  134.4366  159.5282 H   0  0  0  0  0  0  0  0  0  0  0  0  # atno 6908 bound_to 6896
  152.2035  134.8566  160.0556 H   0  0  0  0  0  0  0  0  0  0  0  0  # atno 6909 bound_to 6896
  145.6699  139.2494  143.1874 H   0  0  0  0  0  0  0  0  0  0  0  0  # atno 7974 bound_to 7965
  155.9985  140.3362  155.6822 H   0  0  0  0  0  0  0  0  0  0  0  0  # atno 8008 bound_to 7997
  155.6323  140.0686  157.2663 H   0  0  0  0  0  0  0  0  0  0  0  0  # atno 8009 bound_to 7997
  154.4241  140.1757  156.1473 H   0  0  0  0  0  0  0  0  0  0  0  0  # atno 8010 bound_to 7997
  139.8739  144.6477  150.8918 H   0  0  0  0  0  0  0  0  0  0  0  0  # atno 10167 bound_to 10162
  157.5223  130.8573  149.8575 H   0  0  0  0  0  0  0  0  0  0  0  0  # atno 10718 bound_to 10713
  154.2029  135.2789  155.2985 H   0  0  0  0  0  0  0  0  0  0  0  0  # atno 10763 bound_to 10752
  154.5840  135.5580  153.7216 H   0  0  0  0  0  0  0  0  0  0  0  0  # atno 10764 bound_to 10752
  153.0083  135.6352  154.2167 H   0  0  0  0  0  0  0  0  0  0  0  0  # atno 10765 bound_to 10752
  140.8067  133.8172  155.9523 H   0  0  0  0  0  0  0  0  0  0  0  0  # atno 11005 bound_to 11000
  146.1054  140.7493  142.9529 LP  0  0  0  0  0  0  0  0  0  0  0  0  # atno 17320 bound_to 7965
  144.7060  140.3854  143.7117 LP  0  0  0  0  0  0  0  0  0  0  0  0  # atno 17321 bound_to 7965
  140.7756  143.3641  151.1772 LP  0  0  0  0  0  0  0  0  0  0  0  0  # atno 17342 bound_to 10162
  139.7258  143.9150  152.3002 LP  0  0  0  0  0  0  0  0  0  0  0  0  # atno 17343 bound_to 10162
  156.0362  130.3750  150.1554 LP  0  0  0  0  0  0  0  0  0  0  0  0  # atno 17370 bound_to 10713
  156.9741  130.9844  151.3452 LP  0  0  0  0  0  0  0  0  0  0  0  0  # atno 17371 bound_to 10713
  140.9240  134.2106  157.4908 LP  0  0  0  0  0  0  0  0  0  0  0  0  # atno 17394 bound_to 11000
  139.8717  134.9804  156.5076 LP  0  0  0  0  0  0  0  0  0  0  0  0  # atno 17395 bound_to 11000

$$$$
