AV-unprocessed.smi:1819|AV-procd|sdf|7382|dock9
  -GOLD-   22720 9 53D 1   1.00000     0.00000
 Structure written by MMmdl.
 29 29  0  0  0  0  0  0  0  0  1 V2000
  150.5057  140.3054  154.7822 O   0  0  0  0  0  0  0  0  0  0  0  0
  149.7248  141.2254  155.0297 C   0  0  0  0  0  0  0  0  0  0  0  0
  148.4524  141.4227  154.1929 C   0  0  0  0  0  0  0  0  0  0  0  0
  147.5472  140.2654  154.2443 N   0  0  0  0  0  0  0  0  0  0  0  0
  147.1596  139.6261  153.0751 C   0  0  0  0  0  0  0  0  0  0  0  0
  146.3382  138.5498  153.0509 C   0  0  0  0  0  0  0  0  0  0  0  0
  145.8076  137.9973  154.2925 C   0  0  0  0  0  0  0  0  0  0  0  0
  145.0562  137.0281  154.3737 O   0  0  0  0  0  0  0  0  0  0  0  0
  146.2225  138.6661  155.4472 N   0  0  0  0  0  0  0  0  0  0  0  0
  147.0704  139.7745  155.4794 C   0  0  0  0  0  0  0  0  0  0  0  0
  147.3777  140.2869  156.5552 O   0  0  0  0  0  0  0  0  0  0  0  0
  149.9319  142.1160  156.0098 N   0  0  0  0  0  0  0  0  0  0  0  0
  151.0792  142.0998  156.9062 C   0  0  0  0  0  0  0  0  0  0  0  0
  150.6572  141.6691  158.3151 C   0  0  0  0  0  0  0  0  0  0  0  0
  151.8751  142.1821  159.5572 S   0  0  0  0  0  0  0  0  0  0  0  0
  151.7125  143.9843  159.4439 C   0  0  0  0  0  0  0  0  0  0  0  0
  152.2732  144.5548  160.5089 F   0  0  0  0  0  0  0  0  0  0  0  0
  152.3216  144.4347  158.3480 F   0  0  0  0  0  0  0  0  0  0  0  0
  150.4266  144.3300  159.4019 F   0  0  0  0  0  0  0  0  0  0  0  0
  145.8826  138.3174  156.3317 H   0  0  0  0  0  0  0  0  0  0  0  0
  147.9283  142.3233  154.5198 H   0  0  0  0  0  0  0  0  0  0  0  0
  148.7526  141.6229  153.1633 H   0  0  0  0  0  0  0  0  0  0  0  0
  147.5321  139.9985  152.1314 H   0  0  0  0  0  0  0  0  0  0  0  0
  146.0732  138.0945  152.1075 H   0  0  0  0  0  0  0  0  0  0  0  0
  149.2479  142.8462  156.1472 H   0  0  0  0  0  0  0  0  0  0  0  0
  151.8347  141.4151  156.5172 H   0  0  0  0  0  0  0  0  0  0  0  0
  151.5278  143.0940  156.9365 H   0  0  0  0  0  0  0  0  0  0  0  0
  149.6908  142.1054  158.5693 H   0  0  0  0  0  0  0  0  0  0  0  0
  150.5448  140.5855  158.3597 H   0  0  0  0  0  0  0  0  0  0  0  0
  1  2  2  0  0  0  0
  2  3  1  0  0  0  0
  2 12  1  0  0  0  0
  3  4  1  0  0  0  0
  3 21  1  0  0  0  0
  3 22  1  0  0  0  0
  4 10  1  0  0  0  0
  4  5  1  0  0  0  0
  5  6  2  0  0  0  0
  5 23  1  0  0  0  0
  6  7  1  0  0  0  0
  6 24  1  0  0  0  0
  7  8  2  0  0  0  0
  7  9  1  0  0  0  0
  9 20  1  0  0  0  0
  9 10  1  0  0  0  0
 10 11  2  0  0  0  0
 12 13  1  0  0  0  0
 12 25  1  0  0  0  0
 13 14  1  0  0  0  0
 13 26  1  0  0  0  0
 13 27  1  0  0  0  0
 14 15  1  0  0  0  0
 14 28  1  0  0  0  0
 14 29  1  0  0  0  0
 15 16  1  0  0  0  0
 16 17  1  0  0  0  0
 16 18  1  0  0  0  0
 16 19  1  0  0  0  0
M  END
> <s_m_source_file>
AV-unprocessed.smi

> <i_m_source_file_index>
1819

> <i_lp_mmshare_version>
43012

> <i_f3d_flags>
0

> <s_epik_input>
RkMoRikoRilTW0NIMl1bQ0gyXVtOSF1DKD1PKVtDSDJdbjFbY0hdW2NIXWMoPU8pW25IXWMxPU8=

> <s_epik_cmdline>
J2VwaWtfcHl0aG9uJywgJy1waCcsICc3LjAnLCAnLXRuJywgJzgnLCAnLW1hJywgJzIwMCcsICctbWV0YWxfYmluZGluZycsICctaW1hZScsICc8aW5maWxlLm1hZT4nLCAnLW9tYWUnLCAnPG91dGZpbGUubWFlPic=

> <r_lp_tautomer_probability>
0.999537

> <r_epik_Ionization_Penalty>
0.00347617

> <r_epik_Ionization_Penalty_Charging>
0.00347613

> <r_epik_Ionization_Penalty_Neutral>
4.33222e-08

> <r_epik_State_Penalty>
0.00246522

> <r_epik_Charging_Adjusted_Penalty>
0.00594136

> <i_epik_Tot_Q>
0

> <i_epik_Tot_abs_Q>
0

> <r_epik_Metal_State_Penalty>
0.367629

> <b_epik_Metal_Only>
0

> <s_lp_Force_Field>
OPLS_2005

> <r_lp_Energy>
-0.213216

> <b_lp_Chiralities_Consistent>
1

> <s_lp_Variant>
AV-unprocessed.smi:1819-1

> <Gold.Version>
5.8.1

> <Gold.Id.Protein>
6NUR|6NUR_protein|mol2

> <Gold.PLP.Fitness>
44.2967

> <Gold.PLP.PLP>
-36.0026

> <Gold.PLP.part.hbond>
-2.0000

> <Gold.PLP.part.metal>
0.0000

> <Gold.PLP.part.buried>
-3.6951

> <Gold.PLP.part.nonpolar>
-29.6768

> <Gold.PLP.part.repulsive>
0.2748

> <Gold.PLP.ligand.clash>
0.0000

> <Gold.PLP.ligand.torsion>
0.3559

> <Gold.PLP.Chemscore.Hbond>
1.9760

> <Gold.PLP.Chemscore.CHOScore>
1.0000

> <Gold.PLP.Chemscore.Metal>
0.0000

> <Gold.Chemscore.Hbonds>
donor molecule, donor type, donor heavy atom, donor atom, acceptor molecule, acceptor atom, score
      L1  H    12    25       P1  8028  0.83
      P1  H  7989  7998       L1     1  1.00
      L1  C     5    23       P1  7957  1.00

> <Gold.PLP.Chemscore.Internal.Correction>
0.0778

> <Gold.Rescore>
     Score         DG    S(hbond)    S(metal)    S(lipo)     H(rot)  DE(clash)    DE(int)     intcor
      8.32      -9.58       1.63        0.00      52.78       2.93       0.00       1.26       ----

> <Gold.Chemscore.Fitness>
8.3178

> <Gold.Chemscore.DG>
-9.5840

> <Gold.Chemscore.ZeroCoef>
-5.4800

> <Gold.Chemscore.Hbond>
1.6282

> <Gold.Chemscore.Metal>
0.0000

> <Gold.Chemscore.Lipo>
52.7756

> <Gold.Chemscore.Internal_Hbond>
0.0000

> <Gold.Chemscore.DEClash>
0.0030

> <Gold.Chemscore.DEInternal>
1.2633

> <Gold.Chemscore.Rot>
2.9332

> <Gold.Chemscore.Internal.Correction>
   9.000000E+99

> <Gold.Chemscore.Hbonds>
donor molecule, donor type, donor heavy atom, donor atom, acceptor molecule, acceptor atom, score
      L1  H    12    25       P1  8028  0.80
      P1  H  7989  7998       L1     1  0.59

> <Gold.Chemscore.Hbond.Weighted>
-5.4382

> <Gold.Chemscore.Metal.Weighted>
-0.0000

> <Gold.Chemscore.Lipo.Weighted>
-6.1747

> <Gold.Chemscore.Internal_Hbond.Weighted>
0.0000

> <Gold.Chemscore.DEClash.Weighted>
0.0030

> <Gold.Chemscore.DEInternal.Weighted>
1.2633

> <Gold.Chemscore.Rot.Weighted>
7.5089

> <Gold.Chemscore.Internal.Correction.Weighted>
   9.000000E+99

> <Gold.Protein.RotatedTorsions>
[ 6907 6896 6895 6894 ] final -167.16 input  -60.11 | X-H torsion
[ 7974 7965 7964 7962 ] final -117.90 input  175.53 | X-H torsion
[ 8008 7997 7996 7995 ] final   54.62 input   59.86 | X-H torsion
[ 10167 10162 10161 10158 ] final   74.19 input  -65.29 | X-H torsion
[ 10718 10713 10712 10709 ] final  -95.80 input   66.30 | X-H torsion
[ 10763 10752 10751 10750 ] final  -49.39 input  -60.55 | X-H torsion
[ 11005 11000 10999 10996 ] final  127.56 input  -57.11 | X-H torsion

> <Gold.Protein.ActiveResidues>
 VAL166  LYS551  ARG553  GLY616  TRP617  ASP618  TYR619  PRO620  LYS621  CYS622 
 ASP623  PHE694  ASN695  SER759  ASP760  ASP761  ALA762  ILE779  LEU786  VAL792 
 PHE793  MET794  SER795  GLU796  ALA797  LYS798  CYS799  TRP800  GLU811  SER814 

> <Gold.Protein.RotatedAtoms>
  151.4551  133.3607  159.2800 H   0  0  0  0  0  0  0  0  0  0  0  0  # atno 6907 bound_to 6896
  150.9064  134.8481  159.7406 H   0  0  0  0  0  0  0  0  0  0  0  0  # atno 6908 bound_to 6896
  152.4908  134.4477  159.9616 H   0  0  0  0  0  0  0  0  0  0  0  0  # atno 6909 bound_to 6896
  145.0800  140.8419  143.4045 H   0  0  0  0  0  0  0  0  0  0  0  0  # atno 7974 bound_to 7965
  155.4877  140.3470  155.4350 H   0  0  0  0  0  0  0  0  0  0  0  0  # atno 8008 bound_to 7997
  156.0997  140.1432  156.9512 H   0  0  0  0  0  0  0  0  0  0  0  0  # atno 8009 bound_to 7997
  154.4686  140.0909  156.7063 H   0  0  0  0  0  0  0  0  0  0  0  0  # atno 8010 bound_to 7997
  140.0164  144.5575  150.7617 H   0  0  0  0  0  0  0  0  0  0  0  0  # atno 10167 bound_to 10162
  156.0050  130.5124  150.6131 H   0  0  0  0  0  0  0  0  0  0  0  0  # atno 10718 bound_to 10713
  154.0932  135.6574  153.4856 H   0  0  0  0  0  0  0  0  0  0  0  0  # atno 10763 bound_to 10752
  153.0314  135.5207  154.7359 H   0  0  0  0  0  0  0  0  0  0  0  0  # atno 10764 bound_to 10752
  154.6489  135.2998  154.9980 H   0  0  0  0  0  0  0  0  0  0  0  0  # atno 10765 bound_to 10752
  139.9514  134.9621  156.8873 H   0  0  0  0  0  0  0  0  0  0  0  0  # atno 11005 bound_to 11000
  145.1190  139.2706  143.5598 LP  0  0  0  0  0  0  0  0  0  0  0  0  # atno 17320 bound_to 7965
  146.3531  140.0808  142.8618 LP  0  0  0  0  0  0  0  0  0  0  0  0  # atno 17321 bound_to 7965
  140.7360  143.2748  151.3775 LP  0  0  0  0  0  0  0  0  0  0  0  0  # atno 17342 bound_to 10162
  139.6170  144.0983  152.2355 LP  0  0  0  0  0  0  0  0  0  0  0  0  # atno 17343 bound_to 10162
  157.3960  131.0803  151.1351 LP  0  0  0  0  0  0  0  0  0  0  0  0  # atno 17370 bound_to 10713
  157.2028  130.6402  149.5745 LP  0  0  0  0  0  0  0  0  0  0  0  0  # atno 17371 bound_to 10713
  140.5710  134.0443  155.7430 LP  0  0  0  0  0  0  0  0  0  0  0  0  # atno 17394 bound_to 11000
  141.1177  133.9512  157.2789 LP  0  0  0  0  0  0  0  0  0  0  0  0  # atno 17395 bound_to 11000

$$$$
