#       Name:                AV-unprocessed.smi:1803
#       Creating user name   scv26
#       Creation time:       Fri Mar 27 08:54:06 2020


#       File generated by GOLD software.
#

@<TRIPOS>MOLECULE
AV-unprocessed.smi:1803
    40    42     1
SMALL
NO_CHARGES


@<TRIPOS>ATOM
      1 ****        -1.8599  -2.4629  -0.0046 O.2            1 S1                 0.0000
      2 ****        -0.7075  -2.4539  -0.4330 C.2            1 S1                 0.0000
      3 ****         0.0291  -3.5850  -0.4724 N.am           1 S1                 0.0000
      4 ****        -0.2679  -4.9246  -0.0836 C.2            1 S1                 0.0000
      5 ****        -1.4655  -5.3425   0.3588 N.2            1 S1                 0.0000
      6 ****        -1.4706  -6.6989   0.6544 N.2            1 S1                 0.0000
      7 ****        -0.2798  -7.2557   0.4179 C.2            1 S1                 0.0000
      8 ****         0.9636  -6.1757  -0.1879 S.3            1 S1                 0.0000
      9 ****        -0.1130  -1.3380  -0.8861 N.am           1 S1                 0.0000
     10 ****        -0.7143  -0.0091  -0.9256 C.3            1 S1                 0.0000
     11 ****        -0.1366   0.8738  -2.0459 C.3            1 S1                 0.0000
     12 ****        -0.0448   2.2904  -1.4452 C.3            1 S1                 0.0000
     13 ****        -0.6490   2.1856  -0.1036 N.4            1 S1                 1.0000
     14 ****        -0.2351   3.1884   0.9019 C.3            1 S1                 0.0000
     15 ****        -1.0337   2.9638   2.2017 C.3            1 S1                 0.0000
     16 ****        -0.9188   1.5085   2.6993 C.3            1 S1                 0.0000
     17 ****        -1.2707   0.5084   1.5812 C.3            1 S1                 0.0000
     18 ****        -0.4146   0.8024   0.3375 C.3            1 S1                 0.0000
     19 ****         0.9480  -3.4667  -0.8744 H              1 S1                 0.0000
     20 ****        -0.1328  -8.3100   0.6005 H              1 S1                 0.0000
     21 ****         0.8356  -1.4193  -1.2245 H              1 S1                 0.0000
     22 ****        -1.7950  -0.0795  -1.0669 H              1 S1                 0.0000
     23 ****         0.8567   0.5374  -2.3475 H              1 S1                 0.0000
     24 ****        -0.7726   0.8486  -2.9314 H              1 S1                 0.0000
     25 ****         1.0000   2.5944  -1.3634 H              1 S1                 0.0000
     26 ****        -0.5678   3.0332  -2.0481 H              1 S1                 0.0000
     27 ****         0.8362   3.1052   1.0915 H              1 S1                 0.0000
     28 ****        -0.4183   4.1917   0.5160 H              1 S1                 0.0000
     29 ****        -0.6911   3.6519   2.9750 H              1 S1                 0.0000
     30 ****        -2.0840   3.1996   2.0240 H              1 S1                 0.0000
     31 ****         0.0993   1.3230   3.0440 H              1 S1                 0.0000
     32 ****        -1.5694   1.3533   3.5606 H              1 S1                 0.0000
     33 ****        -1.0998  -0.5106   1.9289 H              1 S1                 0.0000
     34 ****        -2.3309   0.5827   1.3348 H              1 S1                 0.0000
     35 ****         0.6429   0.6931   0.5904 H              1 S1                 0.0000
     36 ****        -1.6468   2.2790  -0.2298 H              1 S1                 0.0000
     37 ****        -2.2655  -3.3168   0.3216 LP             1 S1                 0.0000
     38 ****        -2.3917  -1.6163   0.0177 LP             1 S1                 0.0000
     39 ****        -2.2611  -4.7457   0.4631 LP             1 S1                 0.0000
     40 ****        -2.2658  -7.1964   1.0009 LP             1 S1                 0.0000
@<TRIPOS>BOND
    1    1    2 2     
    2    2    3 am    
    3    2    9 am    
    4    3    4 1     
    5    3   19 1     
    6    4    8 1     
    7    4    5 2     
    8    5    6 1     
    9    6    7 2     
   10    7    8 1     
   11    7   20 1     
   12    9   10 1     
   13    9   21 1     
   14   10   18 1     
   15   10   11 1     
   16   10   22 1     
   17   11   12 1     
   18   11   23 1     
   19   11   24 1     
   20   12   13 1     
   21   12   25 1     
   22   12   26 1     
   23   13   18 1     
   24   13   14 1     
   25   13   36 1     
   26   14   15 1     
   27   14   27 1     
   28   14   28 1     
   29   15   16 1     
   30   15   29 1     
   31   15   30 1     
   32   16   17 1     
   33   16   31 1     
   34   16   32 1     
   35   17   18 1     
   36   17   33 1     
   37   17   34 1     
   38   18   35 1     
   39    1   37 1     
   40    1   38 1     
   41    5   39 1     
   42    6   40 1     
@<TRIPOS>SUBSTRUCTURE
      1 S1             1
@<TRIPOS>SET
LONE_PAIRS      STATIC     ATOMS    <user>   **** ""
4 37 38 39 40
DONOR_HYDROGENS      STATIC     ATOMS    <user>   **** ""
3 19 21 36
ATOM$BLUE        STATIC     ATOMS    COLORGROUP SYSTEM
4 37 38 39 40
ATOM$RED        STATIC     ATOMS    COLORGROUP SYSTEM
3 19 21 36
