AV-unprocessed.smi:1230|AV-procd|sdf|5156|dock4
  -GOLD-   22720 4233D 1   1.00000     0.00000
 Structure written by MMmdl.
 39 40  0  0  0  0  0  0  0  0  1 V2000
  150.6522  145.3071  159.8603 C   0  0  0  0  0  0  0  0  0  0  0  0
  151.2064  143.9974  160.4452 C   0  0  2  0  0  0  0  0  0  0  0  0
  152.1811  144.2904  161.6040 C   0  0  0  0  0  0  0  0  0  0  0  0
  152.7592  143.0000  162.2035 C   0  0  0  0  0  0  0  0  0  0  0  0
  153.4445  142.1511  161.1243 C   0  0  0  0  0  0  0  0  0  0  0  0
  152.4785  141.8412  159.9716 C   0  0  0  0  0  0  0  0  0  0  0  0
  151.8887  143.1312  159.3619 C   0  0  1  0  0  0  0  0  0  0  0  0
  150.9052  142.7943  158.3908 O   0  0  0  0  0  0  0  0  0  0  0  0
  151.4285  142.4508  157.1171 C   0  0  0  0  0  0  0  0  0  0  0  0
  150.4748  141.4439  156.4566 C   0  0  0  0  0  0  0  0  0  0  0  0
  150.9964  140.1001  156.4491 N   0  0  0  0  0  0  0  0  0  0  0  0
  151.3821  139.4459  157.6090 C   0  0  0  0  0  0  0  0  0  0  0  0
  151.8566  138.1777  157.6120 C   0  0  0  0  0  0  0  0  0  0  0  0
  152.2484  137.5176  158.8131 C   0  0  0  0  0  0  0  0  0  0  0  0
  152.5820  137.0015  159.7938 N   0  0  0  0  0  0  0  0  0  0  0  0
  151.9836  137.4244  156.3656 C   0  0  0  0  0  0  0  0  0  0  0  0
  152.4038  136.2734  156.2629 O   0  0  0  0  0  0  0  0  0  0  0  0
  151.5744  138.1238  155.2255 N   0  0  0  0  0  0  0  0  0  0  0  0
  151.0805  139.4299  155.2058 C   0  0  0  0  0  0  0  0  0  0  0  0
  150.7404  139.9410  154.1388 O   0  0  0  0  0  0  0  0  0  0  0  0
  151.6390  137.6418  154.3406 H   0  0  0  0  0  0  0  0  0  0  0  0
  151.4457  145.9105  159.4187 H   0  0  0  0  0  0  0  0  0  0  0  0
  150.1679  145.9067  160.6314 H   0  0  0  0  0  0  0  0  0  0  0  0
  149.9107  145.1143  159.0847 H   0  0  0  0  0  0  0  0  0  0  0  0
  150.3650  143.4333  160.8509 H   0  0  0  0  0  0  0  0  0  0  0  0
  152.9970  144.9210  161.2484 H   0  0  0  0  0  0  0  0  0  0  0  0
  151.6727  144.8575  162.3846 H   0  0  0  0  0  0  0  0  0  0  0  0
  153.4706  143.2430  162.9931 H   0  0  0  0  0  0  0  0  0  0  0  0
  151.9607  142.4233  162.6721 H   0  0  0  0  0  0  0  0  0  0  0  0
  154.3164  142.6813  160.7391 H   0  0  0  0  0  0  0  0  0  0  0  0
  153.8138  141.2226  161.5602 H   0  0  0  0  0  0  0  0  0  0  0  0
  153.0033  141.2618  159.2126 H   0  0  0  0  0  0  0  0  0  0  0  0
  151.6694  141.2075  160.3373 H   0  0  0  0  0  0  0  0  0  0  0  0
  152.6871  143.7186  158.9040 H   0  0  0  0  0  0  0  0  0  0  0  0
  151.5118  143.3445  156.4967 H   0  0  0  0  0  0  0  0  0  0  0  0
  152.4261  142.0235  157.2147 H   0  0  0  0  0  0  0  0  0  0  0  0
  149.4934  141.4183  156.9353 H   0  0  0  0  0  0  0  0  0  0  0  0
  150.2992  141.7088  155.4129 H   0  0  0  0  0  0  0  0  0  0  0  0
  151.3007  139.9644  158.5541 H   0  0  0  0  0  0  0  0  0  0  0  0
  1  2  1  0  0  0  0
  1 22  1  0  0  0  0
  1 23  1  0  0  0  0
  1 24  1  0  0  0  0
  2  7  1  0  0  0  0
  2  3  1  0  0  0  0
  2 25  1  0  0  0  0
  3  4  1  0  0  0  0
  3 26  1  0  0  0  0
  3 27  1  0  0  0  0
  4  5  1  0  0  0  0
  4 28  1  0  0  0  0
  4 29  1  0  0  0  0
  5  6  1  0  0  0  0
  5 30  1  0  0  0  0
  5 31  1  0  0  0  0
  6  7  1  0  0  0  0
  6 32  1  0  0  0  0
  6 33  1  0  0  0  0
  7  8  1  0  0  0  0
  7 34  1  0  0  0  0
  8  9  1  0  0  0  0
  9 10  1  0  0  0  0
  9 35  1  0  0  0  0
  9 36  1  0  0  0  0
 10 11  1  0  0  0  0
 10 37  1  0  0  0  0
 10 38  1  0  0  0  0
 11 19  1  0  0  0  0
 11 12  1  0  0  0  0
 12 13  2  0  0  0  0
 12 39  1  0  0  0  0
 13 14  1  0  0  0  0
 13 16  1  0  0  0  0
 14 15  3  0  0  0  0
 16 17  2  0  0  0  0
 16 18  1  0  0  0  0
 18 21  1  0  0  0  0
 18 19  1  0  0  0  0
 19 20  2  0  0  0  0
M  END
> <s_m_source_file>
AV-unprocessed.smi

> <i_m_source_file_index>
1230

> <i_lp_mmshare_version>
43012

> <i_f3d_flags>
0

> <s_epik_input>
W0NIM11bQ0BASF0xW0NIMl1bQ0gyXVtDSDJdW0NIMl1bQ0BIXTFPW0NIMl1bQ0gyXW4yW2NIXWMoQyNOKWMoPU8pW25IXWMyPU8=

> <s_epik_cmdline>
J2VwaWtfcHl0aG9uJywgJy1waCcsICc3LjAnLCAnLXRuJywgJzgnLCAnLW1hJywgJzIwMCcsICctbWV0YWxfYmluZGluZycsICctaW1hZScsICc8aW5maWxlLm1hZT4nLCAnLW9tYWUnLCAnPG91dGZpbGUubWFlPic=

> <r_epik_Ionization_Penalty>
0.421541

> <r_epik_Ionization_Penalty_Charging>
0.421541

> <r_epik_Ionization_Penalty_Neutral>
2.29267e-11

> <r_epik_State_Penalty>
0.422277

> <r_epik_Charging_Adjusted_Penalty>
0.843818

> <i_epik_Tot_Q>
0

> <i_epik_Tot_abs_Q>
0

> <r_epik_Metal_State_Penalty>
4.11629

> <b_epik_Metal_Only>
0

> <s_lp_Force_Field>
OPLS_2005

> <r_lp_Energy>
13.3679

> <b_lp_Chiralities_Consistent>
1

> <s_lp_Variant>
AV-unprocessed.smi:1230-5

> <Gold.Version>
5.8.1

> <Gold.Id.Protein>
6NUR|6NUR_protein|mol2

> <Gold.PLP.Fitness>
47.8312

> <Gold.PLP.PLP>
-40.3347

> <Gold.PLP.part.hbond>
-3.0000

> <Gold.PLP.part.metal>
0.0000

> <Gold.PLP.part.buried>
-6.5497

> <Gold.PLP.part.nonpolar>
-32.1616

> <Gold.PLP.part.repulsive>
0.3654

> <Gold.PLP.ligand.clash>
0.0000

> <Gold.PLP.ligand.torsion>
0.7587

> <Gold.PLP.Chemscore.Hbond>
3.0000

> <Gold.PLP.Chemscore.CHOScore>
0.0000

> <Gold.PLP.Chemscore.Metal>
0.0000

> <Gold.Chemscore.Hbonds>
donor molecule, donor type, donor heavy atom, donor atom, acceptor molecule, acceptor atom, score
      P1  H  6896  6907       L1    15  1.00
      P1  H  7989  7998       L1    20  0.76
      P1  H 10752 10765       L1    17  1.00

> <Gold.PLP.Chemscore.Internal.Correction>
0.0138

> <Gold.Rescore>
     Score         DG    S(hbond)    S(metal)    S(lipo)     H(rot)  DE(clash)    DE(int)     intcor
     21.02     -21.84       2.94        0.00      98.42       1.94       0.02       0.80       ----

> <Gold.Chemscore.Fitness>
21.0249

> <Gold.Chemscore.DG>
-21.8416

> <Gold.Chemscore.ZeroCoef>
-5.4800

> <Gold.Chemscore.Hbond>
2.9369

> <Gold.Chemscore.Metal>
0.0000

> <Gold.Chemscore.Lipo>
98.4174

> <Gold.Chemscore.Internal_Hbond>
0.0000

> <Gold.Chemscore.DEClash>
0.0186

> <Gold.Chemscore.DEInternal>
0.7981

> <Gold.Chemscore.Rot>
1.9385

> <Gold.Chemscore.Internal.Correction>
   9.000000E+99

> <Gold.Chemscore.Hbonds>
donor molecule, donor type, donor heavy atom, donor atom, acceptor molecule, acceptor atom, score
      P1  H  6896  6907       L1    15  0.87
      P1  H  7989  7998       L1    20  0.73
      P1  H 10752 10765       L1    17  0.99

> <Gold.Chemscore.Hbond.Weighted>
-9.8093

> <Gold.Chemscore.Metal.Weighted>
-0.0000

> <Gold.Chemscore.Lipo.Weighted>
-11.5148

> <Gold.Chemscore.Internal_Hbond.Weighted>
0.0000

> <Gold.Chemscore.DEClash.Weighted>
0.0186

> <Gold.Chemscore.DEInternal.Weighted>
0.7981

> <Gold.Chemscore.Rot.Weighted>
4.9625

> <Gold.Chemscore.Internal.Correction.Weighted>
   9.000000E+99

> <Gold.Protein.RotatedTorsions>
[ 6907 6896 6895 6894 ] final   23.72 input  -60.11 | X-H torsion
[ 7974 7965 7964 7962 ] final -158.45 input  175.53 | X-H torsion
[ 8008 7997 7996 7995 ] final  -60.72 input   59.86 | X-H torsion
[ 10167 10162 10161 10158 ] final  -34.32 input  -65.29 | X-H torsion
[ 10718 10713 10712 10709 ] final   72.15 input   66.30 | X-H torsion
[ 10763 10752 10751 10750 ] final -145.86 input  -60.55 | X-H torsion
[ 11005 11000 10999 10996 ] final  -21.40 input  -57.11 | X-H torsion

> <Gold.Protein.ActiveResidues>
 VAL166  LYS551  ARG553  GLY616  TRP617  ASP618  TYR619  PRO620  LYS621  CYS622 
 ASP623  PHE694  ASN695  SER759  ASP760  ASP761  ALA762  ILE779  LEU786  VAL792 
 PHE793  MET794  SER795  GLU796  ALA797  LYS798  CYS799  TRP800  GLU811  SER814 

> <Gold.Protein.RotatedAtoms>
  151.9466  135.0188  160.0539 H   0  0  0  0  0  0  0  0  0  0  0  0  # atno 6907 bound_to 6896
  152.1989  133.4822  159.5056 H   0  0  0  0  0  0  0  0  0  0  0  0  # atno 6908 bound_to 6896
  150.6950  134.1533  159.4191 H   0  0  0  0  0  0  0  0  0  0  0  0  # atno 6909 bound_to 6896
  144.7505  140.3826  143.6051 H   0  0  0  0  0  0  0  0  0  0  0  0  # atno 7974 bound_to 7965
  154.4412  140.1033  156.6318 H   0  0  0  0  0  0  0  0  0  0  0  0  # atno 8008 bound_to 7997
  155.5596  140.3487  155.4469 H   0  0  0  0  0  0  0  0  0  0  0  0  # atno 8009 bound_to 7997
  156.0469  140.1295  157.0083 H   0  0  0  0  0  0  0  0  0  0  0  0  # atno 8010 bound_to 7997
  140.7188  143.3556  151.2066 H   0  0  0  0  0  0  0  0  0  0  0  0  # atno 10167 bound_to 10162
  157.6487  130.9564  150.0888 H   0  0  0  0  0  0  0  0  0  0  0  0  # atno 10718 bound_to 10713
  154.8363  135.3402  154.6571 H   0  0  0  0  0  0  0  0  0  0  0  0  # atno 10763 bound_to 10752
  153.7185  135.6959  153.5023 H   0  0  0  0  0  0  0  0  0  0  0  0  # atno 10764 bound_to 10752
  153.2399  135.4388  155.0639 H   0  0  0  0  0  0  0  0  0  0  0  0  # atno 10765 bound_to 10752
  140.8557  133.7824  156.0017 H   0  0  0  0  0  0  0  0  0  0  0  0  # atno 11005 bound_to 11000
  145.6961  139.1650  143.2619 LP  0  0  0  0  0  0  0  0  0  0  0  0  # atno 17320 bound_to 7965
  146.1448  140.7007  142.9350 LP  0  0  0  0  0  0  0  0  0  0  0  0  # atno 17321 bound_to 7965
  139.7097  143.9397  152.2942 LP  0  0  0  0  0  0  0  0  0  0  0  0  # atno 17342 bound_to 10162
  139.9118  144.6852  150.8554 LP  0  0  0  0  0  0  0  0  0  0  0  0  # atno 17343 bound_to 10162
  156.1843  130.3651  149.8993 LP  0  0  0  0  0  0  0  0  0  0  0  0  # atno 17370 bound_to 10713
  156.6937  130.8906  151.3591 LP  0  0  0  0  0  0  0  0  0  0  0  0  # atno 17371 bound_to 10713
  140.8740  134.2692  157.5177 LP  0  0  0  0  0  0  0  0  0  0  0  0  # atno 17394 bound_to 11000
  139.8705  134.9581  156.4291 LP  0  0  0  0  0  0  0  0  0  0  0  0  # atno 17395 bound_to 11000

$$$$
