AV-unprocessed.smi:2274|AV-procd|sdf|9169|dock2
  -GOLD-   2272012383D 1   1.00000     0.00000
 Structure written by MMmdl.
 47 48  0  0  0  0  0  0  0  0  1 V2000
  151.2079  141.7898  156.0758 C   0  0  0  0  0  0  0  0  0  0  0  0
  151.6918  140.7812  155.0212 C   0  0  0  0  0  0  0  0  0  0  0  0
  150.6611  140.3960  154.0643 N   0  0  0  0  0  0  0  0  0  0  0  0
  150.0595  141.3539  153.3145 N   0  0  0  0  0  0  0  0  0  0  0  0
  149.1519  140.7224  152.5902 C   0  0  0  0  0  0  0  0  0  0  0  0
  148.2934  141.4955  151.6310 C   0  0  0  0  0  0  0  0  0  0  0  0
  149.1674  139.3304  152.8670 C   0  0  0  0  0  0  0  0  0  0  0  0
  148.2894  138.3867  152.2776 N   0  0  0  0  0  0  0  0  0  0  0  0
  146.9952  138.5726  151.9759 C   0  0  0  0  0  0  0  0  0  0  0  0
  146.3616  139.6043  152.1988 O   0  0  0  0  0  0  0  0  0  0  0  0
  146.4635  137.4802  151.4101 N   0  0  0  0  0  0  0  0  0  0  0  0
  145.0834  137.3593  150.9552 C   0  0  0  0  0  0  0  0  0  0  0  0
  144.4137  136.0899  151.5097 C   0  0  0  0  0  0  0  0  0  0  0  0
  144.7476  134.8310  150.6941 C   0  0  1  0  0  0  0  0  0  0  0  0
  145.7719  133.9333  151.4160 C   0  0  0  0  0  0  0  0  0  0  0  0
  146.0206  132.6484  150.6179 C   0  0  0  0  0  0  0  0  0  0  0  0
  144.6846  131.9603  150.3202 C   0  0  0  0  0  0  0  0  0  0  0  0
  143.7129  132.9492  149.6576 C   0  0  0  0  0  0  0  0  0  0  0  0
  143.5438  134.0933  150.4892 O   0  0  0  0  0  0  0  0  0  0  0  0
  150.1015  139.1436  153.8522 C   0  0  0  0  0  0  0  0  0  0  0  0
  150.5144  137.9341  154.6332 C   0  0  0  0  0  0  0  0  0  0  0  0
  152.0308  142.0933  156.7230 H   0  0  0  0  0  0  0  0  0  0  0  0
  150.4318  141.3658  156.7135 H   0  0  0  0  0  0  0  0  0  0  0  0
  150.8065  142.6883  155.6062 H   0  0  0  0  0  0  0  0  0  0  0  0
  152.5295  141.2192  154.4789 H   0  0  0  0  0  0  0  0  0  0  0  0
  152.0631  139.8776  155.5054 H   0  0  0  0  0  0  0  0  0  0  0  0
  147.4255  140.9156  151.3170 H   0  0  0  0  0  0  0  0  0  0  0  0
  148.8548  141.7629  150.7357 H   0  0  0  0  0  0  0  0  0  0  0  0
  147.9270  142.4175  152.0831 H   0  0  0  0  0  0  0  0  0  0  0  0
  148.6545  137.4525  152.1630 H   0  0  0  0  0  0  0  0  0  0  0  0
  147.0591  136.6767  151.2733 H   0  0  0  0  0  0  0  0  0  0  0  0
  144.5434  138.2450  151.2906 H   0  0  0  0  0  0  0  0  0  0  0  0
  145.0461  137.3677  149.8647 H   0  0  0  0  0  0  0  0  0  0  0  0
  144.7347  135.9389  152.5412 H   0  0  0  0  0  0  0  0  0  0  0  0
  143.3320  136.2266  151.5433 H   0  0  0  0  0  0  0  0  0  0  0  0
  145.1527  135.1348  149.7270 H   0  0  0  0  0  0  0  0  0  0  0  0
  146.7109  134.4691  151.5596 H   0  0  0  0  0  0  0  0  0  0  0  0
  145.4025  133.6780  152.4100 H   0  0  0  0  0  0  0  0  0  0  0  0
  146.5270  132.8884  149.6820 H   0  0  0  0  0  0  0  0  0  0  0  0
  146.6804  131.9781  151.1694 H   0  0  0  0  0  0  0  0  0  0  0  0
  144.8405  131.0931  149.6781 H   0  0  0  0  0  0  0  0  0  0  0  0
  144.2485  131.5893  151.2484 H   0  0  0  0  0  0  0  0  0  0  0  0
  144.0747  133.2521  148.6737 H   0  0  0  0  0  0  0  0  0  0  0  0
  142.7421  132.4767  149.5071 H   0  0  0  0  0  0  0  0  0  0  0  0
  149.7228  137.1854  154.6469 H   0  0  0  0  0  0  0  0  0  0  0  0
  150.7296  138.1863  155.6714 H   0  0  0  0  0  0  0  0  0  0  0  0
  151.4055  137.4792  154.2001 H   0  0  0  0  0  0  0  0  0  0  0  0
  1  2  1  0  0  0  0
  1 22  1  0  0  0  0
  1 23  1  0  0  0  0
  1 24  1  0  0  0  0
  2  3  1  0  0  0  0
  2 25  1  0  0  0  0
  2 26  1  0  0  0  0
  3 20  1  0  0  0  0
  3  4  1  0  0  0  0
  4  5  2  0  0  0  0
  5  6  1  0  0  0  0
  5  7  1  0  0  0  0
  6 27  1  0  0  0  0
  6 28  1  0  0  0  0
  6 29  1  0  0  0  0
  7  8  1  0  0  0  0
  7 20  2  0  0  0  0
  8  9  1  0  0  0  0
  8 30  1  0  0  0  0
  9 10  2  0  0  0  0
  9 11  1  0  0  0  0
 11 12  1  0  0  0  0
 11 31  1  0  0  0  0
 12 13  1  0  0  0  0
 12 32  1  0  0  0  0
 12 33  1  0  0  0  0
 13 14  1  0  0  0  0
 13 34  1  0  0  0  0
 13 35  1  0  0  0  0
 14 19  1  0  0  0  0
 14 15  1  0  0  0  0
 14 36  1  0  0  0  0
 15 16  1  0  0  0  0
 15 37  1  0  0  0  0
 15 38  1  0  0  0  0
 16 17  1  0  0  0  0
 16 39  1  0  0  0  0
 16 40  1  0  0  0  0
 17 18  1  0  0  0  0
 17 41  1  0  0  0  0
 17 42  1  0  0  0  0
 18 19  1  0  0  0  0
 18 43  1  0  0  0  0
 18 44  1  0  0  0  0
 20 21  1  0  0  0  0
 21 45  1  0  0  0  0
 21 46  1  0  0  0  0
 21 47  1  0  0  0  0
M  END
> <s_m_source_file>
AV-unprocessed.smi

> <i_m_source_file_index>
2274

> <i_lp_mmshare_version>
43012

> <i_f3d_flags>
0

> <s_epik_input>
W0NIM11bQ0gyXW4xbmMoW0NIM10pYyhjMVtDSDNdKVtOSF1DKD1PKVtOSF1bQ0gyXVtDSDJdW0NAQEhdMltDSDJdW0NIMl1bQ0gyXVtDSDJdTzI=

> <s_epik_cmdline>
J2VwaWtfcHl0aG9uJywgJy1waCcsICc3LjAnLCAnLXRuJywgJzgnLCAnLW1hJywgJzIwMCcsICctbWV0YWxfYmluZGluZycsICctaW1hZScsICc8aW5maWxlLm1hZT4nLCAnLW9tYWUnLCAnPG91dGZpbGUubWFlPic=

> <r_lp_tautomer_probability>
1

> <r_epik_Ionization_Penalty>
0.00368263

> <r_epik_Ionization_Penalty_Charging>
0

> <r_epik_Ionization_Penalty_Neutral>
0.00368263

> <r_epik_State_Penalty>
0.00259417

> <r_epik_Charging_Adjusted_Penalty>
0.00259417

> <i_epik_Tot_Q>
0

> <i_epik_Tot_abs_Q>
0

> <r_epik_Metal_State_Penalty>
-0

> <b_epik_Metal_Only>
0

> <s_lp_Force_Field>
OPLS_2005

> <r_lp_Energy>
13.1283

> <b_lp_Chiralities_Consistent>
1

> <s_lp_Variant>
AV-unprocessed.smi:2274-2

> <Gold.Version>
5.8.1

> <Gold.Id.Protein>
6NUR|6NUR_protein|mol2

> <Gold.PLP.Fitness>
43.2699

> <Gold.PLP.PLP>
-39.2425

> <Gold.PLP.part.hbond>
-2.9206

> <Gold.PLP.part.metal>
0.0000

> <Gold.PLP.part.buried>
-3.5344

> <Gold.PLP.part.nonpolar>
-33.2950

> <Gold.PLP.part.repulsive>
0.5062

> <Gold.PLP.ligand.clash>
0.0000

> <Gold.PLP.ligand.torsion>
1.1018

> <Gold.PLP.Chemscore.Hbond>
1.9600

> <Gold.PLP.Chemscore.CHOScore>
0.0000

> <Gold.PLP.Chemscore.Metal>
0.0000

> <Gold.Chemscore.Hbonds>
donor molecule, donor type, donor heavy atom, donor atom, acceptor molecule, acceptor atom, score
      L1  H     8    30       P1  7948  0.32
      L1  H    11    31       P1  7948  0.69
      P1  H  8011  8017       L1     4  0.07

> <Gold.PLP.Chemscore.Internal.Correction>
0.3511

> <Gold.Rescore>
     Score         DG    S(hbond)    S(metal)    S(lipo)     H(rot)  DE(clash)    DE(int)     intcor
     16.47     -18.89       1.92        0.00      91.59       1.46       0.09       2.33       ----

> <Gold.Chemscore.Fitness>
16.4669

> <Gold.Chemscore.DG>
-18.8854

> <Gold.Chemscore.ZeroCoef>
-5.4800

> <Gold.Chemscore.Hbond>
1.9249

> <Gold.Chemscore.Metal>
0.0000

> <Gold.Chemscore.Lipo>
91.5869

> <Gold.Chemscore.Internal_Hbond>
0.0000

> <Gold.Chemscore.DEClash>
0.0868

> <Gold.Chemscore.DEInternal>
2.3318

> <Gold.Chemscore.Rot>
1.4606

> <Gold.Chemscore.Internal.Correction>
   9.000000E+99

> <Gold.Chemscore.Hbonds>
donor molecule, donor type, donor heavy atom, donor atom, acceptor molecule, acceptor atom, score
      L1  H     8    30       P1  7948  0.33
      L1  H    11    31       P1  7948  0.66

> <Gold.Chemscore.Hbond.Weighted>
-6.4290

> <Gold.Chemscore.Metal.Weighted>
-0.0000

> <Gold.Chemscore.Lipo.Weighted>
-10.7157

> <Gold.Chemscore.Internal_Hbond.Weighted>
0.0000

> <Gold.Chemscore.DEClash.Weighted>
0.0868

> <Gold.Chemscore.DEInternal.Weighted>
2.3318

> <Gold.Chemscore.Rot.Weighted>
3.7393

> <Gold.Chemscore.Internal.Correction.Weighted>
   9.000000E+99

> <Gold.Protein.RotatedTorsions>
[ 6907 6896 6895 6894 ] final -100.23 input  -60.11 | X-H torsion
[ 7974 7965 7964 7962 ] final -152.60 input  175.53 | X-H torsion
[ 8008 7997 7996 7995 ] final   -0.55 input   59.86 | X-H torsion
[ 10167 10162 10161 10158 ] final  -34.49 input  -65.29 | X-H torsion
[ 10718 10713 10712 10709 ] final  -35.00 input   66.30 | X-H torsion
[ 10763 10752 10751 10750 ] final  144.48 input  -60.55 | X-H torsion
[ 11005 11000 10999 10996 ] final   -5.85 input  -57.11 | X-H torsion

> <Gold.Protein.ActiveResidues>
 VAL166  LYS551  ARG553  GLY616  TRP617  ASP618  TYR619  PRO620  LYS621  CYS622 
 ASP623  PHE694  ASN695  SER759  ASP760  ASP761  ALA762  ILE779  LEU786  VAL792 
 PHE793  MET794  SER795  GLU796  ALA797  LYS798  CYS799  TRP800  GLU811  SER814 

> <Gold.Protein.RotatedAtoms>
  150.7108  134.0919  159.3934 H   0  0  0  0  0  0  0  0  0  0  0  0  # atno 6907 bound_to 6896
  151.8905  135.0416  160.0506 H   0  0  0  0  0  0  0  0  0  0  0  0  # atno 6908 bound_to 6896
  152.2496  133.5168  159.5354 H   0  0  0  0  0  0  0  0  0  0  0  0  # atno 6909 bound_to 6896
  144.7785  140.4639  143.5856 H   0  0  0  0  0  0  0  0  0  0  0  0  # atno 7974 bound_to 7965
  154.6568  140.2581  155.7153 H   0  0  0  0  0  0  0  0  0  0  0  0  # atno 8008 bound_to 7997
  156.2600  140.2857  156.0945 H   0  0  0  0  0  0  0  0  0  0  0  0  # atno 8009 bound_to 7997
  155.1368  140.0379  157.2779 H   0  0  0  0  0  0  0  0  0  0  0  0  # atno 8010 bound_to 7997
  140.7184  143.3544  151.2089 H   0  0  0  0  0  0  0  0  0  0  0  0  # atno 10167 bound_to 10162
  156.3439  130.4298  149.7763 H   0  0  0  0  0  0  0  0  0  0  0  0  # atno 10718 bound_to 10713
  153.9896  135.2933  155.3413 H   0  0  0  0  0  0  0  0  0  0  0  0  # atno 10763 bound_to 10752
  154.7222  135.5104  153.8833 H   0  0  0  0  0  0  0  0  0  0  0  0  # atno 10764 bound_to 10752
  153.0816  135.6680  154.0150 H   0  0  0  0  0  0  0  0  0  0  0  0  # atno 10765 bound_to 10752
  140.6956  133.9034  155.8647 H   0  0  0  0  0  0  0  0  0  0  0  0  # atno 11005 bound_to 11000
  145.6117  139.1514  143.3072 LP  0  0  0  0  0  0  0  0  0  0  0  0  # atno 17320 bound_to 7965
  146.1979  140.6232  142.9115 LP  0  0  0  0  0  0  0  0  0  0  0  0  # atno 17321 bound_to 7965
  139.7083  143.9419  152.2936 LP  0  0  0  0  0  0  0  0  0  0  0  0  # atno 17342 bound_to 10162
  139.9135  144.6842  150.8536 LP  0  0  0  0  0  0  0  0  0  0  0  0  # atno 17343 bound_to 10162
  156.4989  130.8120  151.3125 LP  0  0  0  0  0  0  0  0  0  0  0  0  # atno 17370 bound_to 10713
  157.7451  130.9951  150.2731 LP  0  0  0  0  0  0  0  0  0  0  0  0  # atno 17371 bound_to 10713
  141.0206  134.0894  157.4124 LP  0  0  0  0  0  0  0  0  0  0  0  0  # atno 17394 bound_to 11000
  139.8911  135.0116  156.6773 LP  0  0  0  0  0  0  0  0  0  0  0  0  # atno 17395 bound_to 11000

$$$$
