#       Name:                AV-unprocessed.smi:1302
#       Creating user name   scv26
#       Creation time:       Fri Mar 27 04:58:35 2020


#       File generated by GOLD software.
#

@<TRIPOS>MOLECULE
AV-unprocessed.smi:1302
    49    50     1
SMALL
NO_CHARGES


@<TRIPOS>ATOM
      1 ****        -6.2410   0.0311   0.9706 C.3            1 S1                 0.0000
      2 ****        -5.5696  -0.4889  -0.3102 C.3            1 S1                 0.0000
      3 ****        -5.8819  -1.9715  -0.5519 C.3            1 S1                 0.0000
      4 ****        -4.1235  -0.3026  -0.2377 N.am           1 S1                 0.0000
      5 ****        -3.4652   0.8231  -0.5614 C.2            1 S1                 0.0000
      6 ****        -4.0175   1.8362  -0.9912 O.2            1 S1                 0.0000
      7 ****        -1.9711   0.7609  -0.4285 C.ar           1 S1                 0.0000
      8 ****        -1.1413   1.5279  -1.2724 C.ar           1 S1                 0.0000
      9 ****         0.2553   1.4644  -1.1045 C.ar           1 S1                 0.0000
     10 ****         0.7927   0.6382  -0.0893 C.ar           1 S1                 0.0000
     11 ****         2.1902   0.5569   0.0947 N.3            1 S1                 0.0000
     12 ****         2.9669   0.2329  -1.0989 C.3            1 S1                 0.0000
     13 ****         4.4662   0.4843  -0.8501 C.3            1 S1                 0.0000
     14 ****         5.3281   0.0379  -2.0357 C.3            1 S1                 0.0000
     15 ****         4.8801  -0.2446   0.3021 O.3            1 S1                 0.0000
     16 ****         4.1910   0.1630   1.4807 C.3            1 S1                 0.0000
     17 ****         4.7739  -0.6074   2.6698 C.3            1 S1                 0.0000
     18 ****         2.6851  -0.1028   1.3012 C.3            1 S1                 0.0000
     19 ****        -0.0075  -0.0840   0.7332 N.ar           1 S1                 0.0000
     20 ****        -1.3455  -0.0206   0.5681 C.ar           1 S1                 0.0000
     21 ****        -7.3228  -0.0952   0.9232 H              1 S1                 0.0000
     22 ****        -6.0416   1.0928   1.1193 H              1 S1                 0.0000
     23 ****        -5.8822  -0.5021   1.8518 H              1 S1                 0.0000
     24 ****        -5.9604   0.0741  -1.1597 H              1 S1                 0.0000
     25 ****        -6.9564  -2.1359  -0.6387 H              1 S1                 0.0000
     26 ****        -5.5153  -2.5943   0.2648 H              1 S1                 0.0000
     27 ****        -5.4200  -2.3249  -1.4746 H              1 S1                 0.0000
     28 ****        -3.5809  -1.0914   0.0833 H              1 S1                 0.0000
     29 ****        -1.5618   2.1594  -2.0418 H              1 S1                 0.0000
     30 ****         0.8921   2.0589  -1.7424 H              1 S1                 0.0000
     31 ****         2.7980  -0.8150  -1.3508 H              1 S1                 0.0000
     32 ****         2.6468   0.8199  -1.9587 H              1 S1                 0.0000
     33 ****         4.6363   1.5490  -0.6797 H              1 S1                 0.0000
     34 ****         5.0590   0.5798  -2.9426 H              1 S1                 0.0000
     35 ****         5.2062  -1.0275  -2.2331 H              1 S1                 0.0000
     36 ****         6.3848   0.2215  -1.8399 H              1 S1                 0.0000
     37 ****         4.3589   1.2291   1.6434 H              1 S1                 0.0000
     38 ****         4.2824  -0.3231   3.6006 H              1 S1                 0.0000
     39 ****         5.8392  -0.4040   2.7810 H              1 S1                 0.0000
     40 ****         4.6517  -1.6833   2.5411 H              1 S1                 0.0000
     41 ****         2.1469   0.2627   2.1768 H              1 S1                 0.0000
     42 ****         2.4981  -1.1750   1.2260 H              1 S1                 0.0000
     43 ****        -1.9261  -0.6119   1.2612 H              1 S1                 0.0000
     44 ****        -5.0095   1.8501  -1.1161 LP             1 S1                 0.0000
     45 ****        -3.4739   2.6452  -1.2153 LP             1 S1                 0.0000
     46 ****         2.3770   1.5206   0.2857 LP             1 S1                 0.0000
     47 ****         5.8605  -0.1010   0.4377 LP             1 S1                 0.0000
     48 ****         4.7039  -1.2167   0.1473 LP             1 S1                 0.0000
     49 ****         0.3882  -0.6555   1.4521 LP             1 S1                 0.0000
@<TRIPOS>BOND
    1    1    2 1     
    2    1   21 1     
    3    1   22 1     
    4    1   23 1     
    5    2    3 1     
    6    2    4 1     
    7    2   24 1     
    8    3   25 1     
    9    3   26 1     
   10    3   27 1     
   11    4    5 am    
   12    4   28 1     
   13    5    6 2     
   14    5    7 1     
   15    7   20 ar    
   16    7    8 ar    
   17    8    9 ar    
   18    8   29 1     
   19    9   10 ar    
   20    9   30 1     
   21   10   11 1     
   22   10   19 ar    
   23   11   18 1     
   24   11   12 1     
   25   12   13 1     
   26   12   31 1     
   27   12   32 1     
   28   13   14 1     
   29   13   15 1     
   30   13   33 1     
   31   14   34 1     
   32   14   35 1     
   33   14   36 1     
   34   15   16 1     
   35   16   17 1     
   36   16   18 1     
   37   16   37 1     
   38   17   38 1     
   39   17   39 1     
   40   17   40 1     
   41   18   41 1     
   42   18   42 1     
   43   19   20 ar    
   44   20   43 1     
   45    6   44 1     
   46    6   45 1     
   47   11   46 1     
   48   15   47 1     
   49   15   48 1     
   50   19   49 1     
@<TRIPOS>SUBSTRUCTURE
      1 S1             1
@<TRIPOS>SET
LONE_PAIRS      STATIC     ATOMS    <user>   **** ""
6 44 45 46 47 48 49
DONOR_HYDROGENS      STATIC     ATOMS    <user>   **** ""
1 28
ATOM$BLUE        STATIC     ATOMS    COLORGROUP SYSTEM
6 44 45 46 47 48 49
ATOM$RED        STATIC     ATOMS    COLORGROUP SYSTEM
1 28
