#       Name:                AV-unprocessed.smi:2062
#       Creating user name   scv26
#       Creation time:       Fri Mar 27 11:08:14 2020


#       File generated by GOLD software.
#

@<TRIPOS>MOLECULE
AV-unprocessed.smi:2062
    48    49     1
SMALL
NO_CHARGES


@<TRIPOS>ATOM
      1 ****        -4.2035   2.7182   0.7470 C.3            1 S1                 0.0000
      2 ****        -2.6704   2.6329   0.7061 C.3            1 S1                 0.0000
      3 ****        -2.1586   2.8693  -0.7248 C.3            1 S1                 0.0000
      4 ****        -2.1873   1.2806   1.2721 C.3            1 S1                 0.0000
      5 ****        -0.7096   1.1994   1.4000 N.4            1 S1                 1.0000
      6 ****        -0.1727   1.9325   2.5730 C.3            1 S1                 0.0000
      7 ****         1.3605   1.8315   2.6125 C.3            1 S1                 0.0000
      8 ****         1.7465   0.4630   2.6291 O.3            1 S1                 0.0000
      9 ****         1.3254  -0.2305   1.4599 C.3            1 S1                 0.0000
     10 ****         1.8992  -1.6591   1.5297 C.3            1 S1                 0.0000
     11 ****         1.5561  -2.4630   0.3604 N.am           1 S1                 0.0000
     12 ****         2.0927  -2.3099  -0.8587 C.2            1 S1                 0.0000
     13 ****         2.9381  -1.4543  -1.1218 O.2            1 S1                 0.0000
     14 ****         1.5855  -3.1975  -1.7319 N.am           1 S1                 0.0000
     15 ****         1.8898  -3.3407  -3.1111 C.2            1 S1                 0.0000
     16 ****         2.7608  -2.5718  -3.7753 N.2            1 S1                 0.0000
     17 ****         2.8626  -2.9359  -5.1202 C.2            1 S1                 0.0000
     18 ****         2.0539  -3.9897  -5.4661 C.2            1 S1                 0.0000
     19 ****         1.1286  -4.5719  -4.1081 S.3            1 S1                 0.0000
     20 ****        -0.2161  -0.1981   1.3922 C.3            1 S1                 0.0000
     21 ****        -4.6611   1.9440   0.1301 H              1 S1                 0.0000
     22 ****        -4.5537   3.6843   0.3819 H              1 S1                 0.0000
     23 ****        -4.5783   2.5979   1.7641 H              1 S1                 0.0000
     24 ****        -2.2943   3.4395   1.3350 H              1 S1                 0.0000
     25 ****        -2.5070   2.0905  -1.4040 H              1 S1                 0.0000
     26 ****        -1.0692   2.8821  -0.7636 H              1 S1                 0.0000
     27 ****        -2.5076   3.8269  -1.1120 H              1 S1                 0.0000
     28 ****        -2.6426   1.0839   2.2441 H              1 S1                 0.0000
     29 ****        -2.5394   0.4889   0.6088 H              1 S1                 0.0000
     30 ****        -0.4626   2.9821   2.5351 H              1 S1                 0.0000
     31 ****        -0.5943   1.5173   3.4897 H              1 S1                 0.0000
     32 ****         1.8086   2.3409   1.7577 H              1 S1                 0.0000
     33 ****         1.7453   2.3169   3.5095 H              1 S1                 0.0000
     34 ****         1.7392   0.2780   0.5871 H              1 S1                 0.0000
     35 ****         2.9845  -1.6226   1.6378 H              1 S1                 0.0000
     36 ****         1.5198  -2.1692   2.4154 H              1 S1                 0.0000
     37 ****         0.8723  -3.1938   0.4935 H              1 S1                 0.0000
     38 ****         0.9013  -3.8453  -1.3700 H              1 S1                 0.0000
     39 ****         3.5375  -2.3896  -5.7624 H              1 S1                 0.0000
     40 ****         1.9476  -4.4571  -6.4337 H              1 S1                 0.0000
     41 ****        -0.6442  -0.7421   2.2359 H              1 S1                 0.0000
     42 ****        -0.5575  -0.6942   0.4829 H              1 S1                 0.0000
     43 ****        -0.3252   1.6367   0.5743 H              1 S1                 0.0000
     44 ****         1.3378   0.0231   3.4287 LP             1 S1                 0.0000
     45 ****         2.7431   0.4106   2.6928 LP             1 S1                 0.0000
     46 ****         3.2569  -0.8304  -0.4083 LP             1 S1                 0.0000
     47 ****         3.3059  -1.3833  -2.0490 LP             1 S1                 0.0000
     48 ****         3.2779  -1.8245  -3.3580 LP             1 S1                 0.0000
@<TRIPOS>BOND
    1    1    2 1     
    2    1   21 1     
    3    1   22 1     
    4    1   23 1     
    5    2    3 1     
    6    2    4 1     
    7    2   24 1     
    8    3   25 1     
    9    3   26 1     
   10    3   27 1     
   11    4    5 1     
   12    4   28 1     
   13    4   29 1     
   14    5   20 1     
   15    5    6 1     
   16    5   43 1     
   17    6    7 1     
   18    6   30 1     
   19    6   31 1     
   20    7    8 1     
   21    7   32 1     
   22    7   33 1     
   23    8    9 1     
   24    9   10 1     
   25    9   20 1     
   26    9   34 1     
   27   10   11 1     
   28   10   35 1     
   29   10   36 1     
   30   11   12 am    
   31   11   37 1     
   32   12   13 2     
   33   12   14 am    
   34   14   15 1     
   35   14   38 1     
   36   15   19 1     
   37   15   16 2     
   38   16   17 1     
   39   17   18 2     
   40   17   39 1     
   41   18   19 1     
   42   18   40 1     
   43   20   41 1     
   44   20   42 1     
   45    8   44 1     
   46    8   45 1     
   47   13   46 1     
   48   13   47 1     
   49   16   48 1     
@<TRIPOS>SUBSTRUCTURE
      1 S1             1
@<TRIPOS>SET
LONE_PAIRS      STATIC     ATOMS    <user>   **** ""
5 44 45 46 47 48
DONOR_HYDROGENS      STATIC     ATOMS    <user>   **** ""
3 43 37 38
ATOM$BLUE        STATIC     ATOMS    COLORGROUP SYSTEM
5 44 45 46 47 48
ATOM$RED        STATIC     ATOMS    COLORGROUP SYSTEM
3 43 37 38
