AV-unprocessed.smi:350|AV-procd|sdf|2398|dock3
  -GOLD-   2262022333D 1   1.00000     0.00000
 Structure written by MMmdl.
 35 36  0  0  0  0  0  0  0  0  1 V2000
  150.4587  144.6148  159.7291 C   0  0  0  0  0  0  0  0  0  0  0  0
  151.3252  143.3959  159.5620 C   0  0  0  0  0  0  0  0  0  0  0  0
  151.1581  142.7082  158.4805 N   0  0  0  0  0  0  0  0  0  0  0  0
  151.9011  141.5709  158.2283 N   0  0  0  0  0  0  0  0  0  0  0  0
  151.5642  140.9057  156.9629 C   0  0  0  0  0  0  0  0  0  0  0  0
  150.2284  140.1352  157.0495 C   0  0  2  0  0  0  0  0  0  0  0  0
  150.4346  138.8020  156.6257 O   0  0  0  0  0  0  0  0  0  0  0  0
  149.1521  140.8132  156.2149 C   0  0  0  0  0  0  0  0  0  0  0  0
  147.9883  141.3146  156.8367 C   0  0  0  0  0  0  0  0  0  0  0  0
  146.9901  141.9477  156.0705 C   0  0  0  0  0  0  0  0  0  0  0  0
  147.1507  142.0853  154.6781 C   0  0  0  0  0  0  0  0  0  0  0  0
  145.9279  142.8606  153.7398 Cl  0  0  0  0  0  0  0  0  0  0  0  0
  148.3114  141.5906  154.0526 C   0  0  0  0  0  0  0  0  0  0  0  0
  149.3095  140.9576  154.8185 C   0  0  0  0  0  0  0  0  0  0  0  0
  152.8589  141.0694  159.0593 C   0  0  0  0  0  0  0  0  0  0  0  0
  153.5014  140.0519  158.7959 O   0  0  0  0  0  0  0  0  0  0  0  0
  153.0423  141.8531  160.2833 C   0  0  0  0  0  0  0  0  0  0  0  0
  154.0346  141.3609  161.1837 C   0  0  0  0  0  0  0  0  0  0  0  0
  154.8481  140.9814  161.9147 N   0  0  0  0  0  0  0  0  0  0  0  0
  152.3172  142.9696  160.5435 C   0  0  0  0  0  0  0  0  0  0  0  0
  152.4686  143.8175  161.7992 C   0  0  0  0  0  0  0  0  0  0  0  0
  151.0680  145.5085  159.8659 H   0  0  0  0  0  0  0  0  0  0  0  0
  149.8102  144.5107  160.5990 H   0  0  0  0  0  0  0  0  0  0  0  0
  149.8206  144.7830  158.8601 H   0  0  0  0  0  0  0  0  0  0  0  0
  151.4724  141.6853  156.2037 H   0  0  0  0  0  0  0  0  0  0  0  0
  152.3681  140.2612  156.6020 H   0  0  0  0  0  0  0  0  0  0  0  0
  149.8881  140.1026  158.0854 H   0  0  0  0  0  0  0  0  0  0  0  0
  151.3286  138.5619  156.8155 H   0  0  0  0  0  0  0  0  0  0  0  0
  147.8560  141.2166  157.9043 H   0  0  0  0  0  0  0  0  0  0  0  0
  146.1016  142.3279  156.5529 H   0  0  0  0  0  0  0  0  0  0  0  0
  148.4385  141.6961  152.9852 H   0  0  0  0  0  0  0  0  0  0  0  0
  150.1979  140.5840  154.3302 H   0  0  0  0  0  0  0  0  0  0  0  0
  153.2062  143.4072  162.4884 H   0  0  0  0  0  0  0  0  0  0  0  0
  151.5213  143.8811  162.3358 H   0  0  0  0  0  0  0  0  0  0  0  0
  152.7872  144.8282  161.5417 H   0  0  0  0  0  0  0  0  0  0  0  0
  1  2  1  0  0  0  0
  1 22  1  0  0  0  0
  1 23  1  0  0  0  0
  1 24  1  0  0  0  0
  2 20  1  0  0  0  0
  2  3  2  0  0  0  0
  3  4  1  0  0  0  0
  4  5  1  0  0  0  0
  4 15  1  0  0  0  0
  5  6  1  0  0  0  0
  5 25  1  0  0  0  0
  5 26  1  0  0  0  0
  6  7  1  0  0  0  0
  6  8  1  0  0  0  0
  6 27  1  0  0  0  0
  7 28  1  0  0  0  0
  8 14  1  0  0  0  0
  8  9  2  0  0  0  0
  9 10  1  0  0  0  0
  9 29  1  0  0  0  0
 10 11  2  0  0  0  0
 10 30  1  0  0  0  0
 11 12  1  0  0  0  0
 11 13  1  0  0  0  0
 13 14  2  0  0  0  0
 13 31  1  0  0  0  0
 14 32  1  0  0  0  0
 15 16  2  0  0  0  0
 15 17  1  0  0  0  0
 17 18  1  0  0  0  0
 17 20  2  0  0  0  0
 18 19  3  0  0  0  0
 20 21  1  0  0  0  0
 21 33  1  0  0  0  0
 21 34  1  0  0  0  0
 21 35  1  0  0  0  0
M  END
> <s_m_source_file>
AV-unprocessed.smi

> <i_m_source_file_index>
350

> <i_lp_mmshare_version>
43012

> <i_f3d_flags>
0

> <s_epik_input>
TiNDYyhjMVtDSDNdKWMoPU8pbihuYzFbQ0gzXSlbQ0gyXVtDQEhdKFtPSF0pYzJbY0hdW2NIXWMoQ2wpW2NIXVtjSF0y

> <s_epik_cmdline>
J2VwaWtfcHl0aG9uJywgJy1waCcsICc3LjAnLCAnLXRuJywgJzgnLCAnLW1hJywgJzIwMCcsICctbWV0YWxfYmluZGluZycsICctaW1hZScsICc8aW5maWxlLm1hZT4nLCAnLW9tYWUnLCAnPG91dGZpbGUubWFlPic=

> <r_lp_tautomer_probability>
1

> <r_epik_Ionization_Penalty>
1.17315e-07

> <r_epik_Ionization_Penalty_Charging>
1.40848e-10

> <r_epik_Ionization_Penalty_Neutral>
1.17174e-07

> <r_epik_State_Penalty>
-0

> <r_epik_Charging_Adjusted_Penalty>
1.40848e-10

> <i_epik_Tot_Q>
0

> <i_epik_Tot_abs_Q>
0

> <r_epik_Metal_State_Penalty>
-0

> <b_epik_Metal_Only>
0

> <s_lp_Force_Field>
OPLS_2005

> <r_lp_Energy>
28.0073

> <b_lp_Chiralities_Consistent>
1

> <s_lp_Variant>
AV-unprocessed.smi:350-1

> <Gold.Version>
5.8.1

> <Gold.Id.Protein>
6NUR|6NUR_protein|mol2

> <Gold.PLP.Fitness>
46.1180

> <Gold.PLP.PLP>
-44.9357

> <Gold.PLP.part.hbond>
-2.0000

> <Gold.PLP.part.metal>
0.0000

> <Gold.PLP.part.buried>
-5.2275

> <Gold.PLP.part.nonpolar>
-37.0889

> <Gold.PLP.part.repulsive>
0.0564

> <Gold.PLP.ligand.clash>
0.0000

> <Gold.PLP.ligand.torsion>
0.9122

> <Gold.PLP.Chemscore.Hbond>
1.0000

> <Gold.PLP.Chemscore.CHOScore>
0.0000

> <Gold.PLP.Chemscore.Metal>
0.0000

> <Gold.Chemscore.Hbonds>
donor molecule, donor type, donor heavy atom, donor atom, acceptor molecule, acceptor atom, score
      P1  H  7997  8010       L1    16  0.96

> <Gold.PLP.Chemscore.Internal.Correction>
0.0066

> <Gold.Rescore>
     Score         DG    S(hbond)    S(metal)    S(lipo)     H(rot)  DE(clash)    DE(int)     intcor
     14.43     -15.51       0.94        0.00     100.56       1.90       0.09       0.99       ----

> <Gold.Chemscore.Fitness>
14.4299

> <Gold.Chemscore.DG>
-15.5127

> <Gold.Chemscore.ZeroCoef>
-5.4800

> <Gold.Chemscore.Hbond>
0.9410

> <Gold.Chemscore.Metal>
0.0000

> <Gold.Chemscore.Lipo>
100.5629

> <Gold.Chemscore.Internal_Hbond>
0.0000

> <Gold.Chemscore.DEClash>
0.0926

> <Gold.Chemscore.DEInternal>
0.9902

> <Gold.Chemscore.Rot>
1.9047

> <Gold.Chemscore.Internal.Correction>
   9.000000E+99

> <Gold.Chemscore.Hbonds>
donor molecule, donor type, donor heavy atom, donor atom, acceptor molecule, acceptor atom, score
      P1  H  7997  8010       L1    16  0.84

> <Gold.Chemscore.Hbond.Weighted>
-3.1429

> <Gold.Chemscore.Metal.Weighted>
-0.0000

> <Gold.Chemscore.Lipo.Weighted>
-11.7659

> <Gold.Chemscore.Internal_Hbond.Weighted>
0.0000

> <Gold.Chemscore.DEClash.Weighted>
0.0926

> <Gold.Chemscore.DEInternal.Weighted>
0.9902

> <Gold.Chemscore.Rot.Weighted>
4.8760

> <Gold.Chemscore.Internal.Correction.Weighted>
   9.000000E+99

> <Gold.Protein.RotatedTorsions>
[ 6907 6896 6895 6894 ] final   24.14 input  -60.11 | X-H torsion
[ 7974 7965 7964 7962 ] final   22.52 input  175.53 | X-H torsion
[ 8008 7997 7996 7995 ] final   21.80 input   59.86 | X-H torsion
[ 10167 10162 10161 10158 ] final    4.74 input  -65.29 | X-H torsion
[ 10718 10713 10712 10709 ] final  140.84 input   66.30 | X-H torsion
[ 10763 10752 10751 10750 ] final    5.70 input  -60.55 | X-H torsion
[ 11005 11000 10999 10996 ] final   32.88 input  -57.11 | X-H torsion

> <Gold.Protein.ActiveResidues>
 VAL166  LYS551  ARG553  GLY616  TRP617  ASP618  TYR619  PRO620  LYS621  CYS622 
 ASP623  PHE694  ASN695  SER759  ASP760  ASP761  ALA762  ILE779  LEU786  VAL792 
 PHE793  MET794  SER795  GLU796  ALA797  LYS798  CYS799  TRP800  GLU811  SER814 

> <Gold.Protein.RotatedAtoms>
  151.9529  135.0160  160.0542 H   0  0  0  0  0  0  0  0  0  0  0  0  # atno 6907 bound_to 6896
  152.1937  133.4786  159.5029 H   0  0  0  0  0  0  0  0  0  0  0  0  # atno 6908 bound_to 6896
  150.6940  134.1597  159.4214 H   0  0  0  0  0  0  0  0  0  0  0  0  # atno 6909 bound_to 6896
  146.2025  139.7874  142.8750 H   0  0  0  0  0  0  0  0  0  0  0  0  # atno 7974 bound_to 7965
  154.9561  140.3072  155.5052 H   0  0  0  0  0  0  0  0  0  0  0  0  # atno 8008 bound_to 7997
  156.2982  140.2310  156.4580 H   0  0  0  0  0  0  0  0  0  0  0  0  # atno 8009 bound_to 7997
  154.8009  140.0434  157.1260 H   0  0  0  0  0  0  0  0  0  0  0  0  # atno 8010 bound_to 7997
  140.6519  143.7523  150.7589 H   0  0  0  0  0  0  0  0  0  0  0  0  # atno 10167 bound_to 10162
  157.3988  131.1014  151.0573 H   0  0  0  0  0  0  0  0  0  0  0  0  # atno 10718 bound_to 10713
  153.2563  135.6919  153.7626 H   0  0  0  0  0  0  0  0  0  0  0  0  # atno 10763 bound_to 10752
  153.6701  135.3345  155.3152 H   0  0  0  0  0  0  0  0  0  0  0  0  # atno 10764 bound_to 10752
  154.8413  135.4498  154.1538 H   0  0  0  0  0  0  0  0  0  0  0  0  # atno 10765 bound_to 10752
  140.2689  134.3105  155.7834 H   0  0  0  0  0  0  0  0  0  0  0  0  # atno 11005 bound_to 11000
  145.3434  141.0292  143.3379 LP  0  0  0  0  0  0  0  0  0  0  0  0  # atno 17320 bound_to 7965
  144.8716  139.5030  143.6765 LP  0  0  0  0  0  0  0  0  0  0  0  0  # atno 17321 bound_to 7965
  140.1176  143.4642  152.2333 LP  0  0  0  0  0  0  0  0  0  0  0  0  # atno 17342 bound_to 10162
  139.5735  144.7475  151.3826 LP  0  0  0  0  0  0  0  0  0  0  0  0  # atno 17343 bound_to 10162
  157.1579  130.6213  149.5602 LP  0  0  0  0  0  0  0  0  0  0  0  0  # atno 17370 bound_to 10713
  155.9817  130.4827  150.6844 LP  0  0  0  0  0  0  0  0  0  0  0  0  # atno 17371 bound_to 10713
  141.2180  133.7454  156.9303 LP  0  0  0  0  0  0  0  0  0  0  0  0  # atno 17394 bound_to 11000
  140.1392  134.9304  157.2444 LP  0  0  0  0  0  0  0  0  0  0  0  0  # atno 17395 bound_to 11000

$$$$
