AV-unprocessed.smi:1426|AV-procd|sdf|5805|dock1
  -GOLD-   22720 5453D 1   1.00000     0.00000
 Structure written by MMmdl.
 43 45  0  0  0  0  0  0  0  0  1 V2000
  149.3425  133.3761  155.3192 O   0  0  0  0  0  0  0  0  0  0  0  0
  149.1005  134.1572  154.3997 C   0  0  0  0  0  0  0  0  0  0  0  0
  149.6222  135.3897  154.3205 N   0  0  0  0  0  0  0  0  0  0  0  0
  150.5236  135.9919  155.2980 C   0  0  0  0  0  0  0  0  0  0  0  0
  151.1603  137.2883  154.7638 C   0  0  2  0  0  0  0  0  0  0  0  0
  152.0300  138.0054  155.7762 C   0  0  0  0  0  0  0  0  0  0  0  0
  152.1294  139.4050  155.1763 C   0  0  0  0  0  0  0  0  0  0  0  0
  150.9147  139.6114  154.4602 O   0  0  0  0  0  0  0  0  0  0  0  0
  150.1726  138.3973  154.3957 C   0  0  0  0  0  0  0  0  0  0  0  0
  148.3029  133.9048  153.3479 N   0  0  0  0  0  0  0  0  0  0  0  0
  147.5764  132.7213  153.0226 C   0  0  0  0  0  0  0  0  0  0  0  0
  147.9893  131.4323  153.4443 C   0  0  0  0  0  0  0  0  0  0  0  0
  147.2392  130.3067  153.0623 C   0  0  0  0  0  0  0  0  0  0  0  0
  146.0957  130.5059  152.2720 C   0  0  0  0  0  0  0  0  0  0  0  0
  145.6769  131.7250  151.8796 N   0  0  0  0  0  0  0  0  0  0  0  0
  146.3818  132.8215  152.2519 C   0  0  0  0  0  0  0  0  0  0  0  0
  145.8771  134.0754  151.8378 N   0  0  0  0  0  0  0  0  0  0  0  0
  144.8666  134.1562  150.7879 C   0  0  0  0  0  0  0  0  0  0  0  0
  144.2860  135.5621  150.9073 C   0  0  0  0  0  0  0  0  0  0  0  0
  144.3055  135.7914  152.4151 C   0  0  0  0  0  0  0  0  0  0  0  0
  145.5669  135.0538  152.8764 C   0  0  0  0  0  0  0  0  0  0  0  0
  149.3726  135.9591  153.5249 H   0  0  0  0  0  0  0  0  0  0  0  0
  150.0100  136.1771  156.2432 H   0  0  0  0  0  0  0  0  0  0  0  0
  151.3069  135.2657  155.5170 H   0  0  0  0  0  0  0  0  0  0  0  0
  151.7694  137.0584  153.8877 H   0  0  0  0  0  0  0  0  0  0  0  0
  151.5292  138.0504  156.7445 H   0  0  0  0  0  0  0  0  0  0  0  0
  153.0032  137.5346  155.9175 H   0  0  0  0  0  0  0  0  0  0  0  0
  152.2797  140.1727  155.9357 H   0  0  0  0  0  0  0  0  0  0  0  0
  152.9600  139.4591  154.4715 H   0  0  0  0  0  0  0  0  0  0  0  0
  149.7308  138.2543  153.4092 H   0  0  0  0  0  0  0  0  0  0  0  0
  149.3625  138.4506  155.1242 H   0  0  0  0  0  0  0  0  0  0  0  0
  148.2657  134.6290  152.6455 H   0  0  0  0  0  0  0  0  0  0  0  0
  148.8614  131.2786  154.0595 H   0  0  0  0  0  0  0  0  0  0  0  0
  147.5361  129.3141  153.3668 H   0  0  0  0  0  0  0  0  0  0  0  0
  145.4958  129.6661  151.9540 H   0  0  0  0  0  0  0  0  0  0  0  0
  145.3008  133.9789  149.8037 H   0  0  0  0  0  0  0  0  0  0  0  0
  144.0740  133.4247  150.9506 H   0  0  0  0  0  0  0  0  0  0  0  0
  144.9399  136.2809  150.4112 H   0  0  0  0  0  0  0  0  0  0  0  0
  143.2899  135.6501  150.4729 H   0  0  0  0  0  0  0  0  0  0  0  0
  144.3071  136.8470  152.6874 H   0  0  0  0  0  0  0  0  0  0  0  0
  143.4257  135.3296  152.8652 H   0  0  0  0  0  0  0  0  0  0  0  0
  145.4213  134.5871  153.8518 H   0  0  0  0  0  0  0  0  0  0  0  0
  146.3976  135.7553  152.9575 H   0  0  0  0  0  0  0  0  0  0  0  0
  1  2  2  0  0  0  0
  2  3  1  0  0  0  0
  2 10  1  0  0  0  0
  3  4  1  0  0  0  0
  3 22  1  0  0  0  0
  4  5  1  0  0  0  0
  4 23  1  0  0  0  0
  4 24  1  0  0  0  0
  5  9  1  0  0  0  0
  5  6  1  0  0  0  0
  5 25  1  0  0  0  0
  6  7  1  0  0  0  0
  6 26  1  0  0  0  0
  6 27  1  0  0  0  0
  7  8  1  0  0  0  0
  7 28  1  0  0  0  0
  7 29  1  0  0  0  0
  8  9  1  0  0  0  0
  9 30  1  0  0  0  0
  9 31  1  0  0  0  0
 10 11  1  0  0  0  0
 10 32  1  0  0  0  0
 11 16  1  0  0  0  0
 11 12  2  0  0  0  0
 12 13  1  0  0  0  0
 12 33  1  0  0  0  0
 13 14  2  0  0  0  0
 13 34  1  0  0  0  0
 14 15  1  0  0  0  0
 14 35  1  0  0  0  0
 15 16  2  0  0  0  0
 16 17  1  0  0  0  0
 17 21  1  0  0  0  0
 17 18  1  0  0  0  0
 18 19  1  0  0  0  0
 18 36  1  0  0  0  0
 18 37  1  0  0  0  0
 19 20  1  0  0  0  0
 19 38  1  0  0  0  0
 19 39  1  0  0  0  0
 20 21  1  0  0  0  0
 20 40  1  0  0  0  0
 20 41  1  0  0  0  0
 21 42  1  0  0  0  0
 21 43  1  0  0  0  0
M  END
> <s_m_source_file>
AV-unprocessed.smi

> <i_m_source_file_index>
1426

> <i_lp_mmshare_version>
43012

> <i_f3d_flags>
0

> <s_epik_input>
W0NIMl0xT1tDSDJdW0NIMl1bQ0BIXTFbQ0gyXVtOSF1DKD1PKVtOSF1jMltjSF1bY0hdW2NIXW5jMk4zW0NIMl1bQ0gyXVtDSDJdW0NIMl0z

> <s_epik_cmdline>
J2VwaWtfcHl0aG9uJywgJy1waCcsICc3LjAnLCAnLXRuJywgJzgnLCAnLW1hJywgJzIwMCcsICctbWV0YWxfYmluZGluZycsICctaW1hZScsICc8aW5maWxlLm1hZT4nLCAnLW9tYWUnLCAnPG91dGZpbGUubWFlPic=

> <r_lp_tautomer_probability>
1

> <r_epik_Ionization_Penalty>
0.0999657

> <r_epik_Ionization_Penalty_Charging>
0

> <r_epik_Ionization_Penalty_Neutral>
0.0999657

> <r_epik_State_Penalty>
0.0894442

> <r_epik_Charging_Adjusted_Penalty>
0.0894442

> <i_epik_Tot_Q>
0

> <i_epik_Tot_abs_Q>
0

> <r_epik_Metal_State_Penalty>
0.076486

> <b_epik_Metal_Only>
0

> <s_lp_Force_Field>
OPLS_2005

> <r_lp_Energy>
47.443

> <b_lp_Chiralities_Consistent>
1

> <s_lp_Variant>
AV-unprocessed.smi:1426-1

> <Gold.Version>
5.8.1

> <Gold.Id.Protein>
6NUR|6NUR_protein|mol2

> <Gold.PLP.Fitness>
44.0329

> <Gold.PLP.PLP>
-35.5542

> <Gold.PLP.part.hbond>
-3.0505

> <Gold.PLP.part.metal>
0.0000

> <Gold.PLP.part.buried>
-3.3944

> <Gold.PLP.part.nonpolar>
-29.0220

> <Gold.PLP.part.repulsive>
0.4530

> <Gold.PLP.ligand.clash>
0.0000

> <Gold.PLP.ligand.torsion>
0.4277

> <Gold.PLP.Chemscore.Hbond>
3.0000

> <Gold.PLP.Chemscore.CHOScore>
0.0000

> <Gold.PLP.Chemscore.Metal>
0.0000

> <Gold.Chemscore.Hbonds>
donor molecule, donor type, donor heavy atom, donor atom, acceptor molecule, acceptor atom, score
      L1  H     3    22       P1  7948  1.00
      L1  H    10    32       P1  7948  1.00
      P1  H  7989  7998       L1     8  0.60

> <Gold.PLP.Chemscore.Internal.Correction>
0.3340

> <Gold.Rescore>
     Score         DG    S(hbond)    S(metal)    S(lipo)     H(rot)  DE(clash)    DE(int)     intcor
     16.73     -17.50       2.24        0.00      69.03       1.38       0.01       0.77       ----

> <Gold.Chemscore.Fitness>
16.7259

> <Gold.Chemscore.DG>
-17.4992

> <Gold.Chemscore.ZeroCoef>
-5.4800

> <Gold.Chemscore.Hbond>
2.2378

> <Gold.Chemscore.Metal>
0.0000

> <Gold.Chemscore.Lipo>
69.0303

> <Gold.Chemscore.Internal_Hbond>
0.0000

> <Gold.Chemscore.DEClash>
0.0060

> <Gold.Chemscore.DEInternal>
0.7674

> <Gold.Chemscore.Rot>
1.3796

> <Gold.Chemscore.Internal.Correction>
   9.000000E+99

> <Gold.Chemscore.Hbonds>
donor molecule, donor type, donor heavy atom, donor atom, acceptor molecule, acceptor atom, score
      L1  H     3    22       P1  7948  0.59
      L1  H    10    32       P1  7948  0.38
      P1  H  7989  7998       L1     8  0.04

> <Gold.Chemscore.Hbond.Weighted>
-7.4744

> <Gold.Chemscore.Metal.Weighted>
-0.0000

> <Gold.Chemscore.Lipo.Weighted>
-8.0765

> <Gold.Chemscore.Internal_Hbond.Weighted>
0.0000

> <Gold.Chemscore.DEClash.Weighted>
0.0060

> <Gold.Chemscore.DEInternal.Weighted>
0.7674

> <Gold.Chemscore.Rot.Weighted>
3.5317

> <Gold.Chemscore.Internal.Correction.Weighted>
   9.000000E+99

> <Gold.Protein.RotatedTorsions>
[ 6907 6896 6895 6894 ] final  143.09 input  -60.11 | X-H torsion
[ 7974 7965 7964 7962 ] final -134.10 input  175.53 | X-H torsion
[ 8008 7997 7996 7995 ] final   14.17 input   59.86 | X-H torsion
[ 10167 10162 10161 10158 ] final -126.63 input  -65.29 | X-H torsion
[ 10718 10713 10712 10709 ] final   64.17 input   66.30 | X-H torsion
[ 10763 10752 10751 10750 ] final  135.55 input  -60.55 | X-H torsion
[ 11005 11000 10999 10996 ] final  -28.71 input  -57.11 | X-H torsion

> <Gold.Protein.ActiveResidues>
 VAL166  LYS551  ARG553  GLY616  TRP617  ASP618  TYR619  PRO620  LYS621  CYS622 
 ASP623  PHE694  ASN695  SER759  ASP760  ASP761  ALA762  ILE779  LEU786  VAL792 
 PHE793  MET794  SER795  GLU796  ALA797  LYS798  CYS799  TRP800  GLU811  SER814 

> <Gold.Protein.RotatedAtoms>
  152.2107  133.4909  159.5108 H   0  0  0  0  0  0  0  0  0  0  0  0  # atno 6907 bound_to 6896
  150.6989  134.1471  159.4135 H   0  0  0  0  0  0  0  0  0  0  0  0  # atno 6908 bound_to 6896
  151.9390  135.0221  160.0585 H   0  0  0  0  0  0  0  0  0  0  0  0  # atno 6909 bound_to 6896
  144.9133  140.6923  143.5011 H   0  0  0  0  0  0  0  0  0  0  0  0  # atno 7974 bound_to 7965
  154.8447  140.2920  155.5637 H   0  0  0  0  0  0  0  0  0  0  0  0  # atno 8008 bound_to 7997
  156.3013  140.2507  156.3327 H   0  0  0  0  0  0  0  0  0  0  0  0  # atno 8009 bound_to 7997
  154.9087  140.0389  157.1923 H   0  0  0  0  0  0  0  0  0  0  0  0  # atno 8010 bound_to 7997
  139.9694  143.5862  152.2418 H   0  0  0  0  0  0  0  0  0  0  0  0  # atno 10167 bound_to 10162
  157.6021  130.9145  149.9811 H   0  0  0  0  0  0  0  0  0  0  0  0  # atno 10718 bound_to 10713
  153.8418  135.3090  155.3426 H   0  0  0  0  0  0  0  0  0  0  0  0  # atno 10763 bound_to 10752
  154.7929  135.4772  154.0097 H   0  0  0  0  0  0  0  0  0  0  0  0  # atno 10764 bound_to 10752
  153.1571  135.6854  153.8889 H   0  0  0  0  0  0  0  0  0  0  0  0  # atno 10765 bound_to 10752
  140.9232  133.7385  156.0831 H   0  0  0  0  0  0  0  0  0  0  0  0  # atno 11005 bound_to 11000
  145.3417  139.1730  143.4482 LP  0  0  0  0  0  0  0  0  0  0  0  0  # atno 17320 bound_to 7965
  146.3169  140.3459  142.8652 LP  0  0  0  0  0  0  0  0  0  0  0  0  # atno 17321 bound_to 7965
  139.6493  144.7660  151.2180 LP  0  0  0  0  0  0  0  0  0  0  0  0  # atno 17342 bound_to 10162
  140.7527  143.6187  150.8534 LP  0  0  0  0  0  0  0  0  0  0  0  0  # atno 17343 bound_to 10162
  156.1097  130.3650  150.0070 LP  0  0  0  0  0  0  0  0  0  0  0  0  # atno 17370 bound_to 10713
  156.8170  130.9345  151.3642 LP  0  0  0  0  0  0  0  0  0  0  0  0  # atno 17371 bound_to 10713
  140.7960  134.3563  157.5452 LP  0  0  0  0  0  0  0  0  0  0  0  0  # atno 17394 bound_to 11000
  139.8780  134.9169  156.3165 LP  0  0  0  0  0  0  0  0  0  0  0  0  # atno 17395 bound_to 11000

$$$$
