AV-unprocessed.smi:213|AV-procd|sdf|1633|dock1
  -GOLD-   2262019593D 1   1.00000     0.00000
 Structure written by MMmdl.
 59 62  0  0  0  0  0  0  0  0  2 V2000
  146.7290  133.7236  154.9162 C   0  0  0  0  0  0  0  0  0  0  0  0
  147.9990  134.1561  154.1653 C   0  0  2  0  0  0  0  0  0  0  0  0
  148.5956  132.9828  153.3490 C   0  0  0  0  0  0  0  0  0  0  0  0
  147.6572  132.4450  152.3308 N   0  3  0  0  0  0  0  0  0  0  0  0
  146.7176  131.4402  152.8774 C   0  0  0  0  0  0  0  0  0  0  0  0
  145.8541  130.8565  151.7465 C   0  0  0  0  0  0  0  0  0  0  0  0
  145.1600  131.9066  151.0840 O   0  0  0  0  0  0  0  0  0  0  0  0
  146.0499  132.8432  150.4882 C   0  0  0  0  0  0  0  0  0  0  0  0
  146.9211  133.4901  151.5777 C   0  0  0  0  0  0  0  0  0  0  0  0
  148.9780  134.7745  155.0736 N   0  0  0  0  0  0  0  0  0  0  0  0
  150.3092  134.1821  155.2049 C   0  0  0  0  0  0  0  0  0  0  0  0
  148.8942  136.1239  155.2182 C   0  0  0  0  0  0  0  0  0  0  0  0
  147.6709  136.7050  155.3512 N   0  0  0  0  0  0  0  0  0  0  0  0
  147.5647  138.0201  155.5598 C   0  0  0  0  0  0  0  0  0  0  0  0
  148.5368  138.9250  155.6783 N   0  0  0  0  0  0  0  0  0  0  0  0
  149.7658  138.3538  155.5310 C   0  0  0  0  0  0  0  0  0  0  0  0
  150.0330  136.9758  155.2944 C   0  0  0  0  0  0  0  0  0  0  0  0
  151.4048  136.7725  155.1965 N   0  0  0  0  0  0  0  0  0  0  0  0
  151.9189  137.9587  155.3752 C   0  0  0  0  0  0  0  0  0  0  0  0
  151.0056  138.9639  155.5954 N   0  0  0  0  0  0  0  0  0  0  0  0
  151.2998  140.3657  155.8403 C   0  0  0  0  0  0  0  0  0  0  0  0
  150.9192  140.8086  157.2701 C   0  0  2  0  0  0  0  0  0  0  0  0
  149.5305  141.0816  157.2969 O   0  0  0  0  0  0  0  0  0  0  0  0
  151.6597  142.0817  157.7266 C   0  0  2  0  0  0  0  0  0  0  0  0
  151.3807  142.5077  159.1686 C   0  0  0  0  0  0  0  0  0  0  0  0
  151.7271  143.9859  159.1662 C   0  0  0  0  0  0  0  0  0  0  0  0
  151.5936  144.3869  157.6951 C   0  0  0  0  0  0  0  0  0  0  0  0
  151.1700  143.2105  157.0172 O   0  0  0  0  0  0  0  0  0  0  0  0
  145.9634  133.3853  154.2175 H   0  0  0  0  0  0  0  0  0  0  0  0
  146.3082  134.5534  155.4848 H   0  0  0  0  0  0  0  0  0  0  0  0
  146.9199  132.9033  155.6082 H   0  0  0  0  0  0  0  0  0  0  0  0
  147.6612  134.9042  153.4515 H   0  0  0  0  0  0  0  0  0  0  0  0
  149.5031  133.3300  152.8532 H   0  0  0  0  0  0  0  0  0  0  0  0
  148.9065  132.1745  154.0126 H   0  0  0  0  0  0  0  0  0  0  0  0
  147.2740  130.6377  153.3631 H   0  0  0  0  0  0  0  0  0  0  0  0
  146.0857  131.9020  153.6375 H   0  0  0  0  0  0  0  0  0  0  0  0
  146.4692  130.3050  151.0331 H   0  0  0  0  0  0  0  0  0  0  0  0
  145.1272  130.1526  152.1522 H   0  0  0  0  0  0  0  0  0  0  0  0
  146.6679  132.3501  149.7365 H   0  0  0  0  0  0  0  0  0  0  0  0
  145.4683  133.6053  149.9696 H   0  0  0  0  0  0  0  0  0  0  0  0
  146.2976  134.0665  152.2627 H   0  0  0  0  0  0  0  0  0  0  0  0
  147.6141  134.1895  151.1122 H   0  0  0  0  0  0  0  0  0  0  0  0
  150.8479  134.6204  156.0461 H   0  0  0  0  0  0  0  0  0  0  0  0
  150.8984  134.3404  154.3014 H   0  0  0  0  0  0  0  0  0  0  0  0
  150.2481  133.1102  155.3880 H   0  0  0  0  0  0  0  0  0  0  0  0
  146.5581  138.3999  155.6558 H   0  0  0  0  0  0  0  0  0  0  0  0
  152.9853  138.1331  155.3602 H   0  0  0  0  0  0  0  0  0  0  0  0
  152.3644  140.5186  155.6607 H   0  0  0  0  0  0  0  0  0  0  0  0
  150.7704  140.9707  155.1031 H   0  0  0  0  0  0  0  0  0  0  0  0
  151.1284  139.9937  157.9646 H   0  0  0  0  0  0  0  0  0  0  0  0
  149.2229  141.1452  156.4062 H   0  0  0  0  0  0  0  0  0  0  0  0
  152.7370  141.9866  157.5746 H   0  0  0  0  0  0  0  0  0  0  0  0
  150.3221  142.3808  159.4004 H   0  0  0  0  0  0  0  0  0  0  0  0
  151.9588  141.9414  159.8994 H   0  0  0  0  0  0  0  0  0  0  0  0
  151.0626  144.5571  159.8148 H   0  0  0  0  0  0  0  0  0  0  0  0
  152.7507  144.1441  159.5078 H   0  0  0  0  0  0  0  0  0  0  0  0
  150.8731  145.1919  157.5489 H   0  0  0  0  0  0  0  0  0  0  0  0
  152.5546  144.7126  157.2952 H   0  0  0  0  0  0  0  0  0  0  0  0
  148.2287  131.9503  151.6599 H   0  0  0  0  0  0  0  0  0  0  0  0
  1  2  1  0  0  0  0
  1 29  1  0  0  0  0
  1 30  1  0  0  0  0
  1 31  1  0  0  0  0
  2  3  1  0  0  0  0
  2 10  1  0  0  0  0
  2 32  1  0  0  0  0
  3  4  1  0  0  0  0
  3 33  1  0  0  0  0
  3 34  1  0  0  0  0
  4  9  1  0  0  0  0
  4  5  1  0  0  0  0
  4 59  1  0  0  0  0
  5  6  1  0  0  0  0
  5 35  1  0  0  0  0
  5 36  1  0  0  0  0
  6  7  1  0  0  0  0
  6 37  1  0  0  0  0
  6 38  1  0  0  0  0
  7  8  1  0  0  0  0
  8  9  1  0  0  0  0
  8 39  1  0  0  0  0
  8 40  1  0  0  0  0
  9 41  1  0  0  0  0
  9 42  1  0  0  0  0
 10 11  1  0  0  0  0
 10 12  1  0  0  0  0
 11 43  1  0  0  0  0
 11 44  1  0  0  0  0
 11 45  1  0  0  0  0
 12 17  1  0  0  0  0
 12 13  2  0  0  0  0
 13 14  1  0  0  0  0
 14 15  2  0  0  0  0
 14 46  1  0  0  0  0
 15 16  1  0  0  0  0
 16 20  1  0  0  0  0
 16 17  2  0  0  0  0
 17 18  1  0  0  0  0
 18 19  2  0  0  0  0
 19 20  1  0  0  0  0
 19 47  1  0  0  0  0
 20 21  1  0  0  0  0
 21 22  1  0  0  0  0
 21 48  1  0  0  0  0
 21 49  1  0  0  0  0
 22 23  1  0  0  0  0
 22 24  1  0  0  0  0
 22 50  1  0  0  0  0
 23 51  1  0  0  0  0
 24 28  1  0  0  0  0
 24 25  1  0  0  0  0
 24 52  1  0  0  0  0
 25 26  1  0  0  0  0
 25 53  1  0  0  0  0
 25 54  1  0  0  0  0
 26 27  1  0  0  0  0
 26 55  1  0  0  0  0
 26 56  1  0  0  0  0
 27 28  1  0  0  0  0
 27 57  1  0  0  0  0
 27 58  1  0  0  0  0
M  CHG  1   4   1
M  END
> <s_m_source_file>
AV-unprocessed.smi

> <i_m_source_file_index>
213

> <i_lp_mmshare_version>
43012

> <i_f3d_flags>
0

> <s_epik_input>
W0NIMl0xW0NIMl1PW0NIMl1bQ0gyXU4xW0NIMl1bQ0BASF0oW0NIM10pTihbQ0gzXSljKG5bY0hdbjIpYyhjMjMpbltjSF1uM1tDSDJdW0NASF0oW09IXSlbQ0BASF00W0NIMl1bQ0gyXVtDSDJdTzQ=

> <s_epik_cmdline>
J2VwaWtfcHl0aG9uJywgJy1waCcsICc3LjAnLCAnLXRuJywgJzgnLCAnLW1hJywgJzIwMCcsICctbWV0YWxfYmluZGluZycsICctaW1hZScsICc8aW5maWxlLm1hZT4nLCAnLW9tYWUnLCAnPG91dGZpbGUubWFlPic=

> <r_lp_tautomer_probability>
1

> <r_epik_Ionization_Penalty>
0.399679

> <r_epik_Ionization_Penalty_Charging>
0.399433

> <r_epik_Ionization_Penalty_Neutral>
0.000246213

> <r_epik_State_Penalty>
0.286032

> <r_epik_Charging_Adjusted_Penalty>
0.685465

> <i_epik_Tot_Q>
1

> <i_epik_Tot_abs_Q>
1

> <r_epik_Metal_State_Penalty>
0.286072

> <b_epik_Metal_Only>
0

> <s_lp_Force_Field>
OPLS_2005

> <r_lp_Energy>
46.7886

> <b_lp_Chiralities_Consistent>
1

> <s_lp_Variant>
AV-unprocessed.smi:213-1

> <Gold.Version>
5.8.1

> <Gold.Id.Protein>
6NUR|6NUR_protein|mol2

> <Gold.PLP.Fitness>
48.1303

> <Gold.PLP.PLP>
-43.0487

> <Gold.PLP.part.hbond>
-2.0000

> <Gold.PLP.part.metal>
0.0000

> <Gold.PLP.part.buried>
-5.6843

> <Gold.PLP.part.nonpolar>
-35.1716

> <Gold.PLP.part.repulsive>
0.4459

> <Gold.PLP.ligand.clash>
0.0000

> <Gold.PLP.ligand.torsion>
1.2566

> <Gold.PLP.Chemscore.Hbond>
2.0000

> <Gold.PLP.Chemscore.CHOScore>
0.0000

> <Gold.PLP.Chemscore.Metal>
0.0000

> <Gold.Chemscore.Hbonds>
donor molecule, donor type, donor heavy atom, donor atom, acceptor molecule, acceptor atom, score
      L1  H     4    59       P1 10747  1.00
      P1  H 10752 10763       L1    18  0.99

> <Gold.PLP.Chemscore.Internal.Correction>
1.5949

> <Gold.Rescore>
     Score         DG    S(hbond)    S(metal)    S(lipo)     H(rot)  DE(clash)    DE(int)     intcor
     13.84     -16.58       1.74        0.00     107.09       2.83       0.13       2.62       ----

> <Gold.Chemscore.Fitness>
13.8408

> <Gold.Chemscore.DG>
-16.5837

> <Gold.Chemscore.ZeroCoef>
-5.4800

> <Gold.Chemscore.Hbond>
1.7386

> <Gold.Chemscore.Metal>
0.0000

> <Gold.Chemscore.Lipo>
107.0912

> <Gold.Chemscore.Internal_Hbond>
0.0000

> <Gold.Chemscore.DEClash>
0.1251

> <Gold.Chemscore.DEInternal>
2.6178

> <Gold.Chemscore.Rot>
2.8254

> <Gold.Chemscore.Internal.Correction>
   9.000000E+99

> <Gold.Chemscore.Hbonds>
donor molecule, donor type, donor heavy atom, donor atom, acceptor molecule, acceptor atom, score
      L1  H     4    59       P1 10747  1.00
      P1  H 10752 10763       L1    18  0.51

> <Gold.Chemscore.Hbond.Weighted>
-5.8070

> <Gold.Chemscore.Metal.Weighted>
-0.0000

> <Gold.Chemscore.Lipo.Weighted>
-12.5297

> <Gold.Chemscore.Internal_Hbond.Weighted>
0.0000

> <Gold.Chemscore.DEClash.Weighted>
0.1251

> <Gold.Chemscore.DEInternal.Weighted>
2.6178

> <Gold.Chemscore.Rot.Weighted>
7.2330

> <Gold.Chemscore.Internal.Correction.Weighted>
   9.000000E+99

> <Gold.Protein.RotatedTorsions>
[ 6907 6896 6895 6894 ] final  -35.45 input  -60.11 | X-H torsion
[ 7974 7965 7964 7962 ] final  -15.33 input  175.53 | X-H torsion
[ 8008 7997 7996 7995 ] final   45.93 input   59.86 | X-H torsion
[ 10167 10162 10161 10158 ] final  -18.90 input  -65.29 | X-H torsion
[ 10718 10713 10712 10709 ] final -115.29 input   66.30 | X-H torsion
[ 10763 10752 10751 10750 ] final   53.23 input  -60.55 | X-H torsion
[ 11005 11000 10999 10996 ] final  129.72 input  -57.11 | X-H torsion

> <Gold.Protein.ActiveResidues>
 VAL166  LYS551  ARG553  GLY616  TRP617  ASP618  TYR619  PRO620  LYS621  CYS622 
 ASP623  PHE694  ASN695  SER759  ASP760  ASP761  ALA762  ILE779  LEU786  VAL792 
 PHE793  MET794  SER795  GLU796  ALA797  LYS798  CYS799  TRP800  GLU811  SER814 

> <Gold.Protein.RotatedAtoms>
  151.0397  134.9598  159.8154 H   0  0  0  0  0  0  0  0  0  0  0  0  # atno 6907 bound_to 6896
  152.5362  134.2674  159.8968 H   0  0  0  0  0  0  0  0  0  0  0  0  # atno 6908 bound_to 6896
  151.2686  133.4224  159.2654 H   0  0  0  0  0  0  0  0  0  0  0  0  # atno 6909 bound_to 6896
  146.2037  140.3477  142.8414 H   0  0  0  0  0  0  0  0  0  0  0  0  # atno 7974 bound_to 7965
  155.3440  140.3409  155.4239 H   0  0  0  0  0  0  0  0  0  0  0  0  # atno 8008 bound_to 7997
  156.1798  140.1660  156.8330 H   0  0  0  0  0  0  0  0  0  0  0  0  # atno 8009 bound_to 7997
  154.5322  140.0743  156.8347 H   0  0  0  0  0  0  0  0  0  0  0  0  # atno 8010 bound_to 7997
  140.7263  143.4871  151.0040 H   0  0  0  0  0  0  0  0  0  0  0  0  # atno 10167 bound_to 10162
  156.0885  130.6072  150.8886 H   0  0  0  0  0  0  0  0  0  0  0  0  # atno 10718 bound_to 10713
  152.9794  135.5786  154.4707 H   0  0  0  0  0  0  0  0  0  0  0  0  # atno 10763 bound_to 10752
  154.4270  135.2773  155.1940 H   0  0  0  0  0  0  0  0  0  0  0  0  # atno 10764 bound_to 10752
  154.3664  135.6177  153.5771 H   0  0  0  0  0  0  0  0  0  0  0  0  # atno 10765 bound_to 10752
  139.9631  134.9597  156.9190 H   0  0  0  0  0  0  0  0  0  0  0  0  # atno 11005 bound_to 11000
  144.8741  140.7312  143.6028 LP  0  0  0  0  0  0  0  0  0  0  0  0  # atno 17320 bound_to 7965
  145.3396  139.1736  143.4493 LP  0  0  0  0  0  0  0  0  0  0  0  0  # atno 17321 bound_to 7965
  139.8574  143.7359  152.3175 LP  0  0  0  0  0  0  0  0  0  0  0  0  # atno 17342 bound_to 10162
  139.7563  144.7520  151.0431 LP  0  0  0  0  0  0  0  0  0  0  0  0  # atno 17343 bound_to 10162
  157.6028  131.0940  150.8931 LP  0  0  0  0  0  0  0  0  0  0  0  0  # atno 17370 bound_to 10713
  156.9085  130.5272  149.5281 LP  0  0  0  0  0  0  0  0  0  0  0  0  # atno 17371 bound_to 10713
  140.5455  134.0678  155.7354 LP  0  0  0  0  0  0  0  0  0  0  0  0  # atno 17394 bound_to 11000
  141.1310  133.9302  157.2536 LP  0  0  0  0  0  0  0  0  0  0  0  0  # atno 17395 bound_to 11000

$$$$
