#       Name:                AV-unprocessed.smi:1046
#       Creating user name   scv26
#       Creation time:       Fri Mar 27 02:59:12 2020


#       File generated by GOLD software.
#

@<TRIPOS>MOLECULE
AV-unprocessed.smi:1046
    59    61     1
SMALL
NO_CHARGES


@<TRIPOS>ATOM
      1 ****         1.6506   5.5059  -1.8280 C.3            1 S1                 0.0000
      2 ****         0.6162   4.6161  -1.1615 C.ar           1 S1                 0.0000
      3 ****        -0.5437   4.2529  -1.8822 C.ar           1 S1                 0.0000
      4 ****        -1.5285   3.4254  -1.3002 C.ar           1 S1                 0.0000
      5 ****        -2.7195   2.9451  -1.8168 N.2            1 S1                 0.0000
      6 ****        -3.1853   2.2289  -0.7982 C.2            1 S1                 0.0000
      7 ****        -2.4306   2.1791   0.3163 N.pl3          1 S1                 0.0000
      8 ****        -2.7271   1.4533   1.5376 C.3            1 S1                 0.0000
      9 ****        -2.3327  -0.0344   1.4504 C.3            1 S1                 0.0000
     10 ****        -2.6877  -0.6474   2.6731 O.3            1 S1                 0.0000
     11 ****        -0.8253  -0.2611   1.1984 C.3            1 S1                 0.0000
     12 ****        -0.4774  -1.6981   1.0507 N.4            1 S1                 1.0000
     13 ****         0.9470  -1.9659   1.3707 C.3            1 S1                 0.0000
     14 ****         1.2585  -3.4727   1.3035 C.3            1 S1                 0.0000
     15 ****         0.9064  -4.0492  -0.0178 N.4            1 S1                 1.0000
     16 ****         1.8851  -3.7217  -1.0898 C.3            1 S1                 0.0000
     17 ****         1.8869  -4.7632  -2.2216 C.3            1 S1                 0.0000
     18 ****         2.3350  -6.0083  -1.7297 O.3            1 S1                 0.0000
     19 ****        -0.5121  -3.7670  -0.3610 C.3            1 S1                 0.0000
     20 ****        -0.8483  -2.2635  -0.2734 C.3            1 S1                 0.0000
     21 ****        -1.3199   2.9678   0.0338 C.ar           1 S1                 0.0000
     22 ****        -0.1718   3.3255   0.7627 C.ar           1 S1                 0.0000
     23 ****         0.8025   4.1525   0.1656 C.ar           1 S1                 0.0000
     24 ****         2.0400   4.5321   0.9594 C.3            1 S1                 0.0000
     25 ****         1.3747   5.7359  -2.8574 H              1 S1                 0.0000
     26 ****         2.6238   5.0151  -1.8454 H              1 S1                 0.0000
     27 ****         1.7473   6.4482  -1.2884 H              1 S1                 0.0000
     28 ****        -0.6864   4.6080  -2.8923 H              1 S1                 0.0000
     29 ****        -4.1266   1.7033  -0.8685 H              1 S1                 0.0000
     30 ****        -2.2096   1.9403   2.3652 H              1 S1                 0.0000
     31 ****        -3.7950   1.5502   1.7395 H              1 S1                 0.0000
     32 ****        -2.9234  -0.4979   0.6608 H              1 S1                 0.0000
     33 ****        -2.2959  -0.1604   3.3827 H              1 S1                 0.0000
     34 ****        -0.4904   0.2688   0.3062 H              1 S1                 0.0000
     35 ****        -0.2693   0.1702   2.0325 H              1 S1                 0.0000
     36 ****         1.5876  -1.4127   0.6822 H              1 S1                 0.0000
     37 ****         1.1718  -1.6003   2.3735 H              1 S1                 0.0000
     38 ****         2.3077  -3.6602   1.5347 H              1 S1                 0.0000
     39 ****         0.6830  -3.9946   2.0693 H              1 S1                 0.0000
     40 ****         1.6853  -2.7297  -1.4946 H              1 S1                 0.0000
     41 ****         2.8909  -3.6758  -0.6694 H              1 S1                 0.0000
     42 ****         0.9047  -4.8796  -2.6780 H              1 S1                 0.0000
     43 ****         2.5660  -4.4450  -3.0131 H              1 S1                 0.0000
     44 ****         2.3975  -6.6150  -2.4528 H              1 S1                 0.0000
     45 ****        -0.7595  -4.1544  -1.3487 H              1 S1                 0.0000
     46 ****        -1.1426  -4.3147   0.3409 H              1 S1                 0.0000
     47 ****        -1.9151  -2.1340  -0.4521 H              1 S1                 0.0000
     48 ****        -0.3352  -1.7122  -1.0622 H              1 S1                 0.0000
     49 ****        -0.0407   2.9666   1.7727 H              1 S1                 0.0000
     50 ****         2.0035   4.1283   1.9716 H              1 S1                 0.0000
     51 ****         2.1287   5.6161   1.0357 H              1 S1                 0.0000
     52 ****         2.9366   4.1446   0.4752 H              1 S1                 0.0000
     53 ****        -1.0207  -2.1901   1.7466 H              1 S1                 0.0000
     54 ****         0.9814  -5.0514   0.0937 H              1 S1                 0.0000
     55 ****        -3.1233   3.0969  -2.7190 LP             1 S1                 0.0000
     56 ****        -2.3526  -1.5895   2.6866 LP             1 S1                 0.0000
     57 ****        -3.6826  -0.6460   2.7734 LP             1 S1                 0.0000
     58 ****         1.6858  -6.3564  -1.0535 LP             1 S1                 0.0000
     59 ****         3.2331  -5.8985  -1.3039 LP             1 S1                 0.0000
@<TRIPOS>BOND
    1    1    2 1     
    2    1   25 1     
    3    1   26 1     
    4    1   27 1     
    5    2   23 ar    
    6    2    3 ar    
    7    3    4 ar    
    8    3   28 1     
    9    4   21 ar    
   10    4    5 1     
   11    5    6 2     
   12    6    7 1     
   13    6   29 1     
   14    7    8 1     
   15    7   21 1     
   16    8    9 1     
   17    8   30 1     
   18    8   31 1     
   19    9   10 1     
   20    9   11 1     
   21    9   32 1     
   22   10   33 1     
   23   11   12 1     
   24   11   34 1     
   25   11   35 1     
   26   12   20 1     
   27   12   13 1     
   28   12   53 1     
   29   13   14 1     
   30   13   36 1     
   31   13   37 1     
   32   14   15 1     
   33   14   38 1     
   34   14   39 1     
   35   15   16 1     
   36   15   19 1     
   37   15   54 1     
   38   16   17 1     
   39   16   40 1     
   40   16   41 1     
   41   17   18 1     
   42   17   42 1     
   43   17   43 1     
   44   18   44 1     
   45   19   20 1     
   46   19   45 1     
   47   19   46 1     
   48   20   47 1     
   49   20   48 1     
   50   21   22 ar    
   51   22   23 ar    
   52   22   49 1     
   53   23   24 1     
   54   24   50 1     
   55   24   51 1     
   56   24   52 1     
   57    5   55 1     
   58   10   56 1     
   59   10   57 1     
   60   18   58 1     
   61   18   59 1     
@<TRIPOS>SUBSTRUCTURE
      1 S1             1
@<TRIPOS>SET
LONE_PAIRS      STATIC     ATOMS    <user>   **** ""
5 55 56 57 58 59
DONOR_HYDROGENS      STATIC     ATOMS    <user>   **** ""
4 33 53 54 44
ATOM$BLUE        STATIC     ATOMS    COLORGROUP SYSTEM
5 55 56 57 58 59
ATOM$RED        STATIC     ATOMS    COLORGROUP SYSTEM
4 33 53 54 44
