AV-unprocessed.smi:1702|AV-procd|sdf|6849|dock8
  -GOLD-   22720 8 33D 1   1.00000     0.00000
 Structure written by MMmdl.
 45 47  0  0  0  0  0  0  0  0  3 V2000
  145.6617  138.1118  154.5634 C   0  0  0  0  0  0  0  0  0  0  0  0
  147.1595  138.2212  154.8819 C   0  0  2  0  0  0  0  0  0  0  0  0
  147.9291  138.9367  153.7594 C   0  0  0  0  0  0  0  0  0  0  0  0
  149.4322  139.0152  154.0747 C   0  0  0  0  0  0  0  0  0  0  0  0
  150.0025  137.6613  154.3069 N   0  3  1  0  0  0  0  0  0  0  0  0
  151.4764  137.6661  154.4951 C   0  0  0  0  0  0  0  0  0  0  0  0
  152.0196  139.0198  155.0067 C   0  0  2  0  0  0  0  0  0  0  0  0
  153.4123  139.0777  154.7735 O   0  0  0  0  0  0  0  0  0  0  0  0
  151.8044  139.2385  156.5178 C   0  0  0  0  0  0  0  0  0  0  0  0
  151.3104  140.5846  156.8430 N   0  0  0  0  0  0  0  0  0  0  0  0
  150.5089  141.4101  156.1156 C   0  0  0  0  0  0  0  0  0  0  0  0
  150.3425  142.5577  156.8295 N   0  3  0  0  0  0  0  0  0  0  0  0
  151.0522  142.4685  158.0288 C   0  0  0  0  0  0  0  0  0  0  0  0
  151.1907  143.3762  159.0740 C   0  0  0  0  0  0  0  0  0  0  0  0
  151.9929  142.9747  160.1622 C   0  0  0  0  0  0  0  0  0  0  0  0
  152.1617  143.8201  161.2063 F   0  0  0  0  0  0  0  0  0  0  0  0
  152.6205  141.7114  160.1835 C   0  0  0  0  0  0  0  0  0  0  0  0
  153.3802  141.3634  161.2490 F   0  0  0  0  0  0  0  0  0  0  0  0
  152.4726  140.7994  159.1177 C   0  0  0  0  0  0  0  0  0  0  0  0
  151.6791  141.2042  158.0444 C   0  0  0  0  0  0  0  0  0  0  0  0
  149.2996  136.9592  155.4119 C   0  0  0  0  0  0  0  0  0  0  0  0
  147.7926  136.8414  155.1286 C   0  0  0  0  0  0  0  0  0  0  0  0
  145.4887  137.5280  153.6588 H   0  0  0  0  0  0  0  0  0  0  0  0
  145.2198  139.0971  154.4129 H   0  0  0  0  0  0  0  0  0  0  0  0
  145.1210  137.6299  155.3786 H   0  0  0  0  0  0  0  0  0  0  0  0
  147.2617  138.8111  155.7943 H   0  0  0  0  0  0  0  0  0  0  0  0
  147.7821  138.4110  152.8148 H   0  0  0  0  0  0  0  0  0  0  0  0
  147.5318  139.9426  153.6170 H   0  0  0  0  0  0  0  0  0  0  0  0
  149.9377  139.5064  153.2445 H   0  0  0  0  0  0  0  0  0  0  0  0
  149.5971  139.6374  154.9557 H   0  0  0  0  0  0  0  0  0  0  0  0
  151.7404  136.8565  155.1763 H   0  0  0  0  0  0  0  0  0  0  0  0
  151.9681  137.4381  153.5480 H   0  0  0  0  0  0  0  0  0  0  0  0
  151.5538  139.8487  154.4747 H   0  0  0  0  0  0  0  0  0  0  0  0
  153.6678  138.3425  154.2375 H   0  0  0  0  0  0  0  0  0  0  0  0
  151.1276  138.4916  156.9329 H   0  0  0  0  0  0  0  0  0  0  0  0
  152.7501  139.1142  157.0474 H   0  0  0  0  0  0  0  0  0  0  0  0
  150.0845  141.1961  155.1448 H   0  0  0  0  0  0  0  0  0  0  0  0
  150.7121  144.3446  159.0619 H   0  0  0  0  0  0  0  0  0  0  0  0
  152.9603  139.8367  159.1500 H   0  0  0  0  0  0  0  0  0  0  0  0
  149.7157  135.9587  155.5368 H   0  0  0  0  0  0  0  0  0  0  0  0
  149.4670  137.4916  156.3496 H   0  0  0  0  0  0  0  0  0  0  0  0
  147.2998  136.3492  155.9679 H   0  0  0  0  0  0  0  0  0  0  0  0
  147.6351  136.2003  154.2599 H   0  0  0  0  0  0  0  0  0  0  0  0
  149.8228  137.1175  153.4751 H   0  0  0  0  0  0  0  0  0  0  0  0
  149.7902  143.3457  156.5151 H   0  0  0  0  0  0  0  0  0  0  0  0
  1  2  1  0  0  0  0
  1 23  1  0  0  0  0
  1 24  1  0  0  0  0
  1 25  1  0  0  0  0
  2 22  1  0  0  0  0
  2  3  1  0  0  0  0
  2 26  1  0  0  0  0
  3  4  1  0  0  0  0
  3 27  1  0  0  0  0
  3 28  1  0  0  0  0
  4  5  1  0  0  0  0
  4 29  1  0  0  0  0
  4 30  1  0  0  0  0
  5  6  1  0  0  0  0
  5 21  1  0  0  0  0
  5 44  1  0  0  0  0
  6  7  1  0  0  0  0
  6 31  1  0  0  0  0
  6 32  1  0  0  0  0
  7  8  1  0  0  0  0
  7  9  1  0  0  0  0
  7 33  1  0  0  0  0
  8 34  1  0  0  0  0
  9 10  1  0  0  0  0
  9 35  1  0  0  0  0
  9 36  1  0  0  0  0
 10 20  1  0  0  0  0
 10 11  1  0  0  0  0
 11 12  2  0  0  0  0
 11 37  1  0  0  0  0
 12 13  1  0  0  0  0
 12 45  1  0  0  0  0
 13 20  2  0  0  0  0
 13 14  1  0  0  0  0
 14 15  2  0  0  0  0
 14 38  1  0  0  0  0
 15 16  1  0  0  0  0
 15 17  1  0  0  0  0
 17 18  1  0  0  0  0
 17 19  2  0  0  0  0
 19 20  1  0  0  0  0
 19 39  1  0  0  0  0
 21 22  1  0  0  0  0
 21 40  1  0  0  0  0
 21 41  1  0  0  0  0
 22 42  1  0  0  0  0
 22 43  1  0  0  0  0
M  CHG  1   5   1
M  CHG  1  12   1
M  END
> <s_m_source_file>
AV-unprocessed.smi

> <i_m_source_file_index>
1702

> <i_lp_mmshare_version>
43012

> <i_f3d_flags>
0

> <s_epik_input>
W0NIM11bQ0hdMVtDSDJdW0NIMl1OKFtDSDJdW0NIMl0xKVtDSDJdW0NASF0oW09IXSlbQ0gyXW4oW2NIXW4yKWMoYzIzKVtjSF1jKEYpYyhGKVtjSF0z

> <s_epik_cmdline>
J2VwaWtfcHl0aG9uJywgJy1waCcsICc3LjAnLCAnLXRuJywgJzgnLCAnLW1hJywgJzIwMCcsICctbWV0YWxfYmluZGluZycsICctaW1hZScsICc8aW5maWxlLm1hZT4nLCAnLW9tYWUnLCAnPG91dGZpbGUubWFlPic=

> <r_epik_Ionization_Penalty>
2.33291

> <r_epik_Ionization_Penalty_Charging>
2.33291

> <r_epik_Ionization_Penalty_Neutral>
6.90208e-07

> <r_epik_State_Penalty>
2.4838

> <r_epik_Charging_Adjusted_Penalty>
4.81672

> <i_epik_Tot_Q>
2

> <i_epik_Tot_abs_Q>
2

> <r_epik_Metal_State_Penalty>
6.56754

> <b_epik_Metal_Only>
0

> <s_lp_Force_Field>
OPLS_2005

> <r_lp_Energy>
33.9441

> <b_lp_Chiralities_Consistent>
1

> <s_lp_Variant>
AV-unprocessed.smi:1702-5

> <Gold.Version>
5.8.1

> <Gold.Id.Protein>
6NUR|6NUR_protein|mol2

> <Gold.PLP.Fitness>
57.1283

> <Gold.PLP.PLP>
-45.4879

> <Gold.PLP.part.hbond>
-3.0479

> <Gold.PLP.part.metal>
0.0000

> <Gold.PLP.part.buried>
-5.1066

> <Gold.PLP.part.nonpolar>
-37.8650

> <Gold.PLP.part.repulsive>
0.0851

> <Gold.PLP.ligand.clash>
0.0000

> <Gold.PLP.ligand.torsion>
1.6972

> <Gold.PLP.Chemscore.Hbond>
5.0000

> <Gold.PLP.Chemscore.CHOScore>
0.0000

> <Gold.PLP.Chemscore.Metal>
0.0000

> <Gold.Chemscore.Hbonds>
donor molecule, donor type, donor heavy atom, donor atom, acceptor molecule, acceptor atom, score
      L1  H     5    44       P1  7948  2.00
      L1  H    12    45       P1  8028  2.00
      P1  H  7997  8009       L1     8  1.00

> <Gold.PLP.Chemscore.Internal.Correction>
0.0347

> <Gold.Rescore>
     Score         DG    S(hbond)    S(metal)    S(lipo)     H(rot)  DE(clash)    DE(int)     intcor
     17.92     -19.72       2.65        0.00      96.73       2.32       0.05       1.75       ----

> <Gold.Chemscore.Fitness>
17.9209

> <Gold.Chemscore.DG>
-19.7197

> <Gold.Chemscore.ZeroCoef>
-5.4800

> <Gold.Chemscore.Hbond>
2.6539

> <Gold.Chemscore.Metal>
0.0000

> <Gold.Chemscore.Lipo>
96.7306

> <Gold.Chemscore.Internal_Hbond>
0.0000

> <Gold.Chemscore.DEClash>
0.0524

> <Gold.Chemscore.DEInternal>
1.7464

> <Gold.Chemscore.Rot>
2.3210

> <Gold.Chemscore.Internal.Correction>
   9.000000E+99

> <Gold.Chemscore.Hbonds>
donor molecule, donor type, donor heavy atom, donor atom, acceptor molecule, acceptor atom, score
      L1  H     5    44       P1  7948  0.48
      L1  H    12    45       P1  8028  1.00
      P1  H  7997  8009       L1     8  0.96

> <Gold.Chemscore.Hbond.Weighted>
-8.8639

> <Gold.Chemscore.Metal.Weighted>
-0.0000

> <Gold.Chemscore.Lipo.Weighted>
-11.3175

> <Gold.Chemscore.Internal_Hbond.Weighted>
0.0000

> <Gold.Chemscore.DEClash.Weighted>
0.0524

> <Gold.Chemscore.DEInternal.Weighted>
1.7464

> <Gold.Chemscore.Rot.Weighted>
5.9416

> <Gold.Chemscore.Internal.Correction.Weighted>
   9.000000E+99

> <Gold.Protein.RotatedTorsions>
[ 6907 6896 6895 6894 ] final  111.09 input  -60.11 | X-H torsion
[ 7974 7965 7964 7962 ] final  100.40 input  175.53 | X-H torsion
[ 8008 7997 7996 7995 ] final -134.81 input   59.86 | X-H torsion
[ 10167 10162 10161 10158 ] final  114.88 input  -65.29 | X-H torsion
[ 10718 10713 10712 10709 ] final   18.61 input   66.30 | X-H torsion
[ 10763 10752 10751 10750 ] final -122.83 input  -60.55 | X-H torsion
[ 11005 11000 10999 10996 ] final   32.41 input  -57.11 | X-H torsion

> <Gold.Protein.ActiveResidues>
 VAL166  LYS551  ARG553  GLY616  TRP617  ASP618  TYR619  PRO620  LYS621  CYS622 
 ASP623  PHE694  ASN695  SER759  ASP760  ASP761  ALA762  ILE779  LEU786  VAL792 
 PHE793  MET794  SER795  GLU796  ALA797  LYS798  CYS799  TRP800  GLU811  SER814 

> <Gold.Protein.RotatedAtoms>
  152.4987  133.8707  159.7296 H   0  0  0  0  0  0  0  0  0  0  0  0  # atno 6907 bound_to 6896
  150.9194  133.6889  159.2842 H   0  0  0  0  0  0  0  0  0  0  0  0  # atno 6908 bound_to 6896
  151.4272  135.1009  159.9684 H   0  0  0  0  0  0  0  0  0  0  0  0  # atno 6909 bound_to 6896
  145.3861  139.2371  143.3377 H   0  0  0  0  0  0  0  0  0  0  0  0  # atno 7974 bound_to 7965
  155.3682  140.0487  157.3046 H   0  0  0  0  0  0  0  0  0  0  0  0  # atno 8008 bound_to 7997
  154.5143  140.2203  155.9059 H   0  0  0  0  0  0  0  0  0  0  0  0  # atno 8009 bound_to 7997
  156.1618  140.3114  155.8827 H   0  0  0  0  0  0  0  0  0  0  0  0  # atno 8010 bound_to 7997
  139.6356  144.7119  151.2341 H   0  0  0  0  0  0  0  0  0  0  0  0  # atno 10167 bound_to 10162
  157.0988  130.6459  149.5867 H   0  0  0  0  0  0  0  0  0  0  0  0  # atno 10718 bound_to 10713
  154.8697  135.4119  154.2845 H   0  0  0  0  0  0  0  0  0  0  0  0  # atno 10763 bound_to 10752
  153.3732  135.7008  153.6627 H   0  0  0  0  0  0  0  0  0  0  0  0  # atno 10764 bound_to 10752
  153.5480  135.3634  155.2719 H   0  0  0  0  0  0  0  0  0  0  0  0  # atno 10765 bound_to 10752
  140.2738  134.3051  155.7820 H   0  0  0  0  0  0  0  0  0  0  0  0  # atno 11005 bound_to 11000
  146.2820  140.4536  142.8773 LP  0  0  0  0  0  0  0  0  0  0  0  0  # atno 17320 bound_to 7965
  144.8473  140.6949  143.6191 LP  0  0  0  0  0  0  0  0  0  0  0  0  # atno 17321 bound_to 7965
  140.7464  143.6401  150.8342 LP  0  0  0  0  0  0  0  0  0  0  0  0  # atno 17342 bound_to 10162
  140.0032  143.5722  152.2867 LP  0  0  0  0  0  0  0  0  0  0  0  0  # atno 17343 bound_to 10162
  155.9879  130.4920  150.7146 LP  0  0  0  0  0  0  0  0  0  0  0  0  # atno 17370 bound_to 10713
  157.4659  131.0888  151.0695 LP  0  0  0  0  0  0  0  0  0  0  0  0  # atno 17371 bound_to 10713
  141.2173  133.7483  156.9375 LP  0  0  0  0  0  0  0  0  0  0  0  0  # atno 17394 bound_to 11000
  140.1348  134.9332  157.2386 LP  0  0  0  0  0  0  0  0  0  0  0  0  # atno 17395 bound_to 11000

$$$$
