AV-unprocessed.smi:1601|AV-procd|sdf|6432|dock6
  -GOLD-   22720 7 73D 1   1.00000     0.00000
 Structure written by MMmdl.
 41 42  0  0  0  0  0  0  0  0  1 V2000
  149.5911  140.8391  156.3624 C   0  0  0  0  0  0  0  0  0  0  0  0
  150.2301  140.9019  157.7732 C   0  0  1  0  0  0  0  0  0  0  0  0
  150.4127  139.4489  158.3018 C   0  0  0  0  0  0  0  0  0  0  0  0
  149.1487  138.7762  158.5886 N   0  0  0  0  0  0  0  0  0  0  0  0
  149.0298  137.5972  159.2201 C   0  0  0  0  0  0  0  0  0  0  0  0
  149.9994  136.9507  159.6188 O   0  0  0  0  0  0  0  0  0  0  0  0
  147.5966  137.0855  159.4419 C   0  0  2  0  0  0  0  0  0  0  0  0
  146.5242  138.0413  158.8808 C   0  0  0  0  0  0  0  0  0  0  0  0
  147.3705  136.7794  160.8499 N   0  0  0  0  0  0  0  0  0  0  0  0
  147.0991  135.5514  161.4186 C   0  0  0  0  0  0  0  0  0  0  0  0
  146.9876  135.7386  162.7664 C   0  0  0  0  0  0  0  0  0  0  0  0
  147.2209  137.1315  162.9347 C   0  0  0  0  0  0  0  0  0  0  0  0
  147.4538  137.7506  161.7892 N   0  0  0  0  0  0  0  0  0  0  0  0
  151.4767  141.7023  157.8050 N   0  0  0  0  0  0  0  0  0  0  0  0
  151.2422  143.1147  157.4803 C   0  0  0  0  0  0  0  0  0  0  0  0
  152.5202  143.9681  157.5498 C   0  0  0  0  0  0  0  0  0  0  0  0
  153.0993  143.8566  158.8420 O   0  0  0  0  0  0  0  0  0  0  0  0
  153.4201  142.5114  159.1667 C   0  0  0  0  0  0  0  0  0  0  0  0
  152.1502  141.6450  159.1080 C   0  0  0  0  0  0  0  0  0  0  0  0
  148.6999  140.2131  156.3378 H   0  0  0  0  0  0  0  0  0  0  0  0
  150.2920  140.4384  155.6295 H   0  0  0  0  0  0  0  0  0  0  0  0
  149.2592  141.8160  156.0138 H   0  0  0  0  0  0  0  0  0  0  0  0
  149.5067  141.3930  158.4259 H   0  0  0  0  0  0  0  0  0  0  0  0
  150.9559  138.8526  157.5679 H   0  0  0  0  0  0  0  0  0  0  0  0
  150.9981  139.4132  159.2194 H   0  0  0  0  0  0  0  0  0  0  0  0
  148.3050  139.2432  158.2898 H   0  0  0  0  0  0  0  0  0  0  0  0
  147.5082  136.1477  158.8912 H   0  0  0  0  0  0  0  0  0  0  0  0
  146.6750  138.2190  157.8155 H   0  0  0  0  0  0  0  0  0  0  0  0
  146.5353  139.0098  159.3824 H   0  0  0  0  0  0  0  0  0  0  0  0
  145.5265  137.6186  159.0015 H   0  0  0  0  0  0  0  0  0  0  0  0
  147.0076  134.6550  160.8229 H   0  0  0  0  0  0  0  0  0  0  0  0
  146.7754  134.9937  163.5189 H   0  0  0  0  0  0  0  0  0  0  0  0
  147.2300  137.7065  163.8487 H   0  0  0  0  0  0  0  0  0  0  0  0
  150.8475  143.2158  156.4711 H   0  0  0  0  0  0  0  0  0  0  0  0
  150.4941  143.5303  158.1572 H   0  0  0  0  0  0  0  0  0  0  0  0
  153.2379  143.6532  156.7908 H   0  0  0  0  0  0  0  0  0  0  0  0
  152.2867  145.0148  157.3545 H   0  0  0  0  0  0  0  0  0  0  0  0
  154.1779  142.1331  158.4790 H   0  0  0  0  0  0  0  0  0  0  0  0
  153.8523  142.4810  160.1669 H   0  0  0  0  0  0  0  0  0  0  0  0
  151.4617  141.9581  159.8944 H   0  0  0  0  0  0  0  0  0  0  0  0
  152.4560  140.6272  159.3401 H   0  0  0  0  0  0  0  0  0  0  0  0
  1  2  1  0  0  0  0
  1 20  1  0  0  0  0
  1 21  1  0  0  0  0
  1 22  1  0  0  0  0
  2  3  1  0  0  0  0
  2 14  1  0  0  0  0
  2 23  1  0  0  0  0
  3  4  1  0  0  0  0
  3 24  1  0  0  0  0
  3 25  1  0  0  0  0
  4  5  1  0  0  0  0
  4 26  1  0  0  0  0
  5  6  2  0  0  0  0
  5  7  1  0  0  0  0
  7  8  1  0  0  0  0
  7  9  1  0  0  0  0
  7 27  1  0  0  0  0
  8 28  1  0  0  0  0
  8 29  1  0  0  0  0
  8 30  1  0  0  0  0
  9 13  1  0  0  0  0
  9 10  1  0  0  0  0
 10 11  2  0  0  0  0
 10 31  1  0  0  0  0
 11 12  1  0  0  0  0
 11 32  1  0  0  0  0
 12 13  2  0  0  0  0
 12 33  1  0  0  0  0
 14 19  1  0  0  0  0
 14 15  1  0  0  0  0
 15 16  1  0  0  0  0
 15 34  1  0  0  0  0
 15 35  1  0  0  0  0
 16 17  1  0  0  0  0
 16 36  1  0  0  0  0
 16 37  1  0  0  0  0
 17 18  1  0  0  0  0
 18 19  1  0  0  0  0
 18 38  1  0  0  0  0
 18 39  1  0  0  0  0
 19 40  1  0  0  0  0
 19 41  1  0  0  0  0
M  END
> <s_m_source_file>
AV-unprocessed.smi

> <i_m_source_file_index>
1601

> <i_lp_mmshare_version>
43012

> <i_f3d_flags>
0

> <s_epik_input>
W0NIMl0xW0NIMl1PW0NIMl1bQ0gyXU4xW0NASF0oW0NIM10pW0NIMl1bTkhdQyg9TylbQ0BIXShbQ0gzXSluMltjSF1bY0hdW2NIXW4y

> <s_epik_cmdline>
J2VwaWtfcHl0aG9uJywgJy1waCcsICc3LjAnLCAnLXRuJywgJzgnLCAnLW1hJywgJzIwMCcsICctbWV0YWxfYmluZGluZycsICctaW1hZScsICc8aW5maWxlLm1hZT4nLCAnLW9tYWUnLCAnPG91dGZpbGUubWFlPic=

> <r_lp_tautomer_probability>
1

> <r_epik_Ionization_Penalty>
0.203323

> <r_epik_Ionization_Penalty_Charging>
0

> <r_epik_Ionization_Penalty_Neutral>
0.203323

> <r_epik_State_Penalty>
0.193192

> <r_epik_Charging_Adjusted_Penalty>
0.193192

> <i_epik_Tot_Q>
0

> <i_epik_Tot_abs_Q>
0

> <r_epik_Metal_State_Penalty>
0.193187

> <b_epik_Metal_Only>
0

> <s_lp_Force_Field>
OPLS_2005

> <r_lp_Energy>
32.6682

> <b_lp_Chiralities_Consistent>
1

> <s_lp_Variant>
AV-unprocessed.smi:1601-2

> <Gold.Version>
5.8.1

> <Gold.Id.Protein>
6NUR|6NUR_protein|mol2

> <Gold.PLP.Fitness>
45.7150

> <Gold.PLP.PLP>
-37.9470

> <Gold.PLP.part.hbond>
-3.0000

> <Gold.PLP.part.metal>
0.0000

> <Gold.PLP.part.buried>
-6.0833

> <Gold.PLP.part.nonpolar>
-29.8625

> <Gold.PLP.part.repulsive>
0.2054

> <Gold.PLP.ligand.clash>
0.3228

> <Gold.PLP.ligand.torsion>
0.2335

> <Gold.PLP.Chemscore.Hbond>
2.8080

> <Gold.PLP.Chemscore.CHOScore>
0.0000

> <Gold.PLP.Chemscore.Metal>
0.0000

> <Gold.Chemscore.Hbonds>
donor molecule, donor type, donor heavy atom, donor atom, acceptor molecule, acceptor atom, score
      P1  H  6896  6909       L1     6  0.62
      P1  H  6931  6943       L1    13  0.62
      P1  H  6934  6947       L1    13  0.61

> <Gold.PLP.Chemscore.Internal.Correction>
0.1337

> <Gold.Rescore>
     Score         DG    S(hbond)    S(metal)    S(lipo)     H(rot)  DE(clash)    DE(int)     intcor
     18.59     -19.22       2.45        0.00      86.45       1.79       0.01       0.62       ----

> <Gold.Chemscore.Fitness>
18.5910

> <Gold.Chemscore.DG>
-19.2176

> <Gold.Chemscore.ZeroCoef>
-5.4800

> <Gold.Chemscore.Hbond>
2.4546

> <Gold.Chemscore.Metal>
0.0000

> <Gold.Chemscore.Lipo>
86.4496

> <Gold.Chemscore.Internal_Hbond>
0.0000

> <Gold.Chemscore.DEClash>
0.0057

> <Gold.Chemscore.DEInternal>
0.6209

> <Gold.Chemscore.Rot>
1.7872

> <Gold.Chemscore.Internal.Correction>
   9.000000E+99

> <Gold.Chemscore.Hbonds>
donor molecule, donor type, donor heavy atom, donor atom, acceptor molecule, acceptor atom, score
      P1  H  6896  6909       L1     6  0.60
      P1  H  6931  6943       L1    13  0.21
      P1  H  6934  6947       L1    13  0.23

> <Gold.Chemscore.Hbond.Weighted>
-8.1982

> <Gold.Chemscore.Metal.Weighted>
-0.0000

> <Gold.Chemscore.Lipo.Weighted>
-10.1146

> <Gold.Chemscore.Internal_Hbond.Weighted>
0.0000

> <Gold.Chemscore.DEClash.Weighted>
0.0057

> <Gold.Chemscore.DEInternal.Weighted>
0.6209

> <Gold.Chemscore.Rot.Weighted>
4.5752

> <Gold.Chemscore.Internal.Correction.Weighted>
   9.000000E+99

> <Gold.Protein.RotatedTorsions>
[ 6907 6896 6895 6894 ] final   84.16 input  -60.11 | X-H torsion
[ 7974 7965 7964 7962 ] final   58.18 input  175.53 | X-H torsion
[ 8008 7997 7996 7995 ] final -133.98 input   59.86 | X-H torsion
[ 10167 10162 10161 10158 ] final  -65.41 input  -65.29 | X-H torsion
[ 10718 10713 10712 10709 ] final -109.72 input   66.30 | X-H torsion
[ 10763 10752 10751 10750 ] final  109.14 input  -60.55 | X-H torsion
[ 11005 11000 10999 10996 ] final   58.98 input  -57.11 | X-H torsion

> <Gold.Protein.ActiveResidues>
 VAL166  LYS551  ARG553  GLY616  TRP617  ASP618  TYR619  PRO620  LYS621  CYS622 
 ASP623  PHE694  ASN695  SER759  ASP760  ASP761  ALA762  ILE779  LEU786  VAL792 
 PHE793  MET794  SER795  GLU796  ALA797  LYS798  CYS799  TRP800  GLU811  SER814 

> <Gold.Protein.RotatedAtoms>
  152.5345  134.2784  159.8997 H   0  0  0  0  0  0  0  0  0  0  0  0  # atno 6907 bound_to 6896
  151.2739  133.4235  159.2630 H   0  0  0  0  0  0  0  0  0  0  0  0  # atno 6908 bound_to 6896
  151.0343  134.9577  159.8184 H   0  0  0  0  0  0  0  0  0  0  0  0  # atno 6909 bound_to 6896
  145.9209  139.3729  143.0479 H   0  0  0  0  0  0  0  0  0  0  0  0  # atno 7974 bound_to 7965
  155.3545  140.0479  157.3046 H   0  0  0  0  0  0  0  0  0  0  0  0  # atno 8008 bound_to 7997
  154.5210  140.2225  155.8941 H   0  0  0  0  0  0  0  0  0  0  0  0  # atno 8009 bound_to 7997
  156.1689  140.3100  155.8944 H   0  0  0  0  0  0  0  0  0  0  0  0  # atno 8010 bound_to 7997
  140.5731  143.2319  151.6497 H   0  0  0  0  0  0  0  0  0  0  0  0  # atno 10167 bound_to 10162
  156.0552  130.5778  150.8139 H   0  0  0  0  0  0  0  0  0  0  0  0  # atno 10718 bound_to 10713
  153.4305  135.3789  155.2167 H   0  0  0  0  0  0  0  0  0  0  0  0  # atno 10763 bound_to 10752
  154.8749  135.3839  154.4274 H   0  0  0  0  0  0  0  0  0  0  0  0  # atno 10764 bound_to 10752
  153.4806  135.7088  153.6003 H   0  0  0  0  0  0  0  0  0  0  0  0  # atno 10765 bound_to 10752
  140.0337  134.5974  155.9472 H   0  0  0  0  0  0  0  0  0  0  0  0  # atno 11005 bound_to 11000
  145.8550  140.9507  143.0729 LP  0  0  0  0  0  0  0  0  0  0  0  0  # atno 17320 bound_to 7965
  144.6753  140.0457  143.7480 LP  0  0  0  0  0  0  0  0  0  0  0  0  # atno 17321 bound_to 7965
  139.5128  144.3463  152.0694 LP  0  0  0  0  0  0  0  0  0  0  0  0  # atno 17342 bound_to 10162
  140.2603  144.4074  150.6188 LP  0  0  0  0  0  0  0  0  0  0  0  0  # atno 17343 bound_to 10162
  157.5515  131.0944  150.9688 LP  0  0  0  0  0  0  0  0  0  0  0  0  # atno 17370 bound_to 10713
  156.9947  130.5577  149.5306 LP  0  0  0  0  0  0  0  0  0  0  0  0  # atno 17371 bound_to 10713
  141.1845  133.6553  156.5161 LP  0  0  0  0  0  0  0  0  0  0  0  0  # atno 17394 bound_to 11000
  140.4183  134.7210  157.4875 LP  0  0  0  0  0  0  0  0  0  0  0  0  # atno 17395 bound_to 11000

$$$$
