#       Name:                AV-unprocessed.smi:1475
#       Creating user name   scv26
#       Creation time:       Fri Mar 27 06:07:13 2020


#       File generated by GOLD software.
#

@<TRIPOS>MOLECULE
AV-unprocessed.smi:1475
    53    54     1
SMALL
NO_CHARGES


@<TRIPOS>ATOM
      1 ****        -5.2733   1.4705   2.7947 C.3            1 S1                 0.0000
      2 ****        -4.7941   0.9110   1.4876 C.2            1 S1                 0.0000
      3 ****        -4.6243  -0.4536   1.1218 C.2            1 S1                 0.0000
      4 ****        -4.1684  -0.4045  -0.1653 C.2            1 S1                 0.0000
      5 ****        -3.8027  -1.5122  -1.0982 C.3            1 S1                 0.0000
      6 ****        -4.0835   0.9334  -0.5105 N.pl3          1 S1                 0.0000
      7 ****        -3.6468   1.5369  -1.7631 C.3            1 S1                 0.0000
      8 ****        -2.1930   2.0210  -1.7064 C.2            1 S1                 0.0000
      9 ****        -1.8933   3.1135  -2.1864 O.2            1 S1                 0.0000
     10 ****        -1.2949   1.2030  -1.1361 N.am           1 S1                 0.0000
     11 ****         0.1195   1.5084  -0.9807 C.3            1 S1                 0.0000
     12 ****         0.7874   0.4800  -0.0542 C.3            1 S1                 0.0000
     13 ****         2.2239   0.7816   0.1880 N.4            1 S1                 1.0000
     14 ****         2.7486   0.1900   1.4468 C.3            1 S1                 0.0000
     15 ****         2.9867  -1.3295   1.3206 C.3            1 S1                 0.0000
     16 ****         3.5253  -1.9225   2.6303 C.3            1 S1                 0.0000
     17 ****         3.9345  -1.6182   0.1432 C.3            1 S1                 0.0000
     18 ****         3.4007  -0.9982  -1.1602 C.3            1 S1                 0.0000
     19 ****         4.3645  -1.2424  -2.3298 C.3            1 S1                 0.0000
     20 ****         3.1260   0.5094  -0.9648 C.3            1 S1                 0.0000
     21 ****        -4.4672   1.7358   0.5066 N.2            1 S1                 0.0000
     22 ****        -5.7203   0.6936   3.4150 H              1 S1                 0.0000
     23 ****        -6.0256   2.2450   2.6417 H              1 S1                 0.0000
     24 ****        -4.4498   1.9118   3.3562 H              1 S1                 0.0000
     25 ****        -4.8105  -1.3363   1.7158 H              1 S1                 0.0000
     26 ****        -3.9068  -2.4817  -0.6105 H              1 S1                 0.0000
     27 ****        -2.7700  -1.4152  -1.4336 H              1 S1                 0.0000
     28 ****        -4.4480  -1.5093  -1.9767 H              1 S1                 0.0000
     29 ****        -3.7556   0.8151  -2.5725 H              1 S1                 0.0000
     30 ****        -4.3063   2.3741  -1.9975 H              1 S1                 0.0000
     31 ****        -1.6222   0.3214  -0.7683 H              1 S1                 0.0000
     32 ****         0.5781   1.5088  -1.9693 H              1 S1                 0.0000
     33 ****         0.2364   2.5117  -0.5672 H              1 S1                 0.0000
     34 ****         0.2577   0.4979   0.8995 H              1 S1                 0.0000
     35 ****         0.6639  -0.5282  -0.4491 H              1 S1                 0.0000
     36 ****         3.6878   0.6881   1.6920 H              1 S1                 0.0000
     37 ****         2.0697   0.4070   2.2726 H              1 S1                 0.0000
     38 ****         2.0312  -1.8145   1.1161 H              1 S1                 0.0000
     39 ****         4.4904  -1.4895   2.8955 H              1 S1                 0.0000
     40 ****         3.6567  -3.0018   2.5477 H              1 S1                 0.0000
     41 ****         2.8389  -1.7377   3.4571 H              1 S1                 0.0000
     42 ****         4.9256  -1.2175   0.3620 H              1 S1                 0.0000
     43 ****         4.0568  -2.6950   0.0193 H              1 S1                 0.0000
     44 ****         2.4640  -1.4952  -1.4126 H              1 S1                 0.0000
     45 ****         5.3316  -0.7701  -2.1540 H              1 S1                 0.0000
     46 ****         3.9617  -0.8407  -3.2601 H              1 S1                 0.0000
     47 ****         4.5377  -2.3084  -2.4798 H              1 S1                 0.0000
     48 ****         2.7262   0.9456  -1.8792 H              1 S1                 0.0000
     49 ****         4.0688   1.0259  -0.7793 H              1 S1                 0.0000
     50 ****         2.2539   1.7808   0.3335 H              1 S1                 0.0000
     51 ****        -2.5968   3.6827  -2.6118 LP             1 S1                 0.0000
     52 ****        -0.9461   3.4323  -2.1511 LP             1 S1                 0.0000
     53 ****        -4.4974   2.7353   0.5158 LP             1 S1                 0.0000
@<TRIPOS>BOND
    1    1    2 1     
    2    1   22 1     
    3    1   23 1     
    4    1   24 1     
    5    2   21 2     
    6    2    3 1     
    7    3    4 2     
    8    3   25 1     
    9    4    5 1     
   10    4    6 1     
   11    5   26 1     
   12    5   27 1     
   13    5   28 1     
   14    6    7 1     
   15    6   21 1     
   16    7    8 1     
   17    7   29 1     
   18    7   30 1     
   19    8    9 2     
   20    8   10 am    
   21   10   11 1     
   22   10   31 1     
   23   11   12 1     
   24   11   32 1     
   25   11   33 1     
   26   12   13 1     
   27   12   34 1     
   28   12   35 1     
   29   13   20 1     
   30   13   14 1     
   31   13   50 1     
   32   14   15 1     
   33   14   36 1     
   34   14   37 1     
   35   15   16 1     
   36   15   17 1     
   37   15   38 1     
   38   16   39 1     
   39   16   40 1     
   40   16   41 1     
   41   17   18 1     
   42   17   42 1     
   43   17   43 1     
   44   18   19 1     
   45   18   20 1     
   46   18   44 1     
   47   19   45 1     
   48   19   46 1     
   49   19   47 1     
   50   20   48 1     
   51   20   49 1     
   52    9   51 1     
   53    9   52 1     
   54   21   53 1     
@<TRIPOS>SUBSTRUCTURE
      1 S1             1
@<TRIPOS>SET
LONE_PAIRS      STATIC     ATOMS    <user>   **** ""
3 51 52 53
DONOR_HYDROGENS      STATIC     ATOMS    <user>   **** ""
2 31 50
ATOM$BLUE        STATIC     ATOMS    COLORGROUP SYSTEM
3 51 52 53
ATOM$RED        STATIC     ATOMS    COLORGROUP SYSTEM
2 31 50
