AV-unprocessed.smi:99|AV-procd|sdf|878|dock6
  -GOLD-   2262017353D 1   1.00000     0.00000
 Structure written by MMmdl.
 53 56  0  0  0  0  0  0  0  0  1 V2000
  151.8009  135.9991  156.3187 O   0  0  0  0  0  0  0  0  0  0  0  0
  150.7485  136.1898  155.7056 C   0  0  0  0  0  0  0  0  0  0  0  0
  150.2487  137.4137  155.4461 O   0  0  0  0  0  0  0  0  0  0  0  0
  151.1176  138.5302  155.3529 C   0  0  0  0  0  0  0  0  0  0  0  0
  150.3783  139.6857  154.6711 C   0  0  1  0  0  0  0  0  0  0  0  0
  149.5270  139.1862  153.6415 O   0  0  0  0  0  0  0  0  0  0  0  0
  148.3943  139.9984  153.5065 C   0  0  1  0  0  0  0  0  0  0  0  0
  147.1520  139.1487  153.6599 N   0  0  0  0  0  0  0  0  0  0  0  0
  146.5340  138.9691  154.8913 C   0  0  0  0  0  0  0  0  0  0  0  0
  145.4109  138.2298  155.0526 C   0  0  0  0  0  0  0  0  0  0  0  0
  144.7815  137.5790  153.9082 C   0  0  0  0  0  0  0  0  0  0  0  0
  143.7665  136.8876  153.9558 O   0  0  0  0  0  0  0  0  0  0  0  0
  145.4274  137.7991  152.6883 N   0  0  0  0  0  0  0  0  0  0  0  0
  146.5822  138.5619  152.5087 C   0  0  0  0  0  0  0  0  0  0  0  0
  147.0562  138.7064  151.3825 O   0  0  0  0  0  0  0  0  0  0  0  0
  148.4438  141.0621  154.6131 C   0  0  2  0  0  0  0  0  0  0  0  0
  148.9436  142.2829  154.0984 O   0  0  0  0  0  0  0  0  0  0  0  0
  149.4054  140.4084  155.5947 C   0  0  2  0  0  0  0  0  0  0  0  0
  150.0225  141.3355  156.4807 O   0  0  0  0  0  0  0  0  0  0  0  0
  150.7269  140.9004  157.5479 C   0  0  0  0  0  0  0  0  0  0  0  0
  150.8396  139.7115  157.8526 O   0  0  0  0  0  0  0  0  0  0  0  0
  151.3476  142.0105  158.3259 C   0  0  0  0  0  0  0  0  0  0  0  0
  151.1308  143.3472  157.9175 C   0  0  0  0  0  0  0  0  0  0  0  0
  151.7063  144.4173  158.6300 C   0  0  0  0  0  0  0  0  0  0  0  0
  152.5057  144.1635  159.7596 C   0  0  0  0  0  0  0  0  0  0  0  0
  152.7282  142.8381  160.1765 C   0  0  0  0  0  0  0  0  0  0  0  0
  152.1532  141.7666  159.4654 C   0  0  0  0  0  0  0  0  0  0  0  0
  149.8935  135.0890  155.1741 C   0  0  0  0  0  0  0  0  0  0  0  0
  148.5381  135.3509  154.8651 C   0  0  0  0  0  0  0  0  0  0  0  0
  147.7081  134.3325  154.3574 C   0  0  0  0  0  0  0  0  0  0  0  0
  148.2234  133.0395  154.1524 C   0  0  0  0  0  0  0  0  0  0  0  0
  149.5696  132.7656  154.4565 C   0  0  0  0  0  0  0  0  0  0  0  0
  150.4011  133.7828  154.9645 C   0  0  0  0  0  0  0  0  0  0  0  0
  145.0210  137.3751  151.8670 H   0  0  0  0  0  0  0  0  0  0  0  0
  151.4674  138.8294  156.3419 H   0  0  0  0  0  0  0  0  0  0  0  0
  151.9923  138.2512  154.7639 H   0  0  0  0  0  0  0  0  0  0  0  0
  151.0813  140.4003  154.2395 H   0  0  0  0  0  0  0  0  0  0  0  0
  148.3646  140.4028  152.4925 H   0  0  0  0  0  0  0  0  0  0  0  0
  146.9483  139.4349  155.7728 H   0  0  0  0  0  0  0  0  0  0  0  0
  144.9735  138.1211  156.0346 H   0  0  0  0  0  0  0  0  0  0  0  0
  147.4587  141.2375  155.0478 H   0  0  0  0  0  0  0  0  0  0  0  0
  148.6752  142.9833  154.6733 H   0  0  0  0  0  0  0  0  0  0  0  0
  148.8653  139.6515  156.1665 H   0  0  0  0  0  0  0  0  0  0  0  0
  150.5217  143.5670  157.0526 H   0  0  0  0  0  0  0  0  0  0  0  0
  151.5341  145.4339  158.3083 H   0  0  0  0  0  0  0  0  0  0  0  0
  152.9473  144.9843  160.3053 H   0  0  0  0  0  0  0  0  0  0  0  0
  153.3416  142.6422  161.0435 H   0  0  0  0  0  0  0  0  0  0  0  0
  152.3444  140.7616  159.8125 H   0  0  0  0  0  0  0  0  0  0  0  0
  148.1201  136.3360  155.0137 H   0  0  0  0  0  0  0  0  0  0  0  0
  146.6752  134.5445  154.1239 H   0  0  0  0  0  0  0  0  0  0  0  0
  147.5871  132.2591  153.7618 H   0  0  0  0  0  0  0  0  0  0  0  0
  149.9666  131.7736  154.2990 H   0  0  0  0  0  0  0  0  0  0  0  0
  151.4299  133.5387  155.1857 H   0  0  0  0  0  0  0  0  0  0  0  0
  1  2  2  0  0  0  0
  2  3  1  0  0  0  0
  2 28  1  0  0  0  0
  3  4  1  0  0  0  0
  4  5  1  0  0  0  0
  4 35  1  0  0  0  0
  4 36  1  0  0  0  0
  5 18  1  0  0  0  0
  5  6  1  0  0  0  0
  5 37  1  0  0  0  0
  6  7  1  0  0  0  0
  7  8  1  0  0  0  0
  7 16  1  0  0  0  0
  7 38  1  0  0  0  0
  8 14  1  0  0  0  0
  8  9  1  0  0  0  0
  9 10  2  0  0  0  0
  9 39  1  0  0  0  0
 10 11  1  0  0  0  0
 10 40  1  0  0  0  0
 11 12  2  0  0  0  0
 11 13  1  0  0  0  0
 13 34  1  0  0  0  0
 13 14  1  0  0  0  0
 14 15  2  0  0  0  0
 16 17  1  0  0  0  0
 16 18  1  0  0  0  0
 16 41  1  0  0  0  0
 17 42  1  0  0  0  0
 18 19  1  0  0  0  0
 18 43  1  0  0  0  0
 19 20  1  0  0  0  0
 20 21  2  0  0  0  0
 20 22  1  0  0  0  0
 22 27  1  0  0  0  0
 22 23  2  0  0  0  0
 23 24  1  0  0  0  0
 23 44  1  0  0  0  0
 24 25  2  0  0  0  0
 24 45  1  0  0  0  0
 25 26  1  0  0  0  0
 25 46  1  0  0  0  0
 26 27  2  0  0  0  0
 26 47  1  0  0  0  0
 27 48  1  0  0  0  0
 28 33  1  0  0  0  0
 28 29  2  0  0  0  0
 29 30  1  0  0  0  0
 29 49  1  0  0  0  0
 30 31  2  0  0  0  0
 30 50  1  0  0  0  0
 31 32  1  0  0  0  0
 31 51  1  0  0  0  0
 32 33  2  0  0  0  0
 32 52  1  0  0  0  0
 33 53  1  0  0  0  0
M  END
> <s_m_source_file>
AV-unprocessed.smi

> <i_m_source_file_index>
99

> <i_lp_mmshare_version>
43012

> <i_f3d_flags>
0

> <s_epik_input>
W2NIXTFbY0hdW2NIXVtjSF1bY0hdYzFDKD1PKU9bQ0gyXVtDQEBIXTJPW0NAQEhdKG4zW2NIXVtjSF1jKD1PKVtuSF1jMz1PKVtDQEBIXShbT0hdKVtDQEhdMk9DKD1PKWM0W2NIXVtjSF1bY0hdW2NIXVtjSF00

> <s_epik_cmdline>
J2VwaWtfcHl0aG9uJywgJy1waCcsICc3LjAnLCAnLXRuJywgJzgnLCAnLW1hJywgJzIwMCcsICctbWV0YWxfYmluZGluZycsICctaW1hZScsICc8aW5maWxlLm1hZT4nLCAnLW9tYWUnLCAnPG91dGZpbGUubWFlPic=

> <r_lp_tautomer_probability>
1

> <r_epik_Ionization_Penalty>
0.00454555

> <r_epik_Ionization_Penalty_Charging>
0.0045191

> <r_epik_Ionization_Penalty_Neutral>
2.64449e-05

> <r_epik_State_Penalty>
-0

> <r_epik_Charging_Adjusted_Penalty>
0.0045191

> <i_epik_Tot_Q>
0

> <i_epik_Tot_abs_Q>
0

> <r_epik_Metal_State_Penalty>
1.27877

> <b_epik_Metal_Only>
0

> <s_epik_Chemistry_Notes>
This compound has an ester and may undergo hydrolysis at high or low pH. This compound contains an acetal/aminal-like group ( X-CH(R)-Y where X, Y are N, S, or O) that may be acid/base labile, releasing an aldehyde.

> <s_lp_Force_Field>
OPLS_2005

> <r_lp_Energy>
38.7636

> <b_lp_Chiralities_Consistent>
1

> <s_lp_Variant>
AV-unprocessed.smi:99-14

> <Gold.Version>
5.8.1

> <Gold.Id.Protein>
6NUR|6NUR_protein|mol2

> <Gold.PLP.Fitness>
54.5234

> <Gold.PLP.PLP>
-47.7114

> <Gold.PLP.part.hbond>
-4.3966

> <Gold.PLP.part.metal>
0.0000

> <Gold.PLP.part.buried>
-4.3819

> <Gold.PLP.part.nonpolar>
-44.1021

> <Gold.PLP.part.repulsive>
5.9272

> <Gold.PLP.ligand.clash>
0.0000

> <Gold.PLP.ligand.torsion>
1.6168

> <Gold.PLP.Chemscore.Hbond>
3.2560

> <Gold.PLP.Chemscore.CHOScore>
0.0000

> <Gold.PLP.Chemscore.Metal>
0.0000

> <Gold.Chemscore.Hbonds>
donor molecule, donor type, donor heavy atom, donor atom, acceptor molecule, acceptor atom, score
      L1  H    17    42       P1  8028  1.00
      P1  H  7954  7966       L1    15  1.00
      P1  H  8011  8017       L1    17  0.26
      P1  H 10752 10763       L1     1  1.00

> <Gold.PLP.Chemscore.Internal.Correction>
0.2776

> <Gold.Rescore>
     Score         DG    S(hbond)    S(metal)    S(lipo)     H(rot)  DE(clash)    DE(int)     intcor
     14.55     -20.51       2.73        0.00     120.23       3.19       2.89       3.07       ----

> <Gold.Chemscore.Fitness>
14.5514

> <Gold.Chemscore.DG>
-20.5112

> <Gold.Chemscore.ZeroCoef>
-5.4800

> <Gold.Chemscore.Hbond>
2.7338

> <Gold.Chemscore.Metal>
0.0000

> <Gold.Chemscore.Lipo>
120.2327

> <Gold.Chemscore.Internal_Hbond>
0.0000

> <Gold.Chemscore.DEClash>
2.8869

> <Gold.Chemscore.DEInternal>
3.0729

> <Gold.Chemscore.Rot>
3.1903

> <Gold.Chemscore.Internal.Correction>
   9.000000E+99

> <Gold.Chemscore.Hbonds>
donor molecule, donor type, donor heavy atom, donor atom, acceptor molecule, acceptor atom, score
      L1  H    17    42       P1  8028  0.96
      P1  H  7954  7966       L1    15  0.89
      P1  H  8011  8017       L1    17  0.26
      P1  H 10752 10763       L1     1  0.85

> <Gold.Chemscore.Hbond.Weighted>
-9.1310

> <Gold.Chemscore.Metal.Weighted>
-0.0000

> <Gold.Chemscore.Lipo.Weighted>
-14.0672

> <Gold.Chemscore.Internal_Hbond.Weighted>
0.0000

> <Gold.Chemscore.DEClash.Weighted>
2.8869

> <Gold.Chemscore.DEInternal.Weighted>
3.0729

> <Gold.Chemscore.Rot.Weighted>
8.1671

> <Gold.Chemscore.Internal.Correction.Weighted>
   9.000000E+99

> <Gold.Protein.RotatedTorsions>
[ 6907 6896 6895 6894 ] final  140.70 input  -60.11 | X-H torsion
[ 7974 7965 7964 7962 ] final   84.48 input  175.53 | X-H torsion
[ 8008 7997 7996 7995 ] final -166.17 input   59.86 | X-H torsion
[ 10167 10162 10161 10158 ] final -139.98 input  -65.29 | X-H torsion
[ 10718 10713 10712 10709 ] final  106.79 input   66.30 | X-H torsion
[ 10763 10752 10751 10750 ] final   99.60 input  -60.55 | X-H torsion
[ 11005 11000 10999 10996 ] final  -46.10 input  -57.11 | X-H torsion

> <Gold.Protein.ActiveResidues>
 VAL166  LYS551  ARG553  GLY616  TRP617  ASP618  TYR619  PRO620  LYS621  CYS622 
 ASP623  PHE694  ASN695  SER759  ASP760  ASP761  ALA762  ILE779  LEU786  VAL792 
 PHE793  MET794  SER795  GLU796  ALA797  LYS798  CYS799  TRP800  GLU811  SER814 

> <Gold.Protein.RotatedAtoms>
  152.2399  133.5126  159.5263 H   0  0  0  0  0  0  0  0  0  0  0  0  # atno 6907 bound_to 6896
  150.7061  134.1103  159.4007 H   0  0  0  0  0  0  0  0  0  0  0  0  # atno 6908 bound_to 6896
  151.9024  135.0372  160.0558 H   0  0  0  0  0  0  0  0  0  0  0  0  # atno 6909 bound_to 6896
  145.5982  139.2348  143.2261 H   0  0  0  0  0  0  0  0  0  0  0  0  # atno 7974 bound_to 7965
  155.8601  140.0977  157.1619 H   0  0  0  0  0  0  0  0  0  0  0  0  # atno 8008 bound_to 7997
  154.3990  140.1367  156.4012 H   0  0  0  0  0  0  0  0  0  0  0  0  # atno 8009 bound_to 7997
  155.7866  140.3457  155.5329 H   0  0  0  0  0  0  0  0  0  0  0  0  # atno 8010 bound_to 7997
  139.8326  143.7427  152.2665 H   0  0  0  0  0  0  0  0  0  0  0  0  # atno 10167 bound_to 10162
  157.6654  131.0858  150.6059 H   0  0  0  0  0  0  0  0  0  0  0  0  # atno 10718 bound_to 10713
  153.3034  135.4108  155.1273 H   0  0  0  0  0  0  0  0  0  0  0  0  # atno 10763 bound_to 10752
  154.8556  135.3547  154.5821 H   0  0  0  0  0  0  0  0  0  0  0  0  # atno 10764 bound_to 10752
  153.6247  135.7063  153.5356 H   0  0  0  0  0  0  0  0  0  0  0  0  # atno 10765 bound_to 10752
  141.0558  133.6726  156.3107 H   0  0  0  0  0  0  0  0  0  0  0  0  # atno 11005 bound_to 11000
  146.1596  140.6807  142.9283 LP  0  0  0  0  0  0  0  0  0  0  0  0  # atno 17320 bound_to 7965
  144.7321  140.4703  143.6930 LP  0  0  0  0  0  0  0  0  0  0  0  0  # atno 17321 bound_to 7965
  139.7639  144.7498  151.0323 LP  0  0  0  0  0  0  0  0  0  0  0  0  # atno 17342 bound_to 10162
  140.7805  143.4720  151.0133 LP  0  0  0  0  0  0  0  0  0  0  0  0  # atno 17343 bound_to 10162
  156.6360  130.4445  149.5769 LP  0  0  0  0  0  0  0  0  0  0  0  0  # atno 17370 bound_to 10713
  156.2246  130.6757  151.1402 LP  0  0  0  0  0  0  0  0  0  0  0  0  # atno 17371 bound_to 10713
  140.5967  134.5596  157.5510 LP  0  0  0  0  0  0  0  0  0  0  0  0  # atno 17394 bound_to 11000
  139.9389  134.7824  156.0731 LP  0  0  0  0  0  0  0  0  0  0  0  0  # atno 17395 bound_to 11000

$$$$
