AV-unprocessed.smi:1120|AV-procd|sdf|4824|dock8
  -GOLD-   22720 3383D 1   1.00000     0.00000
 Structure written by MMmdl.
 48 49  0  0  0  0  0  0  0  0  3 V2000
  152.9903  143.0176  161.3729 C   0  0  0  0  0  0  0  0  0  0  0  0
  152.7196  142.7652  159.8834 C   0  0  2  0  0  0  0  0  0  0  0  0
  151.8719  143.8940  159.2515 C   0  0  0  0  0  0  0  0  0  0  0  0
  151.5453  143.6364  157.7589 C   0  0  0  0  0  0  0  0  0  0  0  0
  150.8343  142.2843  157.5136 C   0  0  1  0  0  0  0  0  0  0  0  0
  150.6754  142.0610  156.0838 N   0  5  0  0  0  0  0  0  0  0  0  0
  150.2945  140.5836  155.5375 S   0  0  0  0  0  0  0  0  0  0  0  0
  151.3561  139.9948  154.7034 O   0  0  0  0  0  0  0  0  0  0  0  0
  149.7215  139.7224  156.5848 O   0  0  0  0  0  0  0  0  0  0  0  0
  148.9058  140.9909  154.3918 C   0  0  0  0  0  0  0  0  0  0  0  0
  148.4018  139.7230  153.7055 C   0  0  0  0  0  0  0  0  0  0  0  0
  148.9783  138.6511  153.8896 O   0  0  0  0  0  0  0  0  0  0  0  0
  147.3285  139.8599  152.9104 N   0  0  0  0  0  0  0  0  0  0  0  0
  146.7017  138.7913  152.1374 C   0  0  0  0  0  0  0  0  0  0  0  0
  145.9724  137.7642  153.0253 C   0  0  0  0  0  0  0  0  0  0  0  0
  145.5813  136.4868  152.3018 C   0  0  0  0  0  0  0  0  0  0  0  0
  144.2323  136.1441  152.0660 C   0  0  0  0  0  0  0  0  0  0  0  0
  143.9337  134.9310  151.4109 C   0  0  0  0  0  0  0  0  0  0  0  0
  144.9884  134.0879  151.0037 C   0  0  0  0  0  0  0  0  0  0  0  0
  146.3170  134.4794  151.2641 C   0  0  0  0  0  0  0  0  0  0  0  0
  146.5619  135.6474  151.8964 N   0  3  0  0  0  0  0  0  0  0  0  0
  151.6782  141.1550  158.1553 C   0  0  0  0  0  0  0  0  0  0  0  0
  152.0091  141.4117  159.6472 C   0  0  0  0  0  0  0  0  0  0  0  0
  152.0618  143.0562  161.9435 H   0  0  0  0  0  0  0  0  0  0  0  0
  153.5124  143.9631  161.5217 H   0  0  0  0  0  0  0  0  0  0  0  0
  153.6100  142.2276  161.7975 H   0  0  0  0  0  0  0  0  0  0  0  0
  153.6816  142.7366  159.3695 H   0  0  0  0  0  0  0  0  0  0  0  0
  150.9475  144.0215  159.8188 H   0  0  0  0  0  0  0  0  0  0  0  0
  152.4055  144.8408  159.3401 H   0  0  0  0  0  0  0  0  0  0  0  0
  150.9275  144.4512  157.3795 H   0  0  0  0  0  0  0  0  0  0  0  0
  152.4749  143.6696  157.1882 H   0  0  0  0  0  0  0  0  0  0  0  0
  149.8695  142.3216  158.0213 H   0  0  0  0  0  0  0  0  0  0  0  0
  148.1060  141.4562  154.9684 H   0  0  0  0  0  0  0  0  0  0  0  0
  149.2581  141.7149  153.6569 H   0  0  0  0  0  0  0  0  0  0  0  0
  146.9260  140.7822  152.8195 H   0  0  0  0  0  0  0  0  0  0  0  0
  146.0132  139.2017  151.3970 H   0  0  0  0  0  0  0  0  0  0  0  0
  147.4852  138.2867  151.5721 H   0  0  0  0  0  0  0  0  0  0  0  0
  146.6063  137.5031  153.8734 H   0  0  0  0  0  0  0  0  0  0  0  0
  145.0757  138.2186  153.4489 H   0  0  0  0  0  0  0  0  0  0  0  0
  143.4354  136.7970  152.3914 H   0  0  0  0  0  0  0  0  0  0  0  0
  142.9074  134.6486  151.2271 H   0  0  0  0  0  0  0  0  0  0  0  0
  144.7825  133.1513  150.5066 H   0  0  0  0  0  0  0  0  0  0  0  0
  147.1857  133.8925  151.0025 H   0  0  0  0  0  0  0  0  0  0  0  0
  151.1561  140.2020  158.0666 H   0  0  0  0  0  0  0  0  0  0  0  0
  152.6133  141.0402  157.6047 H   0  0  0  0  0  0  0  0  0  0  0  0
  152.6408  140.6023  160.0144 H   0  0  0  0  0  0  0  0  0  0  0  0
  151.0954  141.3672  160.2437 H   0  0  0  0  0  0  0  0  0  0  0  0
  147.5324  135.8979  152.0912 H   0  0  0  0  0  0  0  0  0  0  0  0
  1  2  1  0  0  0  0
  1 24  1  0  0  0  0
  1 25  1  0  0  0  0
  1 26  1  0  0  0  0
  2 23  1  0  0  0  0
  2  3  1  0  0  0  0
  2 27  1  0  0  0  0
  3  4  1  0  0  0  0
  3 28  1  0  0  0  0
  3 29  1  0  0  0  0
  4  5  1  0  0  0  0
  4 30  1  0  0  0  0
  4 31  1  0  0  0  0
  5  6  1  0  0  0  0
  5 22  1  0  0  0  0
  5 32  1  0  0  0  0
  6  7  1  0  0  0  0
  7  8  2  0  0  0  0
  7  9  2  0  0  0  0
  7 10  1  0  0  0  0
 10 11  1  0  0  0  0
 10 33  1  0  0  0  0
 10 34  1  0  0  0  0
 11 12  2  0  0  0  0
 11 13  1  0  0  0  0
 13 14  1  0  0  0  0
 13 35  1  0  0  0  0
 14 15  1  0  0  0  0
 14 36  1  0  0  0  0
 14 37  1  0  0  0  0
 15 16  1  0  0  0  0
 15 38  1  0  0  0  0
 15 39  1  0  0  0  0
 16 21  1  0  0  0  0
 16 17  2  0  0  0  0
 17 18  1  0  0  0  0
 17 40  1  0  0  0  0
 18 19  2  0  0  0  0
 18 41  1  0  0  0  0
 19 20  1  0  0  0  0
 19 42  1  0  0  0  0
 20 21  2  0  0  0  0
 20 43  1  0  0  0  0
 21 48  1  0  0  0  0
 22 23  1  0  0  0  0
 22 44  1  0  0  0  0
 22 45  1  0  0  0  0
 23 46  1  0  0  0  0
 23 47  1  0  0  0  0
M  CHG  1   6  -1
M  CHG  1  21   1
M  END
> <s_m_source_file>
AV-unprocessed.smi

> <i_m_source_file_index>
1120

> <i_lp_mmshare_version>
43012

> <i_f3d_flags>
0

> <s_epik_input>
W0NIM11bQ0BASF0xW0NIMl1bQ0gyXVtDQEhdKFtDSDJdW0NIMl0xKVtOSF1TKD1PKSg9TylbQ0gyXUMoPU8pW05IXVtDSDJdW0NIMl1jMltjSF1bY0hdW2NIXVtjSF1uMg==

> <s_epik_cmdline>
J2VwaWtfcHl0aG9uJywgJy1waCcsICc3LjAnLCAnLXRuJywgJzgnLCAnLW1hJywgJzIwMCcsICctbWV0YWxfYmluZGluZycsICctaW1hZScsICc8aW5maWxlLm1hZT4nLCAnLW9tYWUnLCAnPG91dGZpbGUubWFlPic=

> <r_epik_Ionization_Penalty>
7.48373

> <r_epik_Ionization_Penalty_Charging>
7.48373

> <r_epik_Ionization_Penalty_Neutral>
1.58512e-08

> <r_epik_State_Penalty>
7.71683

> <r_epik_Charging_Adjusted_Penalty>
15.2006

> <i_epik_Tot_Q>
0

> <i_epik_Tot_abs_Q>
2

> <r_epik_Metal_State_Penalty>
3.7254

> <b_epik_Metal_Only>
1

> <s_lp_Force_Field>
OPLS_2005

> <r_lp_Energy>
6.08915

> <b_lp_Chiralities_Consistent>
1

> <s_lp_Variant>
AV-unprocessed.smi:1120-7

> <Gold.Version>
5.8.1

> <Gold.Id.Protein>
6NUR|6NUR_protein|mol2

> <Gold.PLP.Fitness>
55.1867

> <Gold.PLP.PLP>
-46.8831

> <Gold.PLP.part.hbond>
-2.9120

> <Gold.PLP.part.metal>
0.0000

> <Gold.PLP.part.buried>
-3.3287

> <Gold.PLP.part.nonpolar>
-41.3402

> <Gold.PLP.part.repulsive>
0.6650

> <Gold.PLP.ligand.clash>
0.0000

> <Gold.PLP.ligand.torsion>
0.9163

> <Gold.PLP.Chemscore.Hbond>
3.0000

> <Gold.PLP.Chemscore.CHOScore>
0.0000

> <Gold.PLP.Chemscore.Metal>
0.0000

> <Gold.Chemscore.Hbonds>
donor molecule, donor type, donor heavy atom, donor atom, acceptor molecule, acceptor atom, score
      L1  H    21    48       P1  7948  1.62
      P1  H  7989  7998       L1     8  0.96

> <Gold.PLP.Chemscore.Internal.Correction>
1.1362

> <Gold.Rescore>
     Score         DG    S(hbond)    S(metal)    S(lipo)     H(rot)  DE(clash)    DE(int)     intcor
     14.95     -19.74       1.84        0.00     112.68       1.98       0.12       4.66       ----

> <Gold.Chemscore.Fitness>
14.9542

> <Gold.Chemscore.DG>
-19.7411

> <Gold.Chemscore.ZeroCoef>
-5.4800

> <Gold.Chemscore.Hbond>
1.8426

> <Gold.Chemscore.Metal>
0.0000

> <Gold.Chemscore.Lipo>
112.6814

> <Gold.Chemscore.Internal_Hbond>
0.0000

> <Gold.Chemscore.DEClash>
0.1247

> <Gold.Chemscore.DEInternal>
4.6622

> <Gold.Chemscore.Rot>
1.9832

> <Gold.Chemscore.Internal.Correction>
   9.000000E+99

> <Gold.Chemscore.Hbonds>
donor molecule, donor type, donor heavy atom, donor atom, acceptor molecule, acceptor atom, score
      L1  H    21    48       P1  7948  0.80
      P1  H  7989  7998       L1     8  0.70

> <Gold.Chemscore.Hbond.Weighted>
-6.1543

> <Gold.Chemscore.Metal.Weighted>
-0.0000

> <Gold.Chemscore.Lipo.Weighted>
-13.1837

> <Gold.Chemscore.Internal_Hbond.Weighted>
0.0000

> <Gold.Chemscore.DEClash.Weighted>
0.1247

> <Gold.Chemscore.DEInternal.Weighted>
4.6622

> <Gold.Chemscore.Rot.Weighted>
5.0769

> <Gold.Chemscore.Internal.Correction.Weighted>
   9.000000E+99

> <Gold.Protein.RotatedTorsions>
[ 6907 6896 6895 6894 ] final  134.99 input  -60.11 | X-H torsion
[ 7974 7965 7964 7962 ] final  117.71 input  175.53 | X-H torsion
[ 8008 7997 7996 7995 ] final  -48.93 input   59.86 | X-H torsion
[ 10167 10162 10161 10158 ] final -117.92 input  -65.29 | X-H torsion
[ 10718 10713 10712 10709 ] final   75.89 input   66.30 | X-H torsion
[ 10763 10752 10751 10750 ] final  111.75 input  -60.55 | X-H torsion
[ 11005 11000 10999 10996 ] final  -80.57 input  -57.11 | X-H torsion

> <Gold.Protein.ActiveResidues>
 VAL166  LYS551  ARG553  GLY616  TRP617  ASP618  TYR619  PRO620  LYS621  CYS622 
 ASP623  PHE694  ASN695  SER759  ASP760  ASP761  ALA762  ILE779  LEU786  VAL792 
 PHE793  MET794  SER795  GLU796  ALA797  LYS798  CYS799  TRP800  GLU811  SER814 

> <Gold.Protein.RotatedAtoms>
  152.3053  133.5697  159.5645 H   0  0  0  0  0  0  0  0  0  0  0  0  # atno 6907 bound_to 6896
  150.7297  134.0231  159.3717 H   0  0  0  0  0  0  0  0  0  0  0  0  # atno 6908 bound_to 6896
  151.8128  135.0676  160.0466 H   0  0  0  0  0  0  0  0  0  0  0  0  # atno 6909 bound_to 6896
  145.1640  139.3139  143.4502 H   0  0  0  0  0  0  0  0  0  0  0  0  # atno 7974 bound_to 7965
  154.4036  140.1309  156.4419 H   0  0  0  0  0  0  0  0  0  0  0  0  # atno 8008 bound_to 7997
  155.7451  140.3489  155.5103 H   0  0  0  0  0  0  0  0  0  0  0  0  # atno 8009 bound_to 7997
  155.9003  140.1018  157.1345 H   0  0  0  0  0  0  0  0  0  0  0  0  # atno 8010 bound_to 7997
  140.0632  143.4948  152.2021 H   0  0  0  0  0  0  0  0  0  0  0  0  # atno 10167 bound_to 10162
  157.6652  130.9748  150.1418 H   0  0  0  0  0  0  0  0  0  0  0  0  # atno 10718 bound_to 10713
  153.4679  135.3707  155.2375 H   0  0  0  0  0  0  0  0  0  0  0  0  # atno 10763 bound_to 10752
  154.8757  135.3924  154.3847 H   0  0  0  0  0  0  0  0  0  0  0  0  # atno 10764 bound_to 10752
  153.4430  135.7084  153.6221 H   0  0  0  0  0  0  0  0  0  0  0  0  # atno 10765 bound_to 10752
  141.1668  133.7156  156.8292 H   0  0  0  0  0  0  0  0  0  0  0  0  # atno 11005 bound_to 11000
  146.3478  140.1761  142.8589 LP  0  0  0  0  0  0  0  0  0  0  0  0  # atno 17320 bound_to 7965
  145.0301  140.8864  143.5114 LP  0  0  0  0  0  0  0  0  0  0  0  0  # atno 17321 bound_to 7965
  139.5881  144.7539  151.3469 LP  0  0  0  0  0  0  0  0  0  0  0  0  # atno 17342 bound_to 10162
  140.7162  143.7260  150.7659 LP  0  0  0  0  0  0  0  0  0  0  0  0  # atno 17343 bound_to 10162
  156.2239  130.3676  149.8524 LP  0  0  0  0  0  0  0  0  0  0  0  0  # atno 17370 bound_to 10713
  156.6369  130.8689  151.3506 LP  0  0  0  0  0  0  0  0  0  0  0  0  # atno 17371 bound_to 10713
  140.2063  134.8860  157.3225 LP  0  0  0  0  0  0  0  0  0  0  0  0  # atno 17394 bound_to 11000
  140.2133  134.4111  155.7601 LP  0  0  0  0  0  0  0  0  0  0  0  0  # atno 17395 bound_to 11000

$$$$
