#       Name:                AV-unprocessed.smi:1291
#       Creating user name   scv26
#       Creation time:       Fri Mar 27 04:55:05 2020


#       File generated by GOLD software.
#

@<TRIPOS>MOLECULE
AV-unprocessed.smi:1291
    50    52     1
SMALL
NO_CHARGES


@<TRIPOS>ATOM
      1 ****        -0.6363   3.1000  -4.7160 O.3            1 S1                 0.0000
      2 ****        -0.9085   2.0403  -3.8239 C.3            1 S1                 0.0000
      3 ****        -1.0478   2.4931  -2.4055 C.2            1 S1                 0.0000
      4 ****        -1.4947   3.7137  -1.9934 N.pl3          1 S1                 1.0000
      5 ****        -1.4964   3.7729  -0.5998 C.ar           1 S1                 0.0000
      6 ****        -1.8617   4.7976   0.2677 C.ar           1 S1                 0.0000
      7 ****        -1.7418   4.5310   1.6474 C.ar           1 S1                 0.0000
      8 ****        -1.2723   3.2871   2.1166 C.ar           1 S1                 0.0000
      9 ****        -0.9042   2.2563   1.2271 C.ar           1 S1                 0.0000
     10 ****        -1.0287   2.5263  -0.1359 C.ar           1 S1                 0.0000
     11 ****        -0.7665   1.7685  -1.2842 N.pl3          1 S1                 0.0000
     12 ****        -0.2643   0.3917  -1.1460 C.3            1 S1                 0.0000
     13 ****         1.2741   0.3054  -1.2162 C.3            1 S1                 0.0000
     14 ****         1.8938   1.1122  -0.2349 O.3            1 S1                 0.0000
     15 ****         1.8140  -1.1293  -1.1025 C.3            1 S1                 0.0000
     16 ****         1.2379  -1.7767   0.0213 O.3            1 S1                 0.0000
     17 ****         1.6707  -3.1178   0.1697 C.3            1 S1                 0.0000
     18 ****         1.0959  -3.7422   1.4262 C.ar           1 S1                 0.0000
     19 ****        -0.1550  -4.3929   1.3788 C.ar           1 S1                 0.0000
     20 ****        -0.6986  -4.9698   2.5432 C.ar           1 S1                 0.0000
     21 ****         0.0069  -4.8986   3.7598 C.ar           1 S1                 0.0000
     22 ****         1.2542  -4.2470   3.8122 C.ar           1 S1                 0.0000
     23 ****         1.7983  -3.6675   2.6492 C.ar           1 S1                 0.0000
     24 ****         2.9960  -3.0376   2.7145 F              1 S1                 0.0000
     25 ****        -0.5534   2.7449  -5.5882 H              1 S1                 0.0000
     26 ****        -1.8294   1.5444  -4.1308 H              1 S1                 0.0000
     27 ****        -0.1044   1.3082  -3.8988 H              1 S1                 0.0000
     28 ****        -2.2195   5.7520  -0.0899 H              1 S1                 0.0000
     29 ****        -2.0137   5.2963   2.3601 H              1 S1                 0.0000
     30 ****        -1.1915   3.1197   3.1808 H              1 S1                 0.0000
     31 ****        -0.5402   1.3099   1.5994 H              1 S1                 0.0000
     32 ****        -0.6480  -0.0345  -0.2191 H              1 S1                 0.0000
     33 ****        -0.7043  -0.1979  -1.9510 H              1 S1                 0.0000
     34 ****         1.5986   0.7053  -2.1774 H              1 S1                 0.0000
     35 ****         1.6128   2.0053  -0.3612 H              1 S1                 0.0000
     36 ****         1.5514  -1.6840  -2.0046 H              1 S1                 0.0000
     37 ****         2.9030  -1.1262  -1.0328 H              1 S1                 0.0000
     38 ****         1.3633  -3.7048  -0.6974 H              1 S1                 0.0000
     39 ****         2.7603  -3.1602   0.2092 H              1 S1                 0.0000
     40 ****        -0.7022  -4.4499   0.4492 H              1 S1                 0.0000
     41 ****        -1.6572  -5.4660   2.5037 H              1 S1                 0.0000
     42 ****        -0.4091  -5.3413   4.6526 H              1 S1                 0.0000
     43 ****         1.7939  -4.1894   4.7459 H              1 S1                 0.0000
     44 ****        -1.7745   4.4515  -2.6272 H              1 S1                 0.0000
     45 ****         0.2165   3.5513  -4.4532 LP             1 S1                 0.0000
     46 ****        -1.3852   3.7622  -4.6913 LP             1 S1                 0.0000
     47 ****         2.8877   1.0545  -0.3289 LP             1 S1                 0.0000
     48 ****         1.6266   0.8000   0.6768 LP             1 S1                 0.0000
     49 ****         0.2434  -1.7725  -0.0836 LP             1 S1                 0.0000
     50 ****         1.4882  -1.2680   0.8451 LP             1 S1                 0.0000
@<TRIPOS>BOND
    1    1    2 1     
    2    1   25 1     
    3    2    3 1     
    4    2   26 1     
    5    2   27 1     
    6    3   11 1     
    7    3    4 2     
    8    4    5 1     
    9    4   44 1     
   10    5   10 ar    
   11    5    6 ar    
   12    6    7 ar    
   13    6   28 1     
   14    7    8 ar    
   15    7   29 1     
   16    8    9 ar    
   17    8   30 1     
   18    9   10 ar    
   19    9   31 1     
   20   10   11 1     
   21   11   12 1     
   22   12   13 1     
   23   12   32 1     
   24   12   33 1     
   25   13   14 1     
   26   13   15 1     
   27   13   34 1     
   28   14   35 1     
   29   15   16 1     
   30   15   36 1     
   31   15   37 1     
   32   16   17 1     
   33   17   18 1     
   34   17   38 1     
   35   17   39 1     
   36   18   23 ar    
   37   18   19 ar    
   38   19   20 ar    
   39   19   40 1     
   40   20   21 ar    
   41   20   41 1     
   42   21   22 ar    
   43   21   42 1     
   44   22   23 ar    
   45   22   43 1     
   46   23   24 1     
   47    1   45 1     
   48    1   46 1     
   49   14   47 1     
   50   14   48 1     
   51   16   49 1     
   52   16   50 1     
@<TRIPOS>SUBSTRUCTURE
      1 S1             1
@<TRIPOS>SET
LONE_PAIRS      STATIC     ATOMS    <user>   **** ""
6 45 46 47 48 49 50
DONOR_HYDROGENS      STATIC     ATOMS    <user>   **** ""
3 25 44 35
ATOM$BLUE        STATIC     ATOMS    COLORGROUP SYSTEM
6 45 46 47 48 49 50
ATOM$RED        STATIC     ATOMS    COLORGROUP SYSTEM
3 25 44 35
