AV-unprocessed.smi:2284|AV-procd|sdf|9201|dock5
  -GOLD-   2272012413D 1   1.00000     0.00000
 Structure written by MMmdl.
 44 45  0  0  0  0  0  0  0  0  1 V2000
  150.9245  145.2816  159.7172 C   0  0  0  0  0  0  0  0  0  0  0  0
  151.7018  143.9926  159.8872 C   0  0  0  0  0  0  0  0  0  0  0  0
  152.4823  143.7788  161.0398 C   0  0  0  0  0  0  0  0  0  0  0  0
  153.2027  142.5799  161.1874 C   0  0  0  0  0  0  0  0  0  0  0  0
  153.1478  141.5886  160.1858 C   0  0  0  0  0  0  0  0  0  0  0  0
  153.9312  140.3010  160.3609 C   0  0  0  0  0  0  0  0  0  0  0  0
  152.3689  141.7908  159.0231 C   0  0  0  0  0  0  0  0  0  0  0  0
  152.3614  140.7821  158.0821 O   0  0  0  0  0  0  0  0  0  0  0  0
  151.3842  140.8203  157.0494 C   0  0  0  0  0  0  0  0  0  0  0  0
  151.7324  139.7888  155.9631 C   0  0  2  0  0  0  0  0  0  0  0  0
  150.9718  140.0990  154.8128 O   0  0  0  0  0  0  0  0  0  0  0  0
  151.4727  138.3317  156.4080 C   0  0  0  0  0  0  0  0  0  0  0  0
  152.2346  137.9741  157.6161 N   0  0  0  0  0  0  0  0  0  0  0  0
  151.4835  137.5269  158.7153 C   0  0  0  0  0  0  0  0  0  0  0  0
  152.0461  137.1820  159.8270 N   0  0  0  0  0  0  0  0  0  0  0  0
  153.4367  137.2458  159.9541 C   0  0  0  0  0  0  0  0  0  0  0  0
  153.9934  136.8122  161.2986 C   0  0  0  0  0  0  0  0  0  0  0  0
  154.2221  137.6671  158.9254 C   0  0  0  0  0  0  0  0  0  0  0  0
  155.7417  137.7481  159.0029 C   0  0  0  0  0  0  0  0  0  0  0  0
  153.5957  138.0638  157.6539 C   0  0  0  0  0  0  0  0  0  0  0  0
  154.2455  138.4483  156.6798 O   0  0  0  0  0  0  0  0  0  0  0  0
  151.6464  143.0034  158.8847 C   0  0  0  0  0  0  0  0  0  0  0  0
  150.9287  145.8727  160.6336 H   0  0  0  0  0  0  0  0  0  0  0  0
  149.8875  145.0687  159.4561 H   0  0  0  0  0  0  0  0  0  0  0  0
  151.3632  145.8832  158.9207 H   0  0  0  0  0  0  0  0  0  0  0  0
  152.5326  144.5311  161.8133 H   0  0  0  0  0  0  0  0  0  0  0  0
  153.7993  142.4253  162.0744 H   0  0  0  0  0  0  0  0  0  0  0  0
  153.2583  139.4431  160.3446 H   0  0  0  0  0  0  0  0  0  0  0  0
  154.4743  140.2881  161.3062 H   0  0  0  0  0  0  0  0  0  0  0  0
  154.6543  140.1861  159.5528 H   0  0  0  0  0  0  0  0  0  0  0  0
  150.3840  140.6355  157.4453 H   0  0  0  0  0  0  0  0  0  0  0  0
  151.3841  141.8138  156.5980 H   0  0  0  0  0  0  0  0  0  0  0  0
  152.7829  139.9248  155.7030 H   0  0  0  0  0  0  0  0  0  0  0  0
  150.5653  139.3065  154.4976 H   0  0  0  0  0  0  0  0  0  0  0  0
  150.4097  138.2058  156.6227 H   0  0  0  0  0  0  0  0  0  0  0  0
  151.6614  137.6414  155.5828 H   0  0  0  0  0  0  0  0  0  0  0  0
  150.4036  137.4878  158.5622 H   0  0  0  0  0  0  0  0  0  0  0  0
  154.5288  137.6348  161.7732 H   0  0  0  0  0  0  0  0  0  0  0  0
  154.6797  135.9739  161.1759 H   0  0  0  0  0  0  0  0  0  0  0  0
  153.1982  136.4965  161.9751 H   0  0  0  0  0  0  0  0  0  0  0  0
  156.1906  137.0759  158.2710 H   0  0  0  0  0  0  0  0  0  0  0  0
  156.1366  137.4796  159.9812 H   0  0  0  0  0  0  0  0  0  0  0  0
  156.0777  138.7618  158.7825 H   0  0  0  0  0  0  0  0  0  0  0  0
  151.0397  143.1990  158.0137 H   0  0  0  0  0  0  0  0  0  0  0  0
  1  2  1  0  0  0  0
  1 23  1  0  0  0  0
  1 24  1  0  0  0  0
  1 25  1  0  0  0  0
  2 22  1  0  0  0  0
  2  3  2  0  0  0  0
  3  4  1  0  0  0  0
  3 26  1  0  0  0  0
  4  5  2  0  0  0  0
  4 27  1  0  0  0  0
  5  6  1  0  0  0  0
  5  7  1  0  0  0  0
  6 28  1  0  0  0  0
  6 29  1  0  0  0  0
  6 30  1  0  0  0  0
  7  8  1  0  0  0  0
  7 22  2  0  0  0  0
  8  9  1  0  0  0  0
  9 10  1  0  0  0  0
  9 31  1  0  0  0  0
  9 32  1  0  0  0  0
 10 11  1  0  0  0  0
 10 12  1  0  0  0  0
 10 33  1  0  0  0  0
 11 34  1  0  0  0  0
 12 13  1  0  0  0  0
 12 35  1  0  0  0  0
 12 36  1  0  0  0  0
 13 20  1  0  0  0  0
 13 14  1  0  0  0  0
 14 15  2  0  0  0  0
 14 37  1  0  0  0  0
 15 16  1  0  0  0  0
 16 17  1  0  0  0  0
 16 18  2  0  0  0  0
 17 38  1  0  0  0  0
 17 39  1  0  0  0  0
 17 40  1  0  0  0  0
 18 19  1  0  0  0  0
 18 20  1  0  0  0  0
 19 41  1  0  0  0  0
 19 42  1  0  0  0  0
 19 43  1  0  0  0  0
 20 21  2  0  0  0  0
 22 44  1  0  0  0  0
M  END
> <s_m_source_file>
AV-unprocessed.smi

> <i_m_source_file_index>
2284

> <i_lp_mmshare_version>
43012

> <i_f3d_flags>
0

> <s_epik_input>
W0NIM11jMVtjSF1bY0hdYyhbQ0gzXSljKFtjSF0xKU9bQ0gyXVtDQEhdKFtPSF0pW0NIMl1uMltjSF1uYyhbQ0gzXSljKFtDSDNdKWMyPU8=

> <s_epik_cmdline>
J2VwaWtfcHl0aG9uJywgJy1waCcsICc3LjAnLCAnLXRuJywgJzgnLCAnLW1hJywgJzIwMCcsICctbWV0YWxfYmluZGluZycsICctaW1hZScsICc8aW5maWxlLm1hZT4nLCAnLW9tYWUnLCAnPG91dGZpbGUubWFlPic=

> <r_lp_tautomer_probability>
1

> <r_epik_Ionization_Penalty>
3.7476e-05

> <r_epik_Ionization_Penalty_Charging>
8.44705e-08

> <r_epik_Ionization_Penalty_Neutral>
3.73915e-05

> <r_epik_State_Penalty>
-0

> <r_epik_Charging_Adjusted_Penalty>
8.44705e-08

> <i_epik_Tot_Q>
0

> <i_epik_Tot_abs_Q>
0

> <r_epik_Metal_State_Penalty>
-0

> <b_epik_Metal_Only>
0

> <s_lp_Force_Field>
OPLS_2005

> <r_lp_Energy>
24.4024

> <b_lp_Chiralities_Consistent>
1

> <s_lp_Variant>
AV-unprocessed.smi:2284-1

> <Gold.Version>
5.8.1

> <Gold.Id.Protein>
6NUR|6NUR_protein|mol2

> <Gold.PLP.Fitness>
48.9577

> <Gold.PLP.PLP>
-42.3296

> <Gold.PLP.part.hbond>
-2.4152

> <Gold.PLP.part.metal>
0.0000

> <Gold.PLP.part.buried>
-6.9238

> <Gold.PLP.part.nonpolar>
-33.4843

> <Gold.PLP.part.repulsive>
0.0000

> <Gold.PLP.ligand.clash>
0.0000

> <Gold.PLP.ligand.torsion>
0.2923

> <Gold.PLP.Chemscore.Hbond>
2.3900

> <Gold.PLP.Chemscore.CHOScore>
0.0000

> <Gold.PLP.Chemscore.Metal>
0.0000

> <Gold.Chemscore.Hbonds>
donor molecule, donor type, donor heavy atom, donor atom, acceptor molecule, acceptor atom, score
      P1  H  6896  6907       L1    15  0.81
      P1  H  7989  7998       L1    11  1.00
      P1  H  7997  8008       L1    21  0.45

> <Gold.PLP.Chemscore.Internal.Correction>
0.0428

> <Gold.Rescore>
     Score         DG    S(hbond)    S(metal)    S(lipo)     H(rot)  DE(clash)    DE(int)     intcor
     16.21     -18.95       1.55        0.00     121.60       2.32       0.06       2.68       ----

> <Gold.Chemscore.Fitness>
16.2087

> <Gold.Chemscore.DG>
-18.9506

> <Gold.Chemscore.ZeroCoef>
-5.4800

> <Gold.Chemscore.Hbond>
1.5545

> <Gold.Chemscore.Metal>
0.0000

> <Gold.Chemscore.Lipo>
121.5998

> <Gold.Chemscore.Internal_Hbond>
0.0000

> <Gold.Chemscore.DEClash>
0.0647

> <Gold.Chemscore.DEInternal>
2.6773

> <Gold.Chemscore.Rot>
2.3236

> <Gold.Chemscore.Internal.Correction>
   9.000000E+99

> <Gold.Chemscore.Hbonds>
donor molecule, donor type, donor heavy atom, donor atom, acceptor molecule, acceptor atom, score
      P1  H  6896  6907       L1    15  0.17
      P1  H  7989  7998       L1    11  0.60
      P1  H  7997  8008       L1    21  0.34

> <Gold.Chemscore.Hbond.Weighted>
-5.1919

> <Gold.Chemscore.Metal.Weighted>
-0.0000

> <Gold.Chemscore.Lipo.Weighted>
-14.2272

> <Gold.Chemscore.Internal_Hbond.Weighted>
0.0000

> <Gold.Chemscore.DEClash.Weighted>
0.0647

> <Gold.Chemscore.DEInternal.Weighted>
2.6773

> <Gold.Chemscore.Rot.Weighted>
5.9484

> <Gold.Chemscore.Internal.Correction.Weighted>
   9.000000E+99

> <Gold.Protein.RotatedTorsions>
[ 6907 6896 6895 6894 ] final   -8.65 input  -60.11 | X-H torsion
[ 7974 7965 7964 7962 ] final  -97.67 input  175.53 | X-H torsion
[ 8008 7997 7996 7995 ] final  -68.14 input   59.86 | X-H torsion
[ 10167 10162 10161 10158 ] final   73.20 input  -65.29 | X-H torsion
[ 10718 10713 10712 10709 ] final  -80.72 input   66.30 | X-H torsion
[ 10763 10752 10751 10750 ] final  -50.91 input  -60.55 | X-H torsion
[ 11005 11000 10999 10996 ] final  156.61 input  -57.11 | X-H torsion

> <Gold.Protein.ActiveResidues>
 VAL166  LYS551  ARG553  GLY616  TRP617  ASP618  TYR619  PRO620  LYS621  CYS622 
 ASP623  PHE694  ASN695  SER759  ASP760  ASP761  ALA762  ILE779  LEU786  VAL792 
 PHE793  MET794  SER795  GLU796  ALA797  LYS798  CYS799  TRP800  GLU811  SER814 

> <Gold.Protein.RotatedAtoms>
  151.4302  135.1008  159.9639 H   0  0  0  0  0  0  0  0  0  0  0  0  # atno 6907 bound_to 6896
  152.4958  133.8624  159.7267 H   0  0  0  0  0  0  0  0  0  0  0  0  # atno 6908 bound_to 6896
  150.9160  133.6880  159.2871 H   0  0  0  0  0  0  0  0  0  0  0  0  # atno 6909 bound_to 6896
  145.3307  140.9441  143.2663 H   0  0  0  0  0  0  0  0  0  0  0  0  # atno 7974 bound_to 7965
  154.4848  140.0878  156.7460 H   0  0  0  0  0  0  0  0  0  0  0  0  # atno 8008 bound_to 7997
  155.4379  140.3452  155.4268 H   0  0  0  0  0  0  0  0  0  0  0  0  # atno 8009 bound_to 7997
  156.1245  140.1483  156.9145 H   0  0  0  0  0  0  0  0  0  0  0  0  # atno 8010 bound_to 7997
  140.0271  144.5495  150.7536 H   0  0  0  0  0  0  0  0  0  0  0  0  # atno 10167 bound_to 10162
  156.0064  130.4582  150.3843 H   0  0  0  0  0  0  0  0  0  0  0  0  # atno 10718 bound_to 10713
  154.1180  135.6539  153.4897 H   0  0  0  0  0  0  0  0  0  0  0  0  # atno 10763 bound_to 10752
  153.0234  135.5263  154.7125 H   0  0  0  0  0  0  0  0  0  0  0  0  # atno 10764 bound_to 10752
  154.6324  135.2978  155.0170 H   0  0  0  0  0  0  0  0  0  0  0  0  # atno 10765 bound_to 10752
  140.1691  134.8555  157.2669 H   0  0  0  0  0  0  0  0  0  0  0  0  # atno 11005 bound_to 11000
  144.8866  139.4831  143.6697 LP  0  0  0  0  0  0  0  0  0  0  0  0  # atno 17320 bound_to 7965
  146.3046  139.7539  142.9065 LP  0  0  0  0  0  0  0  0  0  0  0  0  # atno 17321 bound_to 7965
  140.7318  143.2698  151.3924 LP  0  0  0  0  0  0  0  0  0  0  0  0  # atno 17342 bound_to 10162
  139.6101  144.1116  152.2290 LP  0  0  0  0  0  0  0  0  0  0  0  0  # atno 17343 bound_to 10162
  157.1921  131.0418  151.2695 LP  0  0  0  0  0  0  0  0  0  0  0  0  # atno 17370 bound_to 10713
  157.4052  130.7355  149.6797 LP  0  0  0  0  0  0  0  0  0  0  0  0  # atno 17371 bound_to 10713
  140.2398  134.3809  155.7485 LP  0  0  0  0  0  0  0  0  0  0  0  0  # atno 17394 bound_to 11000
  141.2216  133.7259  156.8771 LP  0  0  0  0  0  0  0  0  0  0  0  0  # atno 17395 bound_to 11000

$$$$
