#       Name:                AV-unprocessed.smi:331
#       Creating user name   scv26
#       Creation time:       Thu Mar 26 22:26:16 2020


#       File generated by GOLD software.
#

@<TRIPOS>MOLECULE
AV-unprocessed.smi:331
    39    40     1
SMALL
NO_CHARGES


@<TRIPOS>ATOM
      1 ****         0.5044   3.0888   0.5409 O.2            1 S1                 0.0000
      2 ****         0.2012   1.9045   0.6718 C.2            1 S1                 0.0000
      3 ****         1.1028   0.9238   0.8430 N.am           1 S1                 0.0000
      4 ****         2.5505   1.0963   0.7953 C.3            1 S1                 0.0000
      5 ****         3.0806   1.1491  -0.6503 C.3            1 S1                 0.0000
      6 ****         2.6107  -0.0177  -1.5026 C.ar           1 S1                 0.0000
      7 ****         1.5217   0.1221  -2.3882 C.ar           1 S1                 0.0000
      8 ****         1.1128  -0.9944  -3.1421 C.ar           1 S1                 0.0000
      9 ****         1.8146  -2.2057  -2.9806 C.ar           1 S1                 0.0000
     10 ****         2.8595  -2.3508  -2.1374 N.ar           1 S1                 0.0000
     11 ****         3.2446  -1.2753  -1.4172 C.ar           1 S1                 0.0000
     12 ****        -1.0786   1.4916   0.6588 N.am           1 S1                 0.0000
     13 ****        -2.2843   2.3072   0.4931 C.3            1 S1                 0.0000
     14 ****        -3.5215   1.5662   1.0349 C.3            1 S1                 0.0000
     15 ****        -4.6034   1.7101  -0.0363 C.3            1 S1                 0.0000
     16 ****        -3.8258   1.7881  -1.3459 C.3            1 S1                 0.0000
     17 ****        -2.5777   2.5982  -0.9931 C.3            1 S1                 0.0000
     18 ****         0.7605  -0.0189   0.9590 H              1 S1                 0.0000
     19 ****         2.8498   1.9893   1.3460 H              1 S1                 0.0000
     20 ****         2.9977   0.2493   1.3162 H              1 S1                 0.0000
     21 ****         2.7677   2.0808  -1.1236 H              1 S1                 0.0000
     22 ****         4.1710   1.1668  -0.6422 H              1 S1                 0.0000
     23 ****         1.0023   1.0647  -2.4823 H              1 S1                 0.0000
     24 ****         0.2809  -0.9246  -3.8272 H              1 S1                 0.0000
     25 ****         1.5278  -3.0821  -3.5430 H              1 S1                 0.0000
     26 ****         4.0795  -1.4246  -0.7484 H              1 S1                 0.0000
     27 ****        -1.2359   0.5129   0.8516 H              1 S1                 0.0000
     28 ****        -2.1742   3.2486   1.0351 H              1 S1                 0.0000
     29 ****        -3.3041   0.5058   1.1760 H              1 S1                 0.0000
     30 ****        -3.8470   1.9585   1.9991 H              1 S1                 0.0000
     31 ****        -5.3211   0.8894  -0.0208 H              1 S1                 0.0000
     32 ****        -5.1544   2.6386   0.1193 H              1 S1                 0.0000
     33 ****        -3.5362   0.7846  -1.6610 H              1 S1                 0.0000
     34 ****        -4.4046   2.2377  -2.1534 H              1 S1                 0.0000
     35 ****        -2.7930   3.6607  -1.1132 H              1 S1                 0.0000
     36 ****        -1.7429   2.3648  -1.6555 H              1 S1                 0.0000
     37 ****         1.4657   3.3638   0.5591 LP             1 S1                 0.0000
     38 ****        -0.2102   3.7771   0.4163 LP             1 S1                 0.0000
     39 ****         3.3332  -3.2271  -2.0491 LP             1 S1                 0.0000
@<TRIPOS>BOND
    1    1    2 2     
    2    2    3 am    
    3    2   12 am    
    4    3    4 1     
    5    3   18 1     
    6    4    5 1     
    7    4   19 1     
    8    4   20 1     
    9    5    6 1     
   10    5   21 1     
   11    5   22 1     
   12    6   11 ar    
   13    6    7 ar    
   14    7    8 ar    
   15    7   23 1     
   16    8    9 ar    
   17    8   24 1     
   18    9   10 ar    
   19    9   25 1     
   20   10   11 ar    
   21   11   26 1     
   22   12   13 1     
   23   12   27 1     
   24   13   17 1     
   25   13   14 1     
   26   13   28 1     
   27   14   15 1     
   28   14   29 1     
   29   14   30 1     
   30   15   16 1     
   31   15   31 1     
   32   15   32 1     
   33   16   17 1     
   34   16   33 1     
   35   16   34 1     
   36   17   35 1     
   37   17   36 1     
   38    1   37 1     
   39    1   38 1     
   40   10   39 1     
@<TRIPOS>SUBSTRUCTURE
      1 S1             1
@<TRIPOS>SET
LONE_PAIRS      STATIC     ATOMS    <user>   **** ""
3 37 38 39
DONOR_HYDROGENS      STATIC     ATOMS    <user>   **** ""
2 18 27
ATOM$BLUE        STATIC     ATOMS    COLORGROUP SYSTEM
3 37 38 39
ATOM$RED        STATIC     ATOMS    COLORGROUP SYSTEM
2 18 27
