AV-unprocessed.smi:420|AV-procd|sdf|2533|dock1
  -GOLD-   2262022493D 1   1.00000     0.00000
 Structure written by MMmdl.
 36 38  0  0  0  0  0  0  0  0  1 V2000
  154.4140  141.5696  159.8662 C   0  0  0  0  0  0  0  0  0  0  0  0
  153.0951  141.7414  159.2690 N   0  0  0  0  0  0  0  0  0  0  0  0
  152.4510  140.8778  158.4497 C   0  0  0  0  0  0  0  0  0  0  0  0
  152.8751  139.7872  158.0672 O   0  0  0  0  0  0  0  0  0  0  0  0
  151.2521  141.4196  158.1281 N   0  0  0  0  0  0  0  0  0  0  0  0
  150.2320  140.8231  157.2667 C   0  0  0  0  0  0  0  0  0  0  0  0
  150.5114  141.0919  155.7746 C   0  0  1  0  0  0  0  0  0  0  0  0
  151.7857  140.5696  155.4527 O   0  0  0  0  0  0  0  0  0  0  0  0
  149.4224  140.4888  154.9000 C   0  0  0  0  0  0  0  0  0  0  0  0
  148.6074  141.3101  154.0891 C   0  0  0  0  0  0  0  0  0  0  0  0
  147.6092  140.7386  153.2762 C   0  0  0  0  0  0  0  0  0  0  0  0
  147.4227  139.3429  153.2653 C   0  0  0  0  0  0  0  0  0  0  0  0
  146.4647  138.7934  152.4819 F   0  0  0  0  0  0  0  0  0  0  0  0
  148.2349  138.5190  154.0679 C   0  0  0  0  0  0  0  0  0  0  0  0
  149.2322  139.0904  154.8823 C   0  0  0  0  0  0  0  0  0  0  0  0
  151.1227  142.6612  158.7675 C   0  0  0  0  0  0  0  0  0  0  0  0
  150.0768  143.6011  158.7683 C   0  0  0  0  0  0  0  0  0  0  0  0
  150.2634  144.7756  159.5346 C   0  0  0  0  0  0  0  0  0  0  0  0
  151.4604  144.9831  160.2683 C   0  0  0  0  0  0  0  0  0  0  0  0
  152.4957  144.0191  160.2533 C   0  0  0  0  0  0  0  0  0  0  0  0
  152.2840  142.8627  159.4835 C   0  0  0  0  0  0  0  0  0  0  0  0
  154.8870  140.6369  159.5564 H   0  0  0  0  0  0  0  0  0  0  0  0
  154.3362  141.5628  160.9537 H   0  0  0  0  0  0  0  0  0  0  0  0
  155.0684  142.3916  159.5755 H   0  0  0  0  0  0  0  0  0  0  0  0
  150.1211  139.7558  157.4617 H   0  0  0  0  0  0  0  0  0  0  0  0
  149.2752  141.2712  157.5411 H   0  0  0  0  0  0  0  0  0  0  0  0
  150.5400  142.1663  155.5880 H   0  0  0  0  0  0  0  0  0  0  0  0
  151.7406  139.6266  155.4929 H   0  0  0  0  0  0  0  0  0  0  0  0
  148.7461  142.3815  154.0852 H   0  0  0  0  0  0  0  0  0  0  0  0
  146.9878  141.3710  152.6596 H   0  0  0  0  0  0  0  0  0  0  0  0
  148.0942  137.4482  154.0584 H   0  0  0  0  0  0  0  0  0  0  0  0
  149.8526  138.4493  155.4916 H   0  0  0  0  0  0  0  0  0  0  0  0
  149.1658  143.4376  158.2122 H   0  0  0  0  0  0  0  0  0  0  0  0
  149.4844  145.5233  159.5620 H   0  0  0  0  0  0  0  0  0  0  0  0
  151.5818  145.8871  160.8468 H   0  0  0  0  0  0  0  0  0  0  0  0
  153.4087  144.1677  160.8107 H   0  0  0  0  0  0  0  0  0  0  0  0
  1  2  1  0  0  0  0
  1 22  1  0  0  0  0
  1 23  1  0  0  0  0
  1 24  1  0  0  0  0
  2 21  1  0  0  0  0
  2  3  1  0  0  0  0
  3  4  2  0  0  0  0
  3  5  1  0  0  0  0
  5  6  1  0  0  0  0
  5 16  1  0  0  0  0
  6  7  1  0  0  0  0
  6 25  1  0  0  0  0
  6 26  1  0  0  0  0
  7  8  1  0  0  0  0
  7  9  1  0  0  0  0
  7 27  1  0  0  0  0
  8 28  1  0  0  0  0
  9 15  1  0  0  0  0
  9 10  2  0  0  0  0
 10 11  1  0  0  0  0
 10 29  1  0  0  0  0
 11 12  2  0  0  0  0
 11 30  1  0  0  0  0
 12 13  1  0  0  0  0
 12 14  1  0  0  0  0
 14 15  2  0  0  0  0
 14 31  1  0  0  0  0
 15 32  1  0  0  0  0
 16 21  2  0  0  0  0
 16 17  1  0  0  0  0
 17 18  2  0  0  0  0
 17 33  1  0  0  0  0
 18 19  1  0  0  0  0
 18 34  1  0  0  0  0
 19 20  2  0  0  0  0
 19 35  1  0  0  0  0
 20 21  1  0  0  0  0
 20 36  1  0  0  0  0
M  END
> <s_m_source_file>
AV-unprocessed.smi

> <i_m_source_file_index>
420

> <i_lp_mmshare_version>
43012

> <i_f3d_flags>
0

> <s_epik_input>
W2NIXTFbY0hdW2NIXVtjSF1jKGMxMiluKFtDSDNdKWMoPU8pbjJbQ0gyXVtDQEhdKFtPSF0pYzNbY0hdW2NIXWMoRilbY0hdW2NIXTM=

> <s_epik_cmdline>
J2VwaWtfcHl0aG9uJywgJy1waCcsICc3LjAnLCAnLXRuJywgJzgnLCAnLW1hJywgJzIwMCcsICctbWV0YWxfYmluZGluZycsICctaW1hZScsICc8aW5maWxlLm1hZT4nLCAnLW9tYWUnLCAnPG91dGZpbGUubWFlPic=

> <r_lp_tautomer_probability>
1

> <r_epik_Ionization_Penalty>
1.79795e-06

> <r_epik_Ionization_Penalty_Charging>
2.57375e-09

> <r_epik_Ionization_Penalty_Neutral>
1.79538e-06

> <r_epik_State_Penalty>
-0

> <r_epik_Charging_Adjusted_Penalty>
2.57375e-09

> <i_epik_Tot_Q>
0

> <i_epik_Tot_abs_Q>
0

> <r_epik_Metal_State_Penalty>
-0

> <b_epik_Metal_Only>
0

> <s_lp_Force_Field>
OPLS_2005

> <r_lp_Energy>
43.03

> <b_lp_Chiralities_Consistent>
1

> <s_lp_Variant>
AV-unprocessed.smi:420-2

> <Gold.Version>
5.8.1

> <Gold.Id.Protein>
6NUR|6NUR_protein|mol2

> <Gold.PLP.Fitness>
50.0152

> <Gold.PLP.PLP>
-45.8919

> <Gold.PLP.part.hbond>
-2.0000

> <Gold.PLP.part.metal>
0.0000

> <Gold.PLP.part.buried>
-1.1095

> <Gold.PLP.part.nonpolar>
-42.2813

> <Gold.PLP.part.repulsive>
0.0000

> <Gold.PLP.ligand.clash>
0.0000

> <Gold.PLP.ligand.torsion>
0.3466

> <Gold.PLP.Chemscore.Hbond>
1.5984

> <Gold.PLP.Chemscore.CHOScore>
0.0000

> <Gold.PLP.Chemscore.Metal>
0.0000

> <Gold.Chemscore.Hbonds>
donor molecule, donor type, donor heavy atom, donor atom, acceptor molecule, acceptor atom, score
      P1  H  7989  7998       L1     8  0.56
      P1  H  7997  8009       L1     4  1.00

> <Gold.PLP.Chemscore.Internal.Correction>
0.0212

> <Gold.Rescore>
     Score         DG    S(hbond)    S(metal)    S(lipo)     H(rot)  DE(clash)    DE(int)     intcor
     17.37     -17.83       1.22        0.00     111.11       1.85       0.08       0.38       ----

> <Gold.Chemscore.Fitness>
17.3704

> <Gold.Chemscore.DG>
-17.8297

> <Gold.Chemscore.ZeroCoef>
-5.4800

> <Gold.Chemscore.Hbond>
1.2206

> <Gold.Chemscore.Metal>
0.0000

> <Gold.Chemscore.Lipo>
111.1112

> <Gold.Chemscore.Internal_Hbond>
0.0000

> <Gold.Chemscore.DEClash>
0.0830

> <Gold.Chemscore.DEInternal>
0.3762

> <Gold.Chemscore.Rot>
1.8465

> <Gold.Chemscore.Internal.Correction>
   9.000000E+99

> <Gold.Chemscore.Hbonds>
donor molecule, donor type, donor heavy atom, donor atom, acceptor molecule, acceptor atom, score
      P1  H  7989  7998       L1     8  0.03
      P1  H  7997  8009       L1     4  0.70

> <Gold.Chemscore.Hbond.Weighted>
-4.0767

> <Gold.Chemscore.Metal.Weighted>
-0.0000

> <Gold.Chemscore.Lipo.Weighted>
-13.0000

> <Gold.Chemscore.Internal_Hbond.Weighted>
0.0000

> <Gold.Chemscore.DEClash.Weighted>
0.0830

> <Gold.Chemscore.DEInternal.Weighted>
0.3762

> <Gold.Chemscore.Rot.Weighted>
4.7270

> <Gold.Chemscore.Internal.Correction.Weighted>
   9.000000E+99

> <Gold.Protein.RotatedTorsions>
[ 6907 6896 6895 6894 ] final -149.35 input  -60.11 | X-H torsion
[ 7974 7965 7964 7962 ] final  -29.11 input  175.53 | X-H torsion
[ 8008 7997 7996 7995 ] final  154.37 input   59.86 | X-H torsion
[ 10167 10162 10161 10158 ] final   -2.83 input  -65.29 | X-H torsion
[ 10718 10713 10712 10709 ] final -167.22 input   66.30 | X-H torsion
[ 10763 10752 10751 10750 ] final -127.25 input  -60.55 | X-H torsion
[ 11005 11000 10999 10996 ] final  129.70 input  -57.11 | X-H torsion

> <Gold.Protein.ActiveResidues>
 VAL166  LYS551  ARG553  GLY616  TRP617  ASP618  TYR619  PRO620  LYS621  CYS622 
 ASP623  PHE694  ASN695  SER759  ASP760  ASP761  ALA762  ILE779  LEU786  VAL792 
 PHE793  MET794  SER795  GLU796  ALA797  LYS798  CYS799  TRP800  GLU811  SER814 

> <Gold.Protein.RotatedAtoms>
  151.1829  133.4714  159.2593 H   0  0  0  0  0  0  0  0  0  0  0  0  # atno 6907 bound_to 6896
  151.1241  135.0095  159.8562 H   0  0  0  0  0  0  0  0  0  0  0  0  # atno 6908 bound_to 6896
  152.5457  134.1738  159.8660 H   0  0  0  0  0  0  0  0  0  0  0  0  # atno 6909 bound_to 6896
  146.1240  140.5370  142.8723 H   0  0  0  0  0  0  0  0  0  0  0  0  # atno 7974 bound_to 7965
  156.2534  140.1968  156.6636 H   0  0  0  0  0  0  0  0  0  0  0  0  # atno 8008 bound_to 7997
  154.6445  140.0579  156.9910 H   0  0  0  0  0  0  0  0  0  0  0  0  # atno 8009 bound_to 7997
  155.1511  140.3251  155.4434 H   0  0  0  0  0  0  0  0  0  0  0  0  # atno 8010 bound_to 7997
  140.6866  143.6611  150.8265 H   0  0  0  0  0  0  0  0  0  0  0  0  # atno 10167 bound_to 10162
  156.6792  130.9115  151.3054 H   0  0  0  0  0  0  0  0  0  0  0  0  # atno 10718 bound_to 10713
  154.8751  135.3968  154.3564 H   0  0  0  0  0  0  0  0  0  0  0  0  # atno 10763 bound_to 10752
  153.4342  135.7025  153.6216 H   0  0  0  0  0  0  0  0  0  0  0  0  # atno 10764 bound_to 10752
  153.4824  135.3766  155.2419 H   0  0  0  0  0  0  0  0  0  0  0  0  # atno 10765 bound_to 10752
  139.9630  134.9597  156.9187 H   0  0  0  0  0  0  0  0  0  0  0  0  # atno 11005 bound_to 11000
  144.7624  140.5453  143.6726 LP  0  0  0  0  0  0  0  0  0  0  0  0  # atno 17320 bound_to 7965
  145.5406  139.1475  143.3449 LP  0  0  0  0  0  0  0  0  0  0  0  0  # atno 17321 bound_to 7965
  140.0319  143.5435  152.2756 LP  0  0  0  0  0  0  0  0  0  0  0  0  # atno 17342 bound_to 10162
  139.6230  144.7632  151.2698 LP  0  0  0  0  0  0  0  0  0  0  0  0  # atno 17343 bound_to 10162
  157.7050  130.9374  150.0902 LP  0  0  0  0  0  0  0  0  0  0  0  0  # atno 17370 bound_to 10713
  156.1880  130.3653  149.8946 LP  0  0  0  0  0  0  0  0  0  0  0  0  # atno 17371 bound_to 10713
  140.5457  134.0676  155.7354 LP  0  0  0  0  0  0  0  0  0  0  0  0  # atno 17394 bound_to 11000
  141.1309  133.9304  157.2538 LP  0  0  0  0  0  0  0  0  0  0  0  0  # atno 17395 bound_to 11000

$$$$
