AV-unprocessed.smi:2006|AV-procd|sdf|8132|dock2
  -GOLD-   2272010363D 1   1.00000     0.00000
 Structure written by MMmdl.
 32 33  0  0  0  0  0  0  0  0  1 V2000
  152.5914  142.3049  161.7115 C   0  0  0  0  0  0  0  0  0  0  0  0
  152.7025  142.7153  160.2395 C   0  0  1  0  0  0  0  0  0  0  0  0
  152.1191  141.6462  159.2955 C   0  0  0  0  0  0  0  0  0  0  0  0
  152.1620  142.1166  157.9168 N   0  0  0  0  0  0  0  0  0  0  0  0
  151.7528  141.1511  156.9863 C   0  0  0  0  0  0  0  0  0  0  0  0
  150.6146  141.4063  156.1931 C   0  0  0  0  0  0  0  0  0  0  0  0
  150.2110  140.4362  155.2560 C   0  0  0  0  0  0  0  0  0  0  0  0
  150.9583  139.2460  155.1432 C   0  0  0  0  0  0  0  0  0  0  0  0
  150.5663  138.1715  154.1492 C   0  0  0  0  0  0  0  0  0  0  0  0
  149.3931  138.5291  153.3767 N   0  0  0  0  0  0  0  0  0  0  0  0
  152.0794  139.0821  155.9830 C   0  0  0  0  0  0  0  0  0  0  0  0
  152.4725  140.0075  156.8841 N   0  0  0  0  0  0  0  0  0  0  0  0
  151.5014  143.4042  157.7460 C   0  0  0  0  0  0  0  0  0  0  0  0
  152.0931  144.4317  158.7253 C   0  0  0  0  0  0  0  0  0  0  0  0
  151.9885  143.9365  160.0575 O   0  0  0  0  0  0  0  0  0  0  0  0
  153.1356  141.3796  161.9024 H   0  0  0  0  0  0  0  0  0  0  0  0
  151.5518  142.1474  161.9999 H   0  0  0  0  0  0  0  0  0  0  0  0
  153.0055  143.0749  162.3629 H   0  0  0  0  0  0  0  0  0  0  0  0
  153.7554  142.8795  160.0030 H   0  0  0  0  0  0  0  0  0  0  0  0
  152.6857  140.7181  159.3834 H   0  0  0  0  0  0  0  0  0  0  0  0
  151.0889  141.4234  159.5770 H   0  0  0  0  0  0  0  0  0  0  0  0
  150.0612  142.3281  156.2981 H   0  0  0  0  0  0  0  0  0  0  0  0
  149.3439  140.6046  154.6344 H   0  0  0  0  0  0  0  0  0  0  0  0
  151.3937  137.9730  153.4673 H   0  0  0  0  0  0  0  0  0  0  0  0
  150.3677  137.2441  154.6872 H   0  0  0  0  0  0  0  0  0  0  0  0
  149.6521  139.1989  152.6664 H   0  0  0  0  0  0  0  0  0  0  0  0
  149.0580  137.7149  152.8815 H   0  0  0  0  0  0  0  0  0  0  0  0
  152.6797  138.1856  155.9312 H   0  0  0  0  0  0  0  0  0  0  0  0
  151.6248  143.7505  156.7190 H   0  0  0  0  0  0  0  0  0  0  0  0
  150.4305  143.2974  157.9254 H   0  0  0  0  0  0  0  0  0  0  0  0
  153.1362  144.6433  158.4853 H   0  0  0  0  0  0  0  0  0  0  0  0
  151.5521  145.3753  158.6534 H   0  0  0  0  0  0  0  0  0  0  0  0
  1  2  1  0  0  0  0
  1 16  1  0  0  0  0
  1 17  1  0  0  0  0
  1 18  1  0  0  0  0
  2 15  1  0  0  0  0
  2  3  1  0  0  0  0
  2 19  1  0  0  0  0
  3  4  1  0  0  0  0
  3 20  1  0  0  0  0
  3 21  1  0  0  0  0
  4  5  1  0  0  0  0
  4 13  1  0  0  0  0
  5 12  1  0  0  0  0
  5  6  2  0  0  0  0
  6  7  1  0  0  0  0
  6 22  1  0  0  0  0
  7  8  2  0  0  0  0
  7 23  1  0  0  0  0
  8  9  1  0  0  0  0
  8 11  1  0  0  0  0
  9 10  1  0  0  0  0
  9 24  1  0  0  0  0
  9 25  1  0  0  0  0
 10 26  1  0  0  0  0
 10 27  1  0  0  0  0
 11 12  2  0  0  0  0
 11 28  1  0  0  0  0
 13 14  1  0  0  0  0
 13 29  1  0  0  0  0
 13 30  1  0  0  0  0
 14 15  1  0  0  0  0
 14 31  1  0  0  0  0
 14 32  1  0  0  0  0
M  END
> <s_m_source_file>
AV-unprocessed.smi

> <i_m_source_file_index>
2006

> <i_lp_mmshare_version>
43012

> <i_f3d_flags>
0

> <s_epik_input>
W0NIM11bQ0BASF0xW0NIMl1OKFtDSDJdW0NIMl1PMSljMltjSF1bY0hdYyhbY0hdbjIpW0NIMl1bTkgyXQ==

> <s_epik_cmdline>
J2VwaWtfcHl0aG9uJywgJy1waCcsICc3LjAnLCAnLXRuJywgJzgnLCAnLW1hJywgJzIwMCcsICctbWV0YWxfYmluZGluZycsICctaW1hZScsICc8aW5maWxlLm1hZT4nLCAnLW9tYWUnLCAnPG91dGZpbGUubWFlPic=

> <r_lp_tautomer_probability>
1

> <r_epik_Ionization_Penalty>
1.39389

> <r_epik_Ionization_Penalty_Charging>
0

> <r_epik_Ionization_Penalty_Neutral>
1.39389

> <r_epik_State_Penalty>
1.46818

> <r_epik_Charging_Adjusted_Penalty>
1.46818

> <i_epik_Tot_Q>
0

> <i_epik_Tot_abs_Q>
0

> <r_epik_Metal_State_Penalty>
1.46201

> <b_epik_Metal_Only>
0

> <s_lp_Force_Field>
OPLS_2005

> <r_lp_Energy>
16.9225

> <b_lp_Chiralities_Consistent>
1

> <s_lp_Variant>
AV-unprocessed.smi:2006-4

> <Gold.Version>
5.8.1

> <Gold.Id.Protein>
6NUR|6NUR_protein|mol2

> <Gold.PLP.Fitness>
40.9698

> <Gold.PLP.PLP>
-34.6183

> <Gold.PLP.part.hbond>
-3.0000

> <Gold.PLP.part.metal>
0.0000

> <Gold.PLP.part.buried>
-2.0398

> <Gold.PLP.part.nonpolar>
-29.4580

> <Gold.PLP.part.repulsive>
0.0510

> <Gold.PLP.ligand.clash>
2.4675

> <Gold.PLP.ligand.torsion>
0.1406

> <Gold.PLP.Chemscore.Hbond>
3.0000

> <Gold.PLP.Chemscore.CHOScore>
0.0000

> <Gold.PLP.Chemscore.Metal>
0.0000

> <Gold.Chemscore.Hbonds>
donor molecule, donor type, donor heavy atom, donor atom, acceptor molecule, acceptor atom, score
      L1  H    10    26       P1  7957  1.00
      L1  H    10    27       P1  7948  1.00
      P1  H  7997  8008       L1    12  0.95

> <Gold.PLP.Chemscore.Internal.Correction>
0.1002

> <Gold.Rescore>
     Score         DG    S(hbond)    S(metal)    S(lipo)     H(rot)  DE(clash)    DE(int)     intcor
     20.63     -21.56       2.59        0.00      91.42       1.28       0.86       0.08       ----

> <Gold.Chemscore.Fitness>
20.6253

> <Gold.Chemscore.DG>
-21.5634

> <Gold.Chemscore.ZeroCoef>
-5.4800

> <Gold.Chemscore.Hbond>
2.5912

> <Gold.Chemscore.Metal>
0.0000

> <Gold.Chemscore.Lipo>
91.4172

> <Gold.Chemscore.Internal_Hbond>
0.0000

> <Gold.Chemscore.DEClash>
0.8554

> <Gold.Chemscore.DEInternal>
0.0827

> <Gold.Chemscore.Rot>
1.2762

> <Gold.Chemscore.Internal.Correction>
   9.000000E+99

> <Gold.Chemscore.Hbonds>
donor molecule, donor type, donor heavy atom, donor atom, acceptor molecule, acceptor atom, score
      L1  H    10    26       P1  7957  0.96
      L1  H    10    27       P1  7948  1.00
      P1  H  7997  8008       L1    12  0.20

> <Gold.Chemscore.Hbond.Weighted>
-8.6546

> <Gold.Chemscore.Metal.Weighted>
-0.0000

> <Gold.Chemscore.Lipo.Weighted>
-10.6958

> <Gold.Chemscore.Internal_Hbond.Weighted>
0.0000

> <Gold.Chemscore.DEClash.Weighted>
0.8554

> <Gold.Chemscore.DEInternal.Weighted>
0.0827

> <Gold.Chemscore.Rot.Weighted>
3.2671

> <Gold.Chemscore.Internal.Correction.Weighted>
   9.000000E+99

> <Gold.Protein.RotatedTorsions>
[ 6907 6896 6895 6894 ] final -155.76 input  -60.11 | X-H torsion
[ 7974 7965 7964 7962 ] final  -36.52 input  175.53 | X-H torsion
[ 8008 7997 7996 7995 ] final  -44.15 input   59.86 | X-H torsion
[ 10167 10162 10161 10158 ] final   88.44 input  -65.29 | X-H torsion
[ 10718 10713 10712 10709 ] final   57.36 input   66.30 | X-H torsion
[ 10763 10752 10751 10750 ] final  -77.55 input  -60.55 | X-H torsion
[ 11005 11000 10999 10996 ] final -176.93 input  -57.11 | X-H torsion

> <Gold.Protein.ActiveResidues>
 VAL166  LYS551  ARG553  GLY616  TRP617  ASP618  TYR619  PRO620  LYS621  CYS622 
 ASP623  PHE694  ASN695  SER759  ASP760  ASP761  ALA762  ILE779  LEU786  VAL792 
 PHE793  MET794  SER795  GLU796  ALA797  LYS798  CYS799  TRP800  GLU811  SER814 

> <Gold.Protein.RotatedAtoms>
  151.2774  133.4226  159.2624 H   0  0  0  0  0  0  0  0  0  0  0  0  # atno 6907 bound_to 6896
  151.0391  134.9594  159.8162 H   0  0  0  0  0  0  0  0  0  0  0  0  # atno 6908 bound_to 6896
  152.5361  134.2733  159.9032 H   0  0  0  0  0  0  0  0  0  0  0  0  # atno 6909 bound_to 6896
  146.0654  140.6288  142.8977 H   0  0  0  0  0  0  0  0  0  0  0  0  # atno 7974 bound_to 7965
  154.3997  140.1429  156.3636 H   0  0  0  0  0  0  0  0  0  0  0  0  # atno 8008 bound_to 7997
  155.8158  140.3471  155.5464 H   0  0  0  0  0  0  0  0  0  0  0  0  # atno 8009 bound_to 7997
  155.8339  140.0916  157.1766 H   0  0  0  0  0  0  0  0  0  0  0  0  # atno 8010 bound_to 7997
  139.8673  144.6512  150.8990 H   0  0  0  0  0  0  0  0  0  0  0  0  # atno 10167 bound_to 10162
  157.5508  130.8764  149.8961 H   0  0  0  0  0  0  0  0  0  0  0  0  # atno 10718 bound_to 10713
  154.5143  135.5760  153.6630 H   0  0  0  0  0  0  0  0  0  0  0  0  # atno 10763 bound_to 10752
  152.9903  135.6166  154.2837 H   0  0  0  0  0  0  0  0  0  0  0  0  # atno 10764 bound_to 10752
  154.2754  135.2852  155.2700 H   0  0  0  0  0  0  0  0  0  0  0  0  # atno 10765 bound_to 10752
  140.4465  134.6382  157.4782 H   0  0  0  0  0  0  0  0  0  0  0  0  # atno 11005 bound_to 11000
  144.7199  140.4338  143.7016 LP  0  0  0  0  0  0  0  0  0  0  0  0  # atno 17320 bound_to 7965
  145.6486  139.1561  143.2874 LP  0  0  0  0  0  0  0  0  0  0  0  0  # atno 17321 bound_to 7965
  140.7766  143.3694  151.1678 LP  0  0  0  0  0  0  0  0  0  0  0  0  # atno 17342 bound_to 10162
  139.7317  143.9062  152.3021 LP  0  0  0  0  0  0  0  0  0  0  0  0  # atno 17343 bound_to 10162
  156.0575  130.3705  150.1057 LP  0  0  0  0  0  0  0  0  0  0  0  0  # atno 17370 bound_to 10713
  156.9230  130.9689  151.3545 LP  0  0  0  0  0  0  0  0  0  0  0  0  # atno 17371 bound_to 10713
  140.0035  134.6800  155.9493 LP  0  0  0  0  0  0  0  0  0  0  0  0  # atno 17394 bound_to 11000
  141.1683  133.6537  156.4557 LP  0  0  0  0  0  0  0  0  0  0  0  0  # atno 17395 bound_to 11000

$$$$
