#       Name:                AV-unprocessed.smi:1157
#       Creating user name   scv26
#       Creation time:       Fri Mar 27 03:48:24 2020


#       File generated by GOLD software.
#

@<TRIPOS>MOLECULE
AV-unprocessed.smi:1157
    60    62     1
SMALL
NO_CHARGES


@<TRIPOS>ATOM
      1 ****        -2.5521  -1.2968  -1.6126 C.3            1 S1                 0.0000
      2 ****        -2.4053  -0.1941  -2.6913 C.3            1 S1                 0.0000
      3 ****        -3.3877   0.9338  -2.2876 C.3            1 S1                 0.0000
      4 ****        -0.9492   0.3621  -2.7105 C.3            1 S1                 0.0000
      5 ****        -0.5288   0.9408  -1.4346 N.am           1 S1                 0.0000
      6 ****         0.2384   0.3329  -0.5182 C.2            1 S1                 0.0000
      7 ****         0.6702  -0.8123  -0.6478 O.2            1 S1                 0.0000
      8 ****         0.4403   1.1254   0.5482 N.am           1 S1                 0.0000
      9 ****         1.1893   0.8528   1.7247 C.ar           1 S1                 0.0000
     10 ****         2.2103  -0.1219   1.8144 C.ar           1 S1                 0.0000
     11 ****         2.8936  -0.2836   3.0348 C.ar           1 S1                 0.0000
     12 ****         2.5489   0.5386   4.1337 C.ar           1 S1                 0.0000
     13 ****         3.2050   0.4037   5.3731 N.pl3          1 S1                 0.0000
     14 ****         2.9775   1.3347   6.4676 C.3            1 S1                 0.0000
     15 ****         3.9748   0.9137   7.5458 C.3            1 S1                 0.0000
     16 ****         5.1594   0.3864   6.7359 C.3            1 S1                 0.0000
     17 ****         4.5166  -0.2202   5.4833 C.3            1 S1                 0.0000
     18 ****         1.5753   1.4757   4.0432 N.ar           1 S1                 0.0000
     19 ****         0.9245   1.6280   2.8712 C.ar           1 S1                 0.0000
     20 ****        -2.7961  -0.7542  -4.0356 N.4            1 S1                 1.0000
     21 ****        -2.8803   0.2306  -5.1514 C.3            1 S1                 0.0000
     22 ****        -3.4644  -0.4283  -6.4125 C.3            1 S1                 0.0000
     23 ****        -2.6681  -1.5439  -6.7845 O.3            1 S1                 0.0000
     24 ****        -2.6491  -2.5364  -5.7687 C.3            1 S1                 0.0000
     25 ****        -2.0328  -1.9528  -4.4865 C.3            1 S1                 0.0000
     26 ****        -2.4917  -0.8877  -0.6036 H              1 S1                 0.0000
     27 ****        -1.7675  -2.0502  -1.6798 H              1 S1                 0.0000
     28 ****        -3.5140  -1.8049  -1.6909 H              1 S1                 0.0000
     29 ****        -3.2620   1.2243  -1.2439 H              1 S1                 0.0000
     30 ****        -4.4252   0.6198  -2.4080 H              1 S1                 0.0000
     31 ****        -3.2404   1.8417  -2.8722 H              1 S1                 0.0000
     32 ****        -0.2389  -0.4071  -3.0142 H              1 S1                 0.0000
     33 ****        -0.8569   1.1577  -3.4490 H              1 S1                 0.0000
     34 ****        -0.8427   1.8802  -1.2387 H              1 S1                 0.0000
     35 ****        -0.0456   2.0102   0.5430 H              1 S1                 0.0000
     36 ****         2.4924  -0.7383   0.9752 H              1 S1                 0.0000
     37 ****         3.6664  -1.0339   3.1103 H              1 S1                 0.0000
     38 ****         3.1820   2.3516   6.1296 H              1 S1                 0.0000
     39 ****         1.9495   1.2893   6.8289 H              1 S1                 0.0000
     40 ****         4.2444   1.7297   8.2168 H              1 S1                 0.0000
     41 ****         3.5517   0.1070   8.1462 H              1 S1                 0.0000
     42 ****         5.8020   1.2196   6.4486 H              1 S1                 0.0000
     43 ****         5.7684  -0.3302   7.2879 H              1 S1                 0.0000
     44 ****         4.3859  -1.2967   5.5979 H              1 S1                 0.0000
     45 ****         5.1349  -0.0401   4.6034 H              1 S1                 0.0000
     46 ****         0.1623   2.3935   2.8519 H              1 S1                 0.0000
     47 ****        -3.5174   1.0746  -4.8951 H              1 S1                 0.0000
     48 ****        -1.8917   0.6297  -5.3792 H              1 S1                 0.0000
     49 ****        -4.4970  -0.7400  -6.2473 H              1 S1                 0.0000
     50 ****        -3.4766   0.2853  -7.2365 H              1 S1                 0.0000
     51 ****        -3.6585  -2.9073  -5.5833 H              1 S1                 0.0000
     52 ****        -2.0582  -3.3840  -6.1164 H              1 S1                 0.0000
     53 ****        -0.9923  -1.6899  -4.6776 H              1 S1                 0.0000
     54 ****        -2.0331  -2.7368  -3.7320 H              1 S1                 0.0000
     55 ****        -3.7426  -1.0824  -3.9052 H              1 S1                 0.0000
     56 ****         0.4525  -1.3387  -1.4697 LP             1 S1                 0.0000
     57 ****         1.2388  -1.2163   0.0687 LP             1 S1                 0.0000
     58 ****         1.3428   2.0451   4.8317 LP             1 S1                 0.0000
     59 ****        -1.7324  -1.2331  -6.9518 LP             1 S1                 0.0000
     60 ****        -3.0411  -1.9438  -7.6217 LP             1 S1                 0.0000
@<TRIPOS>BOND
    1    1    2 1     
    2    1   26 1     
    3    1   27 1     
    4    1   28 1     
    5    2    3 1     
    6    2    4 1     
    7    2   20 1     
    8    3   29 1     
    9    3   30 1     
   10    3   31 1     
   11    4    5 1     
   12    4   32 1     
   13    4   33 1     
   14    5    6 am    
   15    5   34 1     
   16    6    7 2     
   17    6    8 am    
   18    8    9 1     
   19    8   35 1     
   20    9   19 ar    
   21    9   10 ar    
   22   10   11 ar    
   23   10   36 1     
   24   11   12 ar    
   25   11   37 1     
   26   12   13 1     
   27   12   18 ar    
   28   13   17 1     
   29   13   14 1     
   30   14   15 1     
   31   14   38 1     
   32   14   39 1     
   33   15   16 1     
   34   15   40 1     
   35   15   41 1     
   36   16   17 1     
   37   16   42 1     
   38   16   43 1     
   39   17   44 1     
   40   17   45 1     
   41   18   19 ar    
   42   19   46 1     
   43   20   25 1     
   44   20   21 1     
   45   20   55 1     
   46   21   22 1     
   47   21   47 1     
   48   21   48 1     
   49   22   23 1     
   50   22   49 1     
   51   22   50 1     
   52   23   24 1     
   53   24   25 1     
   54   24   51 1     
   55   24   52 1     
   56   25   53 1     
   57   25   54 1     
   58    7   56 1     
   59    7   57 1     
   60   18   58 1     
   61   23   59 1     
   62   23   60 1     
@<TRIPOS>SUBSTRUCTURE
      1 S1             1
@<TRIPOS>SET
LONE_PAIRS      STATIC     ATOMS    <user>   **** ""
5 56 57 58 59 60
DONOR_HYDROGENS      STATIC     ATOMS    <user>   **** ""
3 34 35 55
ATOM$BLUE        STATIC     ATOMS    COLORGROUP SYSTEM
5 56 57 58 59 60
ATOM$RED        STATIC     ATOMS    COLORGROUP SYSTEM
3 34 35 55
