AV-unprocessed.smi:2069|AV-procd|sdf|8433|dock6
  -GOLD-   2272011133D 1   1.00000     0.00000
 Structure written by MMmdl.
 39 40  0  0  0  0  0  0  0  0  2 V2000
  137.0170  137.1798  152.3166 C   0  0  0  0  0  0  0  0  0  0  0  0
  138.3857  137.7671  152.3786 C   0  0  0  0  0  0  0  0  0  0  0  0
  138.6093  139.0598  152.6447 N   0  0  0  0  0  0  0  0  0  0  0  0
  139.9620  139.3695  152.6495 N   0  0  0  0  0  0  0  0  0  0  0  0
  140.7214  138.2970  152.3868 C   0  0  0  0  0  0  0  0  0  0  0  0
  142.1401  138.3295  152.3319 N   0  0  0  0  0  0  0  0  0  0  0  0
  142.9903  137.2990  152.1789 C   0  0  0  0  0  0  0  0  0  0  0  0
  142.6646  136.1164  152.0737 O   0  0  0  0  0  0  0  0  0  0  0  0
  144.2636  137.7198  152.1427 N   0  0  0  0  0  0  0  0  0  0  0  0
  145.4348  136.8582  151.9931 C   0  0  0  0  0  0  0  0  0  0  0  0
  145.6116  135.8542  153.1639 C   0  0  2  0  0  0  0  0  0  0  0  0
  146.1803  136.5627  154.4185 C   0  0  0  0  0  0  0  0  0  0  0  0
  146.4390  134.6844  152.7166 N   0  3  0  0  0  0  0  0  0  0  0  0
  146.7920  133.6995  153.7769 C   0  0  0  0  0  0  0  0  0  0  0  0
  147.6685  132.5668  153.2148 C   0  0  0  0  0  0  0  0  0  0  0  0
  147.0042  131.9316  152.1330 O   0  0  0  0  0  0  0  0  0  0  0  0
  146.7631  132.8383  151.0677 C   0  0  0  0  0  0  0  0  0  0  0  0
  145.8420  133.9681  151.5559 C   0  0  0  0  0  0  0  0  0  0  0  0
  139.8355  136.8072  152.1098 S   0  0  0  0  0  0  0  0  0  0  0  0
  136.2598  137.9638  152.3494 H   0  0  0  0  0  0  0  0  0  0  0  0
  136.8620  136.5083  153.1610 H   0  0  0  0  0  0  0  0  0  0  0  0
  136.8942  136.6156  151.3922 H   0  0  0  0  0  0  0  0  0  0  0  0
  142.5540  139.2467  152.4086 H   0  0  0  0  0  0  0  0  0  0  0  0
  144.4376  138.7101  152.2356 H   0  0  0  0  0  0  0  0  0  0  0  0
  145.2955  136.3379  151.0476 H   0  0  0  0  0  0  0  0  0  0  0  0
  146.3426  137.4522  151.8731 H   0  0  0  0  0  0  0  0  0  0  0  0
  144.6273  135.4747  153.4432 H   0  0  0  0  0  0  0  0  0  0  0  0
  145.5579  137.4016  154.7269 H   0  0  0  0  0  0  0  0  0  0  0  0
  147.1841  136.9490  154.2377 H   0  0  0  0  0  0  0  0  0  0  0  0
  146.2163  135.9027  155.2850 H   0  0  0  0  0  0  0  0  0  0  0  0
  147.3561  134.1752  154.5785 H   0  0  0  0  0  0  0  0  0  0  0  0
  145.8808  133.2874  154.2134 H   0  0  0  0  0  0  0  0  0  0  0  0
  148.6371  132.9496  152.8890 H   0  0  0  0  0  0  0  0  0  0  0  0
  147.8658  131.8262  153.9901 H   0  0  0  0  0  0  0  0  0  0  0  0
  147.7052  133.2369  150.6875 H   0  0  0  0  0  0  0  0  0  0  0  0
  146.2916  132.2982  150.2466 H   0  0  0  0  0  0  0  0  0  0  0  0
  144.8736  133.5547  151.8420 H   0  0  0  0  0  0  0  0  0  0  0  0
  145.6617  134.6446  150.7230 H   0  0  0  0  0  0  0  0  0  0  0  0
  147.3181  135.0701  152.4022 H   0  0  0  0  0  0  0  0  0  0  0  0
  1  2  1  0  0  0  0
  1 20  1  0  0  0  0
  1 21  1  0  0  0  0
  1 22  1  0  0  0  0
  2 19  1  0  0  0  0
  2  3  2  0  0  0  0
  3  4  1  0  0  0  0
  4  5  2  0  0  0  0
  5  6  1  0  0  0  0
  5 19  1  0  0  0  0
  6  7  1  0  0  0  0
  6 23  1  0  0  0  0
  7  8  2  0  0  0  0
  7  9  1  0  0  0  0
  9 10  1  0  0  0  0
  9 24  1  0  0  0  0
 10 11  1  0  0  0  0
 10 25  1  0  0  0  0
 10 26  1  0  0  0  0
 11 12  1  0  0  0  0
 11 13  1  0  0  0  0
 11 27  1  0  0  0  0
 12 28  1  0  0  0  0
 12 29  1  0  0  0  0
 12 30  1  0  0  0  0
 13 18  1  0  0  0  0
 13 14  1  0  0  0  0
 13 39  1  0  0  0  0
 14 15  1  0  0  0  0
 14 31  1  0  0  0  0
 14 32  1  0  0  0  0
 15 16  1  0  0  0  0
 15 33  1  0  0  0  0
 15 34  1  0  0  0  0
 16 17  1  0  0  0  0
 17 18  1  0  0  0  0
 17 35  1  0  0  0  0
 17 36  1  0  0  0  0
 18 37  1  0  0  0  0
 18 38  1  0  0  0  0
M  CHG  1  13   1
M  END
> <s_m_source_file>
AV-unprocessed.smi

> <i_m_source_file_index>
2069

> <i_lp_mmshare_version>
43012

> <i_f3d_flags>
0

> <s_epik_input>
W0NIM11jMW5uYyhzMSlbTkhdQyg9TylbTkhdW0NIMl1bQ0BIXShbQ0gzXSlOMltDSDJdW0NIMl1PW0NIMl1bQ0gyXTI=

> <s_epik_cmdline>
J2VwaWtfcHl0aG9uJywgJy1waCcsICc3LjAnLCAnLXRuJywgJzgnLCAnLW1hJywgJzIwMCcsICctbWV0YWxfYmluZGluZycsICctaW1hZScsICc8aW5maWxlLm1hZT4nLCAnLW9tYWUnLCAnPG91dGZpbGUubWFlPic=

> <r_lp_tautomer_probability>
1

> <r_epik_Ionization_Penalty>
0.70016

> <r_epik_Ionization_Penalty_Charging>
0.695697

> <r_epik_Ionization_Penalty_Neutral>
0.00446266

> <r_epik_State_Penalty>
0.717972

> <r_epik_Charging_Adjusted_Penalty>
1.41367

> <i_epik_Tot_Q>
1

> <i_epik_Tot_abs_Q>
1

> <r_epik_Metal_State_Penalty>
1.06969

> <b_epik_Metal_Only>
0

> <s_lp_Force_Field>
OPLS_2005

> <r_lp_Energy>
19.5762

> <b_lp_Chiralities_Consistent>
1

> <s_lp_Variant>
AV-unprocessed.smi:2069-3

> <Gold.Version>
5.8.1

> <Gold.Id.Protein>
6NUR|6NUR_protein|mol2

> <Gold.PLP.Fitness>
40.2564

> <Gold.PLP.PLP>
-28.7848

> <Gold.PLP.part.hbond>
-4.0000

> <Gold.PLP.part.metal>
0.0000

> <Gold.PLP.part.buried>
-4.9885

> <Gold.PLP.part.nonpolar>
-21.2696

> <Gold.PLP.part.repulsive>
0.6794

> <Gold.PLP.ligand.clash>
0.0000

> <Gold.PLP.ligand.torsion>
0.2288

> <Gold.PLP.Chemscore.Hbond>
3.9600

> <Gold.PLP.Chemscore.CHOScore>
0.0000

> <Gold.PLP.Chemscore.Metal>
0.0000

> <Gold.Chemscore.Hbonds>
donor molecule, donor type, donor heavy atom, donor atom, acceptor molecule, acceptor atom, score
      L1  H     6    23       P1 10175  1.00
      L1  H     9    24       P1 10175  0.91
      L1  H    13    39       P1  7948  1.92

> <Gold.PLP.Chemscore.Internal.Correction>
0.0492

> <Gold.Rescore>
     Score         DG    S(hbond)    S(metal)    S(lipo)     H(rot)  DE(clash)    DE(int)     intcor
     15.68     -17.45       2.94        0.00      54.34       1.65       0.19       1.58       ----

> <Gold.Chemscore.Fitness>
15.6845

> <Gold.Chemscore.DG>
-17.4461

> <Gold.Chemscore.ZeroCoef>
-5.4800

> <Gold.Chemscore.Hbond>
2.9419

> <Gold.Chemscore.Metal>
0.0000

> <Gold.Chemscore.Lipo>
54.3419

> <Gold.Chemscore.Internal_Hbond>
0.0000

> <Gold.Chemscore.DEClash>
0.1860

> <Gold.Chemscore.DEInternal>
1.5757

> <Gold.Chemscore.Rot>
1.6476

> <Gold.Chemscore.Internal.Correction>
   9.000000E+99

> <Gold.Chemscore.Hbonds>
donor molecule, donor type, donor heavy atom, donor atom, acceptor molecule, acceptor atom, score
      L1  H     6    23       P1 10175  0.88
      L1  H     9    24       P1 10175  0.89
      L1  H    13    39       P1  7948  0.91

> <Gold.Chemscore.Hbond.Weighted>
-9.8260

> <Gold.Chemscore.Metal.Weighted>
-0.0000

> <Gold.Chemscore.Lipo.Weighted>
-6.3580

> <Gold.Chemscore.Internal_Hbond.Weighted>
0.0000

> <Gold.Chemscore.DEClash.Weighted>
0.1860

> <Gold.Chemscore.DEInternal.Weighted>
1.5757

> <Gold.Chemscore.Rot.Weighted>
4.2179

> <Gold.Chemscore.Internal.Correction.Weighted>
   9.000000E+99

> <Gold.Protein.RotatedTorsions>
[ 6907 6896 6895 6894 ] final  136.92 input  -60.11 | X-H torsion
[ 7974 7965 7964 7962 ] final  176.39 input  175.53 | X-H torsion
[ 8008 7997 7996 7995 ] final   44.51 input   59.86 | X-H torsion
[ 10167 10162 10161 10158 ] final  -23.25 input  -65.29 | X-H torsion
[ 10718 10713 10712 10709 ] final  162.80 input   66.30 | X-H torsion
[ 10763 10752 10751 10750 ] final   83.33 input  -60.55 | X-H torsion
[ 11005 11000 10999 10996 ] final   28.78 input  -57.11 | X-H torsion

> <Gold.Protein.ActiveResidues>
 VAL166  LYS551  ARG553  GLY616  TRP617  ASP618  TYR619  PRO620  LYS621  CYS622 
 ASP623  PHE694  ASN695  SER759  ASP760  ASP761  ALA762  ILE779  LEU786  VAL792 
 PHE793  MET794  SER795  GLU796  ALA797  LYS798  CYS799  TRP800  GLU811  SER814 

> <Gold.Protein.RotatedAtoms>
  152.2839  133.5496  159.5514 H   0  0  0  0  0  0  0  0  0  0  0  0  # atno 6907 bound_to 6896
  150.7207  134.0525  159.3812 H   0  0  0  0  0  0  0  0  0  0  0  0  # atno 6908 bound_to 6896
  151.8434  135.0582  160.0501 H   0  0  0  0  0  0  0  0  0  0  0  0  # atno 6909 bound_to 6896
  144.7185  140.0090  143.6440 H   0  0  0  0  0  0  0  0  0  0  0  0  # atno 7974 bound_to 7965
  155.3205  140.3396  155.4241 H   0  0  0  0  0  0  0  0  0  0  0  0  # atno 8008 bound_to 7997
  156.1911  140.1698  156.8127 H   0  0  0  0  0  0  0  0  0  0  0  0  # atno 8009 bound_to 7997
  154.5443  140.0718  156.8546 H   0  0  0  0  0  0  0  0  0  0  0  0  # atno 8010 bound_to 7997
  140.7287  143.4460  151.0586 H   0  0  0  0  0  0  0  0  0  0  0  0  # atno 10167 bound_to 10162
  157.1174  131.0483  151.2430 H   0  0  0  0  0  0  0  0  0  0  0  0  # atno 10718 bound_to 10713
  153.1282  135.4695  154.9306 H   0  0  0  0  0  0  0  0  0  0  0  0  # atno 10763 bound_to 10752
  154.7639  135.3139  154.8326 H   0  0  0  0  0  0  0  0  0  0  0  0  # atno 10764 bound_to 10752
  153.8874  135.6888  153.4816 H   0  0  0  0  0  0  0  0  0  0  0  0  # atno 10765 bound_to 10752
  140.3119  134.2640  155.7732 H   0  0  0  0  0  0  0  0  0  0  0  0  # atno 11005 bound_to 11000
  146.0274  139.3304  143.0776 LP  0  0  0  0  0  0  0  0  0  0  0  0  # atno 17320 bound_to 7965
  145.8494  140.9537  143.0757 LP  0  0  0  0  0  0  0  0  0  0  0  0  # atno 17321 bound_to 7965
  139.8132  143.7922  152.3172 LP  0  0  0  0  0  0  0  0  0  0  0  0  # atno 17342 bound_to 10162
  139.7979  144.7385  150.9865 LP  0  0  0  0  0  0  0  0  0  0  0  0  # atno 17343 bound_to 10162
  157.4506  130.7596  149.7148 LP  0  0  0  0  0  0  0  0  0  0  0  0  # atno 17370 bound_to 10713
  155.9836  130.3999  150.3354 LP  0  0  0  0  0  0  0  0  0  0  0  0  # atno 17371 bound_to 10713
  141.2106  133.7714  156.9920 LP  0  0  0  0  0  0  0  0  0  0  0  0  # atno 17394 bound_to 11000
  140.1017  134.9531  157.1933 LP  0  0  0  0  0  0  0  0  0  0  0  0  # atno 17395 bound_to 11000

$$$$
