AV-unprocessed.smi:178|AV-procd|sdf|1445|dock7
  -GOLD-   2262019233D 1   1.00000     0.00000
 Structure written by MMmdl.
 50 52  0  0  0  0  0  0  0  0  1 V2000
  157.0207  137.8277  157.4012 C   0  0  0  0  0  0  0  0  0  0  0  0
  155.7844  138.3637  157.8466 O   0  0  0  0  0  0  0  0  0  0  0  0
  154.8626  137.3819  158.2971 C   0  0  0  0  0  0  0  0  0  0  0  0
  153.7918  137.9966  159.2204 C   0  0  0  0  0  0  0  0  0  0  0  0
  153.4262  139.3616  158.8304 N   0  0  0  0  0  0  0  0  0  0  0  0
  153.7443  140.4442  159.7612 C   0  0  0  0  0  0  0  0  0  0  0  0
  154.7450  140.0280  160.8522 C   0  0  0  0  0  0  0  0  0  0  0  0
  156.1496  140.3421  160.5456 C   0  0  0  0  0  0  0  0  0  0  0  0
  157.2535  140.5885  160.3014 N   0  0  0  0  0  0  0  0  0  0  0  0
  152.7489  139.5789  157.6613 C   0  0  0  0  0  0  0  0  0  0  0  0
  153.1219  138.8551  156.5705 N   0  0  0  0  0  0  0  0  0  0  0  0
  152.5019  138.9987  155.3980 C   0  0  0  0  0  0  0  0  0  0  0  0
  151.4891  139.8049  155.0875 N   0  0  0  0  0  0  0  0  0  0  0  0
  151.1027  140.5468  156.1635 C   0  0  0  0  0  0  0  0  0  0  0  0
  151.6679  140.4994  157.4735 C   0  0  0  0  0  0  0  0  0  0  0  0
  150.9823  141.3930  158.2903 N   0  0  0  0  0  0  0  0  0  0  0  0
  150.0795  141.9292  157.5186 C   0  0  0  0  0  0  0  0  0  0  0  0
  150.0885  141.4899  156.2160 N   0  0  0  0  0  0  0  0  0  0  0  0
  149.2018  141.9024  155.1340 C   0  0  0  0  0  0  0  0  0  0  0  0
  148.3309  140.7583  154.5470 C   0  0  1  0  0  0  0  0  0  0  0  0
  149.1615  139.9359  153.7441 O   0  0  0  0  0  0  0  0  0  0  0  0
  147.6818  139.8902  155.6114 C   0  0  0  0  0  0  0  0  0  0  0  0
  146.5368  139.2129  154.8608 C   0  0  0  0  0  0  0  0  0  0  0  0
  146.2484  140.0384  153.7341 O   0  0  0  0  0  0  0  0  0  0  0  0
  147.1176  141.1690  153.6864 C   0  0  1  0  0  0  0  0  0  0  0  0
  146.2805  142.3453  154.2236 C   0  0  0  0  0  0  0  0  0  0  0  0
  157.6859  138.6415  157.1133 H   0  0  0  0  0  0  0  0  0  0  0  0
  156.8951  137.1808  156.5333 H   0  0  0  0  0  0  0  0  0  0  0  0
  157.5122  137.2598  158.1920 H   0  0  0  0  0  0  0  0  0  0  0  0
  154.4160  136.8599  157.4499 H   0  0  0  0  0  0  0  0  0  0  0  0
  155.4308  136.6336  158.8487 H   0  0  0  0  0  0  0  0  0  0  0  0
  152.9006  137.3694  159.1882 H   0  0  0  0  0  0  0  0  0  0  0  0
  154.1132  137.9849  160.2614 H   0  0  0  0  0  0  0  0  0  0  0  0
  154.1899  141.2536  159.1821 H   0  0  0  0  0  0  0  0  0  0  0  0
  152.8535  140.8902  160.1951 H   0  0  0  0  0  0  0  0  0  0  0  0
  154.4978  140.5082  161.7986 H   0  0  0  0  0  0  0  0  0  0  0  0
  154.6788  138.9534  161.0219 H   0  0  0  0  0  0  0  0  0  0  0  0
  152.8693  138.3775  154.5946 H   0  0  0  0  0  0  0  0  0  0  0  0
  149.3775  142.6552  157.8963 H   0  0  0  0  0  0  0  0  0  0  0  0
  148.5504  142.6850  155.5254 H   0  0  0  0  0  0  0  0  0  0  0  0
  149.7975  142.3826  154.3575 H   0  0  0  0  0  0  0  0  0  0  0  0
  148.6502  139.2016  153.4399 H   0  0  0  0  0  0  0  0  0  0  0  0
  148.3685  139.1789  156.0722 H   0  0  0  0  0  0  0  0  0  0  0  0
  147.2757  140.5157  156.4074 H   0  0  0  0  0  0  0  0  0  0  0  0
  146.8391  138.2288  154.5014 H   0  0  0  0  0  0  0  0  0  0  0  0
  145.6561  139.0855  155.4908 H   0  0  0  0  0  0  0  0  0  0  0  0
  147.4075  141.3804  152.6562 H   0  0  0  0  0  0  0  0  0  0  0  0
  146.8305  143.2822  154.2130 H   0  0  0  0  0  0  0  0  0  0  0  0
  145.9454  142.1705  155.2459 H   0  0  0  0  0  0  0  0  0  0  0  0
  145.3911  142.4914  153.6106 H   0  0  0  0  0  0  0  0  0  0  0  0
  1  2  1  0  0  0  0
  1 27  1  0  0  0  0
  1 28  1  0  0  0  0
  1 29  1  0  0  0  0
  2  3  1  0  0  0  0
  3  4  1  0  0  0  0
  3 30  1  0  0  0  0
  3 31  1  0  0  0  0
  4  5  1  0  0  0  0
  4 32  1  0  0  0  0
  4 33  1  0  0  0  0
  5  6  1  0  0  0  0
  5 10  1  0  0  0  0
  6  7  1  0  0  0  0
  6 34  1  0  0  0  0
  6 35  1  0  0  0  0
  7  8  1  0  0  0  0
  7 36  1  0  0  0  0
  7 37  1  0  0  0  0
  8  9  3  0  0  0  0
 10 15  1  0  0  0  0
 10 11  2  0  0  0  0
 11 12  1  0  0  0  0
 12 13  2  0  0  0  0
 12 38  1  0  0  0  0
 13 14  1  0  0  0  0
 14 18  1  0  0  0  0
 14 15  2  0  0  0  0
 15 16  1  0  0  0  0
 16 17  2  0  0  0  0
 17 18  1  0  0  0  0
 17 39  1  0  0  0  0
 18 19  1  0  0  0  0
 19 20  1  0  0  0  0
 19 40  1  0  0  0  0
 19 41  1  0  0  0  0
 20 25  1  0  0  0  0
 20 21  1  0  0  0  0
 20 22  1  0  0  0  0
 21 42  1  0  0  0  0
 22 23  1  0  0  0  0
 22 43  1  0  0  0  0
 22 44  1  0  0  0  0
 23 24  1  0  0  0  0
 23 45  1  0  0  0  0
 23 46  1  0  0  0  0
 24 25  1  0  0  0  0
 25 26  1  0  0  0  0
 25 47  1  0  0  0  0
 26 48  1  0  0  0  0
 26 49  1  0  0  0  0
 26 50  1  0  0  0  0
M  END
> <s_m_source_file>
AV-unprocessed.smi

> <i_m_source_file_index>
178

> <i_lp_mmshare_version>
43012

> <i_f3d_flags>
0

> <s_epik_input>
W0NIM11PW0NIMl1bQ0gyXU4oW0NIMl1bQ0gyXUMjTiljKG5bY0hdbjEpYyhjMTIpbltjSF1uMltDSDJdW0NAQF0zKFtPSF0pW0NIMl1bQ0gyXU9bQ0BIXTNbQ0gzXQ==

> <s_epik_cmdline>
J2VwaWtfcHl0aG9uJywgJy1waCcsICc3LjAnLCAnLXRuJywgJzgnLCAnLW1hJywgJzIwMCcsICctbWV0YWxfYmluZGluZycsICctaW1hZScsICc8aW5maWxlLm1hZT4nLCAnLW9tYWUnLCAnPG91dGZpbGUubWFlPic=

> <r_lp_tautomer_probability>
1

> <r_epik_Ionization_Penalty>
0.000885317

> <r_epik_Ionization_Penalty_Charging>
0

> <r_epik_Ionization_Penalty_Neutral>
0.000885317

> <r_epik_State_Penalty>
0.00047273

> <r_epik_Charging_Adjusted_Penalty>
0.00047273

> <i_epik_Tot_Q>
0

> <i_epik_Tot_abs_Q>
0

> <r_epik_Metal_State_Penalty>
-0

> <b_epik_Metal_Only>
0

> <s_lp_Force_Field>
OPLS_2005

> <r_lp_Energy>
33.9655

> <b_lp_Chiralities_Consistent>
1

> <s_lp_Variant>
AV-unprocessed.smi:178-1

> <Gold.Version>
5.8.1

> <Gold.Id.Protein>
6NUR|6NUR_protein|mol2

> <Gold.PLP.Fitness>
42.5198

> <Gold.PLP.PLP>
-38.9593

> <Gold.PLP.part.hbond>
-5.0826

> <Gold.PLP.part.metal>
0.0000

> <Gold.PLP.part.buried>
-3.2634

> <Gold.PLP.part.nonpolar>
-31.2580

> <Gold.PLP.part.repulsive>
1.0847

> <Gold.PLP.ligand.clash>
0.0000

> <Gold.PLP.ligand.torsion>
1.4442

> <Gold.PLP.Chemscore.Hbond>
2.0358

> <Gold.PLP.Chemscore.CHOScore>
0.0000

> <Gold.PLP.Chemscore.Metal>
0.0000

> <Gold.Chemscore.Hbonds>
donor molecule, donor type, donor heavy atom, donor atom, acceptor molecule, acceptor atom, score
      P1  H  7989  7998       L1    13  1.00
      P1  H  7997  8009       L1     2  0.72
      P1  H  7997  8010       L1    11  0.26

> <Gold.PLP.Chemscore.Internal.Correction>
0.3415

> <Gold.Rescore>
     Score         DG    S(hbond)    S(metal)    S(lipo)     H(rot)  DE(clash)    DE(int)     intcor
      4.60      -9.78       1.69        0.00      62.47       3.37       2.29       2.90       ----

> <Gold.Chemscore.Fitness>
4.6022

> <Gold.Chemscore.DG>
-9.7836

> <Gold.Chemscore.ZeroCoef>
-5.4800

> <Gold.Chemscore.Hbond>
1.6858

> <Gold.Chemscore.Metal>
0.0000

> <Gold.Chemscore.Lipo>
62.4655

> <Gold.Chemscore.Internal_Hbond>
0.0000

> <Gold.Chemscore.DEClash>
2.2855

> <Gold.Chemscore.DEInternal>
2.8958

> <Gold.Chemscore.Rot>
3.3732

> <Gold.Chemscore.Internal.Correction>
   9.000000E+99

> <Gold.Chemscore.Hbonds>
donor molecule, donor type, donor heavy atom, donor atom, acceptor molecule, acceptor atom, score
      P1  H  7989  7998       L1    13  0.77
      P1  H  7997  8009       L1     2  0.47

> <Gold.Chemscore.Hbond.Weighted>
-5.6305

> <Gold.Chemscore.Metal.Weighted>
-0.0000

> <Gold.Chemscore.Lipo.Weighted>
-7.3085

> <Gold.Chemscore.Internal_Hbond.Weighted>
0.0000

> <Gold.Chemscore.DEClash.Weighted>
2.2855

> <Gold.Chemscore.DEInternal.Weighted>
2.8958

> <Gold.Chemscore.Rot.Weighted>
8.6354

> <Gold.Chemscore.Internal.Correction.Weighted>
   9.000000E+99

> <Gold.Protein.RotatedTorsions>
[ 6907 6896 6895 6894 ] final  -36.10 input  -60.11 | X-H torsion
[ 7974 7965 7964 7962 ] final   95.65 input  175.53 | X-H torsion
[ 8008 7997 7996 7995 ] final   87.80 input   59.86 | X-H torsion
[ 10167 10162 10161 10158 ] final  -26.13 input  -65.29 | X-H torsion
[ 10718 10713 10712 10709 ] final  -77.46 input   66.30 | X-H torsion
[ 10763 10752 10751 10750 ] final  172.26 input  -60.55 | X-H torsion
[ 11005 11000 10999 10996 ] final    4.31 input  -57.11 | X-H torsion

> <Gold.Protein.ActiveResidues>
 VAL166  LYS551  ARG553  GLY616  TRP617  ASP618  TYR619  PRO620  LYS621  CYS622 
 ASP623  PHE694  ASN695  SER759  ASP760  ASP761  ALA762  ILE779  LEU786  VAL792 
 PHE793  MET794  SER795  GLU796  ALA797  LYS798  CYS799  TRP800  GLU811  SER814 

> <Gold.Protein.RotatedAtoms>
  151.0314  134.9542  159.8112 H   0  0  0  0  0  0  0  0  0  0  0  0  # atno 6907 bound_to 6896
  152.5346  134.2776  159.9005 H   0  0  0  0  0  0  0  0  0  0  0  0  # atno 6908 bound_to 6896
  151.2785  133.4178  159.2659 H   0  0  0  0  0  0  0  0  0  0  0  0  # atno 6909 bound_to 6896
  145.4494  139.2294  143.3048 H   0  0  0  0  0  0  0  0  0  0  0  0  # atno 7974 bound_to 7965
  155.9799  140.3378  155.6653 H   0  0  0  0  0  0  0  0  0  0  0  0  # atno 8008 bound_to 7997
  155.6563  140.0711  157.2588 H   0  0  0  0  0  0  0  0  0  0  0  0  # atno 8009 bound_to 7997
  154.4189  140.1716  156.1716 H   0  0  0  0  0  0  0  0  0  0  0  0  # atno 8010 bound_to 7997
  140.7284  143.4205  151.0959 H   0  0  0  0  0  0  0  0  0  0  0  0  # atno 10167 bound_to 10162
  156.0144  130.4492  150.3349 H   0  0  0  0  0  0  0  0  0  0  0  0  # atno 10718 bound_to 10713
  154.4235  135.2758  155.1960 H   0  0  0  0  0  0  0  0  0  0  0  0  # atno 10763 bound_to 10752
  154.3895  135.6069  153.5839 H   0  0  0  0  0  0  0  0  0  0  0  0  # atno 10764 bound_to 10752
  152.9833  135.5900  154.4535 H   0  0  0  0  0  0  0  0  0  0  0  0  # atno 10765 bound_to 10752
  140.5834  133.9992  155.8057 H   0  0  0  0  0  0  0  0  0  0  0  0  # atno 11005 bound_to 11000
  146.2513  140.5251  142.8892 LP  0  0  0  0  0  0  0  0  0  0  0  0  # atno 17320 bound_to 7965
  144.8071  140.6319  143.6439 LP  0  0  0  0  0  0  0  0  0  0  0  0  # atno 17321 bound_to 7965
  139.7850  143.8300  152.3143 LP  0  0  0  0  0  0  0  0  0  0  0  0  # atno 17342 bound_to 10162
  139.8265  144.7273  150.9506 LP  0  0  0  0  0  0  0  0  0  0  0  0  # atno 17343 bound_to 10162
  157.1446  131.0305  151.2912 LP  0  0  0  0  0  0  0  0  0  0  0  0  # atno 17370 bound_to 10713
  157.4443  130.7562  149.7096 LP  0  0  0  0  0  0  0  0  0  0  0  0  # atno 17371 bound_to 10713
  141.0982  133.9810  157.3125 LP  0  0  0  0  0  0  0  0  0  0  0  0  # atno 17394 bound_to 11000
  139.9307  135.0200  156.8389 LP  0  0  0  0  0  0  0  0  0  0  0  0  # atno 17395 bound_to 11000

$$$$
