#       Name:                AV-unprocessed.smi:2322
#       Creating user name   scv26
#       Creation time:       Fri Mar 27 12:50:59 2020


#       File generated by GOLD software.
#

@<TRIPOS>MOLECULE
AV-unprocessed.smi:2322
    44    46     1
SMALL
NO_CHARGES


@<TRIPOS>ATOM
      1 ****        -2.4783  -4.7485   1.9885 C.3            1 S1                 0.0000
      2 ****        -1.1683  -5.0131   1.4255 N.pl3          1 S1                 0.0000
      3 ****        -0.6985  -6.2786   1.3241 N.2            1 S1                 0.0000
      4 ****         0.5010  -6.1027   0.7714 C.2            1 S1                 0.0000
      5 ****         0.8513  -4.8106   0.5015 N.2            1 S1                 0.0000
      6 ****        -0.2398  -4.1850   0.9360 C.2            1 S1                 0.0000
      7 ****        -0.4857  -2.7796   0.9243 N.am           1 S1                 0.0000
      8 ****         0.2721  -1.7477   0.4976 C.2            1 S1                 0.0000
      9 ****         1.3875  -1.9376   0.0156 O.2            1 S1                 0.0000
     10 ****        -0.2635  -0.5232   0.6306 N.am           1 S1                 0.0000
     11 ****         0.3714   0.7286   0.2318 C.3            1 S1                 0.0000
     12 ****        -0.2327   1.8922   1.0288 C.3            1 S1                 0.0000
     13 ****         0.3306   3.2353   0.5405 C.3            1 S1                 0.0000
     14 ****         0.0967   3.3934  -0.8572 O.3            1 S1                 0.0000
     15 ****         0.6719   2.3845  -1.6890 C.3            1 S1                 0.0000
     16 ****         2.1898   2.4914  -1.7421 C.3            1 S1                 0.0000
     17 ****         2.8551   3.5714  -2.5617 C.3            1 S1                 0.0000
     18 ****         2.9467   2.1283  -2.9983 C.3            1 S1                 0.0000
     19 ****         0.1718   0.9871  -1.2722 C.3            1 S1                 0.0000
     20 ****        -3.1363  -4.3538   1.2140 H              1 S1                 0.0000
     21 ****        -2.3922  -4.0161   2.7914 H              1 S1                 0.0000
     22 ****        -2.9147  -5.6633   2.3922 H              1 S1                 0.0000
     23 ****         1.1495  -6.9387   0.5537 H              1 S1                 0.0000
     24 ****        -1.3768  -2.5098   1.3145 H              1 S1                 0.0000
     25 ****        -1.1860  -0.4568   1.0378 H              1 S1                 0.0000
     26 ****         1.4382   0.6745   0.4554 H              1 S1                 0.0000
     27 ****        -1.3180   1.8966   0.9157 H              1 S1                 0.0000
     28 ****        -0.0300   1.7673   2.0931 H              1 S1                 0.0000
     29 ****        -0.1587   4.0548   1.0670 H              1 S1                 0.0000
     30 ****         1.3943   3.3161   0.7649 H              1 S1                 0.0000
     31 ****         0.3022   2.5799  -2.6964 H              1 S1                 0.0000
     32 ****         2.6909   2.2401  -0.8099 H              1 S1                 0.0000
     33 ****         2.2150   4.2326  -3.1426 H              1 S1                 0.0000
     34 ****         3.7513   4.0317  -2.1512 H              1 S1                 0.0000
     35 ****         3.9039   1.6251  -2.8783 H              1 S1                 0.0000
     36 ****         2.3696   1.8302  -3.8714 H              1 S1                 0.0000
     37 ****         0.6701   0.2184  -1.8644 H              1 S1                 0.0000
     38 ****        -0.8906   0.9138  -1.5094 H              1 S1                 0.0000
     39 ****        -1.1414  -7.1328   1.5964 LP             1 S1                 0.0000
     40 ****         1.6867  -4.4412   0.0946 LP             1 S1                 0.0000
     41 ****         1.7457  -2.8678  -0.0649 LP             1 S1                 0.0000
     42 ****         1.9363  -1.1619  -0.2959 LP             1 S1                 0.0000
     43 ****         0.4744   4.2763  -1.1360 LP             1 S1                 0.0000
     44 ****        -0.8919   3.3913  -1.0075 LP             1 S1                 0.0000
@<TRIPOS>BOND
    1    1    2 1     
    2    1   20 1     
    3    1   21 1     
    4    1   22 1     
    5    2    6 1     
    6    2    3 1     
    7    3    4 2     
    8    4    5 1     
    9    4   23 1     
   10    5    6 2     
   11    6    7 1     
   12    7    8 am    
   13    7   24 1     
   14    8    9 2     
   15    8   10 am    
   16   10   11 1     
   17   10   25 1     
   18   11   19 1     
   19   11   12 1     
   20   11   26 1     
   21   12   13 1     
   22   12   27 1     
   23   12   28 1     
   24   13   14 1     
   25   13   29 1     
   26   13   30 1     
   27   14   15 1     
   28   15   16 1     
   29   15   19 1     
   30   15   31 1     
   31   16   18 1     
   32   16   17 1     
   33   16   32 1     
   34   17   18 1     
   35   17   33 1     
   36   17   34 1     
   37   18   35 1     
   38   18   36 1     
   39   19   37 1     
   40   19   38 1     
   41    3   39 1     
   42    5   40 1     
   43    9   41 1     
   44    9   42 1     
   45   14   43 1     
   46   14   44 1     
@<TRIPOS>SUBSTRUCTURE
      1 S1             1
@<TRIPOS>SET
LONE_PAIRS      STATIC     ATOMS    <user>   **** ""
6 39 40 41 42 43 44
DONOR_HYDROGENS      STATIC     ATOMS    <user>   **** ""
2 24 25
ATOM$BLUE        STATIC     ATOMS    COLORGROUP SYSTEM
6 39 40 41 42 43 44
ATOM$RED        STATIC     ATOMS    COLORGROUP SYSTEM
2 24 25
