AV-unprocessed.smi:1161|AV-procd|sdf|4917|dock5
  -GOLD-   22720 3493D 1   1.00000     0.00000
 Structure written by MMmdl.
 46 47  0  0  0  0  0  0  0  0  1 V2000
  143.2199  134.8541  152.4623 C   0  0  0  0  0  0  0  0  0  0  0  0
  143.7679  135.4840  151.1712 C   0  0  0  0  0  0  0  0  0  0  0  0
  145.2055  136.0612  151.2668 C   0  0  1  0  0  0  0  0  0  0  0  0
  146.2400  134.9795  151.6340 C   0  0  0  0  0  0  0  0  0  0  0  0
  145.5864  136.5677  150.0010 O   0  0  0  0  0  0  0  0  0  0  0  0
  145.3235  137.2313  152.2766 C   0  0  0  0  0  0  0  0  0  0  0  0
  146.7024  137.5238  152.6661 N   0  0  0  0  0  0  0  0  0  0  0  0
  147.0871  138.4776  153.5263 C   0  0  0  0  0  0  0  0  0  0  0  0
  146.3016  139.2224  154.1116 O   0  0  0  0  0  0  0  0  0  0  0  0
  148.4243  138.4960  153.6610 N   0  0  0  0  0  0  0  0  0  0  0  0
  149.2232  139.3429  154.4764 C   0  0  0  0  0  0  0  0  0  0  0  0
  150.4960  138.8769  154.8624 C   0  0  0  0  0  0  0  0  0  0  0  0
  151.3147  139.6945  155.6640 C   0  0  0  0  0  0  0  0  0  0  0  0
  150.8319  140.9657  156.0498 C   0  0  0  0  0  0  0  0  0  0  0  0
  151.5887  141.8257  156.8565 N   0  0  0  0  0  0  0  0  0  0  0  0
  151.0550  143.1799  156.9239 C   0  0  0  0  0  0  0  0  0  0  0  0
  152.0157  144.0831  157.7160 C   0  0  0  0  0  0  0  0  0  0  0  0
  152.2400  143.5232  159.0072 O   0  0  0  0  0  0  0  0  0  0  0  0
  152.8311  142.2286  158.9334 C   0  0  0  0  0  0  0  0  0  0  0  0
  151.8945  141.2753  158.1707 C   0  0  0  0  0  0  0  0  0  0  0  0
  149.6223  141.4286  155.6691 N   0  0  0  0  0  0  0  0  0  0  0  0
  148.8415  140.6394  154.9005 C   0  0  0  0  0  0  0  0  0  0  0  0
  142.2403  134.4103  152.2840 H   0  0  0  0  0  0  0  0  0  0  0  0
  143.0986  135.5933  153.2536 H   0  0  0  0  0  0  0  0  0  0  0  0
  143.8744  134.0649  152.8325 H   0  0  0  0  0  0  0  0  0  0  0  0
  143.7266  134.7219  150.3924 H   0  0  0  0  0  0  0  0  0  0  0  0
  143.0857  136.2731  150.8522 H   0  0  0  0  0  0  0  0  0  0  0  0
  145.9865  134.4984  152.5793 H   0  0  0  0  0  0  0  0  0  0  0  0
  147.2382  135.4059  151.7415 H   0  0  0  0  0  0  0  0  0  0  0  0
  146.3081  134.2008  150.8743 H   0  0  0  0  0  0  0  0  0  0  0  0
  145.5664  135.8592  149.3764 H   0  0  0  0  0  0  0  0  0  0  0  0
  144.8595  138.1233  151.8522 H   0  0  0  0  0  0  0  0  0  0  0  0
  144.7545  137.0119  153.1811 H   0  0  0  0  0  0  0  0  0  0  0  0
  147.4197  136.9628  152.2303 H   0  0  0  0  0  0  0  0  0  0  0  0
  148.9277  137.7777  153.1616 H   0  0  0  0  0  0  0  0  0  0  0  0
  150.8416  137.9007  154.5547 H   0  0  0  0  0  0  0  0  0  0  0  0
  152.2892  139.3482  155.9755 H   0  0  0  0  0  0  0  0  0  0  0  0
  150.9157  143.5729  155.9160 H   0  0  0  0  0  0  0  0  0  0  0  0
  150.0766  143.1702  157.4060 H   0  0  0  0  0  0  0  0  0  0  0  0
  152.9636  144.1998  157.1882 H   0  0  0  0  0  0  0  0  0  0  0  0
  151.5885  145.0794  157.8290 H   0  0  0  0  0  0  0  0  0  0  0  0
  153.8052  142.2897  158.4454 H   0  0  0  0  0  0  0  0  0  0  0  0
  153.0036  141.8585  159.9439 H   0  0  0  0  0  0  0  0  0  0  0  0
  150.9732  141.1313  158.7361 H   0  0  0  0  0  0  0  0  0  0  0  0
  152.3639  140.2968  158.0613 H   0  0  0  0  0  0  0  0  0  0  0  0
  147.9010  141.0836  154.6158 H   0  0  0  0  0  0  0  0  0  0  0  0
  1  2  1  0  0  0  0
  1 23  1  0  0  0  0
  1 24  1  0  0  0  0
  1 25  1  0  0  0  0
  2  3  1  0  0  0  0
  2 26  1  0  0  0  0
  2 27  1  0  0  0  0
  3  4  1  0  0  0  0
  3  5  1  0  0  0  0
  3  6  1  0  0  0  0
  4 28  1  0  0  0  0
  4 29  1  0  0  0  0
  4 30  1  0  0  0  0
  5 31  1  0  0  0  0
  6  7  1  0  0  0  0
  6 32  1  0  0  0  0
  6 33  1  0  0  0  0
  7  8  1  0  0  0  0
  7 34  1  0  0  0  0
  8  9  2  0  0  0  0
  8 10  1  0  0  0  0
 10 11  1  0  0  0  0
 10 35  1  0  0  0  0
 11 22  1  0  0  0  0
 11 12  2  0  0  0  0
 12 13  1  0  0  0  0
 12 36  1  0  0  0  0
 13 14  2  0  0  0  0
 13 37  1  0  0  0  0
 14 15  1  0  0  0  0
 14 21  1  0  0  0  0
 15 20  1  0  0  0  0
 15 16  1  0  0  0  0
 16 17  1  0  0  0  0
 16 38  1  0  0  0  0
 16 39  1  0  0  0  0
 17 18  1  0  0  0  0
 17 40  1  0  0  0  0
 17 41  1  0  0  0  0
 18 19  1  0  0  0  0
 19 20  1  0  0  0  0
 19 42  1  0  0  0  0
 19 43  1  0  0  0  0
 20 44  1  0  0  0  0
 20 45  1  0  0  0  0
 21 22  2  0  0  0  0
 22 46  1  0  0  0  0
M  END
> <s_m_source_file>
AV-unprocessed.smi

> <i_m_source_file_index>
1161

> <i_lp_mmshare_version>
43012

> <i_f3d_flags>
0

> <s_epik_input>
W0NIM11bQ0gyXVtDQEBdKFtDSDNdKShbT0hdKVtDSDJdW05IXUMoPU8pW05IXWMxW2NIXVtjSF1jKG5bY0hdMSlOMltDSDJdW0NIMl1PW0NIMl1bQ0gyXTI=

> <s_epik_cmdline>
J2VwaWtfcHl0aG9uJywgJy1waCcsICc3LjAnLCAnLXRuJywgJzgnLCAnLW1hJywgJzIwMCcsICctbWV0YWxfYmluZGluZycsICctaW1hZScsICc8aW5maWxlLm1hZT4nLCAnLW9tYWUnLCAnPG91dGZpbGUubWFlPic=

> <r_lp_tautomer_probability>
1

> <r_epik_Ionization_Penalty>
0.00208949

> <r_epik_Ionization_Penalty_Charging>
0

> <r_epik_Ionization_Penalty_Neutral>
0.00208949

> <r_epik_State_Penalty>
0.00140033

> <r_epik_Charging_Adjusted_Penalty>
0.00140033

> <i_epik_Tot_Q>
0

> <i_epik_Tot_abs_Q>
0

> <r_epik_Metal_State_Penalty>
-0

> <b_epik_Metal_Only>
0

> <s_lp_Force_Field>
OPLS_2005

> <r_lp_Energy>
26.851

> <b_lp_Chiralities_Consistent>
1

> <s_lp_Variant>
AV-unprocessed.smi:1161-1

> <Gold.Version>
5.8.1

> <Gold.Id.Protein>
6NUR|6NUR_protein|mol2

> <Gold.PLP.Fitness>
46.0176

> <Gold.PLP.PLP>
-37.8782

> <Gold.PLP.part.hbond>
-4.7136

> <Gold.PLP.part.metal>
0.0000

> <Gold.PLP.part.buried>
0.1361

> <Gold.PLP.part.nonpolar>
-33.7600

> <Gold.PLP.part.repulsive>
0.3622

> <Gold.PLP.ligand.clash>
0.0000

> <Gold.PLP.ligand.torsion>
0.5091

> <Gold.PLP.Chemscore.Hbond>
3.0000

> <Gold.PLP.Chemscore.CHOScore>
0.0000

> <Gold.PLP.Chemscore.Metal>
0.0000

> <Gold.Chemscore.Hbonds>
donor molecule, donor type, donor heavy atom, donor atom, acceptor molecule, acceptor atom, score
      L1  H     5    31       P1  7921  0.84
      L1  H     7    34       P1  7948  1.00
      L1  H    10    35       P1  7948  1.00

> <Gold.PLP.Chemscore.Internal.Correction>
0.1576

> <Gold.Rescore>
     Score         DG    S(hbond)    S(metal)    S(lipo)     H(rot)  DE(clash)    DE(int)     intcor
     18.44     -20.30       2.93        0.00      90.41       2.16       0.34       1.51       ----

> <Gold.Chemscore.Fitness>
18.4375

> <Gold.Chemscore.DG>
-20.2957

> <Gold.Chemscore.ZeroCoef>
-5.4800

> <Gold.Chemscore.Hbond>
2.9269

> <Gold.Chemscore.Metal>
0.0000

> <Gold.Chemscore.Lipo>
90.4091

> <Gold.Chemscore.Internal_Hbond>
0.0000

> <Gold.Chemscore.DEClash>
0.3446

> <Gold.Chemscore.DEInternal>
1.5136

> <Gold.Chemscore.Rot>
2.1633

> <Gold.Chemscore.Internal.Correction>
   9.000000E+99

> <Gold.Chemscore.Hbonds>
donor molecule, donor type, donor heavy atom, donor atom, acceptor molecule, acceptor atom, score
      L1  H     5    31       P1  7921  0.81
      L1  H     7    34       P1  7948  1.00
      L1  H    10    35       P1  7948  0.92

> <Gold.Chemscore.Hbond.Weighted>
-9.7758

> <Gold.Chemscore.Metal.Weighted>
-0.0000

> <Gold.Chemscore.Lipo.Weighted>
-10.5779

> <Gold.Chemscore.Internal_Hbond.Weighted>
0.0000

> <Gold.Chemscore.DEClash.Weighted>
0.3446

> <Gold.Chemscore.DEInternal.Weighted>
1.5136

> <Gold.Chemscore.Rot.Weighted>
5.5379

> <Gold.Chemscore.Internal.Correction.Weighted>
   9.000000E+99

> <Gold.Protein.RotatedTorsions>
[ 6907 6896 6895 6894 ] final  -88.63 input  -60.11 | X-H torsion
[ 7974 7965 7964 7962 ] final  176.89 input  175.53 | X-H torsion
[ 8008 7997 7996 7995 ] final  -17.20 input   59.86 | X-H torsion
[ 10167 10162 10161 10158 ] final   48.57 input  -65.29 | X-H torsion
[ 10718 10713 10712 10709 ] final  -47.18 input   66.30 | X-H torsion
[ 10763 10752 10751 10750 ] final -132.09 input  -60.55 | X-H torsion
[ 11005 11000 10999 10996 ] final  153.75 input  -57.11 | X-H torsion

> <Gold.Protein.ActiveResidues>
 VAL166  LYS551  ARG553  GLY616  TRP617  ASP618  TYR619  PRO620  LYS621  CYS622 
 ASP623  PHE694  ASN695  SER759  ASP760  ASP761  ALA762  ILE779  LEU786  VAL792 
 PHE793  MET794  SER795  GLU796  ALA797  LYS798  CYS799  TRP800  GLU811  SER814 

> <Gold.Protein.RotatedAtoms>
  150.6869  134.2711  159.4588 H   0  0  0  0  0  0  0  0  0  0  0  0  # atno 6907 bound_to 6896
  152.0633  134.9577  160.0584 H   0  0  0  0  0  0  0  0  0  0  0  0  # atno 6908 bound_to 6896
  152.0996  133.4208  159.4618 H   0  0  0  0  0  0  0  0  0  0  0  0  # atno 6909 bound_to 6896
  144.7177  140.0164  143.6440 H   0  0  0  0  0  0  0  0  0  0  0  0  # atno 7974 bound_to 7965
  154.4996  140.2149  155.9375 H   0  0  0  0  0  0  0  0  0  0  0  0  # atno 8008 bound_to 7997
  156.1416  140.3178  155.8471 H   0  0  0  0  0  0  0  0  0  0  0  0  # atno 8009 bound_to 7997
  155.4110  140.0490  157.3022 H   0  0  0  0  0  0  0  0  0  0  0  0  # atno 8010 bound_to 7997
  140.2919  144.3036  150.6238 H   0  0  0  0  0  0  0  0  0  0  0  0  # atno 10167 bound_to 10162
  156.2109  130.4160  149.9116 H   0  0  0  0  0  0  0  0  0  0  0  0  # atno 10718 bound_to 10713
  154.8746  135.3809  154.4353 H   0  0  0  0  0  0  0  0  0  0  0  0  # atno 10763 bound_to 10752
  153.5043  135.7030  153.5820 H   0  0  0  0  0  0  0  0  0  0  0  0  # atno 10764 bound_to 10752
  153.4137  135.3918  155.2033 H   0  0  0  0  0  0  0  0  0  0  0  0  # atno 10765 bound_to 10752
  140.1426  134.8728  157.2351 H   0  0  0  0  0  0  0  0  0  0  0  0  # atno 11005 bound_to 11000
  146.0216  139.3256  143.0809 LP  0  0  0  0  0  0  0  0  0  0  0  0  # atno 17320 bound_to 7965
  145.8561  140.9502  143.0724 LP  0  0  0  0  0  0  0  0  0  0  0  0  # atno 17321 bound_to 7965
  140.5725  143.2179  151.7573 LP  0  0  0  0  0  0  0  0  0  0  0  0  # atno 17342 bound_to 10162
  139.4936  144.4196  151.9992 LP  0  0  0  0  0  0  0  0  0  0  0  0  # atno 17343 bound_to 10162
  156.6794  130.8852  151.3573 LP  0  0  0  0  0  0  0  0  0  0  0  0  # atno 17370 bound_to 10713
  157.7038  130.9362  150.0866 LP  0  0  0  0  0  0  0  0  0  0  0  0  # atno 17371 bound_to 10713
  140.2703  134.3468  155.7376 LP  0  0  0  0  0  0  0  0  0  0  0  0  # atno 17394 bound_to 11000
  141.2188  133.7419  156.9213 LP  0  0  0  0  0  0  0  0  0  0  0  0  # atno 17395 bound_to 11000

$$$$
