AV-unprocessed.smi:3116|AV-procd|sdf|11862|dock7
  -GOLD-   2272017243D 1   1.00000     0.00000
 Structure written by MMmdl.
 34 34  0  0  0  0  0  0  0  0  2 V2000
  146.4869  138.5207  151.1371 C   0  0  0  0  0  0  0  0  0  0  0  0
  146.7315  138.7747  152.6358 C   0  0  2  0  0  0  0  0  0  0  0  0
  148.1787  138.9001  152.9270 N   0  3  0  0  0  0  0  0  0  0  0  0
  148.5257  139.4437  154.2605 C   0  0  2  0  0  0  0  0  0  0  0  0
  147.8396  140.8110  154.4359 C   0  0  0  0  0  0  0  0  0  0  0  0
  150.0672  139.5076  154.4267 C   0  0  2  0  0  0  0  0  0  0  0  0
  150.7281  138.1166  154.3691 C   0  0  0  0  0  0  0  0  0  0  0  0
  150.4591  140.1957  155.6502 N   0  0  0  0  0  0  0  0  0  0  0  0
  150.3261  141.5341  155.9573 C   0  0  0  0  0  0  0  0  0  0  0  0
  150.8336  141.7181  157.2114 C   0  0  0  0  0  0  0  0  0  0  0  0
  151.2636  140.4178  157.5965 C   0  0  0  0  0  0  0  0  0  0  0  0
  151.0393  139.5095  156.6610 N   0  0  0  0  0  0  0  0  0  0  0  0
  146.1118  137.6477  153.4707 C   0  0  0  0  0  0  0  0  0  0  0  0
  146.5997  136.4179  153.2881 N   0  0  0  0  0  0  0  0  0  0  0  0
  145.2135  137.8799  154.2781 O   0  0  0  0  0  0  0  0  0  0  0  0
  145.4229  138.4148  150.9210 H   0  0  0  0  0  0  0  0  0  0  0  0
  146.9852  137.6104  150.8007 H   0  0  0  0  0  0  0  0  0  0  0  0
  146.8564  139.3438  150.5253 H   0  0  0  0  0  0  0  0  0  0  0  0
  146.2437  139.7058  152.9301 H   0  0  0  0  0  0  0  0  0  0  0  0
  148.5809  137.9758  152.8642 H   0  0  0  0  0  0  0  0  0  0  0  0
  148.1300  138.7836  155.0340 H   0  0  0  0  0  0  0  0  0  0  0  0
  147.9813  141.2106  155.4401 H   0  0  0  0  0  0  0  0  0  0  0  0
  146.7639  140.7324  154.2744 H   0  0  0  0  0  0  0  0  0  0  0  0
  148.2287  141.5434  153.7277 H   0  0  0  0  0  0  0  0  0  0  0  0
  150.4685  140.0954  153.5993 H   0  0  0  0  0  0  0  0  0  0  0  0
  150.5657  137.6350  153.4048 H   0  0  0  0  0  0  0  0  0  0  0  0
  150.3339  137.4538  155.1403 H   0  0  0  0  0  0  0  0  0  0  0  0
  151.8064  138.1897  154.5153 H   0  0  0  0  0  0  0  0  0  0  0  0
  149.8852  142.2374  155.2664 H   0  0  0  0  0  0  0  0  0  0  0  0
  150.8906  142.6414  157.7685 H   0  0  0  0  0  0  0  0  0  0  0  0
  151.7288  140.1094  158.5211 H   0  0  0  0  0  0  0  0  0  0  0  0
  146.2222  135.6382  153.8071 H   0  0  0  0  0  0  0  0  0  0  0  0
  147.3444  136.2693  152.6219 H   0  0  0  0  0  0  0  0  0  0  0  0
  148.6017  139.4749  152.2125 H   0  0  0  0  0  0  0  0  0  0  0  0
  1  2  1  0  0  0  0
  1 16  1  0  0  0  0
  1 17  1  0  0  0  0
  1 18  1  0  0  0  0
  2  3  1  0  0  0  0
  2 13  1  0  0  0  0
  2 19  1  0  0  0  0
  3  4  1  0  0  0  0
  3 20  1  0  0  0  0
  3 34  1  0  0  0  0
  4  5  1  0  0  0  0
  4  6  1  0  0  0  0
  4 21  1  0  0  0  0
  5 22  1  0  0  0  0
  5 23  1  0  0  0  0
  5 24  1  0  0  0  0
  6  7  1  0  0  0  0
  6  8  1  0  0  0  0
  6 25  1  0  0  0  0
  7 26  1  0  0  0  0
  7 27  1  0  0  0  0
  7 28  1  0  0  0  0
  8 12  1  0  0  0  0
  8  9  1  0  0  0  0
  9 10  2  0  0  0  0
  9 29  1  0  0  0  0
 10 11  1  0  0  0  0
 10 30  1  0  0  0  0
 11 12  2  0  0  0  0
 11 31  1  0  0  0  0
 13 14  1  0  0  0  0
 13 15  2  0  0  0  0
 14 32  1  0  0  0  0
 14 33  1  0  0  0  0
M  CHG  1   3   1
M  END
> <s_m_source_file>
AV-unprocessed.smi

> <i_m_source_file_index>
3116

> <i_lp_mmshare_version>
43012

> <i_f3d_flags>
0

> <s_epik_input>
W05IMl1DKD1PKVtDQEhdKFtDSDNdKVtOSF1bQ0BIXShbQ0gzXSlbQ0BIXShbQ0gzXSluMVtjSF1bY0hdW2NIXW4x

> <s_epik_cmdline>
J2VwaWtfcHl0aG9uJywgJy1waCcsICc3LjAnLCAnLXRuJywgJzgnLCAnLW1hJywgJzIwMCcsICctbWV0YWxfYmluZGluZycsICctaW1hZScsICc8aW5maWxlLm1hZT4nLCAnLW9tYWUnLCAnPG91dGZpbGUubWFlPic=

> <r_lp_tautomer_probability>
1

> <r_epik_Ionization_Penalty>
0.15658

> <r_epik_Ionization_Penalty_Charging>
0.156568

> <r_epik_Ionization_Penalty_Neutral>
1.19778e-05

> <r_epik_State_Penalty>
0.145866

> <r_epik_Charging_Adjusted_Penalty>
0.302434

> <i_epik_Tot_Q>
1

> <i_epik_Tot_abs_Q>
1

> <r_epik_Metal_State_Penalty>
0.146064

> <b_epik_Metal_Only>
0

> <s_lp_Force_Field>
OPLS_2005

> <r_lp_Energy>
9.5332

> <b_lp_Chiralities_Consistent>
1

> <s_lp_Variant>
AV-unprocessed.smi:3116-1

> <Gold.Version>
5.8.1

> <Gold.Id.Protein>
6NUR|6NUR_protein|mol2

> <Gold.PLP.Fitness>
42.3102

> <Gold.PLP.PLP>
-28.3189

> <Gold.PLP.part.hbond>
-2.8963

> <Gold.PLP.part.metal>
0.0000

> <Gold.PLP.part.buried>
-0.1771

> <Gold.PLP.part.nonpolar>
-25.9555

> <Gold.PLP.part.repulsive>
0.1655

> <Gold.PLP.ligand.clash>
0.0000

> <Gold.PLP.ligand.torsion>
0.3790

> <Gold.PLP.Chemscore.Hbond>
3.9825

> <Gold.PLP.Chemscore.CHOScore>
0.9052

> <Gold.PLP.Chemscore.Metal>
0.0000

> <Gold.Chemscore.Hbonds>
donor molecule, donor type, donor heavy atom, donor atom, acceptor molecule, acceptor atom, score
      L1  H     3    20       P1  7948  2.00
      L1  H     3    34       P1  7957  1.00
      L1  H    14    33       P1  7948  1.00
      L1  C     9    29       P1  8028  0.58

> <Gold.PLP.Chemscore.Internal.Correction>
0.0861

> <Gold.Rescore>
     Score         DG    S(hbond)    S(metal)    S(lipo)     H(rot)  DE(clash)    DE(int)     intcor
     15.32     -16.29       2.90        0.00      63.15       2.45       0.69       0.27       ----

> <Gold.Chemscore.Fitness>
15.3209

> <Gold.Chemscore.DG>
-16.2857

> <Gold.Chemscore.ZeroCoef>
-5.4800

> <Gold.Chemscore.Hbond>
2.8982

> <Gold.Chemscore.Metal>
0.0000

> <Gold.Chemscore.Lipo>
63.1531

> <Gold.Chemscore.Internal_Hbond>
0.0000

> <Gold.Chemscore.DEClash>
0.6947

> <Gold.Chemscore.DEInternal>
0.2701

> <Gold.Chemscore.Rot>
2.4465

> <Gold.Chemscore.Internal.Correction>
   9.000000E+99

> <Gold.Chemscore.Hbonds>
donor molecule, donor type, donor heavy atom, donor atom, acceptor molecule, acceptor atom, score
      L1  H     3    20       P1  7948  0.90
      L1  H     3    34       P1  7957  0.95
      L1  H    14    33       P1  7948  1.00

> <Gold.Chemscore.Hbond.Weighted>
-9.6799

> <Gold.Chemscore.Metal.Weighted>
-0.0000

> <Gold.Chemscore.Lipo.Weighted>
-7.3889

> <Gold.Chemscore.Internal_Hbond.Weighted>
0.0000

> <Gold.Chemscore.DEClash.Weighted>
0.6947

> <Gold.Chemscore.DEInternal.Weighted>
0.2701

> <Gold.Chemscore.Rot.Weighted>
6.2631

> <Gold.Chemscore.Internal.Correction.Weighted>
   9.000000E+99

> <Gold.Protein.RotatedTorsions>
[ 6907 6896 6895 6894 ] final  -13.13 input  -60.11 | X-H torsion
[ 7974 7965 7964 7962 ] final   -0.62 input  175.53 | X-H torsion
[ 8008 7997 7996 7995 ] final -155.13 input   59.86 | X-H torsion
[ 10167 10162 10161 10158 ] final   42.71 input  -65.29 | X-H torsion
[ 10718 10713 10712 10709 ] final  -79.19 input   66.30 | X-H torsion
[ 10763 10752 10751 10750 ] final   44.89 input  -60.55 | X-H torsion
[ 11005 11000 10999 10996 ] final   37.32 input  -57.11 | X-H torsion

> <Gold.Protein.ActiveResidues>
 VAL166  LYS551  ARG553  GLY616  TRP617  ASP618  TYR619  PRO620  LYS621  CYS622 
 ASP623  PHE694  ASN695  SER759  ASP760  ASP761  ALA762  ILE779  LEU786  VAL792 
 PHE793  MET794  SER795  GLU796  ALA797  LYS798  CYS799  TRP800  GLU811  SER814 

> <Gold.Protein.RotatedAtoms>
  151.3597  135.0901  159.9430 H   0  0  0  0  0  0  0  0  0  0  0  0  # atno 6907 bound_to 6896
  152.5165  133.9270  159.7572 H   0  0  0  0  0  0  0  0  0  0  0  0  # atno 6908 bound_to 6896
  150.9662  133.6338  159.2775 H   0  0  0  0  0  0  0  0  0  0  0  0  # atno 6909 bound_to 6896
  146.2425  140.1298  142.8338 H   0  0  0  0  0  0  0  0  0  0  0  0  # atno 7974 bound_to 7965
  155.6971  140.0762  157.2425 H   0  0  0  0  0  0  0  0  0  0  0  0  # atno 8008 bound_to 7997
  154.4079  140.1654  156.2202 H   0  0  0  0  0  0  0  0  0  0  0  0  # atno 8009 bound_to 7997
  155.9401  140.3385  155.6323 H   0  0  0  0  0  0  0  0  0  0  0  0  # atno 8010 bound_to 7997
  140.3517  144.2342  150.6145 H   0  0  0  0  0  0  0  0  0  0  0  0  # atno 10167 bound_to 10162
  156.0099  130.4539  150.3610 H   0  0  0  0  0  0  0  0  0  0  0  0  # atno 10718 bound_to 10713
  152.9833  135.6057  154.3347 H   0  0  0  0  0  0  0  0  0  0  0  0  # atno 10763 bound_to 10752
  154.3048  135.2772  155.2596 H   0  0  0  0  0  0  0  0  0  0  0  0  # atno 10764 bound_to 10752
  154.4832  135.5912  153.6460 H   0  0  0  0  0  0  0  0  0  0  0  0  # atno 10765 bound_to 10752
  140.2238  134.3609  155.7993 H   0  0  0  0  0  0  0  0  0  0  0  0  # atno 11005 bound_to 11000
  145.0336  140.8890  143.5095 LP  0  0  0  0  0  0  0  0  0  0  0  0  # atno 17320 bound_to 7965
  145.1366  139.2598  143.5512 LP  0  0  0  0  0  0  0  0  0  0  0  0  # atno 17321 bound_to 7965
  140.5213  143.2265  151.8385 LP  0  0  0  0  0  0  0  0  0  0  0  0  # atno 17342 bound_to 10162
  139.4825  144.4834  151.9278 LP  0  0  0  0  0  0  0  0  0  0  0  0  # atno 17343 bound_to 10162
  157.1699  131.0366  151.2800 LP  0  0  0  0  0  0  0  0  0  0  0  0  # atno 17370 bound_to 10713
  157.4238  130.7452  149.6935 LP  0  0  0  0  0  0  0  0  0  0  0  0  # atno 17371 bound_to 10713
  141.2221  133.7208  156.8619 LP  0  0  0  0  0  0  0  0  0  0  0  0  # atno 17394 bound_to 11000
  140.1822  134.9025  157.2962 LP  0  0  0  0  0  0  0  0  0  0  0  0  # atno 17395 bound_to 11000

$$$$
