#       Name:                AV-unprocessed.smi:374
#       Creating user name   scv26
#       Creation time:       Thu Mar 26 22:39:10 2020


#       File generated by GOLD software.
#

@<TRIPOS>MOLECULE
AV-unprocessed.smi:374
    41    42     1
SMALL
NO_CHARGES


@<TRIPOS>ATOM
      1 ****        -3.0206  -2.2272   0.3827 C.3            1 S1                 0.0000
      2 ****        -2.4581  -1.2972  -0.7118 C.3            1 S1                 0.0000
      3 ****        -0.9345  -1.1310  -0.6102 C.2            1 S1                 0.0000
      4 ****        -0.2246  -2.0744  -0.2599 O.2            1 S1                 0.0000
      5 ****        -0.4460   0.0807  -0.9213 N.am           1 S1                 0.0000
      6 ****         0.9656   0.4544  -0.9132 C.3            1 S1                 0.0000
      7 ****         1.3591   1.2625   0.3416 C.3            1 S1                 0.0000
      8 ****         2.8168   1.7556   0.2287 C.3            1 S1                 0.0000
      9 ****         3.2458   2.5727   1.4580 C.3            1 S1                 0.0000
     10 ****         3.0502   1.7716   2.7532 C.3            1 S1                 0.0000
     11 ****         1.5994   1.2866   2.8848 C.3            1 S1                 0.0000
     12 ****         1.1682   0.4705   1.6553 C.3            1 S1                 0.0000
     13 ****        -2.8251  -1.7312  -2.0543 N.pl3          1 S1                 0.0000
     14 ****        -3.1753  -1.0091  -3.1209 C.2            1 S1                 0.0000
     15 ****        -3.3983  -1.7297  -4.2110 N.2            1 S1                 0.0000
     16 ****        -3.1350  -2.9760  -3.7176 C.2            1 S1                 0.0000
     17 ****        -2.7770  -3.0325  -2.4350 N.2            1 S1                 0.0000
     18 ****        -2.7840  -1.8485   1.3776 H              1 S1                 0.0000
     19 ****        -2.6171  -3.2381   0.3114 H              1 S1                 0.0000
     20 ****        -4.1063  -2.2993   0.3113 H              1 S1                 0.0000
     21 ****        -2.9101  -0.3151  -0.5608 H              1 S1                 0.0000
     22 ****        -1.1019   0.7981  -1.1941 H              1 S1                 0.0000
     23 ****         1.6045  -0.4246  -1.0148 H              1 S1                 0.0000
     24 ****         1.1427   1.0570  -1.8045 H              1 S1                 0.0000
     25 ****         0.7149   2.1423   0.3853 H              1 S1                 0.0000
     26 ****         3.4851   0.9014   0.1121 H              1 S1                 0.0000
     27 ****         2.9361   2.3635  -0.6689 H              1 S1                 0.0000
     28 ****         4.2905   2.8695   1.3600 H              1 S1                 0.0000
     29 ****         2.6653   3.4949   1.5059 H              1 S1                 0.0000
     30 ****         3.7248   0.9146   2.7602 H              1 S1                 0.0000
     31 ****         3.3183   2.3842   3.6146 H              1 S1                 0.0000
     32 ****         1.4892   0.6843   3.7871 H              1 S1                 0.0000
     33 ****         0.9369   2.1450   3.0031 H              1 S1                 0.0000
     34 ****         0.1250   0.1799   1.7778 H              1 S1                 0.0000
     35 ****         1.7430  -0.4557   1.6123 H              1 S1                 0.0000
     36 ****        -3.2644   0.0672  -3.1010 H              1 S1                 0.0000
     37 ****        -3.2029  -3.8676  -4.3237 H              1 S1                 0.0000
     38 ****        -0.6393  -2.9571  -0.0390 LP             1 S1                 0.0000
     39 ****         0.7665  -1.9577  -0.1964 LP             1 S1                 0.0000
     40 ****        -3.6779  -1.4441  -5.1277 LP             1 S1                 0.0000
     41 ****        -2.5336  -3.8343  -1.8892 LP             1 S1                 0.0000
@<TRIPOS>BOND
    1    1    2 1     
    2    1   18 1     
    3    1   19 1     
    4    1   20 1     
    5    2    3 1     
    6    2   13 1     
    7    2   21 1     
    8    3    4 2     
    9    3    5 am    
   10    5    6 1     
   11    5   22 1     
   12    6    7 1     
   13    6   23 1     
   14    6   24 1     
   15    7   12 1     
   16    7    8 1     
   17    7   25 1     
   18    8    9 1     
   19    8   26 1     
   20    8   27 1     
   21    9   10 1     
   22    9   28 1     
   23    9   29 1     
   24   10   11 1     
   25   10   30 1     
   26   10   31 1     
   27   11   12 1     
   28   11   32 1     
   29   11   33 1     
   30   12   34 1     
   31   12   35 1     
   32   13   17 1     
   33   13   14 1     
   34   14   15 2     
   35   14   36 1     
   36   15   16 1     
   37   16   17 2     
   38   16   37 1     
   39    4   38 1     
   40    4   39 1     
   41   15   40 1     
   42   17   41 1     
@<TRIPOS>SUBSTRUCTURE
      1 S1             1
@<TRIPOS>SET
LONE_PAIRS      STATIC     ATOMS    <user>   **** ""
4 38 39 40 41
DONOR_HYDROGENS      STATIC     ATOMS    <user>   **** ""
1 22
ATOM$BLUE        STATIC     ATOMS    COLORGROUP SYSTEM
4 38 39 40 41
ATOM$RED        STATIC     ATOMS    COLORGROUP SYSTEM
1 22
