#       Name:                AV-unprocessed.smi:438
#       Creating user name   scv26
#       Creation time:       Thu Mar 26 22:55:10 2020


#       File generated by GOLD software.
#

@<TRIPOS>MOLECULE
AV-unprocessed.smi:438
    55    56     1
SMALL
NO_CHARGES


@<TRIPOS>ATOM
      1 ****        -1.8361   0.2709   1.8967 C.3            1 S1                 0.0000
      2 ****        -1.2383  -1.1147   2.0602 C.2            1 S1                 0.0000
      3 ****         0.1591  -1.1926   1.9371 N.2            1 S1                 0.0000
      4 ****         0.7443  -2.3203   2.0796 C.2            1 S1                 0.0000
      5 ****         2.5374  -2.4330   1.9132 S.3            1 S1                 0.0000
      6 ****         3.0518  -0.7985   1.3006 C.3            1 S1                 0.0000
      7 ****         2.7618  -0.6115  -0.1884 C.2            1 S1                 0.0000
      8 ****         3.3293  -1.3223  -1.0180 O.2            1 S1                 0.0000
      9 ****         1.8727   0.3411  -0.5112 N.am           1 S1                 0.0000
     10 ****         1.3742   0.6340  -1.8565 C.3            1 S1                 0.0000
     11 ****        -0.1509   0.8563  -1.8027 C.3            1 S1                 0.0000
     12 ****        -0.5222   2.1853  -1.1224 C.3            1 S1                 0.0000
     13 ****         0.1844   3.3720  -1.7918 C.3            1 S1                 0.0000
     14 ****         1.7073   3.1687  -1.8127 C.3            1 S1                 0.0000
     15 ****         2.0915   1.8467  -2.5076 C.3            1 S1                 0.0000
     16 ****         3.6178   1.6807  -2.6003 C.3            1 S1                 0.0000
     17 ****         0.0854  -3.4939   2.3628 N.pl3          1 S1                -1.0000
     18 ****        -1.2733  -3.5064   2.4738 C.2            1 S1                 0.0000
     19 ****        -1.9005  -4.5385   2.7096 O.2            1 S1                 0.0000
     20 ****        -1.9870  -2.2278   2.3062 C.2            1 S1                 0.0000
     21 ****        -3.5099  -2.2137   2.4475 C.3            1 S1                 0.0000
     22 ****        -4.2383  -2.7533   1.2046 C.3            1 S1                 0.0000
     23 ****        -4.0474  -1.8973   0.0976 O.3            1 S1                 0.0000
     24 ****        -2.4852   0.3082   1.0219 H              1 S1                 0.0000
     25 ****        -1.0553   1.0205   1.7726 H              1 S1                 0.0000
     26 ****        -2.4154   0.5479   2.7772 H              1 S1                 0.0000
     27 ****         4.1280  -0.7076   1.4477 H              1 S1                 0.0000
     28 ****         2.5926  -0.0094   1.8976 H              1 S1                 0.0000
     29 ****         1.4609   0.8686   0.2450 H              1 S1                 0.0000
     30 ****         1.5447  -0.2389  -2.4890 H              1 S1                 0.0000
     31 ****        -0.5479   0.8550  -2.8185 H              1 S1                 0.0000
     32 ****        -0.6355   0.0253  -1.2876 H              1 S1                 0.0000
     33 ****        -1.6027   2.3280  -1.1513 H              1 S1                 0.0000
     34 ****        -0.2445   2.1516  -0.0693 H              1 S1                 0.0000
     35 ****        -0.1847   3.4907  -2.8113 H              1 S1                 0.0000
     36 ****        -0.0601   4.2946  -1.2648 H              1 S1                 0.0000
     37 ****         2.1772   4.0088  -2.3254 H              1 S1                 0.0000
     38 ****         2.0921   3.1785  -0.7921 H              1 S1                 0.0000
     39 ****         1.7281   1.9103  -3.5344 H              1 S1                 0.0000
     40 ****         4.0853   1.6793  -1.6154 H              1 S1                 0.0000
     41 ****         4.0644   2.4935  -3.1733 H              1 S1                 0.0000
     42 ****         3.8803   0.7461  -3.0970 H              1 S1                 0.0000
     43 ****        -3.8727  -1.2116   2.6718 H              1 S1                 0.0000
     44 ****        -3.7846  -2.8121   3.3168 H              1 S1                 0.0000
     45 ****        -3.8909  -3.7545   0.9489 H              1 S1                 0.0000
     46 ****        -5.3078  -2.8282   1.4021 H              1 S1                 0.0000
     47 ****        -4.4789  -2.2769  -0.6524 H              1 S1                 0.0000
     48 ****         0.6930  -0.3705   1.7392 LP             1 S1                 0.0000
     49 ****         3.9788  -2.0206  -0.7173 LP             1 S1                 0.0000
     50 ****         3.1408  -1.2013  -1.9925 LP             1 S1                 0.0000
     51 ****         0.6040  -4.3397   2.4876 LP             1 S1                 0.0000
     52 ****        -1.4134  -5.4040   2.8263 LP             1 S1                 0.0000
     53 ****        -2.8973  -4.5117   2.7846 LP             1 S1                 0.0000
     54 ****        -3.0698  -1.8000  -0.0890 LP             1 S1                 0.0000
     55 ****        -4.4403  -0.9989   0.2941 LP             1 S1                 0.0000
@<TRIPOS>BOND
    1    1   24 1     
    2    1   25 1     
    3    1   26 1     
    4    1    2 1     
    5    2   20 2     
    6    2    3 1     
    7    3    4 2     
    8    4    5 1     
    9    4   17 1     
   10    5    6 1     
   11    6    7 1     
   12    6   27 1     
   13    6   28 1     
   14    7    8 2     
   15    7    9 am    
   16    9   10 1     
   17    9   29 1     
   18   10   15 1     
   19   10   11 1     
   20   10   30 1     
   21   11   12 1     
   22   11   31 1     
   23   11   32 1     
   24   12   13 1     
   25   12   33 1     
   26   12   34 1     
   27   13   14 1     
   28   13   35 1     
   29   13   36 1     
   30   14   15 1     
   31   14   37 1     
   32   14   38 1     
   33   15   16 1     
   34   15   39 1     
   35   16   40 1     
   36   16   41 1     
   37   16   42 1     
   38   17   18 1     
   39   18   19 2     
   40   18   20 1     
   41   20   21 1     
   42   21   22 1     
   43   21   43 1     
   44   21   44 1     
   45   22   23 1     
   46   22   45 1     
   47   22   46 1     
   48   23   47 1     
   49    3   48 1     
   50    8   49 1     
   51    8   50 1     
   52   17   51 1     
   53   19   52 1     
   54   19   53 1     
   55   23   54 1     
   56   23   55 1     
@<TRIPOS>SUBSTRUCTURE
      1 S1             1
@<TRIPOS>SET
LONE_PAIRS      STATIC     ATOMS    <user>   **** ""
8 48 49 50 51 52 53 54 55
DONOR_HYDROGENS      STATIC     ATOMS    <user>   **** ""
2 29 47
ATOM$BLUE        STATIC     ATOMS    COLORGROUP SYSTEM
8 48 49 50 51 52 53 54 55
ATOM$RED        STATIC     ATOMS    COLORGROUP SYSTEM
2 29 47
