AV-unprocessed.smi:249|AV-procd|sdf|1901|dock4
  -GOLD-   2262020573D 1   1.00000     0.00000
 Structure written by MMmdl.
 64 67  0  0  0  0  0  0  0  0  2 V2000
  144.8157  132.2513  149.8991 C   0  0  0  0  0  0  0  0  0  0  0  0
  144.2817  131.8975  151.2951 C   0  0  0  0  0  0  0  0  0  0  0  0
  145.3520  131.5258  152.2599 N   0  3  1  0  0  0  0  0  0  0  0  0
  146.2316  130.4491  151.7298 C   0  0  0  0  0  0  0  0  0  0  0  0
  147.1793  129.9104  152.8126 C   0  0  0  0  0  0  0  0  0  0  0  0
  148.0102  131.0525  153.4284 C   0  0  2  0  0  0  0  0  0  0  0  0
  149.0094  130.6004  154.4068 N   0  0  0  0  0  0  0  0  0  0  0  0
  148.9803  129.1987  154.8115 C   0  0  0  0  0  0  0  0  0  0  0  0
  149.5658  131.4312  155.3282 C   0  0  0  0  0  0  0  0  0  0  0  0
  149.9728  130.9489  156.5317 N   0  0  0  0  0  0  0  0  0  0  0  0
  150.5412  131.7585  157.4299 C   0  0  0  0  0  0  0  0  0  0  0  0
  150.7977  133.0636  157.3314 N   0  0  0  0  0  0  0  0  0  0  0  0
  150.3953  133.5563  156.1258 C   0  0  0  0  0  0  0  0  0  0  0  0
  149.7784  132.8170  155.0768 C   0  0  0  0  0  0  0  0  0  0  0  0
  149.5047  133.6582  154.0045 N   0  0  0  0  0  0  0  0  0  0  0  0
  149.9399  134.8252  154.3939 C   0  0  0  0  0  0  0  0  0  0  0  0
  150.4963  134.8528  155.6519 N   0  0  0  0  0  0  0  0  0  0  0  0
  151.0549  136.0137  156.3231 C   0  0  0  0  0  0  0  0  0  0  0  0
  150.5827  137.3555  155.7106 C   0  0  2  0  0  0  0  0  0  0  0  0
  151.6613  138.0146  154.8162 C   0  0  0  0  0  0  0  0  0  0  0  0
  152.1845  137.0980  153.8770 O   0  0  0  0  0  0  0  0  0  0  0  0
  150.0481  138.3237  156.7961 C   0  0  2  0  0  0  0  0  0  0  0  0
  149.6450  139.6956  156.2849 C   0  0  0  0  0  0  0  0  0  0  0  0
  149.6283  140.5234  157.5647 C   0  0  0  0  0  0  0  0  0  0  0  0
  150.6446  139.9696  158.3922 O   0  0  0  0  0  0  0  0  0  0  0  0
  151.0726  138.7172  157.8659 C   0  0  0  0  0  0  0  0  0  0  0  0
  147.0767  132.1682  153.9462 C   0  0  0  0  0  0  0  0  0  0  0  0
  146.1162  132.6709  152.8482 C   0  0  1  0  0  0  0  0  0  0  0  0
  146.8332  133.5458  151.7969 C   0  0  0  0  0  0  0  0  0  0  0  0
  144.0152  132.6479  149.2742 H   0  0  0  0  0  0  0  0  0  0  0  0
  145.2200  131.3803  149.3837 H   0  0  0  0  0  0  0  0  0  0  0  0
  145.5974  133.0093  149.9537 H   0  0  0  0  0  0  0  0  0  0  0  0
  143.7627  132.7760  151.6809 H   0  0  0  0  0  0  0  0  0  0  0  0
  143.5295  131.1112  151.2304 H   0  0  0  0  0  0  0  0  0  0  0  0
  145.6192  129.6251  151.3615 H   0  0  0  0  0  0  0  0  0  0  0  0
  146.7999  130.8162  150.8747 H   0  0  0  0  0  0  0  0  0  0  0  0
  146.5897  129.4018  153.5744 H   0  0  0  0  0  0  0  0  0  0  0  0
  147.8349  129.1557  152.3775 H   0  0  0  0  0  0  0  0  0  0  0  0
  148.5959  131.4892  152.6190 H   0  0  0  0  0  0  0  0  0  0  0  0
  149.9063  128.7029  154.5212 H   0  0  0  0  0  0  0  0  0  0  0  0
  148.1573  128.6657  154.3352 H   0  0  0  0  0  0  0  0  0  0  0  0
  148.8589  129.0975  155.8909 H   0  0  0  0  0  0  0  0  0  0  0  0
  150.8350  131.2941  158.3597 H   0  0  0  0  0  0  0  0  0  0  0  0
  149.8703  135.7039  153.7690 H   0  0  0  0  0  0  0  0  0  0  0  0
  150.7712  135.9500  157.3735 H   0  0  0  0  0  0  0  0  0  0  0  0
  152.1431  135.9467  156.2949 H   0  0  0  0  0  0  0  0  0  0  0  0
  149.7444  137.1217  155.0526 H   0  0  0  0  0  0  0  0  0  0  0  0
  151.2558  138.8724  154.2799 H   0  0  0  0  0  0  0  0  0  0  0  0
  152.4826  138.4016  155.4192 H   0  0  0  0  0  0  0  0  0  0  0  0
  151.5212  136.9201  153.2278 H   0  0  0  0  0  0  0  0  0  0  0  0
  149.1840  137.8774  157.2913 H   0  0  0  0  0  0  0  0  0  0  0  0
  150.3980  140.0847  155.5979 H   0  0  0  0  0  0  0  0  0  0  0  0
  148.6811  139.7007  155.7754 H   0  0  0  0  0  0  0  0  0  0  0  0
  149.7975  141.5840  157.3783 H   0  0  0  0  0  0  0  0  0  0  0  0
  148.6695  140.4168  158.0737 H   0  0  0  0  0  0  0  0  0  0  0  0
  151.1580  137.9703  158.6556 H   0  0  0  0  0  0  0  0  0  0  0  0
  152.0607  138.8546  157.4240 H   0  0  0  0  0  0  0  0  0  0  0  0
  146.4741  131.8116  154.7806 H   0  0  0  0  0  0  0  0  0  0  0  0
  147.6670  132.9987  154.3356 H   0  0  0  0  0  0  0  0  0  0  0  0
  145.4021  133.3165  153.3583 H   0  0  0  0  0  0  0  0  0  0  0  0
  147.3927  134.3467  152.2812 H   0  0  0  0  0  0  0  0  0  0  0  0
  146.1268  134.0248  151.1196 H   0  0  0  0  0  0  0  0  0  0  0  0
  147.5404  132.9783  151.1932 H   0  0  0  0  0  0  0  0  0  0  0  0
  144.8674  131.1039  153.0395 H   0  0  0  0  0  0  0  0  0  0  0  0
  1  2  1  0  0  0  0
  1 30  1  0  0  0  0
  1 31  1  0  0  0  0
  1 32  1  0  0  0  0
  2  3  1  0  0  0  0
  2 33  1  0  0  0  0
  2 34  1  0  0  0  0
  3 28  1  0  0  0  0
  3  4  1  0  0  0  0
  3 64  1  0  0  0  0
  4  5  1  0  0  0  0
  4 35  1  0  0  0  0
  4 36  1  0  0  0  0
  5  6  1  0  0  0  0
  5 37  1  0  0  0  0
  5 38  1  0  0  0  0
  6  7  1  0  0  0  0
  6 27  1  0  0  0  0
  6 39  1  0  0  0  0
  7  8  1  0  0  0  0
  7  9  1  0  0  0  0
  8 40  1  0  0  0  0
  8 41  1  0  0  0  0
  8 42  1  0  0  0  0
  9 14  1  0  0  0  0
  9 10  2  0  0  0  0
 10 11  1  0  0  0  0
 11 12  2  0  0  0  0
 11 43  1  0  0  0  0
 12 13  1  0  0  0  0
 13 17  1  0  0  0  0
 13 14  2  0  0  0  0
 14 15  1  0  0  0  0
 15 16  2  0  0  0  0
 16 17  1  0  0  0  0
 16 44  1  0  0  0  0
 17 18  1  0  0  0  0
 18 19  1  0  0  0  0
 18 45  1  0  0  0  0
 18 46  1  0  0  0  0
 19 20  1  0  0  0  0
 19 22  1  0  0  0  0
 19 47  1  0  0  0  0
 20 21  1  0  0  0  0
 20 48  1  0  0  0  0
 20 49  1  0  0  0  0
 21 50  1  0  0  0  0
 22 26  1  0  0  0  0
 22 23  1  0  0  0  0
 22 51  1  0  0  0  0
 23 24  1  0  0  0  0
 23 52  1  0  0  0  0
 23 53  1  0  0  0  0
 24 25  1  0  0  0  0
 24 54  1  0  0  0  0
 24 55  1  0  0  0  0
 25 26  1  0  0  0  0
 26 56  1  0  0  0  0
 26 57  1  0  0  0  0
 27 28  1  0  0  0  0
 27 58  1  0  0  0  0
 27 59  1  0  0  0  0
 28 29  1  0  0  0  0
 28 60  1  0  0  0  0
 29 61  1  0  0  0  0
 29 62  1  0  0  0  0
 29 63  1  0  0  0  0
M  CHG  1   3   1
M  END
> <s_m_source_file>
AV-unprocessed.smi

> <i_m_source_file_index>
249

> <i_lp_mmshare_version>
43012

> <i_f3d_flags>
0

> <s_epik_input>
W0NIM11bQ0gyXU4xW0NIMl1bQ0gyXVtDQEhdKFtDSDJdW0NASF0xW0NIM10pTihbQ0gzXSljKG5bY0hdbjIpYyhjMjMpbltjSF1uM1tDSDJdW0NASF0oW0NIMl1bT0hdKVtDQEBIXTRbQ0gyXVtDSDJdT1tDSDJdNA==

> <s_epik_cmdline>
J2VwaWtfcHl0aG9uJywgJy1waCcsICc3LjAnLCAnLXRuJywgJzgnLCAnLW1hJywgJzIwMCcsICctbWV0YWxfYmluZGluZycsICctaW1hZScsICc8aW5maWxlLm1hZT4nLCAnLW9tYWUnLCAnPG91dGZpbGUubWFlPic=

> <r_lp_tautomer_probability>
1

> <r_epik_Ionization_Penalty>
0.00294688

> <r_epik_Ionization_Penalty_Charging>
0.00169971

> <r_epik_Ionization_Penalty_Neutral>
0.00124717

> <r_epik_State_Penalty>
-0

> <r_epik_Charging_Adjusted_Penalty>
0.00169971

> <i_epik_Tot_Q>
1

> <i_epik_Tot_abs_Q>
1

> <r_epik_Metal_State_Penalty>
-0

> <b_epik_Metal_Only>
0

> <s_lp_Force_Field>
OPLS_2005

> <r_lp_Energy>
54.0004

> <b_lp_Chiralities_Consistent>
1

> <s_lp_Variant>
AV-unprocessed.smi:249-4

> <Gold.Version>
5.8.1

> <Gold.Id.Protein>
6NUR|6NUR_protein|mol2

> <Gold.PLP.Fitness>
47.6142

> <Gold.PLP.PLP>
-39.0217

> <Gold.PLP.part.hbond>
-3.0000

> <Gold.PLP.part.metal>
0.0000

> <Gold.PLP.part.buried>
-5.7148

> <Gold.PLP.part.nonpolar>
-30.9795

> <Gold.PLP.part.repulsive>
0.1688

> <Gold.PLP.ligand.clash>
0.0084

> <Gold.PLP.ligand.torsion>
1.6361

> <Gold.PLP.Chemscore.Hbond>
2.8480

> <Gold.PLP.Chemscore.CHOScore>
0.7328

> <Gold.PLP.Chemscore.Metal>
0.0000

> <Gold.Chemscore.Hbonds>
donor molecule, donor type, donor heavy atom, donor atom, acceptor molecule, acceptor atom, score
      L1  H    21    50       P1  7949  0.86
      P1  H  6896  6908       L1    12  1.00
      P1  H 10752 10763       L1    21  0.99
      L1  C    16    44       P1  7948  0.70

> <Gold.PLP.Chemscore.Internal.Correction>
1.1306

> <Gold.Rescore>
     Score         DG    S(hbond)    S(metal)    S(lipo)     H(rot)  DE(clash)    DE(int)     intcor
     14.19     -16.36       2.07        0.00      91.85       2.65       0.41       1.77       ----

> <Gold.Chemscore.Fitness>
14.1854

> <Gold.Chemscore.DG>
-16.3641

> <Gold.Chemscore.ZeroCoef>
-5.4800

> <Gold.Chemscore.Hbond>
2.0736

> <Gold.Chemscore.Metal>
0.0000

> <Gold.Chemscore.Lipo>
91.8467

> <Gold.Chemscore.Internal_Hbond>
0.0000

> <Gold.Chemscore.DEClash>
0.4127

> <Gold.Chemscore.DEInternal>
1.7660

> <Gold.Chemscore.Rot>
2.6515

> <Gold.Chemscore.Internal.Correction>
   9.000000E+99

> <Gold.Chemscore.Hbonds>
donor molecule, donor type, donor heavy atom, donor atom, acceptor molecule, acceptor atom, score
      L1  H    21    50       P1  7949  0.74
      P1  H  6896  6908       L1    12  0.24
      P1  H 10752 10763       L1    21  0.47

> <Gold.Chemscore.Hbond.Weighted>
-6.9260

> <Gold.Chemscore.Metal.Weighted>
-0.0000

> <Gold.Chemscore.Lipo.Weighted>
-10.7461

> <Gold.Chemscore.Internal_Hbond.Weighted>
0.0000

> <Gold.Chemscore.DEClash.Weighted>
0.4127

> <Gold.Chemscore.DEInternal.Weighted>
1.7660

> <Gold.Chemscore.Rot.Weighted>
6.7880

> <Gold.Chemscore.Internal.Correction.Weighted>
   9.000000E+99

> <Gold.Protein.RotatedTorsions>
[ 6907 6896 6895 6894 ] final   94.98 input  -60.11 | X-H torsion
[ 7974 7965 7964 7962 ] final  -61.38 input  175.53 | X-H torsion
[ 8008 7997 7996 7995 ] final  105.52 input   59.86 | X-H torsion
[ 10167 10162 10161 10158 ] final  -71.06 input  -65.29 | X-H torsion
[ 10718 10713 10712 10709 ] final  -51.89 input   66.30 | X-H torsion
[ 10763 10752 10751 10750 ] final   23.13 input  -60.55 | X-H torsion
[ 11005 11000 10999 10996 ] final  -40.67 input  -57.11 | X-H torsion

> <Gold.Protein.ActiveResidues>
 VAL166  LYS551  ARG553  GLY616  TRP617  ASP618  TYR619  PRO620  LYS621  CYS622 
 ASP623  PHE694  ASN695  SER759  ASP760  ASP761  ALA762  ILE779  LEU786  VAL792 
 PHE793  MET794  SER795  GLU796  ALA797  LYS798  CYS799  TRP800  GLU811  SER814 

> <Gold.Protein.RotatedAtoms>
  152.5446  134.1111  159.8358 H   0  0  0  0  0  0  0  0  0  0  0  0  # atno 6907 bound_to 6896
  151.1177  133.5119  159.2610 H   0  0  0  0  0  0  0  0  0  0  0  0  # atno 6908 bound_to 6896
  151.1813  135.0372  159.8848 H   0  0  0  0  0  0  0  0  0  0  0  0  # atno 6909 bound_to 6896
  145.8041  140.8637  143.0216 H   0  0  0  0  0  0  0  0  0  0  0  0  # atno 7974 bound_to 7965
  156.1666  140.3129  155.8900 H   0  0  0  0  0  0  0  0  0  0  0  0  # atno 8008 bound_to 7997
  155.3673  140.0480  157.3063 H   0  0  0  0  0  0  0  0  0  0  0  0  # atno 8009 bound_to 7997
  154.5199  140.2194  155.9007 H   0  0  0  0  0  0  0  0  0  0  0  0  # atno 8010 bound_to 7997
  140.5303  143.2322  151.7274 H   0  0  0  0  0  0  0  0  0  0  0  0  # atno 10167 bound_to 10162
  156.1669  130.4149  149.9706 H   0  0  0  0  0  0  0  0  0  0  0  0  # atno 10718 bound_to 10713
  153.0862  135.6633  153.9945 H   0  0  0  0  0  0  0  0  0  0  0  0  # atno 10763 bound_to 10752
  153.9554  135.2979  155.3438 H   0  0  0  0  0  0  0  0  0  0  0  0  # atno 10764 bound_to 10752
  154.7270  135.5140  153.8974 H   0  0  0  0  0  0  0  0  0  0  0  0  # atno 10765 bound_to 10752
  141.0191  133.6871  156.2352 H   0  0  0  0  0  0  0  0  0  0  0  0  # atno 11005 bound_to 11000
  144.6765  140.0302  143.7482 LP  0  0  0  0  0  0  0  0  0  0  0  0  # atno 17320 bound_to 7965
  145.9846  139.2967  143.1021 LP  0  0  0  0  0  0  0  0  0  0  0  0  # atno 17321 bound_to 7965
  139.4952  144.4124  152.0066 LP  0  0  0  0  0  0  0  0  0  0  0  0  # atno 17342 bound_to 10162
  140.3226  144.3410  150.6006 LP  0  0  0  0  0  0  0  0  0  0  0  0  # atno 17343 bound_to 10162
  156.7518  130.9118  151.3637 LP  0  0  0  0  0  0  0  0  0  0  0  0  # atno 17370 bound_to 10713
  157.6775  130.9108  150.0185 LP  0  0  0  0  0  0  0  0  0  0  0  0  # atno 17371 bound_to 10713
  140.6604  134.4974  157.5583 LP  0  0  0  0  0  0  0  0  0  0  0  0  # atno 17394 bound_to 11000
  139.9135  134.8295  156.1446 LP  0  0  0  0  0  0  0  0  0  0  0  0  # atno 17395 bound_to 11000

$$$$
