#       Name:                AV-unprocessed.smi:252
#       Creating user name   scv26
#       Creation time:       Thu Mar 26 21:06:16 2020


#       File generated by GOLD software.
#

@<TRIPOS>MOLECULE
AV-unprocessed.smi:252
    66    69     1
SMALL
NO_CHARGES


@<TRIPOS>ATOM
      1 ****        -6.8132   3.4212  -0.2203 C.3            1 S1                 0.0000
      2 ****        -5.4550   3.0980   0.4225 C.3            1 S1                 0.0000
      3 ****        -5.1572   1.5979   0.5179 C.2            1 S1                 0.0000
      4 ****        -5.9346   0.7646   0.0509 O.2            1 S1                 0.0000
      5 ****        -4.0118   1.2699   1.1345 N.am           1 S1                 0.0000
      6 ****        -3.5173  -0.0890   1.3302 C.3            1 S1                 0.0000
      7 ****        -4.1717  -0.7377   2.5665 C.3            1 S1                 0.0000
      8 ****        -3.5664  -2.1252   2.8276 C.3            1 S1                 0.0000
      9 ****        -2.0359  -2.0461   2.9454 C.3            1 S1                 0.0000
     10 ****        -1.4586  -1.3917   1.7704 N.3            1 S1                 0.0000
     11 ****        -0.1252  -1.5302   1.5606 C.ar           1 S1                 0.0000
     12 ****         0.7000  -1.8212   2.6019 N.ar           1 S1                 0.0000
     13 ****         2.0150  -1.9525   2.4047 C.ar           1 S1                 0.0000
     14 ****         2.7039  -1.8374   1.2679 N.ar           1 S1                 0.0000
     15 ****         1.8827  -1.5484   0.2182 C.ar           1 S1                 0.0000
     16 ****         0.4696  -1.3832   0.2755 C.ar           1 S1                 0.0000
     17 ****        -0.0273  -1.1201  -0.9957 N.2            1 S1                 0.0000
     18 ****         1.0310  -1.1241  -1.7586 C.2            1 S1                 0.0000
     19 ****         2.2225  -1.3599  -1.1105 N.pl3          1 S1                 0.0000
     20 ****         3.5436  -1.4242  -1.7173 C.3            1 S1                 0.0000
     21 ****         4.3330  -0.0869  -1.6867 C.3            1 S1                 0.0000
     22 ****         4.5643   0.2661  -0.3341 O.3            1 S1                 0.0000
     23 ****         3.6221   1.0712  -2.3799 C.3            1 S1                 0.0000
     24 ****         4.0442   0.8866  -3.8283 C.3            1 S1                 0.0000
     25 ****         5.4106   0.5165  -3.7276 O.3            1 S1                 0.0000
     26 ****         5.6421  -0.1978  -2.5122 C.3            1 S1                 0.0000
     27 ****         6.8971   0.4168  -1.8691 C.3            1 S1                 0.0000
     28 ****        -1.9855  -0.0583   1.4824 C.3            1 S1                 0.0000
     29 ****        -6.9736   4.4988  -0.2572 H              1 S1                 0.0000
     30 ****        -7.6368   2.9855   0.3466 H              1 S1                 0.0000
     31 ****        -6.8705   3.0459  -1.2428 H              1 S1                 0.0000
     32 ****        -4.6588   3.5737  -0.1511 H              1 S1                 0.0000
     33 ****        -5.4181   3.5254   1.4252 H              1 S1                 0.0000
     34 ****        -3.4341   2.0186   1.4883 H              1 S1                 0.0000
     35 ****        -3.7556  -0.6865   0.4478 H              1 S1                 0.0000
     36 ****        -4.0207  -0.1048   3.4423 H              1 S1                 0.0000
     37 ****        -5.2496  -0.8259   2.4267 H              1 S1                 0.0000
     38 ****        -3.9890  -2.5538   3.7366 H              1 S1                 0.0000
     39 ****        -3.8349  -2.7986   2.0125 H              1 S1                 0.0000
     40 ****        -1.7600  -1.4877   3.8410 H              1 S1                 0.0000
     41 ****        -1.6290  -3.0525   3.0530 H              1 S1                 0.0000
     42 ****         2.5988  -2.1815   3.2840 H              1 S1                 0.0000
     43 ****         0.9725  -0.9489  -2.8231 H              1 S1                 0.0000
     44 ****         4.1128  -2.2038  -1.2089 H              1 S1                 0.0000
     45 ****         3.4207  -1.7684  -2.7449 H              1 S1                 0.0000
     46 ****         5.0814   1.0568  -0.3148 H              1 S1                 0.0000
     47 ****         2.5416   1.0917  -2.2461 H              1 S1                 0.0000
     48 ****         4.0109   2.0258  -2.0209 H              1 S1                 0.0000
     49 ****         3.4802   0.0821  -4.3019 H              1 S1                 0.0000
     50 ****         3.9173   1.7911  -4.4236 H              1 S1                 0.0000
     51 ****         5.8521  -1.2401  -2.7569 H              1 S1                 0.0000
     52 ****         7.1677  -0.1021  -0.9491 H              1 S1                 0.0000
     53 ****         6.7477   1.4709  -1.6332 H              1 S1                 0.0000
     54 ****         7.7496   0.3478  -2.5451 H              1 S1                 0.0000
     55 ****        -1.5410   0.3577   0.5786 H              1 S1                 0.0000
     56 ****        -1.7040   0.6061   2.3009 H              1 S1                 0.0000
     57 ****        -6.7761   1.0631  -0.3995 LP             1 S1                 0.0000
     58 ****        -5.7243  -0.2104   0.1221 LP             1 S1                 0.0000
     59 ****        -1.8250  -1.9745   1.0451 LP             1 S1                 0.0000
     60 ****         0.3206  -1.9375   3.5198 LP             1 S1                 0.0000
     61 ****         3.6950  -1.9487   1.1950 LP             1 S1                 0.0000
     62 ****        -0.9779  -0.9636  -1.2639 LP             1 S1                 0.0000
     63 ****         5.0579  -0.4711   0.1272 LP             1 S1                 0.0000
     64 ****         3.6913   0.4227   0.1277 LP             1 S1                 0.0000
     65 ****         5.9773   1.3404  -3.7392 LP             1 S1                 0.0000
     66 ****         5.6528  -0.0656  -4.5038 LP             1 S1                 0.0000
@<TRIPOS>BOND
    1    1    2 1     
    2    1   29 1     
    3    1   30 1     
    4    1   31 1     
    5    2    3 1     
    6    2   32 1     
    7    2   33 1     
    8    3    4 2     
    9    3    5 am    
   10    5    6 1     
   11    5   34 1     
   12    6   28 1     
   13    6    7 1     
   14    6   35 1     
   15    7    8 1     
   16    7   36 1     
   17    7   37 1     
   18    8    9 1     
   19    8   38 1     
   20    8   39 1     
   21    9   10 1     
   22    9   40 1     
   23    9   41 1     
   24   10   11 1     
   25   10   28 1     
   26   11   16 ar    
   27   11   12 ar    
   28   12   13 ar    
   29   13   14 ar    
   30   13   42 1     
   31   14   15 ar    
   32   15   19 1     
   33   15   16 ar    
   34   16   17 1     
   35   17   18 2     
   36   18   19 1     
   37   18   43 1     
   38   19   20 1     
   39   20   21 1     
   40   20   44 1     
   41   20   45 1     
   42   21   26 1     
   43   21   22 1     
   44   21   23 1     
   45   22   46 1     
   46   23   24 1     
   47   23   47 1     
   48   23   48 1     
   49   24   25 1     
   50   24   49 1     
   51   24   50 1     
   52   25   26 1     
   53   26   27 1     
   54   26   51 1     
   55   27   52 1     
   56   27   53 1     
   57   27   54 1     
   58   28   55 1     
   59   28   56 1     
   60    4   57 1     
   61    4   58 1     
   62   10   59 1     
   63   12   60 1     
   64   14   61 1     
   65   17   62 1     
   66   22   63 1     
   67   22   64 1     
   68   25   65 1     
   69   25   66 1     
@<TRIPOS>SUBSTRUCTURE
      1 S1             1
@<TRIPOS>SET
LONE_PAIRS      STATIC     ATOMS    <user>   **** ""
10 57 58 59 60 61 62 63 64 65 66
DONOR_HYDROGENS      STATIC     ATOMS    <user>   **** ""
2 34 46
ATOM$BLUE        STATIC     ATOMS    COLORGROUP SYSTEM
10 57 58 59 60 61 62 63 64 65 66
ATOM$RED        STATIC     ATOMS    COLORGROUP SYSTEM
2 34 46
