AV-unprocessed.smi:2163|AV-procd|sdf|8805|dock6
  -GOLD-   2272011593D 1   1.00000     0.00000
 Structure written by MMmdl.
 43 45  0  0  0  0  0  0  0  0  1 V2000
  152.2626  139.3889  157.6813 C   0  0  0  0  0  0  0  0  0  0  0  0
  152.1763  140.7459  158.3045 C   0  0  0  0  0  0  0  0  0  0  0  0
  152.6602  140.9993  159.5209 N   0  0  0  0  0  0  0  0  0  0  0  0
  152.3659  142.3383  159.6908 C   0  0  0  0  0  0  0  0  0  0  0  0
  152.6202  143.2040  160.7786 C   0  0  0  0  0  0  0  0  0  0  0  0
  152.2178  144.5547  160.7251 C   0  0  0  0  0  0  0  0  0  0  0  0
  151.5577  145.0585  159.5857 C   0  0  0  0  0  0  0  0  0  0  0  0
  151.2948  144.2132  158.4905 C   0  0  0  0  0  0  0  0  0  0  0  0
  151.6986  142.8659  158.5489 C   0  0  0  0  0  0  0  0  0  0  0  0
  151.5974  141.7943  157.6676 N   0  0  0  0  0  0  0  0  0  0  0  0
  150.9854  141.8249  156.3452 C   0  0  0  0  0  0  0  0  0  0  0  0
  149.9794  140.6763  156.1288 C   0  0  1  0  0  0  0  0  0  0  0  0
  149.1089  140.6080  157.2409 O   0  0  0  0  0  0  0  0  0  0  0  0
  149.1325  140.8875  154.8642 C   0  0  0  0  0  0  0  0  0  0  0  0
  147.8274  140.3731  155.0964 O   0  0  0  0  0  0  0  0  0  0  0  0
  146.7782  141.2635  155.1763 C   0  0  0  0  0  0  0  0  0  0  0  0
  145.6885  140.8969  155.9929 C   0  0  0  0  0  0  0  0  0  0  0  0
  144.5745  141.7463  156.1345 C   0  0  0  0  0  0  0  0  0  0  0  0
  144.5369  142.9796  155.4557 C   0  0  0  0  0  0  0  0  0  0  0  0
  143.3448  143.9003  155.6119 C   0  0  0  0  0  0  0  0  0  0  0  0
  143.4657  145.1011  154.7719 C   0  0  0  0  0  0  0  0  0  0  0  0
  143.5606  146.0464  154.1116 N   0  0  0  0  0  0  0  0  0  0  0  0
  145.6181  143.3560  154.6354 C   0  0  0  0  0  0  0  0  0  0  0  0
  146.7325  142.5061  154.4945 C   0  0  0  0  0  0  0  0  0  0  0  0
  152.8333  138.7113  158.3172 H   0  0  0  0  0  0  0  0  0  0  0  0
  152.7579  139.4452  156.7121 H   0  0  0  0  0  0  0  0  0  0  0  0
  151.2640  138.9734  157.5456 H   0  0  0  0  0  0  0  0  0  0  0  0
  153.1255  142.8278  161.6559 H   0  0  0  0  0  0  0  0  0  0  0  0
  152.4169  145.2068  161.5628 H   0  0  0  0  0  0  0  0  0  0  0  0
  151.2535  146.0946  159.5528 H   0  0  0  0  0  0  0  0  0  0  0  0
  150.7894  144.5949  157.6159 H   0  0  0  0  0  0  0  0  0  0  0  0
  150.5047  142.7900  156.1850 H   0  0  0  0  0  0  0  0  0  0  0  0
  151.7856  141.7611  155.6069 H   0  0  0  0  0  0  0  0  0  0  0  0
  150.5247  139.7349  156.0496 H   0  0  0  0  0  0  0  0  0  0  0  0
  149.5856  140.2423  157.9705 H   0  0  0  0  0  0  0  0  0  0  0  0
  149.1082  141.9428  154.5864 H   0  0  0  0  0  0  0  0  0  0  0  0
  149.5785  140.3341  154.0362 H   0  0  0  0  0  0  0  0  0  0  0  0
  145.7077  139.9541  156.5197 H   0  0  0  0  0  0  0  0  0  0  0  0
  143.7511  141.4497  156.7677 H   0  0  0  0  0  0  0  0  0  0  0  0
  142.4292  143.3767  155.3357 H   0  0  0  0  0  0  0  0  0  0  0  0
  143.2437  144.2137  156.6510 H   0  0  0  0  0  0  0  0  0  0  0  0
  145.5966  144.3012  154.1132 H   0  0  0  0  0  0  0  0  0  0  0  0
  147.5400  142.8316  153.8568 H   0  0  0  0  0  0  0  0  0  0  0  0
  1  2  1  0  0  0  0
  1 25  1  0  0  0  0
  1 26  1  0  0  0  0
  1 27  1  0  0  0  0
  2 10  1  0  0  0  0
  2  3  2  0  0  0  0
  3  4  1  0  0  0  0
  4  9  2  0  0  0  0
  4  5  1  0  0  0  0
  5  6  2  0  0  0  0
  5 28  1  0  0  0  0
  6  7  1  0  0  0  0
  6 29  1  0  0  0  0
  7  8  2  0  0  0  0
  7 30  1  0  0  0  0
  8  9  1  0  0  0  0
  8 31  1  0  0  0  0
  9 10  1  0  0  0  0
 10 11  1  0  0  0  0
 11 12  1  0  0  0  0
 11 32  1  0  0  0  0
 11 33  1  0  0  0  0
 12 13  1  0  0  0  0
 12 14  1  0  0  0  0
 12 34  1  0  0  0  0
 13 35  1  0  0  0  0
 14 15  1  0  0  0  0
 14 36  1  0  0  0  0
 14 37  1  0  0  0  0
 15 16  1  0  0  0  0
 16 24  1  0  0  0  0
 16 17  2  0  0  0  0
 17 18  1  0  0  0  0
 17 38  1  0  0  0  0
 18 19  2  0  0  0  0
 18 39  1  0  0  0  0
 19 20  1  0  0  0  0
 19 23  1  0  0  0  0
 20 21  1  0  0  0  0
 20 40  1  0  0  0  0
 20 41  1  0  0  0  0
 21 22  3  0  0  0  0
 23 24  2  0  0  0  0
 23 42  1  0  0  0  0
 24 43  1  0  0  0  0
M  END
> <s_m_source_file>
AV-unprocessed.smi

> <i_m_source_file_index>
2163

> <i_lp_mmshare_version>
43012

> <i_f3d_flags>
0

> <s_epik_input>
W2NIXTFbY0hdW2NIXVtjSF1jKGMxMiluKGMobjIpW0NIM10pW0NIMl1bQ0BIXShbT0hdKVtDSDJdT2MzW2NIXVtjSF1jKFtDSDJdQyNOKVtjSF1bY0hdMw==

> <s_epik_cmdline>
J2VwaWtfcHl0aG9uJywgJy1waCcsICc3LjAnLCAnLXRuJywgJzgnLCAnLW1hJywgJzIwMCcsICctbWV0YWxfYmluZGluZycsICctaW1hZScsICc8aW5maWxlLm1hZT4nLCAnLW9tYWUnLCAnPG91dGZpbGUubWFlPic=

> <r_lp_tautomer_probability>
1

> <r_epik_Ionization_Penalty>
0.114213

> <r_epik_Ionization_Penalty_Charging>
0

> <r_epik_Ionization_Penalty_Neutral>
0.114213

> <r_epik_State_Penalty>
0.103875

> <r_epik_Charging_Adjusted_Penalty>
0.103875

> <i_epik_Tot_Q>
0

> <i_epik_Tot_abs_Q>
0

> <r_epik_Metal_State_Penalty>
0.000113526

> <b_epik_Metal_Only>
0

> <s_lp_Force_Field>
OPLS_2005

> <r_lp_Energy>
15.853

> <b_lp_Chiralities_Consistent>
1

> <s_lp_Variant>
AV-unprocessed.smi:2163-2

> <Gold.Version>
5.8.1

> <Gold.Id.Protein>
6NUR|6NUR_protein|mol2

> <Gold.PLP.Fitness>
50.5257

> <Gold.PLP.PLP>
-53.1051

> <Gold.PLP.part.hbond>
-2.0000

> <Gold.PLP.part.metal>
0.0000

> <Gold.PLP.part.buried>
-8.7144

> <Gold.PLP.part.nonpolar>
-42.8807

> <Gold.PLP.part.repulsive>
0.1725

> <Gold.PLP.ligand.clash>
0.0000

> <Gold.PLP.ligand.torsion>
1.3751

> <Gold.PLP.Chemscore.Hbond>
0.0000

> <Gold.PLP.Chemscore.CHOScore>
0.0000

> <Gold.PLP.Chemscore.Metal>
0.0000

> <Gold.PLP.Chemscore.Internal.Correction>
0.1709

> <Gold.Rescore>
     Score         DG    S(hbond)    S(metal)    S(lipo)     H(rot)  DE(clash)    DE(int)     intcor
     11.80     -13.11       0.00        0.00     120.13       2.51       0.04       1.26       ----

> <Gold.Chemscore.Fitness>
11.8032

> <Gold.Chemscore.DG>
-13.1058

> <Gold.Chemscore.ZeroCoef>
-5.4800

> <Gold.Chemscore.Hbond>
0.0000

> <Gold.Chemscore.Metal>
0.0000

> <Gold.Chemscore.Lipo>
120.1315

> <Gold.Chemscore.Internal_Hbond>
0.0000

> <Gold.Chemscore.DEClash>
0.0414

> <Gold.Chemscore.DEInternal>
1.2613

> <Gold.Chemscore.Rot>
2.5115

> <Gold.Chemscore.Internal.Correction>
   9.000000E+99

> <Gold.Chemscore.Hbond.Weighted>
-0.0000

> <Gold.Chemscore.Metal.Weighted>
-0.0000

> <Gold.Chemscore.Lipo.Weighted>
-14.0554

> <Gold.Chemscore.Internal_Hbond.Weighted>
0.0000

> <Gold.Chemscore.DEClash.Weighted>
0.0414

> <Gold.Chemscore.DEInternal.Weighted>
1.2613

> <Gold.Chemscore.Rot.Weighted>
6.4296

> <Gold.Chemscore.Internal.Correction.Weighted>
   9.000000E+99

> <Gold.Protein.RotatedTorsions>
[ 6907 6896 6895 6894 ] final  149.33 input  -60.11 | X-H torsion
[ 7974 7965 7964 7962 ] final -111.19 input  175.53 | X-H torsion
[ 8008 7997 7996 7995 ] final -152.68 input   59.86 | X-H torsion
[ 10167 10162 10161 10158 ] final  124.65 input  -65.29 | X-H torsion
[ 10718 10713 10712 10709 ] final  -16.35 input   66.30 | X-H torsion
[ 10763 10752 10751 10750 ] final  -61.30 input  -60.55 | X-H torsion
[ 11005 11000 10999 10996 ] final  -97.88 input  -57.11 | X-H torsion

> <Gold.Protein.ActiveResidues>
 VAL166  LYS551  ARG553  GLY616  TRP617  ASP618  TYR619  PRO620  LYS621  CYS622 
 ASP623  PHE694  ASN695  SER759  ASP760  ASP761  ALA762  ILE779  LEU786  VAL792 
 PHE793  MET794  SER795  GLU796  ALA797  LYS798  CYS799  TRP800  GLU811  SER814 

> <Gold.Protein.RotatedAtoms>
  152.1294  133.4399  159.4713 H   0  0  0  0  0  0  0  0  0  0  0  0  # atno 6907 bound_to 6896
  150.6877  134.2439  159.4492 H   0  0  0  0  0  0  0  0  0  0  0  0  # atno 6908 bound_to 6896
  152.0321  134.9761  160.0623 H   0  0  0  0  0  0  0  0  0  0  0  0  # atno 6909 bound_to 6896
  145.1591  140.8869  143.3601 H   0  0  0  0  0  0  0  0  0  0  0  0  # atno 7974 bound_to 7965
  155.6590  140.0720  157.2561 H   0  0  0  0  0  0  0  0  0  0  0  0  # atno 8008 bound_to 7997
  154.4146  140.1719  156.1806 H   0  0  0  0  0  0  0  0  0  0  0  0  # atno 8009 bound_to 7997
  155.9713  140.3361  155.6582 H   0  0  0  0  0  0  0  0  0  0  0  0  # atno 8010 bound_to 7997
  139.5729  144.6948  151.3729 H   0  0  0  0  0  0  0  0  0  0  0  0  # atno 10167 bound_to 10162
  156.5888  130.4793  149.6288 H   0  0  0  0  0  0  0  0  0  0  0  0  # atno 10718 bound_to 10713
  154.2825  135.6269  153.5353 H   0  0  0  0  0  0  0  0  0  0  0  0  # atno 10763 bound_to 10752
  152.9863  135.5636  154.5479 H   0  0  0  0  0  0  0  0  0  0  0  0  # atno 10764 bound_to 10752
  154.5073  135.2875  155.1347 H   0  0  0  0  0  0  0  0  0  0  0  0  # atno 10765 bound_to 10752
  141.1364  133.8204  157.0765 H   0  0  0  0  0  0  0  0  0  0  0  0  # atno 11005 bound_to 11000
  145.0350  139.3309  143.6005 LP  0  0  0  0  0  0  0  0  0  0  0  0  # atno 17320 bound_to 7965
  146.3485  139.9701  142.8707 LP  0  0  0  0  0  0  0  0  0  0  0  0  # atno 17321 bound_to 7965
  140.7013  143.7624  150.7408 LP  0  0  0  0  0  0  0  0  0  0  0  0  # atno 17342 bound_to 10162
  140.1135  143.4677  152.2356 LP  0  0  0  0  0  0  0  0  0  0  0  0  # atno 17343 bound_to 10162
  156.2568  130.6939  151.1695 LP  0  0  0  0  0  0  0  0  0  0  0  0  # atno 17370 bound_to 10713
  157.7309  131.0613  150.5705 LP  0  0  0  0  0  0  0  0  0  0  0  0  # atno 17371 bound_to 10713
  140.0478  134.9821  157.1081 LP  0  0  0  0  0  0  0  0  0  0  0  0  # atno 17394 bound_to 11000
  140.4036  134.2056  155.7163 LP  0  0  0  0  0  0  0  0  0  0  0  0  # atno 17395 bound_to 11000

$$$$
