AV-unprocessed.smi:3347|AV-procd|sdf|12911|dock2
  -GOLD-   2272019323D 1   1.00000     0.00000
 Structure written by MMmdl.
 40 42  0  0  0  0  0  0  0  0  2 V2000
  151.3186  134.5880  155.0789 O   0  0  0  0  0  0  0  0  0  0  0  0
  150.5575  135.1026  154.2606 C   0  0  0  0  0  0  0  0  0  0  0  0
  149.5698  134.4310  153.6513 N   0  0  0  0  0  0  0  0  0  0  0  0
  149.2258  133.0318  153.8863 C   0  0  0  0  0  0  0  0  0  0  0  0
  148.4114  132.4290  152.7257 C   0  0  2  0  0  0  0  0  0  0  0  0
  146.9927  132.9848  152.6195 C   0  0  0  0  0  0  0  0  0  0  0  0
  146.2269  131.9218  151.8227 C   0  0  0  0  0  0  0  0  0  0  0  0
  147.0058  130.6659  151.9275 N   0  3  2  0  0  0  0  0  0  0  0  0
  146.2031  129.4841  152.3075 C   0  0  0  0  0  0  0  0  0  0  0  0
  147.0212  128.3673  152.9102 C   0  0  0  0  0  0  0  0  0  0  0  0
  146.5136  128.2542  151.4886 C   0  0  0  0  0  0  0  0  0  0  0  0
  148.1522  130.9237  152.8228 C   0  0  0  0  0  0  0  0  0  0  0  0
  150.5893  136.3842  153.8562 N   0  0  0  0  0  0  0  0  0  0  0  0
  151.4420  137.4439  154.2730 C   0  0  0  0  0  0  0  0  0  0  0  0
  152.6011  137.2883  155.0729 C   0  0  0  0  0  0  0  0  0  0  0  0
  153.3555  138.4299  155.4066 C   0  0  0  0  0  0  0  0  0  0  0  0
  152.9290  139.6834  154.9278 C   0  0  0  0  0  0  0  0  0  0  0  0
  151.8318  139.8467  154.1597 N   0  0  0  0  0  0  0  0  0  0  0  0
  151.1137  138.7481  153.8441 C   0  0  0  0  0  0  0  0  0  0  0  0
  148.9923  134.9348  152.9938 H   0  0  0  0  0  0  0  0  0  0  0  0
  150.1230  132.4399  154.0765 H   0  0  0  0  0  0  0  0  0  0  0  0
  148.6357  132.9893  154.8022 H   0  0  0  0  0  0  0  0  0  0  0  0
  148.9266  132.6313  151.7849 H   0  0  0  0  0  0  0  0  0  0  0  0
  146.5535  133.0781  153.6142 H   0  0  0  0  0  0  0  0  0  0  0  0
  146.9586  133.9681  152.1489 H   0  0  0  0  0  0  0  0  0  0  0  0
  145.2076  131.8120  152.1964 H   0  0  0  0  0  0  0  0  0  0  0  0
  146.1632  132.1988  150.7700 H   0  0  0  0  0  0  0  0  0  0  0  0
  145.1889  129.6761  152.6539 H   0  0  0  0  0  0  0  0  0  0  0  0
  148.0884  128.5286  153.0518 H   0  0  0  0  0  0  0  0  0  0  0  0
  146.5414  127.7440  153.6621 H   0  0  0  0  0  0  0  0  0  0  0  0
  145.7000  127.5556  151.3043 H   0  0  0  0  0  0  0  0  0  0  0  0
  147.2433  128.3402  150.6853 H   0  0  0  0  0  0  0  0  0  0  0  0
  149.0194  130.3272  152.5378 H   0  0  0  0  0  0  0  0  0  0  0  0
  147.8838  130.6584  153.8470 H   0  0  0  0  0  0  0  0  0  0  0  0
  149.8767  136.6505  153.1926 H   0  0  0  0  0  0  0  0  0  0  0  0
  152.9357  136.3292  155.4335 H   0  0  0  0  0  0  0  0  0  0  0  0
  154.2434  138.3457  156.0157 H   0  0  0  0  0  0  0  0  0  0  0  0
  153.4850  140.5782  155.1659 H   0  0  0  0  0  0  0  0  0  0  0  0
  150.2432  138.9178  153.2273 H   0  0  0  0  0  0  0  0  0  0  0  0
  147.3886  130.4918  151.0093 H   0  0  0  0  0  0  0  0  0  0  0  0
  1  2  2  0  0  0  0
  2  3  1  0  0  0  0
  2 13  1  0  0  0  0
  3  4  1  0  0  0  0
  3 20  1  0  0  0  0
  4  5  1  0  0  0  0
  4 21  1  0  0  0  0
  4 22  1  0  0  0  0
  5 12  1  0  0  0  0
  5  6  1  0  0  0  0
  5 23  1  0  0  0  0
  6  7  1  0  0  0  0
  6 24  1  0  0  0  0
  6 25  1  0  0  0  0
  7  8  1  0  0  0  0
  7 26  1  0  0  0  0
  7 27  1  0  0  0  0
  8  9  1  0  0  0  0
  8 12  1  0  0  0  0
  8 40  1  0  0  0  0
  9 11  1  0  0  0  0
  9 10  1  0  0  0  0
  9 28  1  0  0  0  0
 10 11  1  0  0  0  0
 10 29  1  0  0  0  0
 10 30  1  0  0  0  0
 11 31  1  0  0  0  0
 11 32  1  0  0  0  0
 12 33  1  0  0  0  0
 12 34  1  0  0  0  0
 13 14  1  0  0  0  0
 13 35  1  0  0  0  0
 14 19  1  0  0  0  0
 14 15  2  0  0  0  0
 15 16  1  0  0  0  0
 15 36  1  0  0  0  0
 16 17  2  0  0  0  0
 16 37  1  0  0  0  0
 17 18  1  0  0  0  0
 17 38  1  0  0  0  0
 18 19  2  0  0  0  0
 19 39  1  0  0  0  0
M  CHG  1   8   1
M  END
> <s_m_source_file>
AV-unprocessed.smi

> <i_m_source_file_index>
3347

> <i_lp_mmshare_version>
43012

> <i_f3d_flags>
0

> <s_epik_input>
W2NIXTFuW2NIXVtjSF1bY0hdYzFbTkhdQyg9TylbTkhdW0NIMl1bQ0BASF0yW0NIMl1bQ0gyXU4oW0NIMl0yKVtDSF0zW0NIMl1bQ0gyXTM=

> <s_epik_cmdline>
J2VwaWtfcHl0aG9uJywgJy1waCcsICc3LjAnLCAnLXRuJywgJzgnLCAnLW1hJywgJzIwMCcsICctbWV0YWxfYmluZGluZycsICctaW1hZScsICc8aW5maWxlLm1hZT4nLCAnLW9tYWUnLCAnPG91dGZpbGUubWFlPic=

> <r_epik_Ionization_Penalty>
0.00442629

> <r_epik_Ionization_Penalty_Charging>
0.000203384

> <r_epik_Ionization_Penalty_Neutral>
0.00422291

> <r_epik_State_Penalty>
0.00301008

> <r_epik_Charging_Adjusted_Penalty>
0.00321347

> <i_epik_Tot_Q>
1

> <i_epik_Tot_abs_Q>
1

> <r_epik_Metal_State_Penalty>
-0

> <b_epik_Metal_Only>
0

> <s_lp_Force_Field>
OPLS_2005

> <r_lp_Energy>
39.8414

> <b_lp_Chiralities_Consistent>
1

> <s_lp_Variant>
AV-unprocessed.smi:3347-1

> <Gold.Version>
5.8.1

> <Gold.Id.Protein>
6NUR|6NUR_protein|mol2

> <Gold.PLP.Fitness>
49.5328

> <Gold.PLP.PLP>
-35.4944

> <Gold.PLP.part.hbond>
-4.4994

> <Gold.PLP.part.metal>
0.0000

> <Gold.PLP.part.buried>
-2.8095

> <Gold.PLP.part.nonpolar>
-28.0461

> <Gold.PLP.part.repulsive>
0.1715

> <Gold.PLP.ligand.clash>
0.0000

> <Gold.PLP.ligand.torsion>
1.0612

> <Gold.PLP.Chemscore.Hbond>
3.9840

> <Gold.PLP.Chemscore.CHOScore>
0.9833

> <Gold.PLP.Chemscore.Metal>
0.0000

> <Gold.Chemscore.Hbonds>
donor molecule, donor type, donor heavy atom, donor atom, acceptor molecule, acceptor atom, score
      L1  H     3    20       P1  7948  0.66
      L1  H     8    40       P1 10747  0.67
      L1  H    13    35       P1  7948  0.79
      P1  H  7989  7998       L1    18  0.20
      P1  H 10752 10763       L1     1  0.51
      L1  C    19    39       P1  7957  1.00

> <Gold.PLP.Chemscore.Internal.Correction>
1.2589

> <Gold.Rescore>
     Score         DG    S(hbond)    S(metal)    S(lipo)     H(rot)  DE(clash)    DE(int)     intcor
     20.72     -23.00       3.09        0.00      92.57       1.42       0.12       2.17       ----

> <Gold.Chemscore.Fitness>
20.7160

> <Gold.Chemscore.DG>
-23.0026

> <Gold.Chemscore.ZeroCoef>
-5.4800

> <Gold.Chemscore.Hbond>
3.0934

> <Gold.Chemscore.Metal>
0.0000

> <Gold.Chemscore.Lipo>
92.5691

> <Gold.Chemscore.Internal_Hbond>
0.0000

> <Gold.Chemscore.DEClash>
0.1181

> <Gold.Chemscore.DEInternal>
2.1685

> <Gold.Chemscore.Rot>
1.4219

> <Gold.Chemscore.Internal.Correction>
   9.000000E+99

> <Gold.Chemscore.Hbonds>
donor molecule, donor type, donor heavy atom, donor atom, acceptor molecule, acceptor atom, score
      L1  H     3    20       P1  7948  0.08
      L1  H     8    40       P1 10747  0.66
      L1  H    13    35       P1  7948  0.13
      P1  H  7989  7998       L1    18  0.20
      P1  H 10752 10763       L1     1  0.36

> <Gold.Chemscore.Hbond.Weighted>
-10.3321

> <Gold.Chemscore.Metal.Weighted>
-0.0000

> <Gold.Chemscore.Lipo.Weighted>
-10.8306

> <Gold.Chemscore.Internal_Hbond.Weighted>
0.0000

> <Gold.Chemscore.DEClash.Weighted>
0.1181

> <Gold.Chemscore.DEInternal.Weighted>
2.1685

> <Gold.Chemscore.Rot.Weighted>
3.6401

> <Gold.Chemscore.Internal.Correction.Weighted>
   9.000000E+99

> <Gold.Protein.RotatedTorsions>
[ 6907 6896 6895 6894 ] final  123.07 input  -60.11 | X-H torsion
[ 7974 7965 7964 7962 ] final  -54.47 input  175.53 | X-H torsion
[ 8008 7997 7996 7995 ] final   47.26 input   59.86 | X-H torsion
[ 10167 10162 10161 10158 ] final  -61.68 input  -65.29 | X-H torsion
[ 10718 10713 10712 10709 ] final   34.35 input   66.30 | X-H torsion
[ 10763 10752 10751 10750 ] final   83.90 input  -60.55 | X-H torsion
[ 11005 11000 10999 10996 ] final  157.32 input  -57.11 | X-H torsion

> <Gold.Protein.ActiveResidues>
 VAL166  LYS551  ARG553  GLY616  TRP617  ASP618  TYR619  PRO620  LYS621  CYS622 
 ASP623  PHE694  ASN695  SER759  ASP760  ASP761  ALA762  ILE779  LEU786  VAL792 
 PHE793  MET794  SER795  GLU796  ALA797  LYS798  CYS799  TRP800  GLU811  SER814 

> <Gold.Protein.RotatedAtoms>
  152.4192  133.7088  159.6466 H   0  0  0  0  0  0  0  0  0  0  0  0  # atno 6907 bound_to 6896
  150.8068  133.8484  159.3207 H   0  0  0  0  0  0  0  0  0  0  0  0  # atno 6908 bound_to 6896
  151.6206  135.1034  160.0152 H   0  0  0  0  0  0  0  0  0  0  0  0  # atno 6909 bound_to 6896
  145.8852  140.8114  142.9819 H   0  0  0  0  0  0  0  0  0  0  0  0  # atno 7974 bound_to 7965
  155.3660  140.3421  155.4242 H   0  0  0  0  0  0  0  0  0  0  0  0  # atno 8008 bound_to 7997
  156.1688  140.1625  156.8518 H   0  0  0  0  0  0  0  0  0  0  0  0  # atno 8009 bound_to 7997
  154.5212  140.0766  156.8157 H   0  0  0  0  0  0  0  0  0  0  0  0  # atno 8010 bound_to 7997
  140.5990  143.2357  151.5972 H   0  0  0  0  0  0  0  0  0  0  0  0  # atno 10167 bound_to 10162
  157.3093  130.7391  149.6715 H   0  0  0  0  0  0  0  0  0  0  0  0  # atno 10718 bound_to 10713
  153.1333  135.4674  154.9382 H   0  0  0  0  0  0  0  0  0  0  0  0  # atno 10763 bound_to 10752
  154.7683  135.3151  154.8243 H   0  0  0  0  0  0  0  0  0  0  0  0  # atno 10764 bound_to 10752
  153.8781  135.6897  153.4823 H   0  0  0  0  0  0  0  0  0  0  0  0  # atno 10765 bound_to 10752
  140.1759  134.8510  157.2745 H   0  0  0  0  0  0  0  0  0  0  0  0  # atno 11005 bound_to 11000
  144.6728  140.1444  143.7434 LP  0  0  0  0  0  0  0  0  0  0  0  0  # atno 17320 bound_to 7965
  145.8975  139.2411  143.1513 LP  0  0  0  0  0  0  0  0  0  0  0  0  # atno 17321 bound_to 7965
  139.5278  144.3008  152.1075 LP  0  0  0  0  0  0  0  0  0  0  0  0  # atno 17342 bound_to 10162
  140.2185  144.4490  150.6353 LP  0  0  0  0  0  0  0  0  0  0  0  0  # atno 17343 bound_to 10162
  155.9676  130.4256  150.4662 LP  0  0  0  0  0  0  0  0  0  0  0  0  # atno 17370 bound_to 10713
  157.2657  131.0576  151.2292 LP  0  0  0  0  0  0  0  0  0  0  0  0  # atno 17371 bound_to 10713
  140.2324  134.3894  155.7516 LP  0  0  0  0  0  0  0  0  0  0  0  0  # atno 17394 bound_to 11000
  141.2220  133.7222  156.8661 LP  0  0  0  0  0  0  0  0  0  0  0  0  # atno 17395 bound_to 11000

$$$$
