AV-unprocessed.smi:1762|AV-procd|sdf|7121|dock3
  -GOLD-   22720 8353D 1   1.00000     0.00000
 Structure written by MMmdl.
 52 53  0  0  0  0  0  0  0  0  3 V2000
  145.9632  131.9742  150.2309 C   0  0  0  0  0  0  0  0  0  0  0  0
  146.2337  133.2950  150.9588 C   0  0  2  0  0  0  0  0  0  0  0  0
  146.8670  133.0720  152.3422 C   0  0  0  0  0  0  0  0  0  0  0  0
  147.0262  134.3711  153.0398 N   0  3  2  0  0  0  0  0  0  0  0  0
  147.8458  134.3655  154.2914 C   0  0  1  0  0  0  0  0  0  0  0  0
  147.0459  134.0005  155.5686 C   0  0  0  0  0  0  0  0  0  0  0  0
  146.4228  132.9334  155.5678 O   0  0  0  0  0  0  0  0  0  0  0  0
  147.1480  134.9489  156.5428 N   0  5  0  0  0  0  0  0  0  0  0  0
  147.0544  134.6617  157.9751 C   0  0  0  0  0  0  0  0  0  0  0  0
  147.2150  135.9429  158.8295 C   0  0  0  0  0  0  0  0  0  0  0  0
  147.2191  135.7362  160.3432 C   0  0  0  0  0  0  0  0  0  0  0  0
  147.2187  134.4327  160.8897 C   0  0  0  0  0  0  0  0  0  0  0  0
  147.1888  134.2870  162.2900 C   0  0  0  0  0  0  0  0  0  0  0  0
  147.1532  135.4424  163.0928 C   0  0  0  0  0  0  0  0  0  0  0  0
  147.1405  136.6988  162.4562 C   0  0  0  0  0  0  0  0  0  0  0  0
  147.1639  136.8501  161.1151 N   0  0  0  0  0  0  0  0  0  0  0  0
  149.2087  133.6204  154.1180 C   0  0  0  0  0  0  0  0  0  0  0  0
  149.0589  132.0855  154.1538 C   0  0  0  0  0  0  0  0  0  0  0  0
  150.2410  134.0544  155.1767 C   0  0  0  0  0  0  0  0  0  0  0  0
  145.7175  135.0573  153.1657 C   0  0  0  0  0  0  0  0  0  0  0  0
  145.0624  135.2321  151.7824 C   0  0  1  0  0  0  0  0  0  0  0  0
  145.7333  136.3167  150.9203 C   0  0  0  0  0  0  0  0  0  0  0  0
  144.9886  133.9753  151.1072 O   0  0  0  0  0  0  0  0  0  0  0  0
  146.8824  131.4038  150.0952 H   0  0  0  0  0  0  0  0  0  0  0  0
  145.5337  132.1533  149.2450 H   0  0  0  0  0  0  0  0  0  0  0  0
  145.2634  131.3538  150.7902 H   0  0  0  0  0  0  0  0  0  0  0  0
  146.9070  133.8891  150.3407 H   0  0  0  0  0  0  0  0  0  0  0  0
  146.2352  132.4105  152.9326 H   0  0  0  0  0  0  0  0  0  0  0  0
  147.8308  132.5777  152.2266 H   0  0  0  0  0  0  0  0  0  0  0  0
  148.1324  135.4091  154.4340 H   0  0  0  0  0  0  0  0  0  0  0  0
  146.1047  134.1861  158.2206 H   0  0  0  0  0  0  0  0  0  0  0  0
  147.8149  133.9449  158.2882 H   0  0  0  0  0  0  0  0  0  0  0  0
  148.1562  136.4241  158.5616 H   0  0  0  0  0  0  0  0  0  0  0  0
  146.4372  136.6615  158.5670 H   0  0  0  0  0  0  0  0  0  0  0  0
  147.2377  133.5639  160.2485 H   0  0  0  0  0  0  0  0  0  0  0  0
  147.1877  133.3061  162.7413 H   0  0  0  0  0  0  0  0  0  0  0  0
  147.1298  135.3686  164.1700 H   0  0  0  0  0  0  0  0  0  0  0  0
  147.1053  137.6069  163.0398 H   0  0  0  0  0  0  0  0  0  0  0  0
  149.6325  133.8726  153.1457 H   0  0  0  0  0  0  0  0  0  0  0  0
  148.6126  131.7536  155.0917 H   0  0  0  0  0  0  0  0  0  0  0  0
  150.0277  131.5949  154.0563 H   0  0  0  0  0  0  0  0  0  0  0  0
  148.4358  131.7152  153.3399 H   0  0  0  0  0  0  0  0  0  0  0  0
  149.8761  133.8625  156.1862 H   0  0  0  0  0  0  0  0  0  0  0  0
  150.4794  135.1154  155.1025 H   0  0  0  0  0  0  0  0  0  0  0  0
  151.1784  133.5107  155.0553 H   0  0  0  0  0  0  0  0  0  0  0  0
  145.0602  134.4689  153.8078 H   0  0  0  0  0  0  0  0  0  0  0  0
  145.8401  136.0296  153.6447 H   0  0  0  0  0  0  0  0  0  0  0  0
  144.0318  135.5503  151.9422 H   0  0  0  0  0  0  0  0  0  0  0  0
  145.6644  137.2913  151.4038 H   0  0  0  0  0  0  0  0  0  0  0  0
  145.2462  136.3972  149.9484 H   0  0  0  0  0  0  0  0  0  0  0  0
  146.7906  136.1157  150.7496 H   0  0  0  0  0  0  0  0  0  0  0  0
  147.5597  134.9454  152.4038 H   0  0  0  0  0  0  0  0  0  0  0  0
  1  2  1  0  0  0  0
  1 24  1  0  0  0  0
  1 25  1  0  0  0  0
  1 26  1  0  0  0  0
  2 23  1  0  0  0  0
  2  3  1  0  0  0  0
  2 27  1  0  0  0  0
  3  4  1  0  0  0  0
  3 28  1  0  0  0  0
  3 29  1  0  0  0  0
  4  5  1  0  0  0  0
  4 20  1  0  0  0  0
  4 52  1  0  0  0  0
  5  6  1  0  0  0  0
  5 17  1  0  0  0  0
  5 30  1  0  0  0  0
  6  7  2  0  0  0  0
  6  8  1  0  0  0  0
  8  9  1  0  0  0  0
  9 10  1  0  0  0  0
  9 31  1  0  0  0  0
  9 32  1  0  0  0  0
 10 11  1  0  0  0  0
 10 33  1  0  0  0  0
 10 34  1  0  0  0  0
 11 16  1  0  0  0  0
 11 12  2  0  0  0  0
 12 13  1  0  0  0  0
 12 35  1  0  0  0  0
 13 14  2  0  0  0  0
 13 36  1  0  0  0  0
 14 15  1  0  0  0  0
 14 37  1  0  0  0  0
 15 16  2  0  0  0  0
 15 38  1  0  0  0  0
 17 18  1  0  0  0  0
 17 19  1  0  0  0  0
 17 39  1  0  0  0  0
 18 40  1  0  0  0  0
 18 41  1  0  0  0  0
 18 42  1  0  0  0  0
 19 43  1  0  0  0  0
 19 44  1  0  0  0  0
 19 45  1  0  0  0  0
 20 21  1  0  0  0  0
 20 46  1  0  0  0  0
 20 47  1  0  0  0  0
 21 22  1  0  0  0  0
 21 23  1  0  0  0  0
 21 48  1  0  0  0  0
 22 49  1  0  0  0  0
 22 50  1  0  0  0  0
 22 51  1  0  0  0  0
M  CHG  1   4   1
M  CHG  1   8  -1
M  END
> <s_m_source_file>
AV-unprocessed.smi

> <i_m_source_file_index>
1762

> <i_lp_mmshare_version>
43012

> <i_f3d_flags>
0

> <s_epik_input>
W0NIM11bQ0BASF0xW0NIMl1OKFtDSDJdW0NASF0oTzEpW0NIM10pW0NAQEhdKFtDSF0oW0NIM10pW0NIM10pQyg9TylbTkhdW0NIMl1bQ0gyXWMyW2NIXVtjSF1bY0hdW2NIXW4y

> <s_epik_cmdline>
J2VwaWtfcHl0aG9uJywgJy1waCcsICc3LjAnLCAnLXRuJywgJzgnLCAnLW1hJywgJzIwMCcsICctbWV0YWxfYmluZGluZycsICctaW1hZScsICc8aW5maWxlLm1hZT4nLCAnLW9tYWUnLCAnPG91dGZpbGUubWFlPic=

> <r_epik_Ionization_Penalty>
7.82966

> <r_epik_Ionization_Penalty_Charging>
7.7461

> <r_epik_Ionization_Penalty_Neutral>
0.0835571

> <r_epik_State_Penalty>
8.52273

> <r_epik_Charging_Adjusted_Penalty>
16.2688

> <i_epik_Tot_Q>
0

> <i_epik_Tot_abs_Q>
2

> <r_epik_Metal_State_Penalty>
4.47451

> <b_epik_Metal_Only>
1

> <s_lp_Force_Field>
OPLS_2005

> <r_lp_Energy>
25.1161

> <b_lp_Chiralities_Consistent>
1

> <s_lp_Variant>
AV-unprocessed.smi:1762-23

> <Gold.Version>
5.8.1

> <Gold.Id.Protein>
6NUR|6NUR_protein|mol2

> <Gold.PLP.Fitness>
47.1660

> <Gold.PLP.PLP>
-39.4501

> <Gold.PLP.part.hbond>
-2.6746

> <Gold.PLP.part.metal>
0.0000

> <Gold.PLP.part.buried>
-2.5088

> <Gold.PLP.part.nonpolar>
-34.8144

> <Gold.PLP.part.repulsive>
0.1854

> <Gold.PLP.ligand.clash>
0.0000

> <Gold.PLP.ligand.torsion>
0.9401

> <Gold.PLP.Chemscore.Hbond>
2.9263

> <Gold.PLP.Chemscore.CHOScore>
0.0000

> <Gold.PLP.Chemscore.Metal>
0.0000

> <Gold.Chemscore.Hbonds>
donor molecule, donor type, donor heavy atom, donor atom, acceptor molecule, acceptor atom, score
      L1  H     4    52       P1  7948  2.00
      P1  H  6934  6947       L1    16  0.63

> <Gold.PLP.Chemscore.Internal.Correction>
0.8173

> <Gold.Rescore>
     Score         DG    S(hbond)    S(metal)    S(lipo)     H(rot)  DE(clash)    DE(int)     intcor
     16.25     -18.55       1.57        0.00     102.09       1.60       0.10       2.21       ----

> <Gold.Chemscore.Fitness>
16.2503

> <Gold.Chemscore.DG>
-18.5542

> <Gold.Chemscore.ZeroCoef>
-5.4800

> <Gold.Chemscore.Hbond>
1.5655

> <Gold.Chemscore.Metal>
0.0000

> <Gold.Chemscore.Lipo>
102.0880

> <Gold.Chemscore.Internal_Hbond>
0.0000

> <Gold.Chemscore.DEClash>
0.0983

> <Gold.Chemscore.DEInternal>
2.2056

> <Gold.Chemscore.Rot>
1.6012

> <Gold.Chemscore.Internal.Correction>
   9.000000E+99

> <Gold.Chemscore.Hbonds>
donor molecule, donor type, donor heavy atom, donor atom, acceptor molecule, acceptor atom, score
      L1  H     4    52       P1  7948  0.94
      P1  H  6934  6947       L1    16  0.19

> <Gold.Chemscore.Hbond.Weighted>
-5.2289

> <Gold.Chemscore.Metal.Weighted>
-0.0000

> <Gold.Chemscore.Lipo.Weighted>
-11.9443

> <Gold.Chemscore.Internal_Hbond.Weighted>
0.0000

> <Gold.Chemscore.DEClash.Weighted>
0.0983

> <Gold.Chemscore.DEInternal.Weighted>
2.2056

> <Gold.Chemscore.Rot.Weighted>
4.0990

> <Gold.Chemscore.Internal.Correction.Weighted>
   9.000000E+99

> <Gold.Protein.RotatedTorsions>
[ 6907 6896 6895 6894 ] final -125.01 input  -60.11 | X-H torsion
[ 7974 7965 7964 7962 ] final   10.92 input  175.53 | X-H torsion
[ 8008 7997 7996 7995 ] final  -98.05 input   59.86 | X-H torsion
[ 10167 10162 10161 10158 ] final -130.42 input  -65.29 | X-H torsion
[ 10718 10713 10712 10709 ] final   95.38 input   66.30 | X-H torsion
[ 10763 10752 10751 10750 ] final   30.69 input  -60.55 | X-H torsion
[ 11005 11000 10999 10996 ] final  -84.90 input  -57.11 | X-H torsion

> <Gold.Protein.ActiveResidues>
 VAL166  LYS551  ARG553  GLY616  TRP617  ASP618  TYR619  PRO620  LYS621  CYS622 
 ASP623  PHE694  ASN695  SER759  ASP760  ASP761  ALA762  ILE779  LEU786  VAL792 
 PHE793  MET794  SER795  GLU796  ALA797  LYS798  CYS799  TRP800  GLU811  SER814 

> <Gold.Protein.RotatedAtoms>
  150.8825  133.7352  159.2927 H   0  0  0  0  0  0  0  0  0  0  0  0  # atno 6907 bound_to 6896
  151.4929  135.1057  159.9818 H   0  0  0  0  0  0  0  0  0  0  0  0  # atno 6908 bound_to 6896
  152.4769  133.8114  159.7061 H   0  0  0  0  0  0  0  0  0  0  0  0  # atno 6909 bound_to 6896
  146.2380  139.9562  142.8464 H   0  0  0  0  0  0  0  0  0  0  0  0  # atno 7974 bound_to 7965
  154.7959  140.0458  157.1236 H   0  0  0  0  0  0  0  0  0  0  0  0  # atno 8008 bound_to 7997
  154.9536  140.3068  155.5044 H   0  0  0  0  0  0  0  0  0  0  0  0  # atno 8009 bound_to 7997
  156.2956  140.2283  156.4615 H   0  0  0  0  0  0  0  0  0  0  0  0  # atno 8010 bound_to 7997
  139.9295  143.6288  152.2533 H   0  0  0  0  0  0  0  0  0  0  0  0  # atno 10167 bound_to 10162
  157.6939  131.0544  150.4330 H   0  0  0  0  0  0  0  0  0  0  0  0  # atno 10718 bound_to 10713
  153.0357  135.6458  154.1083 H   0  0  0  0  0  0  0  0  0  0  0  0  # atno 10763 bound_to 10752
  154.0798  135.2874  155.3294 H   0  0  0  0  0  0  0  0  0  0  0  0  # atno 10764 bound_to 10752
  154.6538  135.5416  153.7998 H   0  0  0  0  0  0  0  0  0  0  0  0  # atno 10765 bound_to 10752
  141.1646  133.7370  156.8936 H   0  0  0  0  0  0  0  0  0  0  0  0  # atno 11005 bound_to 11000
  145.1815  140.9769  143.4264 LP  0  0  0  0  0  0  0  0  0  0  0  0  # atno 17320 bound_to 7965
  144.9938  139.3663  143.6201 LP  0  0  0  0  0  0  0  0  0  0  0  0  # atno 17321 bound_to 7965
  139.6794  144.7656  151.1636 LP  0  0  0  0  0  0  0  0  0  0  0  0  # atno 17342 bound_to 10162
  140.7641  143.5747  150.8958 LP  0  0  0  0  0  0  0  0  0  0  0  0  # atno 17343 bound_to 10162
  156.4695  130.4049  149.6527 LP  0  0  0  0  0  0  0  0  0  0  0  0  # atno 17370 bound_to 10713
  156.3612  130.7482  151.2455 LP  0  0  0  0  0  0  0  0  0  0  0  0  # atno 17371 bound_to 10713
  140.1631  134.9152  157.2740 LP  0  0  0  0  0  0  0  0  0  0  0  0  # atno 17394 bound_to 11000
  140.2588  134.3596  155.7414 LP  0  0  0  0  0  0  0  0  0  0  0  0  # atno 17395 bound_to 11000

$$$$
