#       Name:                AV-unprocessed.smi:2198
#       Creating user name   scv26
#       Creation time:       Fri Mar 27 12:13:00 2020


#       File generated by GOLD software.
#

@<TRIPOS>MOLECULE
AV-unprocessed.smi:2198
    48    49     1
SMALL
NO_CHARGES


@<TRIPOS>ATOM
      1 ****        -6.5326  -1.5120  -1.4788 C.3            1 S1                 0.0000
      2 ****        -5.0235  -1.3886  -1.4788 C.2            1 S1                 0.0000
      3 ****        -4.3876  -0.3198  -1.8307 N.2            1 S1                 0.0000
      4 ****        -2.9864  -0.3249  -1.7886 C.2            1 S1                 0.0000
      5 ****        -2.3119   0.9692  -2.2106 C.3            1 S1                 0.0000
      6 ****        -2.2864  -1.4278  -1.3917 C.2            1 S1                 0.0000
      7 ****        -0.7596  -1.4643  -1.3326 C.3            1 S1                 0.0000
      8 ****        -0.1161  -0.8600  -0.0818 C.2            1 S1                 0.0000
      9 ****        -0.8065  -0.5303   0.8833 O.2            1 S1                 0.0000
     10 ****         1.2169  -0.7144  -0.1193 N.am           1 S1                 0.0000
     11 ****         2.0320  -0.1381   0.9456 C.3            1 S1                 0.0000
     12 ****         3.4672  -0.6862   0.8528 C.3            1 S1                 0.0000
     13 ****         4.3721  -0.0607   1.9250 C.3            1 S1                 0.0000
     14 ****         4.3657   1.4734   1.8338 C.3            1 S1                 0.0000
     15 ****         2.9361   2.0409   1.9264 C.3            1 S1                 0.0000
     16 ****         2.9333   3.5728   1.8202 C.3            1 S1                 0.0000
     17 ****         2.0286   1.4022   0.8568 C.3            1 S1                 0.0000
     18 ****        -3.0226  -2.6423  -0.9909 C.2            1 S1                 0.0000
     19 ****        -2.4930  -3.6854  -0.6108 O.2            1 S1                 0.0000
     20 ****        -4.3693  -2.5461  -1.0602 N.am           1 S1                 0.0000
     21 ****        -4.9185  -3.3505  -0.7943 H              1 S1                 0.0000
     22 ****        -6.9696  -0.7688  -0.8115 H              1 S1                 0.0000
     23 ****        -6.8562  -2.4999  -1.1481 H              1 S1                 0.0000
     24 ****        -6.9230  -1.3438  -2.4825 H              1 S1                 0.0000
     25 ****        -1.7266   0.8165  -3.1175 H              1 S1                 0.0000
     26 ****        -1.6486   1.3332  -1.4258 H              1 S1                 0.0000
     27 ****        -3.0458   1.7499  -2.4139 H              1 S1                 0.0000
     28 ****        -0.3994  -2.4877  -1.4445 H              1 S1                 0.0000
     29 ****        -0.3673  -0.9356  -2.2015 H              1 S1                 0.0000
     30 ****         1.7028  -1.0153  -0.9518 H              1 S1                 0.0000
     31 ****         1.6184  -0.4369   1.9109 H              1 S1                 0.0000
     32 ****         3.4618  -1.7712   0.9647 H              1 S1                 0.0000
     33 ****         3.8813  -0.4786  -0.1352 H              1 S1                 0.0000
     34 ****         4.0330  -0.3701   2.9145 H              1 S1                 0.0000
     35 ****         5.3903  -0.4352   1.8163 H              1 S1                 0.0000
     36 ****         4.9836   1.8879   2.6310 H              1 S1                 0.0000
     37 ****         4.8259   1.7828   0.8942 H              1 S1                 0.0000
     38 ****         2.5334   1.7791   2.9060 H              1 S1                 0.0000
     39 ****         3.3303   3.9045   0.8604 H              1 S1                 0.0000
     40 ****         3.5427   4.0220   2.6050 H              1 S1                 0.0000
     41 ****         1.9234   3.9718   1.9182 H              1 S1                 0.0000
     42 ****         2.3602   1.7124  -0.1355 H              1 S1                 0.0000
     43 ****         1.0106   1.7771   0.9712 H              1 S1                 0.0000
     44 ****        -4.8856   0.4951  -2.1273 LP             1 S1                 0.0000
     45 ****        -1.7981  -0.6564   0.8551 LP             1 S1                 0.0000
     46 ****        -0.3754  -0.1365   1.6952 LP             1 S1                 0.0000
     47 ****        -1.4965  -3.7497  -0.5576 LP             1 S1                 0.0000
     48 ****        -3.0589  -4.4692  -0.3549 LP             1 S1                 0.0000
@<TRIPOS>BOND
    1    1    2 1     
    2    1   22 1     
    3    1   23 1     
    4    1   24 1     
    5    2   20 1     
    6    2    3 2     
    7    3    4 1     
    8    4    5 1     
    9    4    6 2     
   10    5   25 1     
   11    5   26 1     
   12    5   27 1     
   13    6    7 1     
   14    6   18 1     
   15    7    8 1     
   16    7   28 1     
   17    7   29 1     
   18    8    9 2     
   19    8   10 am    
   20   10   11 1     
   21   10   30 1     
   22   11   17 1     
   23   11   12 1     
   24   11   31 1     
   25   12   13 1     
   26   12   32 1     
   27   12   33 1     
   28   13   14 1     
   29   13   34 1     
   30   13   35 1     
   31   14   15 1     
   32   14   36 1     
   33   14   37 1     
   34   15   16 1     
   35   15   17 1     
   36   15   38 1     
   37   16   39 1     
   38   16   40 1     
   39   16   41 1     
   40   17   42 1     
   41   17   43 1     
   42   18   19 2     
   43   18   20 am    
   44   20   21 1     
   45    3   44 1     
   46    9   45 1     
   47    9   46 1     
   48   19   47 1     
   49   19   48 1     
@<TRIPOS>SUBSTRUCTURE
      1 S1             1
@<TRIPOS>SET
LONE_PAIRS      STATIC     ATOMS    <user>   **** ""
5 44 45 46 47 48
DONOR_HYDROGENS      STATIC     ATOMS    <user>   **** ""
2 30 21
ATOM$BLUE        STATIC     ATOMS    COLORGROUP SYSTEM
5 44 45 46 47 48
ATOM$RED        STATIC     ATOMS    COLORGROUP SYSTEM
2 30 21
