AV-unprocessed.smi:2525|AV-procd|sdf|9933|dock3
  -GOLD-   2272013573D 1   1.00000     0.00000
 Structure written by MMmdl.
 44 45  0  0  0  0  0  0  0  0  1 V2000
  148.1358  140.9860  154.1534 C   0  0  0  0  0  0  0  0  0  0  0  0
  148.8294  141.4237  155.4548 C   0  0  0  0  0  0  0  0  0  0  0  0
  149.6867  140.3349  156.1451 C   0  0  0  0  0  0  0  0  0  0  0  0
  150.2254  140.9063  157.4831 C   0  0  0  0  0  0  0  0  0  0  0  0
  151.1455  142.1303  157.3448 C   0  0  0  0  0  0  0  0  0  0  0  0
  149.0095  138.9327  156.1693 C   0  0  2  0  0  0  0  0  0  0  0  0
  149.4349  138.0849  157.2814 N   0  0  0  0  0  0  0  0  0  0  0  0
  148.6233  137.5625  158.2123 C   0  0  0  0  0  0  0  0  0  0  0  0
  147.4103  137.7671  158.2454 O   0  0  0  0  0  0  0  0  0  0  0  0
  149.2821  136.6850  159.2797 C   0  0  0  0  0  0  0  0  0  0  0  0
  148.3397  136.3070  160.3203 N   0  0  0  0  0  0  0  0  0  0  0  0
  147.9481  135.0417  160.7077 C   0  0  0  0  0  0  0  0  0  0  0  0
  147.0733  135.2786  161.7290 C   0  0  0  0  0  0  0  0  0  0  0  0
  146.9700  136.6556  161.9188 N   0  0  0  0  0  0  0  0  0  0  0  0
  147.7326  137.2630  161.0650 N   0  0  0  0  0  0  0  0  0  0  0  0
  149.7476  138.5700  154.8697 C   0  0  2  0  0  0  0  0  0  0  0  0
  150.2190  137.1412  154.6011 C   0  0  0  0  0  0  0  0  0  0  0  0
  150.7462  139.6926  155.2077 C   0  0  2  0  0  0  0  0  0  0  0  0
  151.8774  139.2163  155.9291 O   0  0  0  0  0  0  0  0  0  0  0  0
  152.8283  138.5614  155.1071 C   0  0  0  0  0  0  0  0  0  0  0  0
  147.6648  141.8399  153.6667 H   0  0  0  0  0  0  0  0  0  0  0  0
  147.3517  140.2523  154.3373 H   0  0  0  0  0  0  0  0  0  0  0  0
  148.8424  140.5543  153.4448 H   0  0  0  0  0  0  0  0  0  0  0  0
  149.4544  142.2823  155.2093 H   0  0  0  0  0  0  0  0  0  0  0  0
  148.0848  141.8255  156.1412 H   0  0  0  0  0  0  0  0  0  0  0  0
  149.4073  141.1406  158.1633 H   0  0  0  0  0  0  0  0  0  0  0  0
  150.8025  140.1486  158.0127 H   0  0  0  0  0  0  0  0  0  0  0  0
  151.5868  142.3858  158.3083 H   0  0  0  0  0  0  0  0  0  0  0  0
  150.6046  143.0102  156.9983 H   0  0  0  0  0  0  0  0  0  0  0  0
  151.9631  141.9377  156.6499 H   0  0  0  0  0  0  0  0  0  0  0  0
  147.9281  138.9573  156.0271 H   0  0  0  0  0  0  0  0  0  0  0  0
  150.4211  137.8739  157.3385 H   0  0  0  0  0  0  0  0  0  0  0  0
  149.6924  135.7879  158.8129 H   0  0  0  0  0  0  0  0  0  0  0  0
  150.1148  137.2184  159.7407 H   0  0  0  0  0  0  0  0  0  0  0  0
  148.3117  134.1336  160.2496 H   0  0  0  0  0  0  0  0  0  0  0  0
  146.5173  134.5807  162.3378 H   0  0  0  0  0  0  0  0  0  0  0  0
  149.1331  138.9033  154.0319 H   0  0  0  0  0  0  0  0  0  0  0  0
  150.9111  136.7857  155.3650 H   0  0  0  0  0  0  0  0  0  0  0  0
  150.7274  137.0700  153.6399 H   0  0  0  0  0  0  0  0  0  0  0  0
  149.3773  136.4491  154.5777 H   0  0  0  0  0  0  0  0  0  0  0  0
  151.0086  140.3321  154.3626 H   0  0  0  0  0  0  0  0  0  0  0  0
  153.6488  138.1917  155.7218 H   0  0  0  0  0  0  0  0  0  0  0  0
  153.2449  139.2486  154.3694 H   0  0  0  0  0  0  0  0  0  0  0  0
  152.3909  137.7119  154.5827 H   0  0  0  0  0  0  0  0  0  0  0  0
  1  2  1  0  0  0  0
  1 21  1  0  0  0  0
  1 22  1  0  0  0  0
  1 23  1  0  0  0  0
  2  3  1  0  0  0  0
  2 24  1  0  0  0  0
  2 25  1  0  0  0  0
  3 18  1  0  0  0  0
  3  4  1  0  0  0  0
  3  6  1  0  0  0  0
  4  5  1  0  0  0  0
  4 26  1  0  0  0  0
  4 27  1  0  0  0  0
  5 28  1  0  0  0  0
  5 29  1  0  0  0  0
  5 30  1  0  0  0  0
  6  7  1  0  0  0  0
  6 16  1  0  0  0  0
  6 31  1  0  0  0  0
  7  8  1  0  0  0  0
  7 32  1  0  0  0  0
  8  9  2  0  0  0  0
  8 10  1  0  0  0  0
 10 11  1  0  0  0  0
 10 33  1  0  0  0  0
 10 34  1  0  0  0  0
 11 15  1  0  0  0  0
 11 12  1  0  0  0  0
 12 13  2  0  0  0  0
 12 35  1  0  0  0  0
 13 14  1  0  0  0  0
 13 36  1  0  0  0  0
 14 15  2  0  0  0  0
 16 17  1  0  0  0  0
 16 18  1  0  0  0  0
 16 37  1  0  0  0  0
 17 38  1  0  0  0  0
 17 39  1  0  0  0  0
 17 40  1  0  0  0  0
 18 19  1  0  0  0  0
 18 41  1  0  0  0  0
 19 20  1  0  0  0  0
 20 42  1  0  0  0  0
 20 43  1  0  0  0  0
 20 44  1  0  0  0  0
M  END
> <s_m_source_file>
AV-unprocessed.smi

> <i_m_source_file_index>
2525

> <i_lp_mmshare_version>
43012

> <i_f3d_flags>
0

> <s_epik_input>
W0NIM11PW0NAQEhdMVtDQEhdKFtDSDNdKVtDQEBIXShDMShbQ0gyXVtDSDNdKVtDSDJdW0NIM10pW05IXUMoPU8pW0NIMl1uMltjSF1bY0hdbm4y

> <s_epik_cmdline>
J2VwaWtfcHl0aG9uJywgJy1waCcsICc3LjAnLCAnLXRuJywgJzgnLCAnLW1hJywgJzIwMCcsICctbWV0YWxfYmluZGluZycsICctaW1hZScsICc8aW5maWxlLm1hZT4nLCAnLW9tYWUnLCAnPG91dGZpbGUubWFlPic=

> <r_lp_tautomer_probability>
1

> <r_epik_Ionization_Penalty>
1.18045e-06

> <r_epik_Ionization_Penalty_Charging>
0

> <r_epik_Ionization_Penalty_Neutral>
1.18045e-06

> <r_epik_State_Penalty>
-0

> <r_epik_Charging_Adjusted_Penalty>
0

> <i_epik_Tot_Q>
0

> <i_epik_Tot_abs_Q>
0

> <r_epik_Metal_State_Penalty>
-0

> <b_epik_Metal_Only>
0

> <s_lp_Force_Field>
OPLS_2005

> <r_lp_Energy>
29.0326

> <b_lp_Chiralities_Consistent>
1

> <s_lp_Variant>
AV-unprocessed.smi:2525-8

> <Gold.Version>
5.8.1

> <Gold.Id.Protein>
6NUR|6NUR_protein|mol2

> <Gold.PLP.Fitness>
35.3095

> <Gold.PLP.PLP>
-30.3519

> <Gold.PLP.part.hbond>
-2.0000

> <Gold.PLP.part.metal>
0.0000

> <Gold.PLP.part.buried>
-3.4983

> <Gold.PLP.part.nonpolar>
-25.7735

> <Gold.PLP.part.repulsive>
0.0221

> <Gold.PLP.ligand.clash>
0.2905

> <Gold.PLP.ligand.torsion>
0.3962

> <Gold.PLP.Chemscore.Hbond>
1.7920

> <Gold.PLP.Chemscore.CHOScore>
0.0000

> <Gold.PLP.Chemscore.Metal>
0.0000

> <Gold.Chemscore.Hbonds>
donor molecule, donor type, donor heavy atom, donor atom, acceptor molecule, acceptor atom, score
      P1  H  6931  6943       L1    15  0.88
      P1  H  6934  6947       L1    15  0.85

> <Gold.PLP.Chemscore.Internal.Correction>
0.6644

> <Gold.Rescore>
     Score         DG    S(hbond)    S(metal)    S(lipo)     H(rot)  DE(clash)    DE(int)     intcor
     12.41     -14.21       1.50        0.00      74.99       1.98       0.01       1.78       ----

> <Gold.Chemscore.Fitness>
12.4120

> <Gold.Chemscore.DG>
-14.2061

> <Gold.Chemscore.ZeroCoef>
-5.4800

> <Gold.Chemscore.Hbond>
1.5046

> <Gold.Chemscore.Metal>
0.0000

> <Gold.Chemscore.Lipo>
74.9904

> <Gold.Chemscore.Internal_Hbond>
0.0000

> <Gold.Chemscore.DEClash>
0.0119

> <Gold.Chemscore.DEInternal>
1.7822

> <Gold.Chemscore.Rot>
1.9817

> <Gold.Chemscore.Internal.Correction>
   9.000000E+99

> <Gold.Chemscore.Hbonds>
donor molecule, donor type, donor heavy atom, donor atom, acceptor molecule, acceptor atom, score
      P1  H  6931  6943       L1    15  0.50
      P1  H  6934  6947       L1    15  0.58

> <Gold.Chemscore.Hbond.Weighted>
-5.0253

> <Gold.Chemscore.Metal.Weighted>
-0.0000

> <Gold.Chemscore.Lipo.Weighted>
-8.7739

> <Gold.Chemscore.Internal_Hbond.Weighted>
0.0000

> <Gold.Chemscore.DEClash.Weighted>
0.0119

> <Gold.Chemscore.DEInternal.Weighted>
1.7822

> <Gold.Chemscore.Rot.Weighted>
5.0731

> <Gold.Chemscore.Internal.Correction.Weighted>
   9.000000E+99

> <Gold.Protein.RotatedTorsions>
[ 6907 6896 6895 6894 ] final  -10.97 input  -60.11 | X-H torsion
[ 7974 7965 7964 7962 ] final   45.53 input  175.53 | X-H torsion
[ 8008 7997 7996 7995 ] final   35.01 input   59.86 | X-H torsion
[ 10167 10162 10161 10158 ] final  166.60 input  -65.29 | X-H torsion
[ 10718 10713 10712 10709 ] final  -31.74 input   66.30 | X-H torsion
[ 10763 10752 10751 10750 ] final  121.63 input  -60.55 | X-H torsion
[ 11005 11000 10999 10996 ] final -154.87 input  -57.11 | X-H torsion

> <Gold.Protein.ActiveResidues>
 VAL166  LYS551  ARG553  GLY616  TRP617  ASP618  TYR619  PRO620  LYS621  CYS622 
 ASP623  PHE694  ASN695  SER759  ASP760  ASP761  ALA762  ILE779  LEU786  VAL792 
 PHE793  MET794  SER795  GLU796  ALA797  LYS798  CYS799  TRP800  GLU811  SER814 

> <Gold.Protein.RotatedAtoms>
  151.3936  135.0960  159.9533 H   0  0  0  0  0  0  0  0  0  0  0  0  # atno 6907 bound_to 6896
  152.5072  133.8956  159.7426 H   0  0  0  0  0  0  0  0  0  0  0  0  # atno 6908 bound_to 6896
  150.9415  133.6595  159.2818 H   0  0  0  0  0  0  0  0  0  0  0  0  # atno 6909 bound_to 6896
  146.0471  139.4954  142.9741 H   0  0  0  0  0  0  0  0  0  0  0  0  # atno 7974 bound_to 7965
  155.1640  140.3286  155.4405 H   0  0  0  0  0  0  0  0  0  0  0  0  # atno 8008 bound_to 7997
  156.2533  140.1955  156.6697 H   0  0  0  0  0  0  0  0  0  0  0  0  # atno 8009 bound_to 7997
  154.6384  140.0573  156.9803 H   0  0  0  0  0  0  0  0  0  0  0  0  # atno 8010 bound_to 7997
  139.4928  144.4010  151.9409 H   0  0  0  0  0  0  0  0  0  0  0  0  # atno 10167 bound_to 10162
  156.3835  130.4360  149.7450 H   0  0  0  0  0  0  0  0  0  0  0  0  # atno 10718 bound_to 10713
  153.6171  135.3420  155.2998 H   0  0  0  0  0  0  0  0  0  0  0  0  # atno 10763 bound_to 10752
  154.8607  135.4264  154.2247 H   0  0  0  0  0  0  0  0  0  0  0  0  # atno 10764 bound_to 10752
  153.3111  135.7031  153.7187 H   0  0  0  0  0  0  0  0  0  0  0  0  # atno 10765 bound_to 10752
  140.6926  134.4025  157.5218 H   0  0  0  0  0  0  0  0  0  0  0  0  # atno 11005 bound_to 11000
  145.6787  141.0197  143.1618 LP  0  0  0  0  0  0  0  0  0  0  0  0  # atno 17320 bound_to 7965
  144.7103  139.8395  143.7416 LP  0  0  0  0  0  0  0  0  0  0  0  0  # atno 17321 bound_to 7965
  140.3449  144.3158  150.5960 LP  0  0  0  0  0  0  0  0  0  0  0  0  # atno 17342 bound_to 10162
  140.5534  143.2203  151.7888 LP  0  0  0  0  0  0  0  0  0  0  0  0  # atno 17343 bound_to 10162
  156.4531  130.7916  151.2937 LP  0  0  0  0  0  0  0  0  0  0  0  0  # atno 17370 bound_to 10713
  157.7494  131.0089  150.3247 LP  0  0  0  0  0  0  0  0  0  0  0  0  # atno 17371 bound_to 10713
  139.8919  134.8768  156.2297 LP  0  0  0  0  0  0  0  0  0  0  0  0  # atno 17394 bound_to 11000
  141.0229  133.7031  156.1298 LP  0  0  0  0  0  0  0  0  0  0  0  0  # atno 17395 bound_to 11000

$$$$
