AV-unprocessed.smi:2718|AV-procd|sdf|10488|dock10
  -GOLD-   2272014533D 1   1.00000     0.00000
 Structure written by MMmdl.
 47 48  0  0  0  0  0  0  0  0  1 V2000
  153.6981  142.0453  160.3245 C   0  0  0  0  0  0  0  0  0  0  0  0
  152.4911  142.2042  159.4212 C   0  0  0  0  0  0  0  0  0  0  0  0
  152.1465  143.6414  159.0701 C   0  0  0  0  0  0  0  0  0  0  0  0
  151.8004  141.1391  158.9712 C   0  0  0  0  0  0  0  0  0  0  0  0
  150.6179  141.1718  158.0622 C   0  0  2  0  0  0  0  0  0  0  0  0
  149.8234  139.9368  157.6598 C   0  0  2  0  0  0  0  0  0  0  0  0
  150.2312  138.5674  158.1279 C   0  0  0  0  0  0  0  0  0  0  0  0
  151.3663  138.1030  158.0217 O   0  0  0  0  0  0  0  0  0  0  0  0
  149.2228  137.8810  158.6864 N   0  0  0  0  0  0  0  0  0  0  0  0
  149.2898  136.5102  159.1884 C   0  0  0  0  0  0  0  0  0  0  0  0
  147.9211  135.9233  159.6054 C   0  0  2  0  0  0  0  0  0  0  0  0
  146.8297  136.2402  158.5732 C   0  0  0  0  0  0  0  0  0  0  0  0
  147.5019  136.3268  160.9937 C   0  0  0  0  0  0  0  0  0  0  0  0
  147.2656  137.5942  161.3588 N   0  0  0  0  0  0  0  0  0  0  0  0
  146.9016  137.5386  162.6889 N   0  0  0  0  0  0  0  0  0  0  0  0
  146.9382  136.2419  162.9917 C   0  0  0  0  0  0  0  0  0  0  0  0
  147.2958  135.4330  161.9837 N   0  0  0  0  0  0  0  0  0  0  0  0
  147.4146  133.9888  161.9854 C   0  0  0  0  0  0  0  0  0  0  0  0
  150.6497  140.6900  156.6190 C   0  0  0  0  0  0  0  0  0  0  0  0
  149.8914  141.4810  155.5661 C   0  0  0  0  0  0  0  0  0  0  0  0
  151.9209  140.1273  155.9847 C   0  0  0  0  0  0  0  0  0  0  0  0
  154.5853  142.4584  159.8441 H   0  0  0  0  0  0  0  0  0  0  0  0
  153.8939  140.9972  160.5535 H   0  0  0  0  0  0  0  0  0  0  0  0
  153.5414  142.5730  161.2651 H   0  0  0  0  0  0  0  0  0  0  0  0
  152.0442  144.2360  159.9772 H   0  0  0  0  0  0  0  0  0  0  0  0
  151.2127  143.7262  158.5151 H   0  0  0  0  0  0  0  0  0  0  0  0
  152.9413  144.0808  158.4670 H   0  0  0  0  0  0  0  0  0  0  0  0
  152.1289  140.1593  159.2824 H   0  0  0  0  0  0  0  0  0  0  0  0
  150.0233  142.0640  158.2500 H   0  0  0  0  0  0  0  0  0  0  0  0
  148.7457  140.0846  157.6008 H   0  0  0  0  0  0  0  0  0  0  0  0
  148.3247  138.3381  158.7489 H   0  0  0  0  0  0  0  0  0  0  0  0
  149.7111  135.9057  158.3849 H   0  0  0  0  0  0  0  0  0  0  0  0
  149.9980  136.4542  160.0165 H   0  0  0  0  0  0  0  0  0  0  0  0
  148.0376  134.8404  159.5940 H   0  0  0  0  0  0  0  0  0  0  0  0
  145.8926  135.7458  158.8312 H   0  0  0  0  0  0  0  0  0  0  0  0
  147.1195  135.9005  157.5786 H   0  0  0  0  0  0  0  0  0  0  0  0
  146.6361  137.3116  158.5159 H   0  0  0  0  0  0  0  0  0  0  0  0
  146.6923  135.8723  163.9764 H   0  0  0  0  0  0  0  0  0  0  0  0
  147.1308  133.5893  162.9593 H   0  0  0  0  0  0  0  0  0  0  0  0
  148.4449  133.7043  161.7716 H   0  0  0  0  0  0  0  0  0  0  0  0
  146.7587  133.5644  161.2251 H   0  0  0  0  0  0  0  0  0  0  0  0
  149.6235  140.8378  154.7274 H   0  0  0  0  0  0  0  0  0  0  0  0
  150.5020  142.3043  155.1940 H   0  0  0  0  0  0  0  0  0  0  0  0
  148.9742  141.9003  155.9809 H   0  0  0  0  0  0  0  0  0  0  0  0
  151.6647  139.3854  155.2277 H   0  0  0  0  0  0  0  0  0  0  0  0
  152.5827  139.6562  156.7075 H   0  0  0  0  0  0  0  0  0  0  0  0
  152.4866  140.9256  155.5034 H   0  0  0  0  0  0  0  0  0  0  0  0
  1  2  1  0  0  0  0
  1 22  1  0  0  0  0
  1 23  1  0  0  0  0
  1 24  1  0  0  0  0
  2  3  1  0  0  0  0
  2  4  2  0  0  0  0
  3 25  1  0  0  0  0
  3 26  1  0  0  0  0
  3 27  1  0  0  0  0
  4  5  1  0  0  0  0
  4 28  1  0  0  0  0
  5 19  1  0  0  0  0
  5  6  1  0  0  0  0
  5 29  1  0  0  0  0
  6  7  1  0  0  0  0
  6 19  1  0  0  0  0
  6 30  1  0  0  0  0
  7  8  2  0  0  0  0
  7  9  1  0  0  0  0
  9 10  1  0  0  0  0
  9 31  1  0  0  0  0
 10 11  1  0  0  0  0
 10 32  1  0  0  0  0
 10 33  1  0  0  0  0
 11 12  1  0  0  0  0
 11 13  1  0  0  0  0
 11 34  1  0  0  0  0
 12 35  1  0  0  0  0
 12 36  1  0  0  0  0
 12 37  1  0  0  0  0
 13 17  1  0  0  0  0
 13 14  2  0  0  0  0
 14 15  1  0  0  0  0
 15 16  2  0  0  0  0
 16 17  1  0  0  0  0
 16 38  1  0  0  0  0
 17 18  1  0  0  0  0
 18 39  1  0  0  0  0
 18 40  1  0  0  0  0
 18 41  1  0  0  0  0
 19 20  1  0  0  0  0
 19 21  1  0  0  0  0
 20 42  1  0  0  0  0
 20 43  1  0  0  0  0
 20 44  1  0  0  0  0
 21 45  1  0  0  0  0
 21 46  1  0  0  0  0
 21 47  1  0  0  0  0
M  END
> <s_m_source_file>
AV-unprocessed.smi

> <i_m_source_file_index>
2718

> <i_lp_mmshare_version>
43012

> <i_f3d_flags>
0

> <s_epik_input>
W0NIM11DKFtDSDNdKT1bQ0hdW0NAQEhdKEMxKFtDSDNdKVtDSDNdKVtDQEhdMUMoPU8pW05IXVtDSDJdW0NASF0oW0NIM10pYzJubltjSF1uMltDSDNd

> <s_epik_cmdline>
J2VwaWtfcHl0aG9uJywgJy1waCcsICc3LjAnLCAnLXRuJywgJzgnLCAnLW1hJywgJzIwMCcsICctbWV0YWxfYmluZGluZycsICctaW1hZScsICc8aW5maWxlLm1hZT4nLCAnLW9tYWUnLCAnPG91dGZpbGUubWFlPic=

> <r_lp_tautomer_probability>
1

> <r_epik_Ionization_Penalty>
0.000449586

> <r_epik_Ionization_Penalty_Charging>
0

> <r_epik_Ionization_Penalty_Neutral>
0.000449586

> <r_epik_State_Penalty>
0.000243372

> <r_epik_Charging_Adjusted_Penalty>
0.000243372

> <i_epik_Tot_Q>
0

> <i_epik_Tot_abs_Q>
0

> <r_epik_Metal_State_Penalty>
-0

> <b_epik_Metal_Only>
0

> <s_lp_Force_Field>
OPLS_2005

> <r_lp_Energy>
15.3261

> <b_lp_Chiralities_Consistent>
1

> <s_lp_Variant>
AV-unprocessed.smi:2718-3

> <Gold.Version>
5.8.1

> <Gold.Id.Protein>
6NUR|6NUR_protein|mol2

> <Gold.PLP.Fitness>
44.7532

> <Gold.PLP.PLP>
-41.8999

> <Gold.PLP.part.hbond>
-3.6992

> <Gold.PLP.part.metal>
0.0000

> <Gold.PLP.part.buried>
-4.2916

> <Gold.PLP.part.nonpolar>
-35.5739

> <Gold.PLP.part.repulsive>
0.1942

> <Gold.PLP.ligand.clash>
0.0000

> <Gold.PLP.ligand.torsion>
0.6522

> <Gold.PLP.Chemscore.Hbond>
1.2776

> <Gold.PLP.Chemscore.CHOScore>
0.0000

> <Gold.PLP.Chemscore.Metal>
0.0000

> <Gold.Chemscore.Hbonds>
donor molecule, donor type, donor heavy atom, donor atom, acceptor molecule, acceptor atom, score
      P1  H  6931  6943       L1    14  0.30
      P1  H  6934  6947       L1    14  0.86

> <Gold.PLP.Chemscore.Internal.Correction>
0.3249

> <Gold.Rescore>
     Score         DG    S(hbond)    S(metal)    S(lipo)     H(rot)  DE(clash)    DE(int)     intcor
     12.03     -14.17       1.13        0.00      84.76       1.95       0.01       2.13       ----

> <Gold.Chemscore.Fitness>
12.0254

> <Gold.Chemscore.DG>
-14.1668

> <Gold.Chemscore.ZeroCoef>
-5.4800

> <Gold.Chemscore.Hbond>
1.1288

> <Gold.Chemscore.Metal>
0.0000

> <Gold.Chemscore.Lipo>
84.7620

> <Gold.Chemscore.Internal_Hbond>
0.0000

> <Gold.Chemscore.DEClash>
0.0089

> <Gold.Chemscore.DEInternal>
2.1325

> <Gold.Chemscore.Rot>
1.9533

> <Gold.Chemscore.Internal.Correction>
   9.000000E+99

> <Gold.Chemscore.Hbonds>
donor molecule, donor type, donor heavy atom, donor atom, acceptor molecule, acceptor atom, score
      P1  H  6934  6947       L1    14  0.48

> <Gold.Chemscore.Hbond.Weighted>
-3.7702

> <Gold.Chemscore.Metal.Weighted>
-0.0000

> <Gold.Chemscore.Lipo.Weighted>
-9.9172

> <Gold.Chemscore.Internal_Hbond.Weighted>
0.0000

> <Gold.Chemscore.DEClash.Weighted>
0.0089

> <Gold.Chemscore.DEInternal.Weighted>
2.1325

> <Gold.Chemscore.Rot.Weighted>
5.0005

> <Gold.Chemscore.Internal.Correction.Weighted>
   9.000000E+99

> <Gold.Protein.RotatedTorsions>
[ 6907 6896 6895 6894 ] final -147.55 input  -60.11 | X-H torsion
[ 7974 7965 7964 7962 ] final  -28.92 input  175.53 | X-H torsion
[ 8008 7997 7996 7995 ] final   93.07 input   59.86 | X-H torsion
[ 10167 10162 10161 10158 ] final  -54.58 input  -65.29 | X-H torsion
[ 10718 10713 10712 10709 ] final -145.16 input   66.30 | X-H torsion
[ 10763 10752 10751 10750 ] final  145.54 input  -60.55 | X-H torsion
[ 11005 11000 10999 10996 ] final  -59.10 input  -57.11 | X-H torsion

> <Gold.Protein.ActiveResidues>
 VAL166  LYS551  ARG553  GLY616  TRP617  ASP618  TYR619  PRO620  LYS621  CYS622 
 ASP623  PHE694  ASN695  SER759  ASP760  ASP761  ALA762  ILE779  LEU786  VAL792 
 PHE793  MET794  SER795  GLU796  ALA797  LYS798  CYS799  TRP800  GLU811  SER814 

> <Gold.Protein.RotatedAtoms>
  151.1572  133.4868  159.2594 H   0  0  0  0  0  0  0  0  0  0  0  0  # atno 6907 bound_to 6896
  151.1491  135.0218  159.8670 H   0  0  0  0  0  0  0  0  0  0  0  0  # atno 6908 bound_to 6896
  152.5463  134.1458  159.8551 H   0  0  0  0  0  0  0  0  0  0  0  0  # atno 6909 bound_to 6896
  146.1253  140.5346  142.8717 H   0  0  0  0  0  0  0  0  0  0  0  0  # atno 7974 bound_to 7965
  156.0425  140.3317  155.7260 H   0  0  0  0  0  0  0  0  0  0  0  0  # atno 8008 bound_to 7997
  155.5722  140.0629  157.2821 H   0  0  0  0  0  0  0  0  0  0  0  0  # atno 8009 bound_to 7997
  154.4399  140.1858  156.0880 H   0  0  0  0  0  0  0  0  0  0  0  0  # atno 8010 bound_to 7997
  140.6423  143.2514  151.4956 H   0  0  0  0  0  0  0  0  0  0  0  0  # atno 10167 bound_to 10162
  156.3790  130.7827  151.2017 H   0  0  0  0  0  0  0  0  0  0  0  0  # atno 10718 bound_to 10713
  154.0071  135.2918  155.3396 H   0  0  0  0  0  0  0  0  0  0  0  0  # atno 10763 bound_to 10752
  154.7125  135.5143  153.8691 H   0  0  0  0  0  0  0  0  0  0  0  0  # atno 10764 bound_to 10752
  153.0739  135.6657  154.0307 H   0  0  0  0  0  0  0  0  0  0  0  0  # atno 10765 bound_to 10752
  141.1234  133.6615  156.5020 H   0  0  0  0  0  0  0  0  0  0  0  0  # atno 11005 bound_to 11000
  144.7637  140.5480  143.6718 LP  0  0  0  0  0  0  0  0  0  0  0  0  # atno 17320 bound_to 7965
  145.5378  139.1475  143.3464 LP  0  0  0  0  0  0  0  0  0  0  0  0  # atno 17321 bound_to 7965
  139.5632  144.2106  152.1724 LP  0  0  0  0  0  0  0  0  0  0  0  0  # atno 17342 bound_to 10162
  140.1380  144.5228  150.6762 LP  0  0  0  0  0  0  0  0  0  0  0  0  # atno 17343 bound_to 10162
  157.7491  131.0349  150.4341 LP  0  0  0  0  0  0  0  0  0  0  0  0  # atno 17370 bound_to 10713
  156.4581  130.4026  149.6593 LP  0  0  0  0  0  0  0  0  0  0  0  0  # atno 17371 bound_to 10713
  140.4438  134.6991  157.5005 LP  0  0  0  0  0  0  0  0  0  0  0  0  # atno 17394 bound_to 11000
  140.0211  134.6546  155.9238 LP  0  0  0  0  0  0  0  0  0  0  0  0  # atno 17395 bound_to 11000

$$$$
