AV-unprocessed.smi:199|AV-procd|sdf|1564|dock6
  -GOLD-   2262019433D 1   1.00000     0.00000
 Structure written by MMmdl.
 51 55  0  0  0  0  0  0  0  0  1 V2000
  152.4473  129.9408  155.2686 C   0  0  0  0  0  0  0  0  0  0  0  0
  151.8924  130.0051  156.7003 C   0  0  2  0  0  0  0  0  0  0  0  0
  151.0090  128.9000  156.8727 O   0  0  0  0  0  0  0  0  0  0  0  0
  150.0026  129.2598  157.8022 C   0  0  0  0  0  0  0  0  0  0  0  0
  149.6910  130.6946  157.4054 C   0  0  0  0  0  0  0  0  0  0  0  0
  151.0672  131.2684  157.0781 C   0  0  1  0  0  0  0  0  0  0  0  0
  151.6139  131.7935  158.2770 O   0  0  0  0  0  0  0  0  0  0  0  0
  151.0301  132.4102  156.0279 C   0  0  0  0  0  0  0  0  0  0  0  0
  150.0188  132.2175  154.9988 N   0  0  0  0  0  0  0  0  0  0  0  0
  149.8580  131.1080  154.2015 C   0  0  0  0  0  0  0  0  0  0  0  0
  148.8776  131.1776  153.3442 N   0  0  0  0  0  0  0  0  0  0  0  0
  148.3050  132.4238  153.5727 C   0  0  0  0  0  0  0  0  0  0  0  0
  147.2131  133.1422  153.0023 C   0  0  0  0  0  0  0  0  0  0  0  0
  146.4288  132.6678  151.9951 N   0  0  0  0  0  0  0  0  0  0  0  0
  145.0267  132.3508  152.2260 C   0  0  2  0  0  0  0  0  0  0  0  0
  144.6254  131.6645  150.9090 C   0  0  0  0  0  0  0  0  0  0  0  0
  145.4729  132.4445  149.8930 C   0  0  0  0  0  0  0  0  0  0  0  0
  146.1719  133.4699  150.8057 C   0  0  1  0  0  0  0  0  0  0  0  0
  145.1804  134.5507  151.3108 C   0  0  1  0  0  0  0  0  0  0  0  0
  144.3843  135.3053  150.2300 C   0  0  0  0  0  0  0  0  0  0  0  0
  145.2112  136.2618  149.6021 O   0  0  0  0  0  0  0  0  0  0  0  0
  144.3346  133.7274  152.3009 C   0  0  0  0  0  0  0  0  0  0  0  0
  146.9737  134.3910  153.4849 N   0  0  0  0  0  0  0  0  0  0  0  0
  147.7186  134.8932  154.4730 C   0  0  0  0  0  0  0  0  0  0  0  0
  148.7492  134.3331  155.1065 N   0  0  0  0  0  0  0  0  0  0  0  0
  149.0155  133.0903  154.6132 C   0  0  0  0  0  0  0  0  0  0  0  0
  153.1416  130.7576  155.0721 H   0  0  0  0  0  0  0  0  0  0  0  0
  151.6494  129.9833  154.5269 H   0  0  0  0  0  0  0  0  0  0  0  0
  152.9892  129.0085  155.1095 H   0  0  0  0  0  0  0  0  0  0  0  0
  152.7234  129.8723  157.3959 H   0  0  0  0  0  0  0  0  0  0  0  0
  149.1354  128.6031  157.7312 H   0  0  0  0  0  0  0  0  0  0  0  0
  150.3979  129.2067  158.8178 H   0  0  0  0  0  0  0  0  0  0  0  0
  149.0689  130.6782  156.5100 H   0  0  0  0  0  0  0  0  0  0  0  0
  149.1514  131.2482  158.1754 H   0  0  0  0  0  0  0  0  0  0  0  0
  150.9120  132.1659  158.7885 H   0  0  0  0  0  0  0  0  0  0  0  0
  150.8397  133.3679  156.5139 H   0  0  0  0  0  0  0  0  0  0  0  0
  151.9952  132.5034  155.5296 H   0  0  0  0  0  0  0  0  0  0  0  0
  150.5001  130.2421  154.2704 H   0  0  0  0  0  0  0  0  0  0  0  0
  144.8167  131.7190  153.0869 H   0  0  0  0  0  0  0  0  0  0  0  0
  144.9077  130.6109  150.9144 H   0  0  0  0  0  0  0  0  0  0  0  0
  143.5552  131.7283  150.7089 H   0  0  0  0  0  0  0  0  0  0  0  0
  146.2091  131.7841  149.4326 H   0  0  0  0  0  0  0  0  0  0  0  0
  144.8870  132.8889  149.0899 H   0  0  0  0  0  0  0  0  0  0  0  0
  147.0651  133.8904  150.3423 H   0  0  0  0  0  0  0  0  0  0  0  0
  145.7520  135.2899  151.8749 H   0  0  0  0  0  0  0  0  0  0  0  0
  144.0218  134.6098  149.4729 H   0  0  0  0  0  0  0  0  0  0  0  0
  143.5181  135.8172  150.6489 H   0  0  0  0  0  0  0  0  0  0  0  0
  145.5295  135.8979  148.7902 H   0  0  0  0  0  0  0  0  0  0  0  0
  143.2787  133.6765  152.0328 H   0  0  0  0  0  0  0  0  0  0  0  0
  144.4050  134.1480  153.3048 H   0  0  0  0  0  0  0  0  0  0  0  0
  147.4508  135.8866  154.8017 H   0  0  0  0  0  0  0  0  0  0  0  0
  1  2  1  0  0  0  0
  1 27  1  0  0  0  0
  1 28  1  0  0  0  0
  1 29  1  0  0  0  0
  2  6  1  0  0  0  0
  2  3  1  0  0  0  0
  2 30  1  0  0  0  0
  3  4  1  0  0  0  0
  4  5  1  0  0  0  0
  4 31  1  0  0  0  0
  4 32  1  0  0  0  0
  5  6  1  0  0  0  0
  5 33  1  0  0  0  0
  5 34  1  0  0  0  0
  6  7  1  0  0  0  0
  6  8  1  0  0  0  0
  7 35  1  0  0  0  0
  8  9  1  0  0  0  0
  8 36  1  0  0  0  0
  8 37  1  0  0  0  0
  9 26  1  0  0  0  0
  9 10  1  0  0  0  0
 10 11  2  0  0  0  0
 10 38  1  0  0  0  0
 11 12  1  0  0  0  0
 12 26  2  0  0  0  0
 12 13  1  0  0  0  0
 13 14  1  0  0  0  0
 13 23  2  0  0  0  0
 14 18  1  0  0  0  0
 14 15  1  0  0  0  0
 15 22  1  0  0  0  0
 15 16  1  0  0  0  0
 15 39  1  0  0  0  0
 16 17  1  0  0  0  0
 16 40  1  0  0  0  0
 16 41  1  0  0  0  0
 17 18  1  0  0  0  0
 17 42  1  0  0  0  0
 17 43  1  0  0  0  0
 18 19  1  0  0  0  0
 18 44  1  0  0  0  0
 19 20  1  0  0  0  0
 19 22  1  0  0  0  0
 19 45  1  0  0  0  0
 20 21  1  0  0  0  0
 20 46  1  0  0  0  0
 20 47  1  0  0  0  0
 21 48  1  0  0  0  0
 22 49  1  0  0  0  0
 22 50  1  0  0  0  0
 23 24  1  0  0  0  0
 24 25  2  0  0  0  0
 24 51  1  0  0  0  0
 25 26  1  0  0  0  0
M  END
> <s_m_source_file>
AV-unprocessed.smi

> <i_m_source_file_index>
199

> <i_lp_mmshare_version>
43012

> <i_f3d_flags>
0

> <s_epik_input>
W0NIMl0xW0NIMl1PW0NAQEhdKFtDSDNdKVtDQEBdMShbT0hdKVtDSDJdbihbY0hdbjIpYyhjMjMpbltjSF1uYzNOKFtDQEBIXTQ1KVtDQEhdKFtDSDJdW0NIMl00KVtDQEhdKFtDSDJdNSlbQ0gyXVtPSF0=

> <s_epik_cmdline>
J2VwaWtfcHl0aG9uJywgJy1waCcsICc3LjAnLCAnLXRuJywgJzgnLCAnLW1hJywgJzIwMCcsICctbWV0YWxfYmluZGluZycsICctaW1hZScsICc8aW5maWxlLm1hZT4nLCAnLW9tYWUnLCAnPG91dGZpbGUubWFlPic=

> <r_lp_tautomer_probability>
1

> <r_epik_Ionization_Penalty>
0.00583903

> <r_epik_Ionization_Penalty_Charging>
0

> <r_epik_Ionization_Penalty_Neutral>
0.00583903

> <r_epik_State_Penalty>
-0

> <r_epik_Charging_Adjusted_Penalty>
0

> <i_epik_Tot_Q>
0

> <i_epik_Tot_abs_Q>
0

> <r_epik_Metal_State_Penalty>
-0

> <b_epik_Metal_Only>
0

> <s_lp_Force_Field>
OPLS_2005

> <r_lp_Energy>
84.0593

> <b_lp_Chiralities_Consistent>
1

> <s_lp_Variant>
AV-unprocessed.smi:199-5

> <Gold.Version>
5.8.1

> <Gold.Id.Protein>
6NUR|6NUR_protein|mol2

> <Gold.PLP.Fitness>
39.8080

> <Gold.PLP.PLP>
-38.2281

> <Gold.PLP.part.hbond>
-3.0000

> <Gold.PLP.part.metal>
0.0000

> <Gold.PLP.part.buried>
-5.3162

> <Gold.PLP.part.nonpolar>
-30.6848

> <Gold.PLP.part.repulsive>
0.8561

> <Gold.PLP.ligand.clash>
0.0000

> <Gold.PLP.ligand.torsion>
0.7164

> <Gold.PLP.Chemscore.Hbond>
1.0000

> <Gold.PLP.Chemscore.CHOScore>
0.0000

> <Gold.PLP.Chemscore.Metal>
0.0000

> <Gold.Chemscore.Hbonds>
donor molecule, donor type, donor heavy atom, donor atom, acceptor molecule, acceptor atom, score
      L1  H    21    48       P1  7921  1.00

> <Gold.PLP.Chemscore.Internal.Correction>
0.0126

> <Gold.Rescore>
     Score         DG    S(hbond)    S(metal)    S(lipo)     H(rot)  DE(clash)    DE(int)     intcor
      6.84     -10.56       1.00        0.00      82.25       3.07       0.29       3.43       ----

> <Gold.Chemscore.Fitness>
6.8376

> <Gold.Chemscore.DG>
-10.5601

> <Gold.Chemscore.ZeroCoef>
-5.4800

> <Gold.Chemscore.Hbond>
0.9952

> <Gold.Chemscore.Metal>
0.0000

> <Gold.Chemscore.Lipo>
82.2472

> <Gold.Chemscore.Internal_Hbond>
0.0000

> <Gold.Chemscore.DEClash>
0.2925

> <Gold.Chemscore.DEInternal>
3.4300

> <Gold.Chemscore.Rot>
3.0729

> <Gold.Chemscore.Internal.Correction>
   9.000000E+99

> <Gold.Chemscore.Hbonds>
donor molecule, donor type, donor heavy atom, donor atom, acceptor molecule, acceptor atom, score
      L1  H    21    48       P1  7921  1.00

> <Gold.Chemscore.Hbond.Weighted>
-3.3239

> <Gold.Chemscore.Metal.Weighted>
-0.0000

> <Gold.Chemscore.Lipo.Weighted>
-9.6229

> <Gold.Chemscore.Internal_Hbond.Weighted>
0.0000

> <Gold.Chemscore.DEClash.Weighted>
0.2925

> <Gold.Chemscore.DEInternal.Weighted>
3.4300

> <Gold.Chemscore.Rot.Weighted>
7.8667

> <Gold.Chemscore.Internal.Correction.Weighted>
   9.000000E+99

> <Gold.Protein.RotatedTorsions>
[ 6907 6896 6895 6894 ] final  143.17 input  -60.11 | X-H torsion
[ 7974 7965 7964 7962 ] final  -20.35 input  175.53 | X-H torsion
[ 8008 7997 7996 7995 ] final  122.80 input   59.86 | X-H torsion
[ 10167 10162 10161 10158 ] final -118.82 input  -65.29 | X-H torsion
[ 10718 10713 10712 10709 ] final  129.56 input   66.30 | X-H torsion
[ 10763 10752 10751 10750 ] final  134.10 input  -60.55 | X-H torsion
[ 11005 11000 10999 10996 ] final    4.31 input  -57.11 | X-H torsion

> <Gold.Protein.ActiveResidues>
 VAL166  LYS551  ARG553  GLY616  TRP617  ASP618  TYR619  PRO620  LYS621  CYS622 
 ASP623  PHE694  ASN695  SER759  ASP760  ASP761  ALA762  ILE779  LEU786  VAL792 
 PHE793  MET794  SER795  GLU796  ALA797  LYS798  CYS799  TRP800  GLU811  SER814 

> <Gold.Protein.RotatedAtoms>
  152.2096  133.4901  159.5102 H   0  0  0  0  0  0  0  0  0  0  0  0  # atno 6907 bound_to 6896
  150.6987  134.1484  159.4140 H   0  0  0  0  0  0  0  0  0  0  0  0  # atno 6908 bound_to 6896
  151.9403  135.0216  160.0586 H   0  0  0  0  0  0  0  0  0  0  0  0  # atno 6909 bound_to 6896
  146.1793  140.4190  142.8501 H   0  0  0  0  0  0  0  0  0  0  0  0  # atno 7974 bound_to 7965
  156.2741  140.2777  156.1525 H   0  0  0  0  0  0  0  0  0  0  0  0  # atno 8008 bound_to 7997
  155.0838  140.0388  157.2665 H   0  0  0  0  0  0  0  0  0  0  0  0  # atno 8009 bound_to 7997
  154.6943  140.2635  155.6787 H   0  0  0  0  0  0  0  0  0  0  0  0  # atno 8010 bound_to 7997
  140.0534  143.5038  152.2070 H   0  0  0  0  0  0  0  0  0  0  0  0  # atno 10167 bound_to 10162
  157.5143  131.1097  150.9248 H   0  0  0  0  0  0  0  0  0  0  0  0  # atno 10718 bound_to 10713
  153.8180  135.3120  155.3407 H   0  0  0  0  0  0  0  0  0  0  0  0  # atno 10763 bound_to 10752
  154.8024  135.4718  154.0312 H   0  0  0  0  0  0  0  0  0  0  0  0  # atno 10764 bound_to 10752
  153.1711  135.6878  153.8695 H   0  0  0  0  0  0  0  0  0  0  0  0  # atno 10765 bound_to 10752
  140.5834  133.9992  155.8057 H   0  0  0  0  0  0  0  0  0  0  0  0  # atno 11005 bound_to 11000
  144.8287  140.6672  143.6305 LP  0  0  0  0  0  0  0  0  0  0  0  0  # atno 17320 bound_to 7965
  145.4123  139.1578  143.4119 LP  0  0  0  0  0  0  0  0  0  0  0  0  # atno 17321 bound_to 7965
  139.5939  144.7560  151.3334 LP  0  0  0  0  0  0  0  0  0  0  0  0  # atno 17342 bound_to 10162
  140.7206  143.7146  150.7743 LP  0  0  0  0  0  0  0  0  0  0  0  0  # atno 17343 bound_to 10162
  156.9878  130.5552  149.5301 LP  0  0  0  0  0  0  0  0  0  0  0  0  # atno 17370 bound_to 10713
  156.0309  130.5401  150.8532 LP  0  0  0  0  0  0  0  0  0  0  0  0  # atno 17371 bound_to 10713
  141.0982  133.9810  157.3125 LP  0  0  0  0  0  0  0  0  0  0  0  0  # atno 17394 bound_to 11000
  139.9307  135.0200  156.8389 LP  0  0  0  0  0  0  0  0  0  0  0  0  # atno 17395 bound_to 11000

$$$$
