AV-unprocessed.smi:1216|AV-procd|sdf|5100|dock9
  -GOLD-   22720 4153D 1   1.00000     0.00000
 Structure written by MMmdl.
 42 43  0  0  0  0  0  0  0  0  1 V2000
  139.5467  135.3463  162.3193 C   0  0  0  0  0  0  0  0  0  0  0  0
  140.1039  135.6901  163.7070 C   0  0  2  0  0  0  0  0  0  0  0  0
  139.1380  136.6070  164.4888 C   0  0  0  0  0  0  0  0  0  0  0  0
  138.4997  135.9319  165.6048 N   0  0  0  0  0  0  0  0  0  0  0  0
  138.7195  134.6300  166.0349 C   0  0  0  0  0  0  0  0  0  0  0  0
  137.9056  134.4343  167.1279 C   0  0  0  0  0  0  0  0  0  0  0  0
  137.1727  135.5914  167.3803 N   0  0  0  0  0  0  0  0  0  0  0  0
  137.5738  136.4315  166.4349 C   0  0  0  0  0  0  0  0  0  0  0  0
  141.4117  136.3256  163.5502 N   0  0  0  0  0  0  0  0  0  0  0  0
  142.3985  135.8949  162.7483 C   0  0  0  0  0  0  0  0  0  0  0  0
  142.2892  134.9232  161.9995 O   0  0  0  0  0  0  0  0  0  0  0  0
  143.7095  136.6876  162.7960 C   0  0  0  0  0  0  0  0  0  0  0  0
  144.8548  135.8767  162.3574 N   0  0  0  0  0  0  0  0  0  0  0  0
  145.7541  136.4810  161.3610 C   0  0  0  0  0  0  0  0  0  0  0  0
  147.1632  136.8090  161.9063 C   0  0  0  0  0  0  0  0  0  0  0  0
  147.6881  135.8966  163.0325 C   0  0  0  0  0  0  0  0  0  0  0  0
  147.6271  134.3847  162.7306 C   0  0  0  0  0  0  0  0  0  0  0  0
  146.2511  133.8204  162.3032 C   0  0  0  0  0  0  0  0  0  0  0  0
  145.0466  134.6185  162.8280 C   0  0  0  0  0  0  0  0  0  0  0  0
  144.3005  134.0896  163.6528 O   0  0  0  0  0  0  0  0  0  0  0  0
  138.5823  134.8436  162.3978 H   0  0  0  0  0  0  0  0  0  0  0  0
  140.2204  134.6806  161.7787 H   0  0  0  0  0  0  0  0  0  0  0  0
  139.4060  136.2424  161.7139 H   0  0  0  0  0  0  0  0  0  0  0  0
  140.2113  134.7500  164.2512 H   0  0  0  0  0  0  0  0  0  0  0  0
  139.6638  137.4868  164.8628 H   0  0  0  0  0  0  0  0  0  0  0  0
  138.3510  136.9719  163.8278 H   0  0  0  0  0  0  0  0  0  0  0  0
  139.4244  133.9727  165.5479 H   0  0  0  0  0  0  0  0  0  0  0  0
  137.7912  133.5561  167.7463 H   0  0  0  0  0  0  0  0  0  0  0  0
  137.1917  137.4381  166.3507 H   0  0  0  0  0  0  0  0  0  0  0  0
  141.5928  137.1367  164.1238 H   0  0  0  0  0  0  0  0  0  0  0  0
  143.6041  137.5688  162.1625 H   0  0  0  0  0  0  0  0  0  0  0  0
  143.8812  137.0748  163.8023 H   0  0  0  0  0  0  0  0  0  0  0  0
  145.8353  135.8148  160.5018 H   0  0  0  0  0  0  0  0  0  0  0  0
  145.3139  137.3887  160.9463 H   0  0  0  0  0  0  0  0  0  0  0  0
  147.8699  136.8086  161.0757 H   0  0  0  0  0  0  0  0  0  0  0  0
  147.1576  137.8313  162.2856 H   0  0  0  0  0  0  0  0  0  0  0  0
  148.7204  136.1704  163.2525 H   0  0  0  0  0  0  0  0  0  0  0  0
  147.1396  136.1063  163.9518 H   0  0  0  0  0  0  0  0  0  0  0  0
  148.3539  134.1500  161.9524 H   0  0  0  0  0  0  0  0  0  0  0  0
  147.9653  133.8471  163.6171 H   0  0  0  0  0  0  0  0  0  0  0  0
  146.1895  133.7628  161.2167 H   0  0  0  0  0  0  0  0  0  0  0  0
  146.1678  132.7861  162.6396 H   0  0  0  0  0  0  0  0  0  0  0  0
  1  2  1  0  0  0  0
  1 21  1  0  0  0  0
  1 22  1  0  0  0  0
  1 23  1  0  0  0  0
  2  3  1  0  0  0  0
  2  9  1  0  0  0  0
  2 24  1  0  0  0  0
  3  4  1  0  0  0  0
  3 25  1  0  0  0  0
  3 26  1  0  0  0  0
  4  8  1  0  0  0  0
  4  5  1  0  0  0  0
  5  6  2  0  0  0  0
  5 27  1  0  0  0  0
  6  7  1  0  0  0  0
  6 28  1  0  0  0  0
  7  8  2  0  0  0  0
  8 29  1  0  0  0  0
  9 10  1  0  0  0  0
  9 30  1  0  0  0  0
 10 11  2  0  0  0  0
 10 12  1  0  0  0  0
 12 13  1  0  0  0  0
 12 31  1  0  0  0  0
 12 32  1  0  0  0  0
 13 19  1  0  0  0  0
 13 14  1  0  0  0  0
 14 15  1  0  0  0  0
 14 33  1  0  0  0  0
 14 34  1  0  0  0  0
 15 16  1  0  0  0  0
 15 35  1  0  0  0  0
 15 36  1  0  0  0  0
 16 17  1  0  0  0  0
 16 37  1  0  0  0  0
 16 38  1  0  0  0  0
 17 18  1  0  0  0  0
 17 39  1  0  0  0  0
 17 40  1  0  0  0  0
 18 19  1  0  0  0  0
 18 41  1  0  0  0  0
 18 42  1  0  0  0  0
 19 20  2  0  0  0  0
M  END
> <s_m_source_file>
AV-unprocessed.smi

> <i_m_source_file_index>
1216

> <i_lp_mmshare_version>
43012

> <i_f3d_flags>
0

> <s_epik_input>
W2NIXTFuW2NIXVtjSF1uMVtDSDJdW0NAQEhdKFtDSDNdKVtOSF1DKD1PKVtDSDJdTjJbQ0gyXVtDSDJdW0NIMl1bQ0gyXVtDSDJdQzI9Tw==

> <s_epik_cmdline>
J2VwaWtfcHl0aG9uJywgJy1waCcsICc3LjAnLCAnLXRuJywgJzgnLCAnLW1hJywgJzIwMCcsICctbWV0YWxfYmluZGluZycsICctaW1hZScsICc8aW5maWxlLm1hZT4nLCAnLW9tYWUnLCAnPG91dGZpbGUubWFlPic=

> <r_lp_tautomer_probability>
1

> <r_epik_Ionization_Penalty>
0.623868

> <r_epik_Ionization_Penalty_Charging>
0.623868

> <r_epik_Ionization_Penalty_Neutral>
4.50838e-08

> <r_epik_State_Penalty>
0.640129

> <r_epik_Charging_Adjusted_Penalty>
1.264

> <i_epik_Tot_Q>
0

> <i_epik_Tot_abs_Q>
0

> <r_epik_Metal_State_Penalty>
0.307431

> <b_epik_Metal_Only>
0

> <s_lp_Force_Field>
OPLS_2005

> <r_lp_Energy>
19.0473

> <b_lp_Chiralities_Consistent>
1

> <s_lp_Variant>
AV-unprocessed.smi:1216-3

> <Gold.Version>
5.8.1

> <Gold.Id.Protein>
6NUR|6NUR_protein|mol2

> <Gold.PLP.Fitness>
41.1001

> <Gold.PLP.PLP>
-43.7098

> <Gold.PLP.part.hbond>
-1.5678

> <Gold.PLP.part.metal>
0.0000

> <Gold.PLP.part.buried>
-6.0475

> <Gold.PLP.part.nonpolar>
-35.9205

> <Gold.PLP.part.repulsive>
0.2655

> <Gold.PLP.ligand.clash>
0.0000

> <Gold.PLP.ligand.torsion>
1.3213

> <Gold.PLP.Chemscore.Hbond>
0.0000

> <Gold.PLP.Chemscore.CHOScore>
0.0000

> <Gold.PLP.Chemscore.Metal>
0.0000

> <Gold.PLP.Chemscore.Internal.Correction>
0.0330

> <Gold.Rescore>
     Score         DG    S(hbond)    S(metal)    S(lipo)     H(rot)  DE(clash)    DE(int)     intcor
      3.80      -9.71       0.00        0.00      82.82       2.13       0.20       5.71       ----

> <Gold.Chemscore.Fitness>
3.7965

> <Gold.Chemscore.DG>
-9.7077

> <Gold.Chemscore.ZeroCoef>
-5.4800

> <Gold.Chemscore.Hbond>
0.0000

> <Gold.Chemscore.Metal>
0.0000

> <Gold.Chemscore.Lipo>
82.8219

> <Gold.Chemscore.Internal_Hbond>
0.0000

> <Gold.Chemscore.DEClash>
0.2047

> <Gold.Chemscore.DEInternal>
5.7065

> <Gold.Chemscore.Rot>
2.1338

> <Gold.Chemscore.Internal.Correction>
   9.000000E+99

> <Gold.Chemscore.Hbond.Weighted>
-0.0000

> <Gold.Chemscore.Metal.Weighted>
-0.0000

> <Gold.Chemscore.Lipo.Weighted>
-9.6902

> <Gold.Chemscore.Internal_Hbond.Weighted>
0.0000

> <Gold.Chemscore.DEClash.Weighted>
0.2047

> <Gold.Chemscore.DEInternal.Weighted>
5.7065

> <Gold.Chemscore.Rot.Weighted>
5.4625

> <Gold.Chemscore.Internal.Correction.Weighted>
   9.000000E+99

> <Gold.Protein.RotatedTorsions>
[ 6907 6896 6895 6894 ] final  102.56 input  -60.11 | X-H torsion
[ 7974 7965 7964 7962 ] final  145.78 input  175.53 | X-H torsion
[ 8008 7997 7996 7995 ] final   54.31 input   59.86 | X-H torsion
[ 10167 10162 10161 10158 ] final   14.66 input  -65.29 | X-H torsion
[ 10718 10713 10712 10709 ] final   -5.26 input   66.30 | X-H torsion
[ 10763 10752 10751 10750 ] final  -43.15 input  -60.55 | X-H torsion
[ 11005 11000 10999 10996 ] final  -65.50 input  -57.11 | X-H torsion

> <Gold.Protein.ActiveResidues>
 VAL166  LYS551  ARG553  GLY616  TRP617  ASP618  TYR619  PRO620  LYS621  CYS622 
 ASP623  PHE694  ASN695  SER759  ASP760  ASP761  ALA762  ILE779  LEU786  VAL792 
 PHE793  MET794  SER795  GLU796  ALA797  LYS798  CYS799  TRP800  GLU811  SER814 

> <Gold.Protein.RotatedAtoms>
  152.5320  133.9957  159.7871 H   0  0  0  0  0  0  0  0  0  0  0  0  # atno 6907 bound_to 6896
  151.0185  133.5891  159.2681 H   0  0  0  0  0  0  0  0  0  0  0  0  # atno 6908 bound_to 6896
  151.2939  135.0756  159.9268 H   0  0  0  0  0  0  0  0  0  0  0  0  # atno 6909 bound_to 6896
  144.8725  139.5824  143.5880 H   0  0  0  0  0  0  0  0  0  0  0  0  # atno 7974 bound_to 7965
  155.4826  140.3469  155.4342 H   0  0  0  0  0  0  0  0  0  0  0  0  # atno 8008 bound_to 7997
  156.1029  140.1440  156.9471 H   0  0  0  0  0  0  0  0  0  0  0  0  # atno 8009 bound_to 7997
  154.4705  140.0902  156.7111 H   0  0  0  0  0  0  0  0  0  0  0  0  # atno 8010 bound_to 7997
  140.5920  143.8776  150.6882 H   0  0  0  0  0  0  0  0  0  0  0  0  # atno 10167 bound_to 10162
  156.7491  130.5234  149.5808 H   0  0  0  0  0  0  0  0  0  0  0  0  # atno 10718 bound_to 10713
  153.9909  135.6705  153.4754 H   0  0  0  0  0  0  0  0  0  0  0  0  # atno 10763 bound_to 10752
  153.0705  135.4976  154.8291 H   0  0  0  0  0  0  0  0  0  0  0  0  # atno 10764 bound_to 10752
  154.7110  135.3097  154.9160 H   0  0  0  0  0  0  0  0  0  0  0  0  # atno 10765 bound_to 10752
  141.1456  133.6683  156.5996 H   0  0  0  0  0  0  0  0  0  0  0  0  # atno 11005 bound_to 11000
  146.2940  139.7222  142.9140 LP  0  0  0  0  0  0  0  0  0  0  0  0  # atno 17320 bound_to 7965
  145.4104  141.0396  143.3020 LP  0  0  0  0  0  0  0  0  0  0  0  0  # atno 17321 bound_to 7965
  140.2301  143.3742  152.1572 LP  0  0  0  0  0  0  0  0  0  0  0  0  # atno 17342 bound_to 10162
  139.5234  144.7070  151.5323 LP  0  0  0  0  0  0  0  0  0  0  0  0  # atno 17343 bound_to 10162
  156.1413  130.6246  151.0471 LP  0  0  0  0  0  0  0  0  0  0  0  0  # atno 17370 bound_to 10713
  157.6785  131.0844  150.7432 LP  0  0  0  0  0  0  0  0  0  0  0  0  # atno 17371 bound_to 10713
  140.3699  134.7615  157.4591 LP  0  0  0  0  0  0  0  0  0  0  0  0  # atno 17394 bound_to 11000
  140.0719  134.5851  155.8633 LP  0  0  0  0  0  0  0  0  0  0  0  0  # atno 17395 bound_to 11000

$$$$
