AV-unprocessed.smi:1645|AV-procd|sdf|6619|dock9
  -GOLD-   22720 7313D 1   1.00000     0.00000
 Structure written by MMmdl.
 55 58  0  0  0  0  0  0  0  0  4 V2000
  149.2605  136.1797  158.2473 O   0  0  0  0  0  0  0  0  0  0  0  0
  149.8153  135.8907  157.1806 C   0  0  0  0  0  0  0  0  0  0  0  0
  150.6542  136.7625  156.5942 N   0  0  0  0  0  0  0  0  0  0  0  0
  151.0029  138.0739  157.0113 C   0  0  0  0  0  0  0  0  0  0  0  0
  150.9495  138.3662  158.3904 C   0  0  0  0  0  0  0  0  0  0  0  0
  151.3043  139.6526  158.8449 C   0  0  0  0  0  0  0  0  0  0  0  0
  151.7211  140.6269  157.9090 C   0  0  0  0  0  0  0  0  0  0  0  0
  152.0901  141.9301  158.2662 N   0  0  0  0  0  0  0  0  0  0  0  0
  152.1223  142.1290  159.7129 C   0  0  0  0  0  0  0  0  0  0  0  0
  152.7043  143.5094  160.0641 C   0  0  0  0  0  0  0  0  0  0  0  0
  151.9450  144.6282  159.3327 C   0  0  0  0  0  0  0  0  0  0  0  0
  151.9249  144.3538  157.8205 C   0  0  0  0  0  0  0  0  0  0  0  0
  151.3573  142.9546  157.5260 C   0  0  0  0  0  0  0  0  0  0  0  0
  151.7809  140.3018  156.5994 N   0  3  0  0  0  0  0  0  0  0  0  0
  151.4472  139.0827  156.1230 C   0  0  0  0  0  0  0  0  0  0  0  0
  149.7127  134.7282  156.4818 N   0  5  0  0  0  0  0  0  0  0  0  0
  149.3060  134.6352  155.0774 C   0  0  1  0  0  0  0  0  0  0  0  0
  149.1871  133.1828  154.5975 C   0  0  0  0  0  0  0  0  0  0  0  0
  148.1358  133.2318  153.4738 C   0  0  0  0  0  0  0  0  0  0  0  0
  147.5956  134.6111  153.4785 N   0  3  1  0  0  0  0  0  0  0  0  0
  146.2081  134.7885  152.9784 C   0  0  0  0  0  0  0  0  0  0  0  0
  145.1480  134.4190  154.0280 C   0  0  0  0  0  0  0  0  0  0  0  0
  145.3996  135.1740  155.3368 C   0  0  0  0  0  0  0  0  0  0  0  0
  146.8070  134.8503  155.8499 C   0  0  0  0  0  0  0  0  0  0  0  0
  147.9010  135.2096  154.7987 C   0  0  1  0  0  0  0  0  0  0  0  0
  151.1484  136.4129  155.7863 H   0  0  0  0  0  0  0  0  0  0  0  0
  150.6306  137.6134  159.0967 H   0  0  0  0  0  0  0  0  0  0  0  0
  151.2574  139.8822  159.8994 H   0  0  0  0  0  0  0  0  0  0  0  0
  151.1125  142.0401  160.1157 H   0  0  0  0  0  0  0  0  0  0  0  0
  152.7222  141.3457  160.1785 H   0  0  0  0  0  0  0  0  0  0  0  0
  152.6624  143.6697  161.1418 H   0  0  0  0  0  0  0  0  0  0  0  0
  153.7586  143.5423  159.7863 H   0  0  0  0  0  0  0  0  0  0  0  0
  150.9228  144.6854  159.7089 H   0  0  0  0  0  0  0  0  0  0  0  0
  152.4072  145.5946  159.5357 H   0  0  0  0  0  0  0  0  0  0  0  0
  151.3331  145.1130  157.3085 H   0  0  0  0  0  0  0  0  0  0  0  0
  152.9376  144.4289  157.4219 H   0  0  0  0  0  0  0  0  0  0  0  0
  151.4167  142.7481  156.4565 H   0  0  0  0  0  0  0  0  0  0  0  0
  150.3020  142.9214  157.8005 H   0  0  0  0  0  0  0  0  0  0  0  0
  151.5589  138.9610  155.0557 H   0  0  0  0  0  0  0  0  0  0  0  0
  150.0140  135.1417  154.4184 H   0  0  0  0  0  0  0  0  0  0  0  0
  150.1437  132.7886  154.2534 H   0  0  0  0  0  0  0  0  0  0  0  0
  148.8336  132.5321  155.3992 H   0  0  0  0  0  0  0  0  0  0  0  0
  148.5700  133.0111  152.4979 H   0  0  0  0  0  0  0  0  0  0  0  0
  147.3505  132.4980  153.6608 H   0  0  0  0  0  0  0  0  0  0  0  0
  146.0864  135.8365  152.7019 H   0  0  0  0  0  0  0  0  0  0  0  0
  146.0677  134.2094  152.0652 H   0  0  0  0  0  0  0  0  0  0  0  0
  144.1534  134.6540  153.6479 H   0  0  0  0  0  0  0  0  0  0  0  0
  145.1608  133.3444  154.2129 H   0  0  0  0  0  0  0  0  0  0  0  0
  145.2970  136.2482  155.1780 H   0  0  0  0  0  0  0  0  0  0  0  0
  144.6545  134.8930  156.0817 H   0  0  0  0  0  0  0  0  0  0  0  0
  146.9793  135.3975  156.7783 H   0  0  0  0  0  0  0  0  0  0  0  0
  146.8325  133.7908  156.1142 H   0  0  0  0  0  0  0  0  0  0  0  0
  147.9477  136.2945  154.6942 H   0  0  0  0  0  0  0  0  0  0  0  0
  148.1892  135.1103  152.8318 H   0  0  0  0  0  0  0  0  0  0  0  0
  152.0944  141.0108  155.9361 H   0  0  0  0  0  0  0  0  0  0  0  0
  1  2  2  0  0  0  0
  2  3  1  0  0  0  0
  2 16  1  0  0  0  0
  3  4  1  0  0  0  0
  3 26  1  0  0  0  0
  4 15  1  0  0  0  0
  4  5  2  0  0  0  0
  5  6  1  0  0  0  0
  5 27  1  0  0  0  0
  6  7  2  0  0  0  0
  6 28  1  0  0  0  0
  7  8  1  0  0  0  0
  7 14  1  0  0  0  0
  8 13  1  0  0  0  0
  8  9  1  0  0  0  0
  9 10  1  0  0  0  0
  9 29  1  0  0  0  0
  9 30  1  0  0  0  0
 10 11  1  0  0  0  0
 10 31  1  0  0  0  0
 10 32  1  0  0  0  0
 11 12  1  0  0  0  0
 11 33  1  0  0  0  0
 11 34  1  0  0  0  0
 12 13  1  0  0  0  0
 12 35  1  0  0  0  0
 12 36  1  0  0  0  0
 13 37  1  0  0  0  0
 13 38  1  0  0  0  0
 14 15  2  0  0  0  0
 14 55  1  0  0  0  0
 15 39  1  0  0  0  0
 16 17  1  0  0  0  0
 17 25  1  0  0  0  0
 17 18  1  0  0  0  0
 17 40  1  0  0  0  0
 18 19  1  0  0  0  0
 18 41  1  0  0  0  0
 18 42  1  0  0  0  0
 19 20  1  0  0  0  0
 19 43  1  0  0  0  0
 19 44  1  0  0  0  0
 20 25  1  0  0  0  0
 20 21  1  0  0  0  0
 20 54  1  0  0  0  0
 21 22  1  0  0  0  0
 21 45  1  0  0  0  0
 21 46  1  0  0  0  0
 22 23  1  0  0  0  0
 22 47  1  0  0  0  0
 22 48  1  0  0  0  0
 23 24  1  0  0  0  0
 23 49  1  0  0  0  0
 23 50  1  0  0  0  0
 24 25  1  0  0  0  0
 24 51  1  0  0  0  0
 24 52  1  0  0  0  0
 25 53  1  0  0  0  0
M  CHG  1  14   1
M  CHG  1  16  -1
M  CHG  1  20   1
M  END
> <s_m_source_file>
AV-unprocessed.smi

> <i_m_source_file_index>
1645

> <i_lp_mmshare_version>
43012

> <i_f3d_flags>
0

> <s_epik_input>
W0NIMl0xW0NIMl1bQ0gyXVtDSDJdW0NASF0oTjEyKVtDQEBIXShbQ0gyXVtDSDJdMilbTkhdQyg9TylbTkhdYzNbY0hdW2NIXWMobltjSF0zKU40W0NIMl1bQ0gyXVtDSDJdW0NIMl1bQ0gyXTQ=

> <s_epik_cmdline>
J2VwaWtfcHl0aG9uJywgJy1waCcsICc3LjAnLCAnLXRuJywgJzgnLCAnLW1hJywgJzIwMCcsICctbWV0YWxfYmluZGluZycsICctaW1hZScsICc8aW5maWxlLm1hZT4nLCAnLW9tYWUnLCAnPG91dGZpbGUubWFlPic=

> <r_lp_tautomer_probability>
0.999994

> <r_epik_Ionization_Penalty>
8.55589

> <r_epik_Ionization_Penalty_Charging>
8.55589

> <r_epik_Ionization_Penalty_Neutral>
3.8092e-06

> <r_epik_State_Penalty>
8.15703

> <r_epik_Charging_Adjusted_Penalty>
16.7129

> <i_epik_Tot_Q>
1

> <i_epik_Tot_abs_Q>
3

> <r_epik_Metal_State_Penalty>
4.13781

> <b_epik_Metal_Only>
1

> <s_lp_Force_Field>
OPLS_2005

> <r_lp_Energy>
57.4093

> <b_lp_Chiralities_Consistent>
1

> <s_lp_Variant>
AV-unprocessed.smi:1645-20

> <Gold.Version>
5.8.1

> <Gold.Id.Protein>
6NUR|6NUR_protein|mol2

> <Gold.PLP.Fitness>
47.7643

> <Gold.PLP.PLP>
-40.1594

> <Gold.PLP.part.hbond>
-2.0000

> <Gold.PLP.part.metal>
0.0000

> <Gold.PLP.part.buried>
-4.6931

> <Gold.PLP.part.nonpolar>
-32.9966

> <Gold.PLP.part.repulsive>
0.2424

> <Gold.PLP.ligand.clash>
0.0492

> <Gold.PLP.ligand.torsion>
0.7498

> <Gold.PLP.Chemscore.Hbond>
3.0000

> <Gold.PLP.Chemscore.CHOScore>
0.0000

> <Gold.PLP.Chemscore.Metal>
0.0000

> <Gold.Chemscore.Hbonds>
donor molecule, donor type, donor heavy atom, donor atom, acceptor molecule, acceptor atom, score
      L1  H    20    54       P1  7948  2.00

> <Gold.PLP.Chemscore.Internal.Correction>
0.1538

> <Gold.Rescore>
     Score         DG    S(hbond)    S(metal)    S(lipo)     H(rot)  DE(clash)    DE(int)     intcor
     18.46     -20.73       1.91        0.00     101.47       1.17       0.00       2.27       ----

> <Gold.Chemscore.Fitness>
18.4591

> <Gold.Chemscore.DG>
-20.7284

> <Gold.Chemscore.ZeroCoef>
-5.4800

> <Gold.Chemscore.Hbond>
1.9102

> <Gold.Chemscore.Metal>
0.0000

> <Gold.Chemscore.Lipo>
101.4659

> <Gold.Chemscore.Internal_Hbond>
0.0000

> <Gold.Chemscore.DEClash>
0.0000

> <Gold.Chemscore.DEInternal>
2.2694

> <Gold.Chemscore.Rot>
1.1731

> <Gold.Chemscore.Internal.Correction>
   9.000000E+99

> <Gold.Chemscore.Hbonds>
donor molecule, donor type, donor heavy atom, donor atom, acceptor molecule, acceptor atom, score
      L1  H    20    54       P1  7948  0.92

> <Gold.Chemscore.Hbond.Weighted>
-6.3802

> <Gold.Chemscore.Metal.Weighted>
-0.0000

> <Gold.Chemscore.Lipo.Weighted>
-11.8715

> <Gold.Chemscore.Internal_Hbond.Weighted>
0.0000

> <Gold.Chemscore.DEClash.Weighted>
0.0000

> <Gold.Chemscore.DEInternal.Weighted>
2.2694

> <Gold.Chemscore.Rot.Weighted>
3.0032

> <Gold.Chemscore.Internal.Correction.Weighted>
   9.000000E+99

> <Gold.Protein.RotatedTorsions>
[ 6907 6896 6895 6894 ] final  -59.84 input  -60.11 | X-H torsion
[ 7974 7965 7964 7962 ] final  106.61 input  175.53 | X-H torsion
[ 8008 7997 7996 7995 ] final   93.73 input   59.86 | X-H torsion
[ 10167 10162 10161 10158 ] final   -1.96 input  -65.29 | X-H torsion
[ 10718 10713 10712 10709 ] final  163.17 input   66.30 | X-H torsion
[ 10763 10752 10751 10750 ] final    5.95 input  -60.55 | X-H torsion
[ 11005 11000 10999 10996 ] final  -27.15 input  -57.11 | X-H torsion

> <Gold.Protein.ActiveResidues>
 VAL166  LYS551  ARG553  GLY616  TRP617  ASP618  TYR619  PRO620  LYS621  CYS622 
 ASP623  PHE694  ASN695  SER759  ASP760  ASP761  ALA762  ILE779  LEU786  VAL792 
 PHE793  MET794  SER795  GLU796  ALA797  LYS798  CYS799  TRP800  GLU811  SER814 

> <Gold.Protein.RotatedAtoms>
  150.7900  134.6916  159.6499 H   0  0  0  0  0  0  0  0  0  0  0  0  # atno 6907 bound_to 6896
  152.4004  134.6292  160.0081 H   0  0  0  0  0  0  0  0  0  0  0  0  # atno 6908 bound_to 6896
  151.6565  133.3282  159.3200 H   0  0  0  0  0  0  0  0  0  0  0  0  # atno 6909 bound_to 6896
  145.3044  139.2559  143.3796 H   0  0  0  0  0  0  0  0  0  0  0  0  # atno 7974 bound_to 7965
  156.0500  140.3309  155.7340 H   0  0  0  0  0  0  0  0  0  0  0  0  # atno 8008 bound_to 7997
  155.5615  140.0619  157.2845 H   0  0  0  0  0  0  0  0  0  0  0  0  # atno 8009 bound_to 7997
  154.4431  140.1876  156.0776 H   0  0  0  0  0  0  0  0  0  0  0  0  # atno 8010 bound_to 7997
  140.6831  143.6714  150.8182 H   0  0  0  0  0  0  0  0  0  0  0  0  # atno 10167 bound_to 10162
  157.1122  131.0471  151.2452 H   0  0  0  0  0  0  0  0  0  0  0  0  # atno 10718 bound_to 10713
  153.2534  135.6916  153.7655 H   0  0  0  0  0  0  0  0  0  0  0  0  # atno 10763 bound_to 10752
  153.6742  135.3339  155.3162 H   0  0  0  0  0  0  0  0  0  0  0  0  # atno 10764 bound_to 10752
  154.8403  135.4507  154.1498 H   0  0  0  0  0  0  0  0  0  0  0  0  # atno 10765 bound_to 10752
  140.9093  133.7471  156.0649 H   0  0  0  0  0  0  0  0  0  0  0  0  # atno 11005 bound_to 11000
  146.3140  140.3566  142.8661 LP  0  0  0  0  0  0  0  0  0  0  0  0  # atno 17320 bound_to 7965
  144.9067  140.7708  143.5833 LP  0  0  0  0  0  0  0  0  0  0  0  0  # atno 17321 bound_to 7965
  140.0417  143.5339  152.2715 LP  0  0  0  0  0  0  0  0  0  0  0  0  # atno 17342 bound_to 10162
  139.6169  144.7621  151.2827 LP  0  0  0  0  0  0  0  0  0  0  0  0  # atno 17343 bound_to 10162
  157.4549  130.7620  149.7184 LP  0  0  0  0  0  0  0  0  0  0  0  0  # atno 17370 bound_to 10713
  155.9848  130.3989  150.3295 LP  0  0  0  0  0  0  0  0  0  0  0  0  # atno 17371 bound_to 10713
  140.8130  134.3377  157.5406 LP  0  0  0  0  0  0  0  0  0  0  0  0  # atno 17394 bound_to 11000
  139.8755  134.9265  156.3402 LP  0  0  0  0  0  0  0  0  0  0  0  0  # atno 17395 bound_to 11000

$$$$
