AV-unprocessed.smi:3132|AV-procd|sdf|11931|dock7
  -GOLD-   2272017323D 1   1.00000     0.00000
 Structure written by MMmdl.
 34 35  0  0  0  0  0  0  0  0  2 V2000
  152.5798  141.8428  161.2305 C   0  0  0  0  0  0  0  0  0  0  0  0
  153.3915  141.7473  159.9317 C   0  0  2  0  0  0  0  0  0  0  0  0
  153.6732  143.1474  159.3448 C   0  0  0  0  0  0  0  0  0  0  0  0
  152.4518  143.8906  159.0182 N   0  0  0  0  0  0  0  0  0  0  0  0
  151.8513  144.8737  159.7625 C   0  0  0  0  0  0  0  0  0  0  0  0
  150.7365  145.2642  159.0665 C   0  0  0  0  0  0  0  0  0  0  0  0
  150.7070  144.5081  157.9253 N   0  3  0  0  0  0  0  0  0  0  0  0
  151.7534  143.6767  157.8956 C   0  0  0  0  0  0  0  0  0  0  0  0
  152.6600  140.9141  158.9785 N   0  0  0  0  0  0  0  0  0  0  0  0
  153.0907  139.7581  158.4463 C   0  0  0  0  0  0  0  0  0  0  0  0
  154.1976  139.2778  158.6917 O   0  0  0  0  0  0  0  0  0  0  0  0
  152.1478  139.0450  157.4664 C   0  0  1  0  0  0  0  0  0  0  0  0
  150.8210  139.7858  157.2115 C   0  0  0  0  0  0  0  0  0  0  0  0
  150.7814  139.9674  155.7031 C   0  0  0  0  0  0  0  0  0  0  0  0
  151.7403  138.8938  155.2074 C   0  0  0  0  0  0  0  0  0  0  0  0
  152.7649  138.9253  156.1856 O   0  0  0  0  0  0  0  0  0  0  0  0
  153.1087  142.4303  161.9815 H   0  0  0  0  0  0  0  0  0  0  0  0
  152.3992  140.8545  161.6550 H   0  0  0  0  0  0  0  0  0  0  0  0
  151.6112  142.3146  161.0611 H   0  0  0  0  0  0  0  0  0  0  0  0
  154.3410  141.2710  160.1828 H   0  0  0  0  0  0  0  0  0  0  0  0
  154.2617  143.7484  160.0397 H   0  0  0  0  0  0  0  0  0  0  0  0
  154.2572  143.0646  158.4270 H   0  0  0  0  0  0  0  0  0  0  0  0
  152.2472  145.2081  160.7104 H   0  0  0  0  0  0  0  0  0  0  0  0
  149.9815  146.0034  159.2922 H   0  0  0  0  0  0  0  0  0  0  0  0
  151.9830  142.9653  157.1222 H   0  0  0  0  0  0  0  0  0  0  0  0
  151.7368  141.2289  158.7153 H   0  0  0  0  0  0  0  0  0  0  0  0
  151.9421  138.0425  157.8444 H   0  0  0  0  0  0  0  0  0  0  0  0
  149.9839  139.1712  157.5439 H   0  0  0  0  0  0  0  0  0  0  0  0
  150.7445  140.7472  157.7216 H   0  0  0  0  0  0  0  0  0  0  0  0
  149.7788  139.8689  155.2863 H   0  0  0  0  0  0  0  0  0  0  0  0
  151.1647  140.9536  155.4384 H   0  0  0  0  0  0  0  0  0  0  0  0
  151.2644  137.9118  155.2010 H   0  0  0  0  0  0  0  0  0  0  0  0
  152.1274  139.1003  154.2096 H   0  0  0  0  0  0  0  0  0  0  0  0
  149.9958  144.5662  157.2072 H   0  0  0  0  0  0  0  0  0  0  0  0
  1  2  1  0  0  0  0
  1 17  1  0  0  0  0
  1 18  1  0  0  0  0
  1 19  1  0  0  0  0
  2  3  1  0  0  0  0
  2  9  1  0  0  0  0
  2 20  1  0  0  0  0
  3  4  1  0  0  0  0
  3 21  1  0  0  0  0
  3 22  1  0  0  0  0
  4  8  1  0  0  0  0
  4  5  1  0  0  0  0
  5  6  2  0  0  0  0
  5 23  1  0  0  0  0
  6  7  1  0  0  0  0
  6 24  1  0  0  0  0
  7  8  2  0  0  0  0
  7 34  1  0  0  0  0
  8 25  1  0  0  0  0
  9 10  1  0  0  0  0
  9 26  1  0  0  0  0
 10 11  2  0  0  0  0
 10 12  1  0  0  0  0
 12 16  1  0  0  0  0
 12 13  1  0  0  0  0
 12 27  1  0  0  0  0
 13 14  1  0  0  0  0
 13 28  1  0  0  0  0
 13 29  1  0  0  0  0
 14 15  1  0  0  0  0
 14 30  1  0  0  0  0
 14 31  1  0  0  0  0
 15 16  1  0  0  0  0
 15 32  1  0  0  0  0
 15 33  1  0  0  0  0
M  CHG  1   7   1
M  END
> <s_m_source_file>
AV-unprocessed.smi

> <i_m_source_file_index>
3132

> <i_lp_mmshare_version>
43012

> <i_f3d_flags>
0

> <s_epik_input>
W2NIXTFuW2NIXVtjSF1uMVtDSDJdW0NAQEhdKFtDSDNdKVtOSF1DKD1PKVtDQEBIXTJbQ0gyXVtDSDJdW0NIMl1PMg==

> <s_epik_cmdline>
J2VwaWtfcHl0aG9uJywgJy1waCcsICc3LjAnLCAnLXRuJywgJzgnLCAnLW1hJywgJzIwMCcsICctbWV0YWxfYmluZGluZycsICctaW1hZScsICc8aW5maWxlLm1hZT4nLCAnLW9tYWUnLCAnPG91dGZpbGUubWFlPic=

> <r_lp_tautomer_probability>
1

> <r_epik_Ionization_Penalty>
0.250802

> <r_epik_Ionization_Penalty_Charging>
0

> <r_epik_Ionization_Penalty_Neutral>
0.250802

> <r_epik_State_Penalty>
0.242139

> <r_epik_Charging_Adjusted_Penalty>
0.242139

> <i_epik_Tot_Q>
1

> <i_epik_Tot_abs_Q>
1

> <r_epik_Metal_State_Penalty>
0.533361

> <b_epik_Metal_Only>
0

> <s_lp_Force_Field>
OPLS_2005

> <r_lp_Energy>
20.312

> <b_lp_Chiralities_Consistent>
1

> <s_lp_Variant>
AV-unprocessed.smi:3132-3

> <Gold.Version>
5.8.1

> <Gold.Id.Protein>
6NUR|6NUR_protein|mol2

> <Gold.PLP.Fitness>
46.6240

> <Gold.PLP.PLP>
-36.3377

> <Gold.PLP.part.hbond>
-3.4048

> <Gold.PLP.part.metal>
0.0000

> <Gold.PLP.part.buried>
-3.9061

> <Gold.PLP.part.nonpolar>
-29.2325

> <Gold.PLP.part.repulsive>
0.2060

> <Gold.PLP.ligand.clash>
0.0000

> <Gold.PLP.ligand.torsion>
0.2887

> <Gold.PLP.Chemscore.Hbond>
3.6160

> <Gold.PLP.Chemscore.CHOScore>
0.0000

> <Gold.PLP.Chemscore.Metal>
0.0000

> <Gold.Chemscore.Hbonds>
donor molecule, donor type, donor heavy atom, donor atom, acceptor molecule, acceptor atom, score
      L1  H     7    34       P1  8028  2.00
      P1  H  7997  8008       L1    11  0.72
      P1  H  7997  8009       L1    16  0.77

> <Gold.PLP.Chemscore.Internal.Correction>
0.0158

> <Gold.Rescore>
     Score         DG    S(hbond)    S(metal)    S(lipo)     H(rot)  DE(clash)    DE(int)     intcor
     15.20     -16.53       2.06        0.00      77.98       1.93       0.04       1.29       ----

> <Gold.Chemscore.Fitness>
15.1968

> <Gold.Chemscore.DG>
-16.5314

> <Gold.Chemscore.ZeroCoef>
-5.4800

> <Gold.Chemscore.Hbond>
2.0571

> <Gold.Chemscore.Metal>
0.0000

> <Gold.Chemscore.Lipo>
77.9789

> <Gold.Chemscore.Internal_Hbond>
0.0000

> <Gold.Chemscore.DEClash>
0.0412

> <Gold.Chemscore.DEInternal>
1.2934

> <Gold.Chemscore.Rot>
1.9308

> <Gold.Chemscore.Internal.Correction>
   9.000000E+99

> <Gold.Chemscore.Hbonds>
donor molecule, donor type, donor heavy atom, donor atom, acceptor molecule, acceptor atom, score
      L1  H     7    34       P1  8028  0.35
      P1  H  7997  8008       L1    11  0.36
      P1  H  7997  8009       L1    16  0.62

> <Gold.Chemscore.Hbond.Weighted>
-6.8708

> <Gold.Chemscore.Metal.Weighted>
-0.0000

> <Gold.Chemscore.Lipo.Weighted>
-9.1235

> <Gold.Chemscore.Internal_Hbond.Weighted>
0.0000

> <Gold.Chemscore.DEClash.Weighted>
0.0412

> <Gold.Chemscore.DEInternal.Weighted>
1.2934

> <Gold.Chemscore.Rot.Weighted>
4.9429

> <Gold.Chemscore.Internal.Correction.Weighted>
   9.000000E+99

> <Gold.Protein.RotatedTorsions>
[ 6907 6896 6895 6894 ] final    7.63 input  -60.11 | X-H torsion
[ 7974 7965 7964 7962 ] final   14.88 input  175.53 | X-H torsion
[ 8008 7997 7996 7995 ] final -139.35 input   59.86 | X-H torsion
[ 10167 10162 10161 10158 ] final   90.34 input  -65.29 | X-H torsion
[ 10718 10713 10712 10709 ] final   89.68 input   66.30 | X-H torsion
[ 10763 10752 10751 10750 ] final   37.46 input  -60.55 | X-H torsion
[ 11005 11000 10999 10996 ] final  -49.94 input  -57.11 | X-H torsion

> <Gold.Protein.ActiveResidues>
 VAL166  LYS551  ARG553  GLY616  TRP617  ASP618  TYR619  PRO620  LYS621  CYS622 
 ASP623  PHE694  ASN695  SER759  ASP760  ASP761  ALA762  ILE779  LEU786  VAL792 
 PHE793  MET794  SER795  GLU796  ALA797  LYS798  CYS799  TRP800  GLU811  SER814 

> <Gold.Protein.RotatedAtoms>
  151.6930  135.0943  160.0236 H   0  0  0  0  0  0  0  0  0  0  0  0  # atno 6907 bound_to 6896
  152.3767  133.6486  159.6137 H   0  0  0  0  0  0  0  0  0  0  0  0  # atno 6908 bound_to 6896
  150.7715  133.9098  159.3407 H   0  0  0  0  0  0  0  0  0  0  0  0  # atno 6909 bound_to 6896
  146.2293  139.8976  142.8544 H   0  0  0  0  0  0  0  0  0  0  0  0  # atno 7974 bound_to 7965
  155.4435  140.0533  157.3008 H   0  0  0  0  0  0  0  0  0  0  0  0  # atno 8008 bound_to 7997
  154.4808  140.2080  155.9725 H   0  0  0  0  0  0  0  0  0  0  0  0  # atno 8009 bound_to 7997
  156.1202  140.3189  155.8202 H   0  0  0  0  0  0  0  0  0  0  0  0  # atno 8010 bound_to 7997
  139.8482  144.6607  150.9201 H   0  0  0  0  0  0  0  0  0  0  0  0  # atno 10167 bound_to 10162
  157.6956  131.0342  150.3462 H   0  0  0  0  0  0  0  0  0  0  0  0  # atno 10718 bound_to 10713
  153.0037  135.6277  154.2147 H   0  0  0  0  0  0  0  0  0  0  0  0  # atno 10763 bound_to 10752
  154.1891  135.2809  155.3029 H   0  0  0  0  0  0  0  0  0  0  0  0  # atno 10764 bound_to 10752
  154.5774  135.5658  153.7212 H   0  0  0  0  0  0  0  0  0  0  0  0  # atno 10765 bound_to 10752
  141.0788  133.6659  156.3659 H   0  0  0  0  0  0  0  0  0  0  0  0  # atno 11005 bound_to 11000
  145.2355  140.9989  143.3966 LP  0  0  0  0  0  0  0  0  0  0  0  0  # atno 17320 bound_to 7965
  144.9495  139.4098  143.6409 LP  0  0  0  0  0  0  0  0  0  0  0  0  # atno 17321 bound_to 7965
  140.7790  143.3850  151.1409 LP  0  0  0  0  0  0  0  0  0  0  0  0  # atno 17342 bound_to 10162
  139.7491  143.8806  152.3072 LP  0  0  0  0  0  0  0  0  0  0  0  0  # atno 17343 bound_to 10162
  156.3916  130.3899  149.7025 LP  0  0  0  0  0  0  0  0  0  0  0  0  # atno 17370 bound_to 10713
  156.4373  130.7844  151.2865 LP  0  0  0  0  0  0  0  0  0  0  0  0  # atno 17371 bound_to 10713
  140.5514  134.6023  157.5409 LP  0  0  0  0  0  0  0  0  0  0  0  0  # atno 17394 bound_to 11000
  139.9601  134.7467  156.0256 LP  0  0  0  0  0  0  0  0  0  0  0  0  # atno 17395 bound_to 11000

$$$$
