#       Name:                AV-unprocessed.smi:643
#       Creating user name   scv26
#       Creation time:       Fri Mar 27 00:07:45 2020


#       File generated by GOLD software.
#

@<TRIPOS>MOLECULE
AV-unprocessed.smi:643
    43    44     1
SMALL
NO_CHARGES


@<TRIPOS>ATOM
      1 ****        -2.2428  -1.0881  -2.2286 C.3            1 S1                 0.0000
      2 ****        -2.9847  -1.3553  -0.9005 C.3            1 S1                 0.0000
      3 ****        -4.4692  -0.9737  -1.0891 C.3            1 S1                 0.0000
      4 ****        -2.8745  -2.8290  -0.4781 C.3            1 S1                 0.0000
      5 ****        -3.1524  -2.8510   1.0274 C.3            1 S1                 0.0000
      6 ****        -2.7596  -1.4636   1.5526 C.3            1 S1                 0.0000
      7 ****        -2.3998  -0.6049   0.3247 C.3            1 S1                 0.0000
      8 ****        -0.9441  -0.4576   0.2473 N.am           1 S1                 0.0000
      9 ****        -0.2643   0.6971   0.3037 C.2            1 S1                 0.0000
     10 ****        -0.7982   1.7979   0.4382 O.2            1 S1                 0.0000
     11 ****         1.0574   0.4842   0.1881 N.am           1 S1                 0.0000
     12 ****         2.1082   1.4380   0.1871 C.2            1 S1                 0.0000
     13 ****         1.9706   2.8418   0.4062 C.2            1 S1                 0.0000
     14 ****         3.2528   3.3012   0.3058 C.2            1 S1                 0.0000
     15 ****         4.0639   2.2150   0.0486 N.pl3          1 S1                 0.0000
     16 ****         5.5010   2.1897  -0.1427 C.3            1 S1                 0.0000
     17 ****         6.2300   1.5904   1.0674 C.3            1 S1                 0.0000
     18 ****         7.5369   1.5145   0.8192 F              1 S1                 0.0000
     19 ****         6.0353   2.3400   2.1523 F              1 S1                 0.0000
     20 ****         3.3593   1.0648  -0.0226 N.2            1 S1                 0.0000
     21 ****        -2.7196  -1.6136  -3.0565 H              1 S1                 0.0000
     22 ****        -1.2051  -1.4218  -2.1981 H              1 S1                 0.0000
     23 ****        -2.2414  -0.0248  -2.4706 H              1 S1                 0.0000
     24 ****        -5.0541  -1.1361  -0.1836 H              1 S1                 0.0000
     25 ****        -4.9314  -1.5594  -1.8844 H              1 S1                 0.0000
     26 ****        -4.5729   0.0783  -1.3572 H              1 S1                 0.0000
     27 ****        -3.5466  -3.4833  -1.0345 H              1 S1                 0.0000
     28 ****        -1.8596  -3.1890  -0.6533 H              1 S1                 0.0000
     29 ****        -4.2137  -3.0254   1.2081 H              1 S1                 0.0000
     30 ****        -2.6032  -3.6496   1.5267 H              1 S1                 0.0000
     31 ****        -3.6022  -1.0220   2.0859 H              1 S1                 0.0000
     32 ****        -1.9371  -1.5270   2.2668 H              1 S1                 0.0000
     33 ****        -2.8647   0.3782   0.4168 H              1 S1                 0.0000
     34 ****        -0.4143  -1.3094   0.1351 H              1 S1                 0.0000
     35 ****         1.3472  -0.4753   0.0692 H              1 S1                 0.0000
     36 ****         1.0880   3.4305   0.6057 H              1 S1                 0.0000
     37 ****         3.6519   4.3007   0.3969 H              1 S1                 0.0000
     38 ****         5.7189   1.6088  -1.0401 H              1 S1                 0.0000
     39 ****         5.8493   3.2059  -0.3320 H              1 S1                 0.0000
     40 ****         5.8830   0.5816   1.2929 H              1 S1                 0.0000
     41 ****        -1.7931   1.8654   0.5121 LP             1 S1                 0.0000
     42 ****        -0.2370   2.6249   0.4735 LP             1 S1                 0.0000
     43 ****         3.7048   0.1423  -0.1946 LP             1 S1                 0.0000
@<TRIPOS>BOND
    1    1    2 1     
    2    1   21 1     
    3    1   22 1     
    4    1   23 1     
    5    2    7 1     
    6    2    3 1     
    7    2    4 1     
    8    3   24 1     
    9    3   25 1     
   10    3   26 1     
   11    4    5 1     
   12    4   27 1     
   13    4   28 1     
   14    5    6 1     
   15    5   29 1     
   16    5   30 1     
   17    6    7 1     
   18    6   31 1     
   19    6   32 1     
   20    7    8 1     
   21    7   33 1     
   22    8    9 am    
   23    8   34 1     
   24    9   10 2     
   25    9   11 am    
   26   11   12 1     
   27   11   35 1     
   28   12   20 2     
   29   12   13 1     
   30   13   14 2     
   31   13   36 1     
   32   14   15 1     
   33   14   37 1     
   34   15   16 1     
   35   15   20 1     
   36   16   17 1     
   37   16   38 1     
   38   16   39 1     
   39   17   18 1     
   40   17   19 1     
   41   17   40 1     
   42   10   41 1     
   43   10   42 1     
   44   20   43 1     
@<TRIPOS>SUBSTRUCTURE
      1 S1             1
@<TRIPOS>SET
LONE_PAIRS      STATIC     ATOMS    <user>   **** ""
3 41 42 43
DONOR_HYDROGENS      STATIC     ATOMS    <user>   **** ""
2 34 35
ATOM$BLUE        STATIC     ATOMS    COLORGROUP SYSTEM
3 41 42 43
ATOM$RED        STATIC     ATOMS    COLORGROUP SYSTEM
2 34 35
