AV-unprocessed.smi:1973|AV-procd|sdf|7976|dock10
  -GOLD-   2272010153D 1   1.00000     0.00000
 Structure written by MMmdl.
 48 50  0  0  0  0  0  0  0  0  2 V2000
  147.5187  141.7022  153.9326 C   0  0  0  0  0  0  0  0  0  0  0  0
  148.9321  141.7655  154.0074 O   0  0  0  0  0  0  0  0  0  0  0  0
  149.4775  140.7494  154.8317 C   0  0  0  0  0  0  0  0  0  0  0  0
  149.7510  139.5055  153.9726 C   0  0  0  0  0  0  0  0  0  0  0  0
  150.4635  138.4698  154.7287 N   0  0  0  0  0  0  0  0  0  0  0  0
  149.7988  137.2562  154.7901 N   0  0  0  0  0  0  0  0  0  0  0  0
  150.3129  136.2635  155.4391 C   0  0  0  0  0  0  0  0  0  0  0  0
  149.5816  134.9661  155.5090 C   0  0  0  0  0  0  0  0  0  0  0  0
  149.7256  134.2057  156.4681 O   0  0  0  0  0  0  0  0  0  0  0  0
  148.7702  134.6794  154.4759 N   0  0  0  0  0  0  0  0  0  0  0  0
  147.9803  133.4604  154.3377 C   0  0  0  0  0  0  0  0  0  0  0  0
  146.8575  133.6105  153.2934 C   0  0  2  0  0  0  0  0  0  0  0  0
  145.8144  134.6658  153.6500 C   0  0  0  0  0  0  0  0  0  0  0  0
  144.6320  134.2714  152.7697 C   0  0  0  0  0  0  0  0  0  0  0  0
  144.6439  132.7936  152.7371 N   0  3  1  0  0  0  0  0  0  0  0  0
  144.0997  132.2168  151.4896 C   0  0  0  0  0  0  0  0  0  0  0  0
  145.1589  131.8808  150.4675 C   0  0  0  0  0  0  0  0  0  0  0  0
  144.2884  133.1050  150.2831 C   0  0  0  0  0  0  0  0  0  0  0  0
  146.0171  132.3440  153.0658 C   0  0  0  0  0  0  0  0  0  0  0  0
  151.6031  136.3978  156.1040 C   0  0  0  0  0  0  0  0  0  0  0  0
  152.2414  137.5860  156.0281 C   0  0  0  0  0  0  0  0  0  0  0  0
  151.6754  138.7262  155.3066 C   0  0  0  0  0  0  0  0  0  0  0  0
  152.2387  139.8174  155.2258 O   0  0  0  0  0  0  0  0  0  0  0  0
  147.1485  142.5079  153.2984 H   0  0  0  0  0  0  0  0  0  0  0  0
  147.0651  141.8139  154.9184 H   0  0  0  0  0  0  0  0  0  0  0  0
  147.1897  140.7563  153.5006 H   0  0  0  0  0  0  0  0  0  0  0  0
  150.4033  141.1001  155.2907 H   0  0  0  0  0  0  0  0  0  0  0  0
  148.7803  140.5106  155.6363 H   0  0  0  0  0  0  0  0  0  0  0  0
  148.8130  139.1087  153.5802 H   0  0  0  0  0  0  0  0  0  0  0  0
  150.3329  139.7936  153.0951 H   0  0  0  0  0  0  0  0  0  0  0  0
  148.7125  135.3492  153.7222 H   0  0  0  0  0  0  0  0  0  0  0  0
  148.6553  132.6541  154.0485 H   0  0  0  0  0  0  0  0  0  0  0  0
  147.5621  133.1781  155.3053 H   0  0  0  0  0  0  0  0  0  0  0  0
  147.2974  133.8984  152.3369 H   0  0  0  0  0  0  0  0  0  0  0  0
  145.5376  134.5895  154.7027 H   0  0  0  0  0  0  0  0  0  0  0  0
  146.1588  135.6835  153.4632 H   0  0  0  0  0  0  0  0  0  0  0  0
  143.6827  134.6561  153.1431 H   0  0  0  0  0  0  0  0  0  0  0  0
  144.7821  134.6659  151.7631 H   0  0  0  0  0  0  0  0  0  0  0  0
  143.2078  131.5997  151.5873 H   0  0  0  0  0  0  0  0  0  0  0  0
  146.2022  132.0417  150.7341 H   0  0  0  0  0  0  0  0  0  0  0  0
  144.9726  131.0336  149.8105 H   0  0  0  0  0  0  0  0  0  0  0  0
  143.5286  133.0632  149.5050 H   0  0  0  0  0  0  0  0  0  0  0  0
  144.7535  134.0788  150.4270 H   0  0  0  0  0  0  0  0  0  0  0  0
  146.4509  131.7187  152.2836 H   0  0  0  0  0  0  0  0  0  0  0  0
  145.9633  131.7416  153.9733 H   0  0  0  0  0  0  0  0  0  0  0  0
  152.0581  135.5818  156.6448 H   0  0  0  0  0  0  0  0  0  0  0  0
  153.1994  137.7006  156.5138 H   0  0  0  0  0  0  0  0  0  0  0  0
  144.0554  132.4813  153.4961 H   0  0  0  0  0  0  0  0  0  0  0  0
  1  2  1  0  0  0  0
  1 24  1  0  0  0  0
  1 25  1  0  0  0  0
  1 26  1  0  0  0  0
  2  3  1  0  0  0  0
  3  4  1  0  0  0  0
  3 27  1  0  0  0  0
  3 28  1  0  0  0  0
  4  5  1  0  0  0  0
  4 29  1  0  0  0  0
  4 30  1  0  0  0  0
  5 22  1  0  0  0  0
  5  6  1  0  0  0  0
  6  7  2  0  0  0  0
  7  8  1  0  0  0  0
  7 20  1  0  0  0  0
  8  9  2  0  0  0  0
  8 10  1  0  0  0  0
 10 11  1  0  0  0  0
 10 31  1  0  0  0  0
 11 12  1  0  0  0  0
 11 32  1  0  0  0  0
 11 33  1  0  0  0  0
 12 19  1  0  0  0  0
 12 13  1  0  0  0  0
 12 34  1  0  0  0  0
 13 14  1  0  0  0  0
 13 35  1  0  0  0  0
 13 36  1  0  0  0  0
 14 15  1  0  0  0  0
 14 37  1  0  0  0  0
 14 38  1  0  0  0  0
 15 16  1  0  0  0  0
 15 19  1  0  0  0  0
 15 48  1  0  0  0  0
 16 18  1  0  0  0  0
 16 17  1  0  0  0  0
 16 39  1  0  0  0  0
 17 18  1  0  0  0  0
 17 40  1  0  0  0  0
 17 41  1  0  0  0  0
 18 42  1  0  0  0  0
 18 43  1  0  0  0  0
 19 44  1  0  0  0  0
 19 45  1  0  0  0  0
 20 21  2  0  0  0  0
 20 46  1  0  0  0  0
 21 22  1  0  0  0  0
 21 47  1  0  0  0  0
 22 23  2  0  0  0  0
M  CHG  1  15   1
M  END
> <s_m_source_file>
AV-unprocessed.smi

> <i_m_source_file_index>
1973

> <i_lp_mmshare_version>
43012

> <i_f3d_flags>
0

> <s_epik_input>
W0NIM11PW0NIMl1bQ0gyXW4xbmMoW2NIXVtjSF1jMT1PKUMoPU8pW05IXVtDSDJdW0NAQEhdMltDSDJdW0NIMl1OKFtDSDJdMilbQ0hdM1tDSDJdW0NIMl0z

> <s_epik_cmdline>
J2VwaWtfcHl0aG9uJywgJy1waCcsICc3LjAnLCAnLXRuJywgJzgnLCAnLW1hJywgJzIwMCcsICctbWV0YWxfYmluZGluZycsICctaW1hZScsICc8aW5maWxlLm1hZT4nLCAnLW9tYWUnLCAnPG91dGZpbGUubWFlPic=

> <r_lp_tautomer_probability>
1

> <r_epik_Ionization_Penalty>
0.000225706

> <r_epik_Ionization_Penalty_Charging>
0.000223776

> <r_epik_Ionization_Penalty_Neutral>
1.93004e-06

> <r_epik_State_Penalty>
-0

> <r_epik_Charging_Adjusted_Penalty>
0.000223776

> <i_epik_Tot_Q>
1

> <i_epik_Tot_abs_Q>
1

> <r_epik_Metal_State_Penalty>
-0

> <b_epik_Metal_Only>
0

> <s_lp_Force_Field>
OPLS_2005

> <r_lp_Energy>
57.8958

> <b_lp_Chiralities_Consistent>
1

> <s_lp_Variant>
AV-unprocessed.smi:1973-1

> <Gold.Version>
5.8.1

> <Gold.Id.Protein>
6NUR|6NUR_protein|mol2

> <Gold.PLP.Fitness>
46.8941

> <Gold.PLP.PLP>
-34.9588

> <Gold.PLP.part.hbond>
-4.3215

> <Gold.PLP.part.metal>
0.0000

> <Gold.PLP.part.buried>
-2.9834

> <Gold.PLP.part.nonpolar>
-29.0611

> <Gold.PLP.part.repulsive>
0.4072

> <Gold.PLP.ligand.clash>
0.0000

> <Gold.PLP.ligand.torsion>
1.5271

> <Gold.PLP.Chemscore.Hbond>
4.5705

> <Gold.PLP.Chemscore.CHOScore>
0.0000

> <Gold.PLP.Chemscore.Metal>
0.0000

> <Gold.Chemscore.Hbonds>
donor molecule, donor type, donor heavy atom, donor atom, acceptor molecule, acceptor atom, score
      L1  H    10    31       P1  7948  0.96
      L1  H    15    48       P1 10957  2.00
      P1  H  7989  7998       L1    23  0.64
      P1  H  7997  8009       L1    23  0.28
      P1  H  8011  8017       L1     2  0.54

> <Gold.PLP.Chemscore.Internal.Correction>
1.2780

> <Gold.Rescore>
     Score         DG    S(hbond)    S(metal)    S(lipo)     H(rot)  DE(clash)    DE(int)     intcor
     17.26     -20.43       3.25        0.00      78.23       1.97       1.54       1.63       ----

> <Gold.Chemscore.Fitness>
17.2637

> <Gold.Chemscore.DG>
-20.4321

> <Gold.Chemscore.ZeroCoef>
-5.4800

> <Gold.Chemscore.Hbond>
3.2469

> <Gold.Chemscore.Metal>
0.0000

> <Gold.Chemscore.Lipo>
78.2336

> <Gold.Chemscore.Internal_Hbond>
0.0000

> <Gold.Chemscore.DEClash>
1.5406

> <Gold.Chemscore.DEInternal>
1.6277

> <Gold.Chemscore.Rot>
1.9711

> <Gold.Chemscore.Internal.Correction>
   9.000000E+99

> <Gold.Chemscore.Hbonds>
donor molecule, donor type, donor heavy atom, donor atom, acceptor molecule, acceptor atom, score
      L1  H    10    31       P1  7948  0.81
      L1  H    15    48       P1 10957  0.24
      P1  H  7989  7998       L1    23  0.51
      P1  H  7997  8009       L1    23  0.27
      P1  H  8011  8017       L1     2  0.46

> <Gold.Chemscore.Hbond.Weighted>
-10.8448

> <Gold.Chemscore.Metal.Weighted>
-0.0000

> <Gold.Chemscore.Lipo.Weighted>
-9.1533

> <Gold.Chemscore.Internal_Hbond.Weighted>
0.0000

> <Gold.Chemscore.DEClash.Weighted>
1.5406

> <Gold.Chemscore.DEInternal.Weighted>
1.6277

> <Gold.Chemscore.Rot.Weighted>
5.0460

> <Gold.Chemscore.Internal.Correction.Weighted>
   9.000000E+99

> <Gold.Protein.RotatedTorsions>
[ 6907 6896 6895 6894 ] final  -18.79 input  -60.11 | X-H torsion
[ 7974 7965 7964 7962 ] final   71.09 input  175.53 | X-H torsion
[ 8008 7997 7996 7995 ] final -141.78 input   59.86 | X-H torsion
[ 10167 10162 10161 10158 ] final -166.47 input  -65.29 | X-H torsion
[ 10718 10713 10712 10709 ] final -100.58 input   66.30 | X-H torsion
[ 10763 10752 10751 10750 ] final   26.05 input  -60.55 | X-H torsion
[ 11005 11000 10999 10996 ] final   29.16 input  -57.11 | X-H torsion

> <Gold.Protein.ActiveResidues>
 VAL166  LYS551  ARG553  GLY616  TRP617  ASP618  TYR619  PRO620  LYS621  CYS622 
 ASP623  PHE694  ASN695  SER759  ASP760  ASP761  ALA762  ILE779  LEU786  VAL792 
 PHE793  MET794  SER795  GLU796  ALA797  LYS798  CYS799  TRP800  GLU811  SER814 

> <Gold.Protein.RotatedAtoms>
  151.2728  135.0690  159.9140 H   0  0  0  0  0  0  0  0  0  0  0  0  # atno 6907 bound_to 6896
  152.5347  134.0112  159.7950 H   0  0  0  0  0  0  0  0  0  0  0  0  # atno 6908 bound_to 6896
  151.0353  133.5703  159.2687 H   0  0  0  0  0  0  0  0  0  0  0  0  # atno 6909 bound_to 6896
  145.7701  139.2839  143.1326 H   0  0  0  0  0  0  0  0  0  0  0  0  # atno 7974 bound_to 7965
  155.4835  140.0562  157.2964 H   0  0  0  0  0  0  0  0  0  0  0  0  # atno 8008 bound_to 7997
  154.4651  140.2014  156.0092 H   0  0  0  0  0  0  0  0  0  0  0  0  # atno 8009 bound_to 7997
  156.0960  140.3226  155.7882 H   0  0  0  0  0  0  0  0  0  0  0  0  # atno 8010 bound_to 7997
  139.6113  144.0809  152.1844 H   0  0  0  0  0  0  0  0  0  0  0  0  # atno 10167 bound_to 10162
  156.0167  130.5334  150.6838 H   0  0  0  0  0  0  0  0  0  0  0  0  # atno 10718 bound_to 10713
  153.0649  135.6569  154.0378 H   0  0  0  0  0  0  0  0  0  0  0  0  # atno 10763 bound_to 10752
  154.0037  135.2934  155.3401 H   0  0  0  0  0  0  0  0  0  0  0  0  # atno 10764 bound_to 10752
  154.7002  135.5247  153.8585 H   0  0  0  0  0  0  0  0  0  0  0  0  # atno 10765 bound_to 10752
  140.3079  134.2683  155.7740 H   0  0  0  0  0  0  0  0  0  0  0  0  # atno 11005 bound_to 11000
  146.0178  140.8376  142.9938 LP  0  0  0  0  0  0  0  0  0  0  0  0  # atno 17320 bound_to 7965
  144.6814  140.2585  143.7322 LP  0  0  0  0  0  0  0  0  0  0  0  0  # atno 17321 bound_to 7965
  140.0428  144.5994  150.7397 LP  0  0  0  0  0  0  0  0  0  0  0  0  # atno 17342 bound_to 10162
  140.7321  143.2701  151.3915 LP  0  0  0  0  0  0  0  0  0  0  0  0  # atno 17343 bound_to 10162
  157.4535  131.0875  151.0821 LP  0  0  0  0  0  0  0  0  0  0  0  0  # atno 17370 bound_to 10713
  157.1330  130.6110  149.5534 LP  0  0  0  0  0  0  0  0  0  0  0  0  # atno 17371 bound_to 10713
  141.2114  133.7689  156.9864 LP  0  0  0  0  0  0  0  0  0  0  0  0  # atno 17394 bound_to 11000
  140.1051  134.9511  157.1981 LP  0  0  0  0  0  0  0  0  0  0  0  0  # atno 17395 bound_to 11000

$$$$
