#       Name:                AV-unprocessed.smi:36
#       Creating user name   scv26
#       Creation time:       Thu Mar 26 16:09:52 2020


#       File generated by GOLD software.
#

@<TRIPOS>MOLECULE
AV-unprocessed.smi:36
    73    76     1
SMALL
NO_CHARGES


@<TRIPOS>ATOM
      1 ****        -4.6209   4.5542   0.4132 C.3            1 S1                 0.0000
      2 ****        -3.7657   3.3320   0.7866 C.3            1 S1                 0.0000
      3 ****        -4.5965   2.3503   1.6295 C.3            1 S1                 0.0000
      4 ****        -3.2714   2.6285  -0.4887 C.3            1 S1                 0.0000
      5 ****        -2.2530   3.9011   1.8052 Si             1 S1                 0.0000
      6 ****        -1.1462   5.0644   0.7875 C.3            1 S1                 0.0000
      7 ****        -2.7871   4.7607   3.4129 C.3            1 S1                 0.0000
      8 ****        -1.3603   2.5242   2.2146 O.3            1 S1                 0.0000
      9 ****        -0.1341   2.5607   2.9141 C.3            1 S1                 0.0000
     10 ****         0.6742   1.3076   2.5496 C.3            1 S1                 0.0000
     11 ****         1.1702   1.3819   1.2136 O.3            1 S1                 0.0000
     12 ****         2.4110   0.7481   1.1193 C.3            1 S1                 0.0000
     13 ****         2.3310  -0.3220   0.0789 N.pl3          1 S1                 0.0000
     14 ****         3.1788  -0.5279  -0.9484 C.2            1 S1                 0.0000
     15 ****         2.9245  -1.5523  -1.7598 N.2            1 S1                 0.0000
     16 ****         1.7680  -2.0737  -1.1987 C.ar           1 S1                 0.0000
     17 ****         0.9524  -3.1859  -1.5467 C.ar           1 S1                 0.0000
     18 ****         1.2191  -3.9846  -2.5918 N.pl3          1 S1                -1.0000
     19 ****         2.0958  -5.0110  -2.4500 C.2            1 S1                 0.0000
     20 ****         2.7013  -5.3535  -1.4320 O.2            1 S1                 0.0000
     21 ****         2.2584  -5.8332  -3.7005 C.ar           1 S1                 0.0000
     22 ****         2.4220  -7.2340  -3.6008 C.ar           1 S1                 0.0000
     23 ****         2.6014  -8.0187  -4.7567 C.ar           1 S1                 0.0000
     24 ****         2.6293  -7.4094  -6.0251 C.ar           1 S1                 0.0000
     25 ****         2.4810  -6.0143  -6.1364 C.ar           1 S1                 0.0000
     26 ****         2.3008  -5.2288  -4.9809 C.ar           1 S1                 0.0000
     27 ****        -0.1415  -3.4110  -0.7749 N.ar           1 S1                 0.0000
     28 ****        -0.4061  -2.6192   0.2708 C.ar           1 S1                 0.0000
     29 ****         0.2777  -1.5618   0.7179 N.ar           1 S1                 0.0000
     30 ****         1.3741  -1.3159  -0.0571 C.ar           1 S1                 0.0000
     31 ****         2.7402   0.1577   2.4934 C.3            1 S1                 0.0000
     32 ****         1.9123   1.0321   3.4127 C.3            1 S1                 0.0000
     33 ****         2.6084   2.2194   3.7445 O.3            1 S1                 0.0000
     34 ****        -5.4920   4.2628  -0.1746 H              1 S1                 0.0000
     35 ****        -4.0518   5.2725  -0.1775 H              1 S1                 0.0000
     36 ****        -4.9832   5.0717   1.3019 H              1 S1                 0.0000
     37 ****        -4.9669   2.8218   2.5401 H              1 S1                 0.0000
     38 ****        -4.0040   1.4837   1.9250 H              1 S1                 0.0000
     39 ****        -5.4610   1.9844   1.0746 H              1 S1                 0.0000
     40 ****        -4.1050   2.2669  -1.0916 H              1 S1                 0.0000
     41 ****        -2.6417   1.7707  -0.2492 H              1 S1                 0.0000
     42 ****        -2.6839   3.3021  -1.1127 H              1 S1                 0.0000
     43 ****        -1.6884   5.9540   0.4678 H              1 S1                 0.0000
     44 ****        -0.7670   4.5736  -0.1086 H              1 S1                 0.0000
     45 ****        -0.2833   5.4026   1.3606 H              1 S1                 0.0000
     46 ****        -3.3831   5.6509   3.2132 H              1 S1                 0.0000
     47 ****        -1.9260   5.0732   4.0032 H              1 S1                 0.0000
     48 ****        -3.3865   4.1012   4.0395 H              1 S1                 0.0000
     49 ****         0.4212   3.4691   2.6795 H              1 S1                 0.0000
     50 ****        -0.3510   2.5750   3.9824 H              1 S1                 0.0000
     51 ****         0.0228   0.4350   2.6129 H              1 S1                 0.0000
     52 ****         3.1627   1.4515   0.7588 H              1 S1                 0.0000
     53 ****         4.0376   0.1072  -1.1072 H              1 S1                 0.0000
     54 ****         2.4050  -7.7170  -2.6345 H              1 S1                 0.0000
     55 ****         2.7193  -9.0887  -4.6689 H              1 S1                 0.0000
     56 ****         2.7681  -8.0111  -6.9110 H              1 S1                 0.0000
     57 ****         2.5088  -5.5446  -7.1085 H              1 S1                 0.0000
     58 ****         2.1991  -4.1582  -5.0876 H              1 S1                 0.0000
     59 ****        -1.2933  -2.8713   0.8325 H              1 S1                 0.0000
     60 ****         2.3930  -0.8749   2.5505 H              1 S1                 0.0000
     61 ****         3.8124   0.1787   2.6920 H              1 S1                 0.0000
     62 ****         1.6529   0.5156   4.3373 H              1 S1                 0.0000
     63 ****         2.8158   2.6774   2.9443 H              1 S1                 0.0000
     64 ****         1.2698   2.3419   0.9520 LP             1 S1                 0.0000
     65 ****         0.5234   0.9336   0.5966 LP             1 S1                 0.0000
     66 ****         3.4332  -1.8639  -2.5624 LP             1 S1                 0.0000
     67 ****         0.7732  -3.8240  -3.4724 LP             1 S1                 0.0000
     68 ****         2.5689  -4.8500  -0.5782 LP             1 S1                 0.0000
     69 ****         3.3248  -6.1348  -1.4601 LP             1 S1                 0.0000
     70 ****        -0.7529  -4.1728  -0.9891 LP             1 S1                 0.0000
     71 ****         0.0193  -1.0201   1.5177 LP             1 S1                 0.0000
     72 ****         3.4516   1.9916   4.2315 LP             1 S1                 0.0000
     73 ****         2.0339   2.7966   4.3248 LP             1 S1                 0.0000
@<TRIPOS>BOND
    1    1    2 1     
    2    1   34 1     
    3    1   35 1     
    4    1   36 1     
    5    2    3 1     
    6    2    4 1     
    7    2    5 1     
    8    3   37 1     
    9    3   38 1     
   10    3   39 1     
   11    4   40 1     
   12    4   41 1     
   13    4   42 1     
   14    5    6 1     
   15    5    7 1     
   16    5    8 1     
   17    6   43 1     
   18    6   44 1     
   19    6   45 1     
   20    7   46 1     
   21    7   47 1     
   22    7   48 1     
   23    8    9 1     
   24    9   10 1     
   25    9   49 1     
   26    9   50 1     
   27   10   32 1     
   28   10   11 1     
   29   10   51 1     
   30   11   12 1     
   31   12   13 1     
   32   12   31 1     
   33   12   52 1     
   34   13   30 1     
   35   13   14 1     
   36   14   15 2     
   37   14   53 1     
   38   15   16 1     
   39   16   30 ar    
   40   16   17 ar    
   41   17   18 1     
   42   17   27 ar    
   43   18   19 1     
   44   19   20 2     
   45   19   21 1     
   46   21   26 ar    
   47   21   22 ar    
   48   22   23 ar    
   49   22   54 1     
   50   23   24 ar    
   51   23   55 1     
   52   24   25 ar    
   53   24   56 1     
   54   25   26 ar    
   55   25   57 1     
   56   26   58 1     
   57   27   28 ar    
   58   28   29 ar    
   59   28   59 1     
   60   29   30 ar    
   61   31   32 1     
   62   31   60 1     
   63   31   61 1     
   64   32   33 1     
   65   32   62 1     
   66   33   63 1     
   67   11   64 1     
   68   11   65 1     
   69   15   66 1     
   70   18   67 1     
   71   20   68 1     
   72   20   69 1     
   73   27   70 1     
   74   29   71 1     
   75   33   72 1     
   76   33   73 1     
@<TRIPOS>SUBSTRUCTURE
      1 S1             1
@<TRIPOS>SET
LONE_PAIRS      STATIC     ATOMS    <user>   **** ""
10 64 65 66 67 68 69 70 71 72 73
DONOR_HYDROGENS      STATIC     ATOMS    <user>   **** ""
1 63
ATOM$BLUE        STATIC     ATOMS    COLORGROUP SYSTEM
10 64 65 66 67 68 69 70 71 72 73
ATOM$RED        STATIC     ATOMS    COLORGROUP SYSTEM
1 63
