AV-unprocessed.smi:798|AV-procd|sdf|3770|dock9
  -GOLD-   22720 1203D 1   1.00000     0.00000
 Structure written by MMmdl.
 34 36  0  0  0  0  0  0  0  0  1 V2000
  148.0510  137.1105  156.4144 O   0  0  0  0  0  0  0  0  0  0  0  0
  148.2979  136.8970  155.2273 C   0  0  0  0  0  0  0  0  0  0  0  0
  149.0167  135.8641  154.7543 N   0  0  0  0  0  0  0  0  0  0  0  0
  149.6015  134.7918  155.4779 C   0  0  0  0  0  0  0  0  0  0  0  0
  149.9054  134.8522  156.7838 N   0  0  0  0  0  0  0  0  0  0  0  0
  150.4606  133.6646  157.2432 N   0  0  0  0  0  0  0  0  0  0  0  0
  150.5527  132.7569  156.2672 C   0  0  0  0  0  0  0  0  0  0  0  0
  149.9687  133.2632  154.6915 S   0  0  0  0  0  0  0  0  0  0  0  0
  147.8661  137.6809  154.2289 N   0  0  0  0  0  0  0  0  0  0  0  0
  147.0660  138.8965  154.3870 C   0  0  1  0  0  0  0  0  0  0  0  0
  147.8825  139.9713  155.1363 C   0  0  2  0  0  0  0  0  0  0  0  0
  146.9312  141.0774  155.6281 C   0  0  0  0  0  0  0  0  0  0  0  0
  146.5558  141.8009  154.3208 C   0  0  0  0  0  0  0  0  0  0  0  0
  147.3385  141.0097  153.2537 C   0  0  1  0  0  0  0  0  0  0  0  0
  148.6209  140.6772  154.0052 C   0  0  0  0  0  0  0  0  0  0  0  0
  146.6822  139.6202  153.0595 C   0  0  1  0  0  0  0  0  0  0  0  0
  147.1086  138.9194  151.7493 C   0  0  0  0  0  0  0  0  0  0  0  0
  146.4373  137.6855  151.6072 O   0  0  0  0  0  0  0  0  0  0  0  0
  149.1498  135.8328  153.7544 H   0  0  0  0  0  0  0  0  0  0  0  0
  150.9664  131.7816  156.4767 H   0  0  0  0  0  0  0  0  0  0  0  0
  148.1165  137.4266  153.2845 H   0  0  0  0  0  0  0  0  0  0  0  0
  146.1694  138.6526  154.9602 H   0  0  0  0  0  0  0  0  0  0  0  0
  148.5208  139.5734  155.9264 H   0  0  0  0  0  0  0  0  0  0  0  0
  146.0606  140.6785  156.1500 H   0  0  0  0  0  0  0  0  0  0  0  0
  147.4452  141.7583  156.3078 H   0  0  0  0  0  0  0  0  0  0  0  0
  145.4809  141.7998  154.1360 H   0  0  0  0  0  0  0  0  0  0  0  0
  146.8862  142.8400  154.3525 H   0  0  0  0  0  0  0  0  0  0  0  0
  147.4832  141.5701  152.3297 H   0  0  0  0  0  0  0  0  0  0  0  0
  149.1717  141.5606  154.3334 H   0  0  0  0  0  0  0  0  0  0  0  0
  149.2962  140.0241  153.4504 H   0  0  0  0  0  0  0  0  0  0  0  0
  145.5971  139.7336  153.0246 H   0  0  0  0  0  0  0  0  0  0  0  0
  146.9043  139.5400  150.8766 H   0  0  0  0  0  0  0  0  0  0  0  0
  148.1782  138.7098  151.7588 H   0  0  0  0  0  0  0  0  0  0  0  0
  147.0632  136.9876  151.7269 H   0  0  0  0  0  0  0  0  0  0  0  0
  1  2  2  0  0  0  0
  2  3  1  0  0  0  0
  2  9  1  0  0  0  0
  3  4  1  0  0  0  0
  3 19  1  0  0  0  0
  4  8  1  0  0  0  0
  4  5  2  0  0  0  0
  5  6  1  0  0  0  0
  6  7  2  0  0  0  0
  7  8  1  0  0  0  0
  7 20  1  0  0  0  0
  9 10  1  0  0  0  0
  9 21  1  0  0  0  0
 10 16  1  0  0  0  0
 10 11  1  0  0  0  0
 10 22  1  0  0  0  0
 11 15  1  0  0  0  0
 11 12  1  0  0  0  0
 11 23  1  0  0  0  0
 12 13  1  0  0  0  0
 12 24  1  0  0  0  0
 12 25  1  0  0  0  0
 13 14  1  0  0  0  0
 13 26  1  0  0  0  0
 13 27  1  0  0  0  0
 14 15  1  0  0  0  0
 14 16  1  0  0  0  0
 14 28  1  0  0  0  0
 15 29  1  0  0  0  0
 15 30  1  0  0  0  0
 16 17  1  0  0  0  0
 16 31  1  0  0  0  0
 17 18  1  0  0  0  0
 17 32  1  0  0  0  0
 17 33  1  0  0  0  0
 18 34  1  0  0  0  0
M  END
> <s_m_source_file>
AV-unprocessed.smi

> <i_m_source_file_index>
798

> <i_lp_mmshare_version>
43012

> <i_f3d_flags>
0

> <s_epik_input>
W0NIMl0xW0NIMl1bQ0BASF0oW0NIMl0yKVtDQEBIXShbQ0gyXVtPSF0pW0NAQEhdKFtDQEhdMTIpW05IXUMoPU8pW05IXWMzbm5bY0hdczM=

> <s_epik_cmdline>
J2VwaWtfcHl0aG9uJywgJy1waCcsICc3LjAnLCAnLXRuJywgJzgnLCAnLW1hJywgJzIwMCcsICctbWV0YWxfYmluZGluZycsICctaW1hZScsICc8aW5maWxlLm1hZT4nLCAnLW9tYWUnLCAnPG91dGZpbGUubWFlPic=

> <r_lp_tautomer_probability>
1

> <r_epik_Ionization_Penalty>
0.000329046

> <r_epik_Ionization_Penalty_Charging>
0

> <r_epik_Ionization_Penalty_Neutral>
0.000329046

> <r_epik_State_Penalty>
-0

> <r_epik_Charging_Adjusted_Penalty>
0

> <i_epik_Tot_Q>
0

> <i_epik_Tot_abs_Q>
0

> <r_epik_Metal_State_Penalty>
0.173433

> <b_epik_Metal_Only>
0

> <s_lp_Force_Field>
OPLS_2005

> <r_lp_Energy>
49.2939

> <b_lp_Chiralities_Consistent>
1

> <s_lp_Variant>
AV-unprocessed.smi:798-2

> <Gold.Version>
5.8.1

> <Gold.Id.Protein>
6NUR|6NUR_protein|mol2

> <Gold.PLP.Fitness>
34.7530

> <Gold.PLP.PLP>
-23.5553

> <Gold.PLP.part.hbond>
-4.2942

> <Gold.PLP.part.metal>
0.0000

> <Gold.PLP.part.buried>
1.3520

> <Gold.PLP.part.nonpolar>
-20.8640

> <Gold.PLP.part.repulsive>
0.0136

> <Gold.PLP.ligand.clash>
0.0000

> <Gold.PLP.ligand.torsion>
0.1350

> <Gold.PLP.Chemscore.Hbond>
3.8181

> <Gold.PLP.Chemscore.CHOScore>
0.0000

> <Gold.PLP.Chemscore.Metal>
0.0000

> <Gold.Chemscore.Hbonds>
donor molecule, donor type, donor heavy atom, donor atom, acceptor molecule, acceptor atom, score
      L1  H     3    19       P1  7948  1.00
      L1  H     9    21       P1  7948  0.99
      L1  H    18    34       P1  7948  1.00
      P1  H  6896  6907       L1     6  0.81

> <Gold.PLP.Chemscore.Internal.Correction>
0.0136

> <Gold.Rescore>
     Score         DG    S(hbond)    S(metal)    S(lipo)     H(rot)  DE(clash)    DE(int)     intcor
     15.81     -18.86       3.43        0.00      58.83       1.94       1.67       1.37       ----

> <Gold.Chemscore.Fitness>
15.8145

> <Gold.Chemscore.DG>
-18.8561

> <Gold.Chemscore.ZeroCoef>
-5.4800

> <Gold.Chemscore.Hbond>
3.4341

> <Gold.Chemscore.Metal>
0.0000

> <Gold.Chemscore.Lipo>
58.8322

> <Gold.Chemscore.Internal_Hbond>
0.0000

> <Gold.Chemscore.DEClash>
1.6737

> <Gold.Chemscore.DEInternal>
1.3679

> <Gold.Chemscore.Rot>
1.9442

> <Gold.Chemscore.Internal.Correction>
   9.000000E+99

> <Gold.Chemscore.Hbonds>
donor molecule, donor type, donor heavy atom, donor atom, acceptor molecule, acceptor atom, score
      L1  H     3    19       P1  7948  0.82
      L1  H     9    21       P1  7948  0.91
      L1  H    18    34       P1  7948  0.92
      P1  H  6896  6907       L1     6  0.72

> <Gold.Chemscore.Hbond.Weighted>
-11.4698

> <Gold.Chemscore.Metal.Weighted>
-0.0000

> <Gold.Chemscore.Lipo.Weighted>
-6.8834

> <Gold.Chemscore.Internal_Hbond.Weighted>
0.0000

> <Gold.Chemscore.DEClash.Weighted>
1.6737

> <Gold.Chemscore.DEInternal.Weighted>
1.3679

> <Gold.Chemscore.Rot.Weighted>
4.9771

> <Gold.Chemscore.Internal.Correction.Weighted>
   9.000000E+99

> <Gold.Protein.RotatedTorsions>
[ 6907 6896 6895 6894 ] final -139.19 input  -60.11 | X-H torsion
[ 7974 7965 7964 7962 ] final  131.40 input  175.53 | X-H torsion
[ 8008 7997 7996 7995 ] final -100.08 input   59.86 | X-H torsion
[ 10167 10162 10161 10158 ] final   86.48 input  -65.29 | X-H torsion
[ 10718 10713 10712 10709 ] final   74.39 input   66.30 | X-H torsion
[ 10763 10752 10751 10750 ] final  159.36 input  -60.55 | X-H torsion
[ 11005 11000 10999 10996 ] final  127.63 input  -57.11 | X-H torsion

> <Gold.Protein.ActiveResidues>
 VAL166  LYS551  ARG553  GLY616  TRP617  ASP618  TYR619  PRO620  LYS621  CYS622 
 ASP623  PHE694  ASN695  SER759  ASP760  ASP761  ALA762  ILE779  LEU786  VAL792 
 PHE793  MET794  SER795  GLU796  ALA797  LYS798  CYS799  TRP800  GLU811  SER814 

> <Gold.Protein.RotatedAtoms>
  151.0446  133.5676  159.2647 H   0  0  0  0  0  0  0  0  0  0  0  0  # atno 6907 bound_to 6896
  151.2710  135.0683  159.9144 H   0  0  0  0  0  0  0  0  0  0  0  0  # atno 6908 bound_to 6896
  152.5371  134.0176  159.8021 H   0  0  0  0  0  0  0  0  0  0  0  0  # atno 6909 bound_to 6896
  145.0077  139.4250  143.5260 H   0  0  0  0  0  0  0  0  0  0  0  0  # atno 7974 bound_to 7965
  154.8237  140.0443  157.1429 H   0  0  0  0  0  0  0  0  0  0  0  0  # atno 8008 bound_to 7997
  154.9230  140.3029  155.5186 H   0  0  0  0  0  0  0  0  0  0  0  0  # atno 8009 bound_to 7997
  156.2982  140.2337  156.4283 H   0  0  0  0  0  0  0  0  0  0  0  0  # atno 8010 bound_to 7997
  139.8871  144.6407  150.8780 H   0  0  0  0  0  0  0  0  0  0  0  0  # atno 10167 bound_to 10162
  157.6590  130.9675  150.1204 H   0  0  0  0  0  0  0  0  0  0  0  0  # atno 10718 bound_to 10713
  154.2306  135.2778  155.2891 H   0  0  0  0  0  0  0  0  0  0  0  0  # atno 10763 bound_to 10752
  154.5627  135.5642  153.7025 H   0  0  0  0  0  0  0  0  0  0  0  0  # atno 10764 bound_to 10752
  153.0021  135.6302  154.2448 H   0  0  0  0  0  0  0  0  0  0  0  0  # atno 10765 bound_to 10752
  139.9517  134.9620  156.8882 H   0  0  0  0  0  0  0  0  0  0  0  0  # atno 11005 bound_to 11000
  146.3464  139.9502  142.8730 LP  0  0  0  0  0  0  0  0  0  0  0  0  # atno 17320 bound_to 7965
  145.2066  140.9877  143.4125 LP  0  0  0  0  0  0  0  0  0  0  0  0  # atno 17321 bound_to 7965
  140.7734  143.3540  151.1958 LP  0  0  0  0  0  0  0  0  0  0  0  0  # atno 17342 bound_to 10162
  139.7143  143.9325  152.2960 LP  0  0  0  0  0  0  0  0  0  0  0  0  # atno 17343 bound_to 10162
  156.2077  130.3664  149.8709 LP  0  0  0  0  0  0  0  0  0  0  0  0  # atno 17370 bound_to 10713
  156.6596  130.8777  151.3545 LP  0  0  0  0  0  0  0  0  0  0  0  0  # atno 17371 bound_to 10713
  140.5703  134.0450  155.7428 LP  0  0  0  0  0  0  0  0  0  0  0  0  # atno 17394 bound_to 11000
  141.1181  133.9506  157.2782 LP  0  0  0  0  0  0  0  0  0  0  0  0  # atno 17395 bound_to 11000

$$$$
