AV-unprocessed.smi:2243|AV-procd|sdf|9067|dock4
  -GOLD-   2272012273D 1   1.00000     0.00000
 Structure written by MMmdl.
 34 35  0  0  0  0  0  0  0  0  1 V2000
  151.5333  140.6275  157.6301 C   0  0  0  0  0  0  0  0  0  0  0  0
  151.4765  142.0861  157.1447 C   0  0  1  0  0  0  0  0  0  0  0  0
  150.4711  142.1682  156.0840 N   0  0  0  0  0  0  0  0  0  0  0  0
  150.4187  141.4186  154.9714 C   0  0  0  0  0  0  0  0  0  0  0  0
  151.2632  140.5498  154.7328 O   0  0  0  0  0  0  0  0  0  0  0  0
  149.3219  141.7896  154.2070 N   0  0  0  0  0  0  0  0  0  0  0  0
  148.6690  140.8905  153.5378 C   0  0  0  0  0  0  0  0  0  0  0  0
  147.5609  141.0792  152.7273 N   0  0  0  0  0  0  0  0  0  0  0  0
  147.1949  139.8646  152.2168 C   0  0  0  0  0  0  0  0  0  0  0  0
  148.0362  138.9478  152.6860 C   0  0  0  0  0  0  0  0  0  0  0  0
  148.9521  139.5444  153.4990 O   0  0  0  0  0  0  0  0  0  0  0  0
  151.1556  143.0982  158.2768 C   0  0  0  0  0  0  0  0  0  0  0  0
  151.4063  144.5624  157.8550 C   0  0  0  0  0  0  0  0  0  0  0  0
  151.1507  145.5319  159.0201 C   0  0  0  0  0  0  0  0  0  0  0  0
  151.9652  145.1839  160.1326 O   0  0  0  0  0  0  0  0  0  0  0  0
  151.6766  143.8861  160.6370 C   0  0  0  0  0  0  0  0  0  0  0  0
  151.9649  142.8266  159.5611 C   0  0  0  0  0  0  0  0  0  0  0  0
  152.3604  140.4620  158.3196 H   0  0  0  0  0  0  0  0  0  0  0  0
  151.6788  139.9435  156.7933 H   0  0  0  0  0  0  0  0  0  0  0  0
  150.6108  140.3407  158.1359 H   0  0  0  0  0  0  0  0  0  0  0  0
  152.4609  142.3320  156.7431 H   0  0  0  0  0  0  0  0  0  0  0  0
  149.7450  142.8587  156.2096 H   0  0  0  0  0  0  0  0  0  0  0  0
  147.0762  141.9406  152.5207 H   0  0  0  0  0  0  0  0  0  0  0  0
  146.3469  139.7841  151.5528 H   0  0  0  0  0  0  0  0  0  0  0  0
  148.1135  137.8804  152.5428 H   0  0  0  0  0  0  0  0  0  0  0  0
  150.0969  143.0029  158.5239 H   0  0  0  0  0  0  0  0  0  0  0  0
  152.4345  144.6760  157.5092 H   0  0  0  0  0  0  0  0  0  0  0  0
  150.7652  144.8408  157.0184 H   0  0  0  0  0  0  0  0  0  0  0  0
  151.3896  146.5509  158.7159 H   0  0  0  0  0  0  0  0  0  0  0  0
  150.0985  145.5255  159.3087 H   0  0  0  0  0  0  0  0  0  0  0  0
  152.2969  143.7053  161.5149 H   0  0  0  0  0  0  0  0  0  0  0  0
  150.6375  143.8340  160.9663 H   0  0  0  0  0  0  0  0  0  0  0  0
  151.7296  141.8433  159.9672 H   0  0  0  0  0  0  0  0  0  0  0  0
  153.0316  142.8240  159.3327 H   0  0  0  0  0  0  0  0  0  0  0  0
  1  2  1  0  0  0  0
  1 18  1  0  0  0  0
  1 19  1  0  0  0  0
  1 20  1  0  0  0  0
  2  3  1  0  0  0  0
  2 12  1  0  0  0  0
  2 21  1  0  0  0  0
  3 22  1  0  0  0  0
  3  4  1  0  0  0  0
  4  6  1  0  0  0  0
  4  5  2  0  0  0  0
  6  7  2  0  0  0  0
  7 11  1  0  0  0  0
  7  8  1  0  0  0  0
  8 23  1  0  0  0  0
  8  9  1  0  0  0  0
  9 24  1  0  0  0  0
  9 10  2  0  0  0  0
 10 25  1  0  0  0  0
 10 11  1  0  0  0  0
 12 17  1  0  0  0  0
 12 13  1  0  0  0  0
 12 26  1  0  0  0  0
 13 14  1  0  0  0  0
 13 27  1  0  0  0  0
 13 28  1  0  0  0  0
 14 15  1  0  0  0  0
 14 29  1  0  0  0  0
 14 30  1  0  0  0  0
 15 16  1  0  0  0  0
 16 17  1  0  0  0  0
 16 31  1  0  0  0  0
 16 32  1  0  0  0  0
 17 33  1  0  0  0  0
 17 34  1  0  0  0  0
M  END
> <s_m_source_file>
AV-unprocessed.smi

> <i_m_source_file_index>
2243

> <i_lp_mmshare_version>
43012

> <i_f3d_flags>
0

> <s_epik_input>
W0NIMl0xW0NIMl1PW0NIMl1bQ0gyXVtDSF0xW0NASF0oW0NIM10pW05IXUMoPU8pW05IXWMybltjSF1bY0hdbzI=

> <s_epik_cmdline>
J2VwaWtfcHl0aG9uJywgJy1waCcsICc3LjAnLCAnLXRuJywgJzgnLCAnLW1hJywgJzIwMCcsICctbWV0YWxfYmluZGluZycsICctaW1hZScsICc8aW5maWxlLm1hZT4nLCAnLW9tYWUnLCAnPG91dGZpbGUubWFlPic=

> <r_lp_tautomer_probability>
0.107061

> <r_epik_Ionization_Penalty>
1.44639

> <r_epik_Ionization_Penalty_Charging>
1.44602

> <r_epik_Ionization_Penalty_Neutral>
0.000368208

> <r_epik_State_Penalty>
2.61815

> <r_epik_Charging_Adjusted_Penalty>
4.06418

> <i_epik_Tot_Q>
0

> <i_epik_Tot_abs_Q>
0

> <r_epik_Metal_State_Penalty>
3.54171

> <b_epik_Metal_Only>
0

> <s_lp_Force_Field>
OPLS_2005

> <r_lp_Energy>
34.6671

> <b_lp_Chiralities_Consistent>
1

> <s_lp_Variant>
AV-unprocessed.smi:2243-6

> <Gold.Version>
5.8.1

> <Gold.Id.Protein>
6NUR|6NUR_protein|mol2

> <Gold.PLP.Fitness>
40.3027

> <Gold.PLP.PLP>
-30.6844

> <Gold.PLP.part.hbond>
-2.5627

> <Gold.PLP.part.metal>
0.0000

> <Gold.PLP.part.buried>
0.5227

> <Gold.PLP.part.nonpolar>
-28.3663

> <Gold.PLP.part.repulsive>
0.9700

> <Gold.PLP.ligand.clash>
0.0000

> <Gold.PLP.ligand.torsion>
0.4485

> <Gold.PLP.Chemscore.Hbond>
1.5278

> <Gold.PLP.Chemscore.CHOScore>
1.9727

> <Gold.PLP.Chemscore.Metal>
0.0000

> <Gold.Chemscore.Hbonds>
donor molecule, donor type, donor heavy atom, donor atom, acceptor molecule, acceptor atom, score
      L1  H     3    22       P1  8028  0.75
      P1  H  7989  7998       L1     5  0.49
      P1  H  8011  8017       L1     6  0.05
      L1  C     9    24       P1 10175  0.10
      L1  C    10    25       P1  7948  0.80

> <Gold.PLP.Chemscore.Internal.Correction>
0.0140

> <Gold.Rescore>
     Score         DG    S(hbond)    S(metal)    S(lipo)     H(rot)  DE(clash)    DE(int)     intcor
     12.05     -14.34       0.99        0.00      76.49       1.32       0.34       1.95       ----

> <Gold.Chemscore.Fitness>
12.0535

> <Gold.Chemscore.DG>
-14.3437

> <Gold.Chemscore.ZeroCoef>
-5.4800

> <Gold.Chemscore.Hbond>
0.9862

> <Gold.Chemscore.Metal>
0.0000

> <Gold.Chemscore.Lipo>
76.4897

> <Gold.Chemscore.Internal_Hbond>
0.0000

> <Gold.Chemscore.DEClash>
0.3423

> <Gold.Chemscore.DEInternal>
1.9478

> <Gold.Chemscore.Rot>
1.3201

> <Gold.Chemscore.Internal.Correction>
   9.000000E+99

> <Gold.Chemscore.Hbonds>
donor molecule, donor type, donor heavy atom, donor atom, acceptor molecule, acceptor atom, score
      L1  H     3    22       P1  8028  0.72
      P1  H  7989  7998       L1     5  0.14

> <Gold.Chemscore.Hbond.Weighted>
-3.2938

> <Gold.Chemscore.Metal.Weighted>
-0.0000

> <Gold.Chemscore.Lipo.Weighted>
-8.9493

> <Gold.Chemscore.Internal_Hbond.Weighted>
0.0000

> <Gold.Chemscore.DEClash.Weighted>
0.3423

> <Gold.Chemscore.DEInternal.Weighted>
1.9478

> <Gold.Chemscore.Rot.Weighted>
3.3794

> <Gold.Chemscore.Internal.Correction.Weighted>
   9.000000E+99

> <Gold.Protein.RotatedTorsions>
[ 6907 6896 6895 6894 ] final  -17.34 input  -60.11 | X-H torsion
[ 7974 7965 7964 7962 ] final -174.84 input  175.53 | X-H torsion
[ 8008 7997 7996 7995 ] final  109.85 input   59.86 | X-H torsion
[ 10167 10162 10161 10158 ] final   39.77 input  -65.29 | X-H torsion
[ 10718 10713 10712 10709 ] final  -25.42 input   66.30 | X-H torsion
[ 10763 10752 10751 10750 ] final   43.93 input  -60.55 | X-H torsion
[ 11005 11000 10999 10996 ] final -166.72 input  -57.11 | X-H torsion

> <Gold.Protein.ActiveResidues>
 VAL166  LYS551  ARG553  GLY616  TRP617  ASP618  TYR619  PRO620  LYS621  CYS622 
 ASP623  PHE694  ASN695  SER759  ASP760  ASP761  ALA762  ILE779  LEU786  VAL792 
 PHE793  MET794  SER795  GLU796  ALA797  LYS798  CYS799  TRP800  GLU811  SER814 

> <Gold.Protein.RotatedAtoms>
  151.2949  135.0752  159.9217 H   0  0  0  0  0  0  0  0  0  0  0  0  # atno 6907 bound_to 6896
  152.5309  133.9893  159.7854 H   0  0  0  0  0  0  0  0  0  0  0  0  # atno 6908 bound_to 6896
  151.0170  133.5861  159.2706 H   0  0  0  0  0  0  0  0  0  0  0  0  # atno 6909 bound_to 6896
  144.7130  140.1411  143.6391 H   0  0  0  0  0  0  0  0  0  0  0  0  # atno 7974 bound_to 7965
  156.2010  140.3050  155.9527 H   0  0  0  0  0  0  0  0  0  0  0  0  # atno 8008 bound_to 7997
  155.2953  140.0444  157.3043 H   0  0  0  0  0  0  0  0  0  0  0  0  # atno 8009 bound_to 7997
  154.5571  140.2309  155.8402 H   0  0  0  0  0  0  0  0  0  0  0  0  # atno 8010 bound_to 7997
  140.3807  144.1984  150.6131 H   0  0  0  0  0  0  0  0  0  0  0  0  # atno 10167 bound_to 10162
  156.4646  130.4511  149.6907 H   0  0  0  0  0  0  0  0  0  0  0  0  # atno 10718 bound_to 10713
  152.9851  135.6086  154.3192 H   0  0  0  0  0  0  0  0  0  0  0  0  # atno 10763 bound_to 10752
  154.2903  135.2775  155.2660 H   0  0  0  0  0  0  0  0  0  0  0  0  # atno 10764 bound_to 10752
  154.4958  135.5880  153.6550 H   0  0  0  0  0  0  0  0  0  0  0  0  # atno 10765 bound_to 10752
  140.5613  134.5330  157.5143 H   0  0  0  0  0  0  0  0  0  0  0  0  # atno 11005 bound_to 11000
  145.9201  139.2540  143.1386 LP  0  0  0  0  0  0  0  0  0  0  0  0  # atno 17320 bound_to 7965
  145.9629  140.8822  143.0202 LP  0  0  0  0  0  0  0  0  0  0  0  0  # atno 17321 bound_to 7965
  140.4941  143.2338  151.8776 LP  0  0  0  0  0  0  0  0  0  0  0  0  # atno 17342 bound_to 10162
  139.4795  144.5133  151.8902 LP  0  0  0  0  0  0  0  0  0  0  0  0  # atno 17343 bound_to 10162
  156.3680  130.7516  151.2496 LP  0  0  0  0  0  0  0  0  0  0  0  0  # atno 17370 bound_to 10713
  157.7495  131.0331  150.4257 LP  0  0  0  0  0  0  0  0  0  0  0  0  # atno 17371 bound_to 10713
  139.9406  134.7793  156.0687 LP  0  0  0  0  0  0  0  0  0  0  0  0  # atno 17394 bound_to 11000
  141.1113  133.6642  156.2985 LP  0  0  0  0  0  0  0  0  0  0  0  0  # atno 17395 bound_to 11000

$$$$
