#       Name:                AV-unprocessed.smi:102
#       Creating user name   scv26
#       Creation time:       Thu Mar 26 17:50:30 2020


#       File generated by GOLD software.
#

@<TRIPOS>MOLECULE
AV-unprocessed.smi:102
    56    57     1
SMALL
NO_CHARGES


@<TRIPOS>ATOM
      1 ****        -4.1396   0.5573   0.3876 C.3            1 S1                 0.0000
      2 ****        -3.5892  -0.8476   0.5932 C.2            1 S1                 0.0000
      3 ****        -4.3048  -1.7691   0.9859 O.2            1 S1                 0.0000
      4 ****        -2.2828  -0.9295   0.3059 O.3            1 S1                 0.0000
      5 ****        -1.5925  -2.1562   0.4872 C.3            1 S1                 0.0000
      6 ****        -0.0710  -1.9504   0.3995 C.3            1 S1                 0.0000
      7 ****         0.3802  -1.1791   1.5120 O.3            1 S1                 0.0000
      8 ****         0.9660   0.0144   1.0789 C.3            1 S1                 0.0000
      9 ****         0.4657   1.1574   1.9315 N.am           1 S1                 0.0000
     10 ****        -0.7651   1.0873   2.5618 C.2            1 S1                 0.0000
     11 ****        -1.2371   2.1171   3.2928 C.2            1 S1                 0.0000
     12 ****        -2.4371   2.0184   3.8903 F              1 S1                 0.0000
     13 ****        -0.4389   3.3341   3.4268 C.2            1 S1                 0.0000
     14 ****        -0.8743   4.2707   4.0947 O.2            1 S1                 0.0000
     15 ****         0.7700   3.3759   2.7951 N.pl3          1 S1                -1.0000
     16 ****         1.2495   2.3374   2.0493 C.2            1 S1                 0.0000
     17 ****         2.3328   2.3742   1.4659 O.2            1 S1                 0.0000
     18 ****         0.5611   0.2173  -0.3818 C.3            1 S1                 0.0000
     19 ****         1.5490   0.9479  -1.0974 O.3            1 S1                 0.0000
     20 ****         1.2220   1.5958  -2.2258 C.2            1 S1                 0.0000
     21 ****         2.4011   2.3541  -2.8196 C.3            1 S1                 0.0000
     22 ****         0.1138   1.6047  -2.7622 O.2            1 S1                 0.0000
     23 ****         0.3934  -1.2157  -0.8668 C.3            1 S1                 0.0000
     24 ****         1.6423  -1.7497  -1.2995 O.3            1 S1                 0.0000
     25 ****         1.6794  -2.7684  -2.1755 C.2            1 S1                 0.0000
     26 ****         3.1034  -3.1800  -2.5244 C.3            1 S1                 0.0000
     27 ****         0.7055  -3.3418  -2.6635 O.2            1 S1                 0.0000
     28 ****        -3.4531   1.2990   0.7974 H              1 S1                 0.0000
     29 ****        -5.1023   0.6662   0.8877 H              1 S1                 0.0000
     30 ****        -4.2753   0.7588  -0.6752 H              1 S1                 0.0000
     31 ****        -1.8459  -2.5957   1.4531 H              1 S1                 0.0000
     32 ****        -1.9159  -2.8577  -0.2827 H              1 S1                 0.0000
     33 ****         0.3959  -2.9339   0.4643 H              1 S1                 0.0000
     34 ****         2.0437  -0.0608   1.2339 H              1 S1                 0.0000
     35 ****        -1.3695   0.1983   2.4759 H              1 S1                 0.0000
     36 ****        -0.4022   0.7299  -0.3948 H              1 S1                 0.0000
     37 ****         2.8053   3.0553  -2.0890 H              1 S1                 0.0000
     38 ****         2.0920   2.9147  -3.7021 H              1 S1                 0.0000
     39 ****         3.1906   1.6601  -3.1083 H              1 S1                 0.0000
     40 ****        -0.3413  -1.2655  -1.6721 H              1 S1                 0.0000
     41 ****         3.6719  -2.3174  -2.8720 H              1 S1                 0.0000
     42 ****         3.1029  -3.9343  -3.3115 H              1 S1                 0.0000
     43 ****         3.6023  -3.5944  -1.6483 H              1 S1                 0.0000
     44 ****        -5.2722  -1.6040   1.1780 LP             1 S1                 0.0000
     45 ****        -3.9187  -2.6828   1.1129 LP             1 S1                 0.0000
     46 ****         1.0547  -1.7083   2.0268 LP             1 S1                 0.0000
     47 ****        -0.3986  -0.9675   2.1026 LP             1 S1                 0.0000
     48 ****        -1.7666   4.1951   4.5398 LP             1 S1                 0.0000
     49 ****        -0.3360   5.1078   4.1927 LP             1 S1                 0.0000
     50 ****         1.3278   4.2013   2.8820 LP             1 S1                 0.0000
     51 ****         2.6382   1.5881   0.9286 LP             1 S1                 0.0000
     52 ****         2.9073   3.1902   1.5293 LP             1 S1                 0.0000
     53 ****        -0.6436   1.0953  -2.3536 LP             1 S1                 0.0000
     54 ****        -0.0290   2.1214  -3.6063 LP             1 S1                 0.0000
     55 ****        -0.2198  -3.0565  -2.4135 LP             1 S1                 0.0000
     56 ****         0.8396  -4.0929  -3.3099 LP             1 S1                 0.0000
@<TRIPOS>BOND
    1    1    2 1     
    2    1   28 1     
    3    1   29 1     
    4    1   30 1     
    5    2    3 2     
    6    2    4 1     
    7    4    5 1     
    8    5    6 1     
    9    5   31 1     
   10    5   32 1     
   11    6   23 1     
   12    6    7 1     
   13    6   33 1     
   14    7    8 1     
   15    8    9 1     
   16    8   18 1     
   17    8   34 1     
   18    9   16 am    
   19    9   10 1     
   20   10   11 2     
   21   10   35 1     
   22   11   12 1     
   23   11   13 1     
   24   13   14 2     
   25   13   15 1     
   26   15   16 1     
   27   16   17 2     
   28   18   19 1     
   29   18   23 1     
   30   18   36 1     
   31   19   20 1     
   32   20   21 1     
   33   20   22 2     
   34   21   37 1     
   35   21   38 1     
   36   21   39 1     
   37   23   24 1     
   38   23   40 1     
   39   24   25 1     
   40   25   26 1     
   41   25   27 2     
   42   26   41 1     
   43   26   42 1     
   44   26   43 1     
   45    3   44 1     
   46    3   45 1     
   47    7   46 1     
   48    7   47 1     
   49   14   48 1     
   50   14   49 1     
   51   15   50 1     
   52   17   51 1     
   53   17   52 1     
   54   22   53 1     
   55   22   54 1     
   56   27   55 1     
   57   27   56 1     
@<TRIPOS>SUBSTRUCTURE
      1 S1             1
@<TRIPOS>SET
LONE_PAIRS      STATIC     ATOMS    <user>   **** ""
13 44 45 46 47 48 49 50 51 52 53 54 55 56
ATOM$BLUE        STATIC     ATOMS    COLORGROUP SYSTEM
13 44 45 46 47 48 49 50 51 52 53 54 55 56
