#       Name:                AV-unprocessed.smi:3298
#       Creating user name   scv26
#       Creation time:       Fri Mar 27 18:58:00 2020


#       File generated by GOLD software.
#

@<TRIPOS>MOLECULE
AV-unprocessed.smi:3298
    40    41     1
SMALL
NO_CHARGES


@<TRIPOS>ATOM
      1 ****        -6.1761   0.8082   1.0015 C.3            1 S1                 0.0000
      2 ****        -4.7910   1.2612   0.5907 C.ar           1 S1                 0.0000
      3 ****        -3.6618   0.4202   0.6896 C.ar           1 S1                 0.0000
      4 ****        -2.3933   0.9055   0.3012 C.ar           1 S1                 0.0000
      5 ****        -1.2871   0.0191   0.4014 N.am           1 S1                 0.0000
      6 ****         0.0165   0.3255   0.5177 C.2            1 S1                 0.0000
      7 ****         0.4726   1.4657   0.6035 O.2            1 S1                 0.0000
      8 ****         0.7754  -0.7789   0.5500 N.am           1 S1                 0.0000
      9 ****         2.2288  -0.7867   0.6737 C.3            1 S1                 0.0000
     10 ****         2.7275  -2.1762   0.9604 C.2            1 S1                 0.0000
     11 ****         3.5800  -2.6174   0.0383 C.2            1 S1                 0.0000
     12 ****         3.8108  -1.6247  -1.0708 C.3            1 S1                 0.0000
     13 ****         5.3025  -1.2992  -1.2513 C.3            1 S1                 0.0000
     14 ****         5.4845  -0.4402  -2.3568 O.3            1 S1                 0.0000
     15 ****         2.9477  -0.4069  -0.6476 C.3            1 S1                 0.0000
     16 ****        -2.2985   2.2259  -0.2064 C.ar           1 S1                 0.0000
     17 ****        -3.4604   3.0201  -0.2837 C.ar           1 S1                 0.0000
     18 ****        -4.6485   2.5177   0.1148 N.pl3          1 S1                 1.0000
     19 ****         2.5416  -0.1315   1.4886 H              1 S1                 0.0000
     20 ****         3.4148  -2.0618  -1.9886 H              1 S1                 0.0000
     21 ****        -6.1818  -0.2505   1.2620 H              1 S1                 0.0000
     22 ****        -6.8850   0.9611   0.1872 H              1 S1                 0.0000
     23 ****        -6.5184   1.3746   1.8680 H              1 S1                 0.0000
     24 ****        -3.7675  -0.5867   1.0674 H              1 S1                 0.0000
     25 ****        -1.5177  -0.9630   0.4413 H              1 S1                 0.0000
     26 ****         0.3209  -1.6772   0.4762 H              1 S1                 0.0000
     27 ****         2.4198  -2.7289   1.8359 H              1 S1                 0.0000
     28 ****         4.0585  -3.5856   0.0500 H              1 S1                 0.0000
     29 ****         5.7114  -0.8293  -0.3560 H              1 S1                 0.0000
     30 ****         5.8729  -2.2120  -1.4269 H              1 S1                 0.0000
     31 ****         6.4075  -0.2583  -2.4478 H              1 S1                 0.0000
     32 ****         2.2418  -0.1525  -1.4393 H              1 S1                 0.0000
     33 ****         3.5643   0.4787  -0.4881 H              1 S1                 0.0000
     34 ****        -1.3614   2.6383  -0.5489 H              1 S1                 0.0000
     35 ****        -3.4752   4.0338  -0.6565 H              1 S1                 0.0000
     36 ****        -5.4757   3.1116   0.0486 H              1 S1                 0.0000
     37 ****        -0.1437   2.2531   0.5893 LP             1 S1                 0.0000
     38 ****         1.4593   1.6045   0.6875 LP             1 S1                 0.0000
     39 ****         4.9860   0.4135  -2.2060 LP             1 S1                 0.0000
     40 ****         5.1447  -0.8824  -3.1868 LP             1 S1                 0.0000
@<TRIPOS>BOND
    1    1    2 1     
    2    1   21 1     
    3    1   22 1     
    4    1   23 1     
    5    2   18 ar    
    6    2    3 ar    
    7    3    4 ar    
    8    3   24 1     
    9    4    5 1     
   10    4   16 ar    
   11    5    6 am    
   12    5   25 1     
   13    6    7 2     
   14    6    8 am    
   15    8    9 1     
   16    8   26 1     
   17    9   19 1     
   18    9   15 1     
   19    9   10 1     
   20   10   11 2     
   21   10   27 1     
   22   11   12 1     
   23   11   28 1     
   24   12   20 1     
   25   12   13 1     
   26   12   15 1     
   27   13   14 1     
   28   13   29 1     
   29   13   30 1     
   30   14   31 1     
   31   15   32 1     
   32   15   33 1     
   33   16   17 ar    
   34   16   34 1     
   35   17   18 ar    
   36   17   35 1     
   37   18   36 1     
   38    7   37 1     
   39    7   38 1     
   40   14   39 1     
   41   14   40 1     
@<TRIPOS>SUBSTRUCTURE
      1 S1             1
@<TRIPOS>SET
LONE_PAIRS      STATIC     ATOMS    <user>   **** ""
4 37 38 39 40
DONOR_HYDROGENS      STATIC     ATOMS    <user>   **** ""
4 25 26 31 36
ATOM$BLUE        STATIC     ATOMS    COLORGROUP SYSTEM
4 37 38 39 40
ATOM$RED        STATIC     ATOMS    COLORGROUP SYSTEM
4 25 26 31 36
