AV-unprocessed.smi:2607|AV-procd|sdf|10203|dock3
  -GOLD-   2272014213D 1   1.00000     0.00000
 Structure written by MMmdl.
 21 22  0  0  0  0  0  0  0  0  2 V2000
  147.2963  134.9997  157.8524 C   0  0  0  0  0  0  0  0  0  0  0  0
  147.7021  134.0852  159.0265 C   0  0  2  0  0  0  0  0  0  0  0  0
  147.7168  134.8707  160.3535 C   0  0  0  0  0  0  0  0  0  0  0  0
  148.4320  136.0860  160.5202 C   0  0  0  0  0  0  0  0  0  0  0  0
  148.4279  136.7712  161.6858 N   0  0  0  0  0  0  0  0  0  0  0  0
  147.7027  136.2448  162.6955 C   0  0  0  0  0  0  0  0  0  0  0  0
  146.9831  135.0428  162.5417 C   0  0  0  0  0  0  0  0  0  0  0  0
  146.9863  134.3589  161.3774 N   0  0  0  0  0  0  0  0  0  0  0  0
  148.9775  133.4510  158.7104 N   0  5  0  0  0  0  0  0  0  0  0  0
  148.8175  132.1074  158.6996 C   0  0  0  0  0  0  0  0  0  0  0  0
  149.6732  131.2488  158.4973 O   0  0  0  0  0  0  0  0  0  0  0  0
  147.5450  131.7845  158.9417 N   0  0  0  0  0  0  0  0  0  0  0  0
  146.7887  132.8631  159.1187 C   0  0  0  0  0  0  0  0  0  0  0  0
  145.5718  132.8854  159.3038 O   0  0  0  0  0  0  0  0  0  0  0  0
  146.3115  135.4410  158.0099 H   0  0  0  0  0  0  0  0  0  0  0  0
  147.2597  134.4546  156.9077 H   0  0  0  0  0  0  0  0  0  0  0  0
  148.0052  135.8194  157.7315 H   0  0  0  0  0  0  0  0  0  0  0  0
  149.0127  136.5270  159.7241 H   0  0  0  0  0  0  0  0  0  0  0  0
  147.6941  136.7858  163.6300 H   0  0  0  0  0  0  0  0  0  0  0  0
  146.4033  134.6298  163.3536 H   0  0  0  0  0  0  0  0  0  0  0  0
  147.1965  130.8378  158.9625 H   0  0  0  0  0  0  0  0  0  0  0  0
  1  2  1  0  0  0  0
  1 15  1  0  0  0  0
  1 16  1  0  0  0  0
  1 17  1  0  0  0  0
  2 13  1  0  0  0  0
  2  3  1  0  0  0  0
  2  9  1  0  0  0  0
  3  8  1  0  0  0  0
  3  4  2  0  0  0  0
  4  5  1  0  0  0  0
  4 18  1  0  0  0  0
  5  6  2  0  0  0  0
  6  7  1  0  0  0  0
  6 19  1  0  0  0  0
  7  8  2  0  0  0  0
  7 20  1  0  0  0  0
  9 10  1  0  0  0  0
 10 11  2  0  0  0  0
 10 12  1  0  0  0  0
 12 13  1  0  0  0  0
 12 21  1  0  0  0  0
 13 14  2  0  0  0  0
M  CHG  1   9  -1
M  END
> <s_m_source_file>
AV-unprocessed.smi

> <i_m_source_file_index>
2607

> <i_lp_mmshare_version>
43012

> <i_f3d_flags>
0

> <s_epik_input>
Tz1DMVtOSF1DKD1PKVtOSF1bQ0BAXTEoW0NIM10pYzJbY0hdbltjSF1bY0hdbjI=

> <s_epik_cmdline>
J2VwaWtfcHl0aG9uJywgJy1waCcsICc3LjAnLCAnLXRuJywgJzgnLCAnLW1hJywgJzIwMCcsICctbWV0YWxfYmluZGluZycsICctaW1hZScsICc8aW5maWxlLm1hZT4nLCAnLW9tYWUnLCAnPG91dGZpbGUubWFlPic=

> <r_lp_tautomer_probability>
1

> <r_epik_Ionization_Penalty>
4.70687

> <r_epik_Ionization_Penalty_Charging>
4.70687

> <r_epik_Ionization_Penalty_Neutral>
2.29475e-06

> <r_epik_State_Penalty>
4.73416

> <r_epik_Charging_Adjusted_Penalty>
9.44103

> <i_epik_Tot_Q>
-1

> <i_epik_Tot_abs_Q>
1

> <r_epik_Metal_State_Penalty>
1.2389

> <b_epik_Metal_Only>
1

> <s_lp_Force_Field>
OPLS_2005

> <r_lp_Energy>
21.97

> <b_lp_Chiralities_Consistent>
1

> <s_lp_Variant>
AV-unprocessed.smi:2607-6

> <Gold.Version>
5.8.1

> <Gold.Id.Protein>
6NUR|6NUR_protein|mol2

> <Gold.PLP.Fitness>
27.8112

> <Gold.PLP.PLP>
-19.0457

> <Gold.PLP.part.hbond>
-2.2770

> <Gold.PLP.part.metal>
0.0000

> <Gold.PLP.part.buried>
-3.1512

> <Gold.PLP.part.nonpolar>
-13.7004

> <Gold.PLP.part.repulsive>
0.0231

> <Gold.PLP.ligand.clash>
0.0000

> <Gold.PLP.ligand.torsion>
0.1443

> <Gold.PLP.Chemscore.Hbond>
3.0000

> <Gold.PLP.Chemscore.CHOScore>
0.0000

> <Gold.PLP.Chemscore.Metal>
0.0000

> <Gold.Chemscore.Hbonds>
donor molecule, donor type, donor heavy atom, donor atom, acceptor molecule, acceptor atom, score
      P1  H  6896  6909       L1     9  2.00
      P1  H  6931  6943       L1     5  1.00

> <Gold.PLP.Chemscore.Internal.Correction>
0.0541

> <Gold.Rescore>
     Score         DG    S(hbond)    S(metal)    S(lipo)     H(rot)  DE(clash)    DE(int)     intcor
     11.81     -13.15       1.85        0.00      34.69       1.00       0.01       1.33       ----

> <Gold.Chemscore.Fitness>
11.8108

> <Gold.Chemscore.DG>
-13.1498

> <Gold.Chemscore.ZeroCoef>
-5.4800

> <Gold.Chemscore.Hbond>
1.8477

> <Gold.Chemscore.Metal>
0.0000

> <Gold.Chemscore.Lipo>
34.6872

> <Gold.Chemscore.Internal_Hbond>
0.0000

> <Gold.Chemscore.DEClash>
0.0089

> <Gold.Chemscore.DEInternal>
1.3301

> <Gold.Chemscore.Rot>
1.0000

> <Gold.Chemscore.Internal.Correction>
   9.000000E+99

> <Gold.Chemscore.Hbonds>
donor molecule, donor type, donor heavy atom, donor atom, acceptor molecule, acceptor atom, score
      P1  H  6896  6909       L1     9  0.85
      P1  H  6931  6943       L1     5  0.93

> <Gold.Chemscore.Hbond.Weighted>
-6.1714

> <Gold.Chemscore.Metal.Weighted>
-0.0000

> <Gold.Chemscore.Lipo.Weighted>
-4.0584

> <Gold.Chemscore.Internal_Hbond.Weighted>
0.0000

> <Gold.Chemscore.DEClash.Weighted>
0.0089

> <Gold.Chemscore.DEInternal.Weighted>
1.3301

> <Gold.Chemscore.Rot.Weighted>
2.5600

> <Gold.Chemscore.Internal.Correction.Weighted>
   9.000000E+99

> <Gold.Protein.RotatedTorsions>
[ 6907 6896 6895 6894 ] final   13.50 input  -60.11 | X-H torsion
[ 7974 7965 7964 7962 ] final  -48.11 input  175.53 | X-H torsion
[ 8008 7997 7996 7995 ] final  141.81 input   59.86 | X-H torsion
[ 10167 10162 10161 10158 ] final -115.16 input  -65.29 | X-H torsion
[ 10718 10713 10712 10709 ] final   90.69 input   66.30 | X-H torsion
[ 10763 10752 10751 10750 ] final  -36.01 input  -60.55 | X-H torsion
[ 11005 11000 10999 10996 ] final   -5.61 input  -57.11 | X-H torsion

> <Gold.Protein.ActiveResidues>
 VAL166  LYS551  ARG553  GLY616  TRP617  ASP618  TYR619  PRO620  LYS621  CYS622 
 ASP623  PHE694  ASN695  SER759  ASP760  ASP761  ALA762  ILE779  LEU786  VAL792 
 PHE793  MET794  SER795  GLU796  ALA797  LYS798  CYS799  TRP800  GLU811  SER814 

> <Gold.Protein.RotatedAtoms>
  151.7873  135.0745  160.0381 H   0  0  0  0  0  0  0  0  0  0  0  0  # atno 6907 bound_to 6896
  152.3181  133.5820  159.5734 H   0  0  0  0  0  0  0  0  0  0  0  0  # atno 6908 bound_to 6896
  150.7355  133.9968  159.3667 H   0  0  0  0  0  0  0  0  0  0  0  0  # atno 6909 bound_to 6896
  145.9545  140.7539  142.9488 H   0  0  0  0  0  0  0  0  0  0  0  0  # atno 7974 bound_to 7965
  156.2960  140.2305  156.4625 H   0  0  0  0  0  0  0  0  0  0  0  0  # atno 8008 bound_to 7997
  154.8006  140.0448  157.1291 H   0  0  0  0  0  0  0  0  0  0  0  0  # atno 8009 bound_to 7997
  154.9538  140.3045  155.5066 H   0  0  0  0  0  0  0  0  0  0  0  0  # atno 8010 bound_to 7997
  140.0931  143.4681  152.1858 H   0  0  0  0  0  0  0  0  0  0  0  0  # atno 10167 bound_to 10162
  157.6959  131.0380  150.3615 H   0  0  0  0  0  0  0  0  0  0  0  0  # atno 10718 bound_to 10713
  153.8727  135.6829  153.4773 H   0  0  0  0  0  0  0  0  0  0  0  0  # atno 10763 bound_to 10752
  153.1278  135.4711  154.9298 H   0  0  0  0  0  0  0  0  0  0  0  0  # atno 10764 bound_to 10752
  154.7706  135.3237  154.8148 H   0  0  0  0  0  0  0  0  0  0  0  0  # atno 10765 bound_to 10752
  140.6931  133.9054  155.8631 H   0  0  0  0  0  0  0  0  0  0  0  0  # atno 11005 bound_to 11000
  144.6802  140.2490  143.7334 LP  0  0  0  0  0  0  0  0  0  0  0  0  # atno 17320 bound_to 7965
  145.8125  139.2009  143.1985 LP  0  0  0  0  0  0  0  0  0  0  0  0  # atno 17321 bound_to 7965
  139.5713  144.7464  151.3883 LP  0  0  0  0  0  0  0  0  0  0  0  0  # atno 17342 bound_to 10162
  140.7018  143.7613  150.7415 LP  0  0  0  0  0  0  0  0  0  0  0  0  # atno 17343 bound_to 10162
  156.4051  130.3923  149.6931 LP  0  0  0  0  0  0  0  0  0  0  0  0  # atno 17370 bound_to 10713
  156.4235  130.7780  151.2798 LP  0  0  0  0  0  0  0  0  0  0  0  0  # atno 17371 bound_to 10713
  141.0225  134.0869  157.4104 LP  0  0  0  0  0  0  0  0  0  0  0  0  # atno 17394 bound_to 11000
  139.8918  135.0120  156.6810 LP  0  0  0  0  0  0  0  0  0  0  0  0  # atno 17395 bound_to 11000

$$$$
