AV-unprocessed.smi:44|AV-procd|sdf|406|dock4
  -GOLD-   2262016263D 1   1.00000     0.00000
 Structure written by MMmdl.
 28 30  0  0  0  0  0  0  0  0  2 V2000
  153.6231  136.6223  156.4695 O   0  0  0  0  0  0  0  0  0  0  0  0
  152.8776  137.4199  155.9042 C   0  0  0  0  0  0  0  0  0  0  0  0
  152.2626  137.2100  154.6968 N   0  5  0  0  0  0  0  0  0  0  0  0
  151.4363  138.1970  154.1630 C   0  0  0  0  0  0  0  0  0  0  0  0
  151.1535  139.3477  154.6720 N   0  0  0  0  0  0  0  0  0  0  0  0
  151.7624  139.5850  155.8869 C   0  0  0  0  0  0  0  0  0  0  0  0
  152.5980  138.7312  156.5548 C   0  0  0  0  0  0  0  0  0  0  0  0
  153.0304  139.2860  157.7530 N   0  0  0  0  0  0  0  0  0  0  0  0
  152.4219  140.4721  157.7470 C   0  0  0  0  0  0  0  0  0  0  0  0
  151.6549  140.7301  156.6660 N   0  0  0  0  0  0  0  0  0  0  0  0
  150.8497  141.9556  156.3589 C   0  0  2  0  0  0  0  0  0  0  0  0
  149.7164  142.0930  157.3763 C   0  0  0  0  0  0  0  0  0  0  0  0
  148.6316  141.2678  156.7219 C   0  0  0  0  0  0  0  0  0  0  0  0
  148.8317  141.6228  155.2487 C   0  0  2  0  0  0  0  0  0  0  0  0
  148.3011  140.5505  154.2852 C   0  0  0  0  0  0  0  0  0  0  0  0
  148.4826  140.9672  152.9492 O   0  0  0  0  0  0  0  0  0  0  0  0
  150.2456  141.7826  155.1083 O   0  0  0  0  0  0  0  0  0  0  0  0
  151.5721  142.7725  156.3675 H   0  0  0  0  0  0  0  0  0  0  0  0
  148.3533  142.5852  155.0572 H   0  0  0  0  0  0  0  0  0  0  0  0
  151.0124  137.8951  153.2019 H   0  0  0  0  0  0  0  0  0  0  0  0
  152.5418  141.1724  158.5591 H   0  0  0  0  0  0  0  0  0  0  0  0
  150.0034  141.7464  158.3698 H   0  0  0  0  0  0  0  0  0  0  0  0
  149.4229  143.1418  157.4367 H   0  0  0  0  0  0  0  0  0  0  0  0
  148.8097  140.2051  156.8945 H   0  0  0  0  0  0  0  0  0  0  0  0
  147.6329  141.5100  157.0858 H   0  0  0  0  0  0  0  0  0  0  0  0
  148.7817  139.5869  154.4511 H   0  0  0  0  0  0  0  0  0  0  0  0
  147.2312  140.4075  154.4391 H   0  0  0  0  0  0  0  0  0  0  0  0
  148.8094  140.2362  152.4475 H   0  0  0  0  0  0  0  0  0  0  0  0
  1  2  2  0  0  0  0
  2  7  1  0  0  0  0
  2  3  1  0  0  0  0
  3  4  1  0  0  0  0
  4  5  2  0  0  0  0
  4 20  1  0  0  0  0
  5  6  1  0  0  0  0
  6 10  1  0  0  0  0
  6  7  2  0  0  0  0
  7  8  1  0  0  0  0
  8  9  2  0  0  0  0
  9 10  1  0  0  0  0
  9 21  1  0  0  0  0
 10 11  1  0  0  0  0
 11 18  1  0  0  0  0
 11 17  1  0  0  0  0
 11 12  1  0  0  0  0
 12 13  1  0  0  0  0
 12 22  1  0  0  0  0
 12 23  1  0  0  0  0
 13 14  1  0  0  0  0
 13 24  1  0  0  0  0
 13 25  1  0  0  0  0
 14 19  1  0  0  0  0
 14 15  1  0  0  0  0
 14 17  1  0  0  0  0
 15 16  1  0  0  0  0
 15 26  1  0  0  0  0
 15 27  1  0  0  0  0
 16 28  1  0  0  0  0
M  CHG  1   3  -1
M  END
> <s_m_source_file>
AV-unprocessed.smi

> <i_m_source_file_index>
44

> <i_lp_mmshare_version>
43012

> <i_f3d_flags>
0

> <s_epik_input>
bjFbY0hdW25IXWMoPU8pYyhjMTIpbltjSF1uMltDQEhdM1tDSDJdW0NIMl1bQ0BIXShPMylbQ0gyXVtPSF0=

> <s_epik_cmdline>
J2VwaWtfcHl0aG9uJywgJy1waCcsICc3LjAnLCAnLXRuJywgJzgnLCAnLW1hJywgJzIwMCcsICctbWV0YWxfYmluZGluZycsICctaW1hZScsICc8aW5maWxlLm1hZT4nLCAnLW9tYWUnLCAnPG91dGZpbGUubWFlPic=

> <r_lp_tautomer_probability>
0.85571

> <r_epik_Ionization_Penalty>
2.55863

> <r_epik_Ionization_Penalty_Charging>
1.36424e-10

> <r_epik_Ionization_Penalty_Neutral>
2.55863

> <r_epik_State_Penalty>
2.63326

> <r_epik_Charging_Adjusted_Penalty>
2.63326

> <i_epik_Tot_Q>
-1

> <i_epik_Tot_abs_Q>
1

> <r_epik_Metal_State_Penalty>
0.475154

> <b_epik_Metal_Only>
1

> <s_epik_Chemistry_Notes>
This compound contains an acetal/aminal-like group ( X-CH(R)-Y where X, Y are N, S, or O) that may be acid/base labile, releasing an aldehyde.

> <s_lp_Force_Field>
OPLS_2005

> <r_lp_Energy>
44.8592

> <b_lp_Chiralities_Consistent>
1

> <s_lp_Variant>
AV-unprocessed.smi:44-12

> <Gold.Version>
5.8.1

> <Gold.Id.Protein>
6NUR|6NUR_protein|mol2

> <Gold.PLP.Fitness>
40.7965

> <Gold.PLP.PLP>
-22.1042

> <Gold.PLP.part.hbond>
-6.2184

> <Gold.PLP.part.metal>
0.0000

> <Gold.PLP.part.buried>
3.4132

> <Gold.PLP.part.nonpolar>
-18.1328

> <Gold.PLP.part.repulsive>
0.3390

> <Gold.PLP.ligand.clash>
0.0000

> <Gold.PLP.ligand.torsion>
0.0435

> <Gold.PLP.Chemscore.Hbond>
5.2824

> <Gold.PLP.Chemscore.CHOScore>
0.9709

> <Gold.PLP.Chemscore.Metal>
0.0000

> <Gold.Chemscore.Hbonds>
donor molecule, donor type, donor heavy atom, donor atom, acceptor molecule, acceptor atom, score
      L1  H    16    28       P1  7957  0.70
      P1  H  7989  7998       L1     5  1.00
      P1  H  7997  8008       L1     8  0.63
      P1  H  8011  8017       L1    16  0.93
      P1  H 10752 10764       L1     3  1.50
      P1  H 10752 10765       L1     1  0.48
      L1  C     4    20       P1  7948  0.02
      L1  C     4    20       P1  7949  0.92

> <Gold.PLP.Chemscore.Internal.Correction>
0.0195

> <Gold.Rescore>
     Score         DG    S(hbond)    S(metal)    S(lipo)     H(rot)  DE(clash)    DE(int)     intcor
      7.83     -10.76       2.35        0.00      27.30       2.26       1.32       1.61       ----

> <Gold.Chemscore.Fitness>
7.8296

> <Gold.Chemscore.DG>
-10.7561

> <Gold.Chemscore.ZeroCoef>
-5.4800

> <Gold.Chemscore.Hbond>
2.3547

> <Gold.Chemscore.Metal>
0.0000

> <Gold.Chemscore.Lipo>
27.2972

> <Gold.Chemscore.Internal_Hbond>
0.0000

> <Gold.Chemscore.DEClash>
1.3154

> <Gold.Chemscore.DEInternal>
1.6111

> <Gold.Chemscore.Rot>
2.2588

> <Gold.Chemscore.Internal.Correction>
   9.000000E+99

> <Gold.Chemscore.Hbonds>
donor molecule, donor type, donor heavy atom, donor atom, acceptor molecule, acceptor atom, score
      L1  H    16    28       P1  7957  0.66
      P1  H  7989  7998       L1     5  0.50
      P1  H  7997  8008       L1     8  0.01
      P1  H  8011  8017       L1    16  0.19
      P1  H 10752 10764       L1     3  0.19
      P1  H 10752 10765       L1     1  0.39

> <Gold.Chemscore.Hbond.Weighted>
-7.8648

> <Gold.Chemscore.Metal.Weighted>
-0.0000

> <Gold.Chemscore.Lipo.Weighted>
-3.1938

> <Gold.Chemscore.Internal_Hbond.Weighted>
0.0000

> <Gold.Chemscore.DEClash.Weighted>
1.3154

> <Gold.Chemscore.DEInternal.Weighted>
1.6111

> <Gold.Chemscore.Rot.Weighted>
5.7825

> <Gold.Chemscore.Internal.Correction.Weighted>
   9.000000E+99

> <Gold.Protein.RotatedTorsions>
[ 6907 6896 6895 6894 ] final -119.10 input  -60.11 | X-H torsion
[ 7974 7965 7964 7962 ] final  -92.98 input  175.53 | X-H torsion
[ 8008 7997 7996 7995 ] final  -99.87 input   59.86 | X-H torsion
[ 10167 10162 10161 10158 ] final -144.91 input  -65.29 | X-H torsion
[ 10718 10713 10712 10709 ] final   28.26 input   66.30 | X-H torsion
[ 10763 10752 10751 10750 ] final  -80.09 input  -60.55 | X-H torsion
[ 11005 11000 10999 10996 ] final  136.47 input  -57.11 | X-H torsion

> <Gold.Protein.ActiveResidues>
 VAL166  LYS551  ARG553  GLY616  TRP617  ASP618  TYR619  PRO620  LYS621  CYS622 
 ASP623  PHE694  ASN695  SER759  ASP760  ASP761  ALA762  ILE779  LEU786  VAL792 
 PHE793  MET794  SER795  GLU796  ALA797  LYS798  CYS799  TRP800  GLU811  SER814 

> <Gold.Protein.RotatedAtoms>
  150.8276  133.8145  159.3111 H   0  0  0  0  0  0  0  0  0  0  0  0  # atno 6907 bound_to 6896
  151.5884  135.1053  160.0043 H   0  0  0  0  0  0  0  0  0  0  0  0  # atno 6908 bound_to 6896
  152.4360  133.7319  159.6649 H   0  0  0  0  0  0  0  0  0  0  0  0  # atno 6909 bound_to 6896
  145.3926  140.9530  143.2331 H   0  0  0  0  0  0  0  0  0  0  0  0  # atno 7974 bound_to 7965
  154.8207  140.0445  157.1409 H   0  0  0  0  0  0  0  0  0  0  0  0  # atno 8008 bound_to 7997
  154.9263  140.3033  155.5170 H   0  0  0  0  0  0  0  0  0  0  0  0  # atno 8009 bound_to 7997
  156.2980  140.2331  156.4318 H   0  0  0  0  0  0  0  0  0  0  0  0  # atno 8010 bound_to 7997
  139.7855  143.8040  152.2644 H   0  0  0  0  0  0  0  0  0  0  0  0  # atno 10167 bound_to 10162
  157.2311  130.7024  149.6314 H   0  0  0  0  0  0  0  0  0  0  0  0  # atno 10718 bound_to 10713
  154.5468  135.5673  153.6887 H   0  0  0  0  0  0  0  0  0  0  0  0  # atno 10763 bound_to 10752
  152.9978  135.6241  154.2428 H   0  0  0  0  0  0  0  0  0  0  0  0  # atno 10764 bound_to 10752
  154.2361  135.2864  155.2851 H   0  0  0  0  0  0  0  0  0  0  0  0  # atno 10765 bound_to 10752
  140.0048  134.9464  157.0151 H   0  0  0  0  0  0  0  0  0  0  0  0  # atno 11005 bound_to 11000
  144.8429  139.5443  143.6892 LP  0  0  0  0  0  0  0  0  0  0  0  0  # atno 17320 bound_to 7965
  146.2790  139.6827  142.9242 LP  0  0  0  0  0  0  0  0  0  0  0  0  # atno 17321 bound_to 7965
  139.8116  144.7333  150.9690 LP  0  0  0  0  0  0  0  0  0  0  0  0  # atno 17342 bound_to 10162
  140.7819  143.4245  151.0789 LP  0  0  0  0  0  0  0  0  0  0  0  0  # atno 17343 bound_to 10162
  155.9675  130.4488  150.5636 LP  0  0  0  0  0  0  0  0  0  0  0  0  # atno 17370 bound_to 10713
  157.3477  131.0728  151.1738 LP  0  0  0  0  0  0  0  0  0  0  0  0  # atno 17371 bound_to 10713
  140.4661  134.1434  155.7197 LP  0  0  0  0  0  0  0  0  0  0  0  0  # atno 17394 bound_to 11000
  141.1669  133.8686  157.1688 LP  0  0  0  0  0  0  0  0  0  0  0  0  # atno 17395 bound_to 11000

$$$$
