AV-unprocessed.smi:2711|AV-procd|sdf|10473|dock8
  -GOLD-   2272014513D 1   1.00000     0.00000
 Structure written by MMmdl.
 33 34  0  0  0  0  0  0  0  0  2 V2000
  145.3846  134.4864  161.9532 C   0  0  0  0  0  0  0  0  0  0  0  0
  146.4313  135.3231  161.2990 C   0  0  0  0  0  0  0  0  0  0  0  0
  146.6135  136.6768  161.4150 C   0  0  0  0  0  0  0  0  0  0  0  0
  147.6896  137.1644  160.6717 N   0  0  0  0  0  0  0  0  0  0  0  0
  148.3416  136.2133  159.9947 C   0  0  0  0  0  0  0  0  0  0  0  0
  149.4015  136.4693  159.2104 N   0  5  0  0  0  0  0  0  0  0  0  0
  149.5528  137.6929  158.6544 C   0  0  0  0  0  0  0  0  0  0  0  0
  148.6595  138.5176  158.4469 O   0  0  0  0  0  0  0  0  0  0  0  0
  150.8190  137.9790  158.3165 N   0  0  0  0  0  0  0  0  0  0  0  0
  151.2832  139.2203  157.6990 C   0  0  0  0  0  0  0  0  0  0  0  0
  152.4673  139.8699  158.4390 C   0  0  0  0  0  0  0  0  0  0  0  0
  153.5127  139.2387  158.6047 O   0  0  0  0  0  0  0  0  0  0  0  0
  152.3244  141.1391  158.8743 N   0  0  0  0  0  0  0  0  0  0  0  0
  151.1367  141.9741  158.6992 C   0  0  0  0  0  0  0  0  0  0  0  0
  151.5548  143.3817  159.1252 C   0  0  0  0  0  0  0  0  0  0  0  0
  152.7047  143.1511  160.0957 C   0  0  0  0  0  0  0  0  0  0  0  0
  153.3679  141.8694  159.5912 C   0  0  0  0  0  0  0  0  0  0  0  0
  147.6237  134.6192  160.2401 S   0  0  0  0  0  0  0  0  0  0  0  0
  145.6504  134.2783  162.9895 H   0  0  0  0  0  0  0  0  0  0  0  0
  145.2637  133.5334  161.4377 H   0  0  0  0  0  0  0  0  0  0  0  0
  144.4208  134.9955  161.9465 H   0  0  0  0  0  0  0  0  0  0  0  0
  146.0266  137.3687  162.0008 H   0  0  0  0  0  0  0  0  0  0  0  0
  151.5185  137.2779  158.5113 H   0  0  0  0  0  0  0  0  0  0  0  0
  151.5937  138.9914  156.6795 H   0  0  0  0  0  0  0  0  0  0  0  0
  150.4513  139.9223  157.6246 H   0  0  0  0  0  0  0  0  0  0  0  0
  150.7722  141.9681  157.6710 H   0  0  0  0  0  0  0  0  0  0  0  0
  150.3415  141.6014  159.3465 H   0  0  0  0  0  0  0  0  0  0  0  0
  151.9165  143.9342  158.2569 H   0  0  0  0  0  0  0  0  0  0  0  0
  150.7358  143.9511  159.5660 H   0  0  0  0  0  0  0  0  0  0  0  0
  153.3948  143.9939  160.1440 H   0  0  0  0  0  0  0  0  0  0  0  0
  152.3072  142.9867  161.0982 H   0  0  0  0  0  0  0  0  0  0  0  0
  153.7842  141.2872  160.4148 H   0  0  0  0  0  0  0  0  0  0  0  0
  154.1772  142.1030  158.8976 H   0  0  0  0  0  0  0  0  0  0  0  0
  1  2  1  0  0  0  0
  1 19  1  0  0  0  0
  1 20  1  0  0  0  0
  1 21  1  0  0  0  0
  2 18  1  0  0  0  0
  2  3  2  0  0  0  0
  3  4  1  0  0  0  0
  3 22  1  0  0  0  0
  4  5  2  0  0  0  0
  5  6  1  0  0  0  0
  5 18  1  0  0  0  0
  6  7  1  0  0  0  0
  7  8  2  0  0  0  0
  7  9  1  0  0  0  0
  9 10  1  0  0  0  0
  9 23  1  0  0  0  0
 10 11  1  0  0  0  0
 10 24  1  0  0  0  0
 10 25  1  0  0  0  0
 11 12  2  0  0  0  0
 11 13  1  0  0  0  0
 13 17  1  0  0  0  0
 13 14  1  0  0  0  0
 14 15  1  0  0  0  0
 14 26  1  0  0  0  0
 14 27  1  0  0  0  0
 15 16  1  0  0  0  0
 15 28  1  0  0  0  0
 15 29  1  0  0  0  0
 16 17  1  0  0  0  0
 16 30  1  0  0  0  0
 16 31  1  0  0  0  0
 17 32  1  0  0  0  0
 17 33  1  0  0  0  0
M  CHG  1   6  -1
M  END
> <s_m_source_file>
AV-unprocessed.smi

> <i_m_source_file_index>
2711

> <i_lp_mmshare_version>
43012

> <i_f3d_flags>
0

> <s_epik_input>
W0NIM11jMVtjSF1uYyhzMSlbTkhdQyg9TylbTkhdW0NIMl1DKD1PKU4yW0NIMl1bQ0gyXVtDSDJdW0NIMl0y

> <s_epik_cmdline>
J2VwaWtfcHl0aG9uJywgJy1waCcsICc3LjAnLCAnLXRuJywgJzgnLCAnLW1hJywgJzIwMCcsICctbWV0YWxfYmluZGluZycsICctaW1hZScsICc8aW5maWxlLm1hZT4nLCAnLW9tYWUnLCAnPG91dGZpbGUubWFlPic=

> <r_lp_tautomer_probability>
1

> <r_epik_Ionization_Penalty>
6.8506

> <r_epik_Ionization_Penalty_Charging>
5.74941

> <r_epik_Ionization_Penalty_Neutral>
1.10119

> <r_epik_State_Penalty>
5.74937

> <r_epik_Charging_Adjusted_Penalty>
11.4988

> <i_epik_Tot_Q>
-1

> <i_epik_Tot_abs_Q>
1

> <r_epik_Metal_State_Penalty>
1.72493

> <b_epik_Metal_Only>
1

> <s_lp_Force_Field>
OPLS_2005

> <r_lp_Energy>
20.4432

> <b_lp_Chiralities_Consistent>
1

> <s_lp_Variant>
AV-unprocessed.smi:2711-2

> <Gold.Version>
5.8.1

> <Gold.Id.Protein>
6NUR|6NUR_protein|mol2

> <Gold.PLP.Fitness>
48.5628

> <Gold.PLP.PLP>
-35.4350

> <Gold.PLP.part.hbond>
-4.9784

> <Gold.PLP.part.metal>
0.0000

> <Gold.PLP.part.buried>
-4.3651

> <Gold.PLP.part.nonpolar>
-26.7376

> <Gold.PLP.part.repulsive>
0.1108

> <Gold.PLP.ligand.clash>
0.0000

> <Gold.PLP.ligand.torsion>
0.2993

> <Gold.PLP.Chemscore.Hbond>
4.5688

> <Gold.PLP.Chemscore.CHOScore>
0.0000

> <Gold.PLP.Chemscore.Metal>
0.0000

> <Gold.Chemscore.Hbonds>
donor molecule, donor type, donor heavy atom, donor atom, acceptor molecule, acceptor atom, score
      P1  H  6896  6907       L1     6  1.11
      P1  H  6931  6943       L1     4  0.64
      P1  H  6934  6947       L1     4  0.65
      P1  H  7997  8010       L1    12  0.93

> <Gold.PLP.Chemscore.Internal.Correction>
0.0200

> <Gold.Rescore>
     Score         DG    S(hbond)    S(metal)    S(lipo)     H(rot)  DE(clash)    DE(int)     intcor
     18.09     -19.87       2.72        0.00      73.96       1.31       0.05       1.72       ----

> <Gold.Chemscore.Fitness>
18.0936

> <Gold.Chemscore.DG>
-19.8685

> <Gold.Chemscore.ZeroCoef>
-5.4800

> <Gold.Chemscore.Hbond>
2.7179

> <Gold.Chemscore.Metal>
0.0000

> <Gold.Chemscore.Lipo>
73.9579

> <Gold.Chemscore.Internal_Hbond>
0.0000

> <Gold.Chemscore.DEClash>
0.0503

> <Gold.Chemscore.DEInternal>
1.7246

> <Gold.Chemscore.Rot>
1.3056

> <Gold.Chemscore.Internal.Correction>
   9.000000E+99

> <Gold.Chemscore.Hbonds>
donor molecule, donor type, donor heavy atom, donor atom, acceptor molecule, acceptor atom, score
      P1  H  6896  6907       L1     6  0.28
      P1  H  6931  6943       L1     4  0.38
      P1  H  6934  6947       L1     4  0.07
      P1  H  7997  8010       L1    12  0.23

> <Gold.Chemscore.Hbond.Weighted>
-9.0777

> <Gold.Chemscore.Metal.Weighted>
-0.0000

> <Gold.Chemscore.Lipo.Weighted>
-8.6531

> <Gold.Chemscore.Internal_Hbond.Weighted>
0.0000

> <Gold.Chemscore.DEClash.Weighted>
0.0503

> <Gold.Chemscore.DEInternal.Weighted>
1.7246

> <Gold.Chemscore.Rot.Weighted>
3.3422

> <Gold.Chemscore.Internal.Correction.Weighted>
   9.000000E+99

> <Gold.Protein.RotatedTorsions>
[ 6907 6896 6895 6894 ] final  -44.01 input  -60.11 | X-H torsion
[ 7974 7965 7964 7962 ] final  -80.47 input  175.53 | X-H torsion
[ 8008 7997 7996 7995 ] final   31.57 input   59.86 | X-H torsion
[ 10167 10162 10161 10158 ] final  175.12 input  -65.29 | X-H torsion
[ 10718 10713 10712 10709 ] final   48.81 input   66.30 | X-H torsion
[ 10763 10752 10751 10750 ] final  111.68 input  -60.55 | X-H torsion
[ 11005 11000 10999 10996 ] final  129.44 input  -57.11 | X-H torsion

> <Gold.Protein.ActiveResidues>
 VAL166  LYS551  ARG553  GLY616  TRP617  ASP618  TYR619  PRO620  LYS621  CYS622 
 ASP623  PHE694  ASN695  SER759  ASP760  ASP761  ALA762  ILE779  LEU786  VAL792 
 PHE793  MET794  SER795  GLU796  ALA797  LYS798  CYS799  TRP800  GLU811  SER814 

> <Gold.Protein.RotatedAtoms>
  150.9375  134.8786  159.7590 H   0  0  0  0  0  0  0  0  0  0  0  0  # atno 6907 bound_to 6896
  152.5065  134.3990  159.9420 H   0  0  0  0  0  0  0  0  0  0  0  0  # atno 6908 bound_to 6896
  151.4013  133.3717  159.2767 H   0  0  0  0  0  0  0  0  0  0  0  0  # atno 6909 bound_to 6896
  145.5595  140.9484  143.1455 H   0  0  0  0  0  0  0  0  0  0  0  0  # atno 7974 bound_to 7965
  155.1086  140.3236  155.4528 H   0  0  0  0  0  0  0  0  0  0  0  0  # atno 8008 bound_to 7997
  156.2697  140.2048  156.6158 H   0  0  0  0  0  0  0  0  0  0  0  0  # atno 8009 bound_to 7997
  154.6774  140.0530  157.0217 H   0  0  0  0  0  0  0  0  0  0  0  0  # atno 8010 bound_to 7997
  139.5166  144.3068  152.0328 H   0  0  0  0  0  0  0  0  0  0  0  0  # atno 10167 bound_to 10162
  157.4724  130.8263  149.8002 H   0  0  0  0  0  0  0  0  0  0  0  0  # atno 10718 bound_to 10713
  153.4669  135.3709  155.2369 H   0  0  0  0  0  0  0  0  0  0  0  0  # atno 10763 bound_to 10752
  154.8757  135.3922  154.3858 H   0  0  0  0  0  0  0  0  0  0  0  0  # atno 10764 bound_to 10752
  153.4441  135.7084  153.6215 H   0  0  0  0  0  0  0  0  0  0  0  0  # atno 10765 bound_to 10752
  139.9615  134.9601  156.9148 H   0  0  0  0  0  0  0  0  0  0  0  0  # atno 11005 bound_to 11000
  144.7490  139.7245  143.7281 LP  0  0  0  0  0  0  0  0  0  0  0  0  # atno 17320 bound_to 7965
  146.1861  139.5077  142.9835 LP  0  0  0  0  0  0  0  0  0  0  0  0  # atno 17321 bound_to 7965
  140.2514  144.4165  150.6220 LP  0  0  0  0  0  0  0  0  0  0  0  0  # atno 17342 bound_to 10162
  140.6222  143.2177  151.6671 LP  0  0  0  0  0  0  0  0  0  0  0  0  # atno 17343 bound_to 10162
  156.0080  130.3846  150.2364 LP  0  0  0  0  0  0  0  0  0  0  0  0  # atno 17370 bound_to 10713
  157.0547  131.0072  151.3242 LP  0  0  0  0  0  0  0  0  0  0  0  0  # atno 17371 bound_to 10713
  140.5489  134.0647  155.7363 LP  0  0  0  0  0  0  0  0  0  0  0  0  # atno 17394 bound_to 11000
  141.1293  133.9330  157.2570 LP  0  0  0  0  0  0  0  0  0  0  0  0  # atno 17395 bound_to 11000

$$$$
