AV-unprocessed.smi:571|AV-procd|sdf|2964|dock6
  -GOLD-   2262023473D 1   1.00000     0.00000
 Structure written by MMmdl.
 44 45  0  0  0  0  0  0  0  0  2 V2000
  150.2043  132.9604  156.2009 C   0  0  0  0  0  0  0  0  0  0  0  0
  149.8625  134.4511  156.0728 C   0  0  1  0  0  0  0  0  0  0  0  0
  149.6340  134.8514  154.5976 C   0  0  0  0  0  0  0  0  0  0  0  0
  149.8728  136.2950  154.3401 N   0  3  0  0  0  0  0  0  0  0  0  0
  151.2643  136.7119  154.6507 C   0  0  0  0  0  0  0  0  0  0  0  0
  151.5127  138.1681  154.2223 C   0  0  0  0  0  0  0  0  0  0  0  0
  150.4984  139.1158  154.8759 C   0  0  0  0  0  0  0  0  0  0  0  0
  149.0697  138.6435  154.5762 C   0  0  0  0  0  0  0  0  0  0  0  0
  148.8743  137.1782  154.9991 C   0  0  0  0  0  0  0  0  0  0  0  0
  148.6827  134.7389  156.8878 N   0  0  0  0  0  0  0  0  0  0  0  0
  148.6781  135.2690  158.1240 C   0  0  0  0  0  0  0  0  0  0  0  0
  149.7077  135.6067  158.7062 O   0  0  0  0  0  0  0  0  0  0  0  0
  147.3245  135.4759  158.8250 C   0  0  0  0  0  0  0  0  0  0  0  0
  147.2802  135.0472  160.2347 N   0  0  0  0  0  0  0  0  0  0  0  0
  147.0132  133.6855  160.4798 C   0  0  0  0  0  0  0  0  0  0  0  0
  146.9502  133.1872  161.7246 C   0  0  0  0  0  0  0  0  0  0  0  0
  147.1634  134.0886  162.8321 C   0  0  0  0  0  0  0  0  0  0  0  0
  147.4245  135.3918  162.6088 C   0  0  0  0  0  0  0  0  0  0  0  0
  147.5016  135.9394  161.2495 C   0  0  0  0  0  0  0  0  0  0  0  0
  147.7581  137.1241  161.0348 O   0  0  0  0  0  0  0  0  0  0  0  0
  151.1005  132.7133  155.6313 H   0  0  0  0  0  0  0  0  0  0  0  0
  149.3928  132.3310  155.8337 H   0  0  0  0  0  0  0  0  0  0  0  0
  150.3914  132.6880  157.2403 H   0  0  0  0  0  0  0  0  0  0  0  0
  150.7163  135.0036  156.4670 H   0  0  0  0  0  0  0  0  0  0  0  0
  150.2580  134.2522  153.9327 H   0  0  0  0  0  0  0  0  0  0  0  0
  148.6014  134.6084  154.3419 H   0  0  0  0  0  0  0  0  0  0  0  0
  151.4529  136.5923  155.7188 H   0  0  0  0  0  0  0  0  0  0  0  0
  151.9692  136.0638  154.1281 H   0  0  0  0  0  0  0  0  0  0  0  0
  152.5270  138.4675  154.4876 H   0  0  0  0  0  0  0  0  0  0  0  0
  151.4404  138.2469  153.1367 H   0  0  0  0  0  0  0  0  0  0  0  0
  150.6596  139.1420  155.9544 H   0  0  0  0  0  0  0  0  0  0  0  0
  150.6440  140.1335  154.5124 H   0  0  0  0  0  0  0  0  0  0  0  0
  148.3514  139.2803  155.0936 H   0  0  0  0  0  0  0  0  0  0  0  0
  148.8640  138.7472  153.5099 H   0  0  0  0  0  0  0  0  0  0  0  0
  147.8637  136.8659  154.7383 H   0  0  0  0  0  0  0  0  0  0  0  0
  148.9629  137.0857  156.0827 H   0  0  0  0  0  0  0  0  0  0  0  0
  147.7896  134.4895  156.4869 H   0  0  0  0  0  0  0  0  0  0  0  0
  147.0503  136.5288  158.7401 H   0  0  0  0  0  0  0  0  0  0  0  0
  146.5643  134.9439  158.2513 H   0  0  0  0  0  0  0  0  0  0  0  0
  146.8690  133.0788  159.5974 H   0  0  0  0  0  0  0  0  0  0  0  0
  146.7457  132.1402  161.8939 H   0  0  0  0  0  0  0  0  0  0  0  0
  147.1125  133.7166  163.8448 H   0  0  0  0  0  0  0  0  0  0  0  0
  147.5806  136.0512  163.4501 H   0  0  0  0  0  0  0  0  0  0  0  0
  149.7607  136.4225  153.3443 H   0  0  0  0  0  0  0  0  0  0  0  0
  1  2  1  0  0  0  0
  1 21  1  0  0  0  0
  1 22  1  0  0  0  0
  1 23  1  0  0  0  0
  2  3  1  0  0  0  0
  2 10  1  0  0  0  0
  2 24  1  0  0  0  0
  3  4  1  0  0  0  0
  3 25  1  0  0  0  0
  3 26  1  0  0  0  0
  4  9  1  0  0  0  0
  4  5  1  0  0  0  0
  4 44  1  0  0  0  0
  5  6  1  0  0  0  0
  5 27  1  0  0  0  0
  5 28  1  0  0  0  0
  6  7  1  0  0  0  0
  6 29  1  0  0  0  0
  6 30  1  0  0  0  0
  7  8  1  0  0  0  0
  7 31  1  0  0  0  0
  7 32  1  0  0  0  0
  8  9  1  0  0  0  0
  8 33  1  0  0  0  0
  8 34  1  0  0  0  0
  9 35  1  0  0  0  0
  9 36  1  0  0  0  0
 10 11  1  0  0  0  0
 10 37  1  0  0  0  0
 11 12  2  0  0  0  0
 11 13  1  0  0  0  0
 13 14  1  0  0  0  0
 13 38  1  0  0  0  0
 13 39  1  0  0  0  0
 14 19  1  0  0  0  0
 14 15  1  0  0  0  0
 15 16  2  0  0  0  0
 15 40  1  0  0  0  0
 16 17  1  0  0  0  0
 16 41  1  0  0  0  0
 17 18  2  0  0  0  0
 17 42  1  0  0  0  0
 18 19  1  0  0  0  0
 18 43  1  0  0  0  0
 19 20  2  0  0  0  0
M  CHG  1   4   1
M  END
> <s_m_source_file>
AV-unprocessed.smi

> <i_m_source_file_index>
571

> <i_lp_mmshare_version>
43012

> <i_f3d_flags>
0

> <s_epik_input>
W0NIMl0xW0NIMl1bQ0gyXVtDSDJdW0NIMl1OMVtDSDJdW0NAQEhdKFtDSDNdKVtOSF1DKD1PKVtDSDJdbjJbY0hdW2NIXVtjSF1bY0hdYzI9Tw==

> <s_epik_cmdline>
J2VwaWtfcHl0aG9uJywgJy1waCcsICc3LjAnLCAnLXRuJywgJzgnLCAnLW1hJywgJzIwMCcsICctbWV0YWxfYmluZGluZycsICctaW1hZScsICc8aW5maWxlLm1hZT4nLCAnLW9tYWUnLCAnPG91dGZpbGUubWFlPic=

> <r_lp_tautomer_probability>
1

> <r_epik_Ionization_Penalty>
0.00237248

> <r_epik_Ionization_Penalty_Charging>
0.0023724

> <r_epik_Ionization_Penalty_Neutral>
8.2065e-08

> <r_epik_State_Penalty>
0.00163922

> <r_epik_Charging_Adjusted_Penalty>
0.00401161

> <i_epik_Tot_Q>
1

> <i_epik_Tot_abs_Q>
1

> <r_epik_Metal_State_Penalty>
-0

> <b_epik_Metal_Only>
0

> <s_lp_Force_Field>
OPLS_2005

> <r_lp_Energy>
32.4052

> <b_lp_Chiralities_Consistent>
1

> <s_lp_Variant>
AV-unprocessed.smi:571-2

> <Gold.Version>
5.8.1

> <Gold.Id.Protein>
6NUR|6NUR_protein|mol2

> <Gold.PLP.Fitness>
48.2810

> <Gold.PLP.PLP>
-36.0379

> <Gold.PLP.part.hbond>
-4.3914

> <Gold.PLP.part.metal>
0.0000

> <Gold.PLP.part.buried>
-2.3105

> <Gold.PLP.part.nonpolar>
-29.5827

> <Gold.PLP.part.repulsive>
0.1008

> <Gold.PLP.ligand.clash>
0.0000

> <Gold.PLP.ligand.torsion>
1.0698

> <Gold.PLP.Chemscore.Hbond>
4.7520

> <Gold.PLP.Chemscore.CHOScore>
0.0000

> <Gold.PLP.Chemscore.Metal>
0.0000

> <Gold.Chemscore.Hbonds>
donor molecule, donor type, donor heavy atom, donor atom, acceptor molecule, acceptor atom, score
      L1  H     4    44       P1  7948  1.90
      P1  H  6896  6909       L1    12  0.94
      P1  H  6931  6943       L1    20  0.94
      P1  H  6934  6947       L1    20  0.86

> <Gold.PLP.Chemscore.Internal.Correction>
0.1266

> <Gold.Rescore>
     Score         DG    S(hbond)    S(metal)    S(lipo)     H(rot)  DE(clash)    DE(int)     intcor
     20.74     -22.07       3.68        0.00      77.12       1.84       0.17       1.16       ----

> <Gold.Chemscore.Fitness>
20.7378

> <Gold.Chemscore.DG>
-22.0700

> <Gold.Chemscore.ZeroCoef>
-5.4800

> <Gold.Chemscore.Hbond>
3.6769

> <Gold.Chemscore.Metal>
0.0000

> <Gold.Chemscore.Lipo>
77.1175

> <Gold.Chemscore.Internal_Hbond>
0.0000

> <Gold.Chemscore.DEClash>
0.1719

> <Gold.Chemscore.DEInternal>
1.1604

> <Gold.Chemscore.Rot>
1.8413

> <Gold.Chemscore.Internal.Correction>
   9.000000E+99

> <Gold.Chemscore.Hbonds>
donor molecule, donor type, donor heavy atom, donor atom, acceptor molecule, acceptor atom, score
      L1  H     4    44       P1  7948  0.21
      P1  H  6896  6909       L1    12  0.91
      P1  H  6931  6943       L1    20  0.91
      P1  H  6934  6947       L1    20  0.83

> <Gold.Chemscore.Hbond.Weighted>
-12.2810

> <Gold.Chemscore.Metal.Weighted>
-0.0000

> <Gold.Chemscore.Lipo.Weighted>
-9.0227

> <Gold.Chemscore.Internal_Hbond.Weighted>
0.0000

> <Gold.Chemscore.DEClash.Weighted>
0.1719

> <Gold.Chemscore.DEInternal.Weighted>
1.1604

> <Gold.Chemscore.Rot.Weighted>
4.7137

> <Gold.Chemscore.Internal.Correction.Weighted>
   9.000000E+99

> <Gold.Protein.RotatedTorsions>
[ 6907 6896 6895 6894 ] final   77.05 input  -60.11 | X-H torsion
[ 7974 7965 7964 7962 ] final  114.03 input  175.53 | X-H torsion
[ 8008 7997 7996 7995 ] final  -29.01 input   59.86 | X-H torsion
[ 10167 10162 10161 10158 ] final  -89.55 input  -65.29 | X-H torsion
[ 10718 10713 10712 10709 ] final  177.67 input   66.30 | X-H torsion
[ 10763 10752 10751 10750 ] final  102.59 input  -60.55 | X-H torsion
[ 11005 11000 10999 10996 ] final   11.42 input  -57.11 | X-H torsion

> <Gold.Protein.ActiveResidues>
 VAL166  LYS551  ARG553  GLY616  TRP617  ASP618  TYR619  PRO620  LYS621  CYS622 
 ASP623  PHE694  ASN695  SER759  ASP760  ASP761  ALA762  ILE779  LEU786  VAL792 
 PHE793  MET794  SER795  GLU796  ALA797  LYS798  CYS799  TRP800  GLU811  SER814 

> <Gold.Protein.RotatedAtoms>
  152.5101  134.3875  159.9372 H   0  0  0  0  0  0  0  0  0  0  0  0  # atno 6907 bound_to 6896
  151.3834  133.3807  159.2720 H   0  0  0  0  0  0  0  0  0  0  0  0  # atno 6908 bound_to 6896
  150.9487  134.8910  159.7717 H   0  0  0  0  0  0  0  0  0  0  0  0  # atno 6909 bound_to 6896
  145.2095  139.2913  143.4275 H   0  0  0  0  0  0  0  0  0  0  0  0  # atno 7974 bound_to 7965
  154.4307  140.1830  156.1181 H   0  0  0  0  0  0  0  0  0  0  0  0  # atno 8008 bound_to 7997
  156.0165  140.3345  155.6969 H   0  0  0  0  0  0  0  0  0  0  0  0  # atno 8009 bound_to 7997
  155.6037  140.0643  157.2716 H   0  0  0  0  0  0  0  0  0  0  0  0  # atno 8010 bound_to 7997
  140.3637  143.2829  151.9584 H   0  0  0  0  0  0  0  0  0  0  0  0  # atno 10167 bound_to 10162
  156.9019  130.9881  151.3034 H   0  0  0  0  0  0  0  0  0  0  0  0  # atno 10718 bound_to 10713
  153.3416  135.4005  155.1576 H   0  0  0  0  0  0  0  0  0  0  0  0  # atno 10763 bound_to 10752
  154.8644  135.3635  154.5338 H   0  0  0  0  0  0  0  0  0  0  0  0  # atno 10764 bound_to 10752
  153.5784  135.7077  153.5534 H   0  0  0  0  0  0  0  0  0  0  0  0  # atno 10765 bound_to 10752
  140.5034  134.0723  155.7799 H   0  0  0  0  0  0  0  0  0  0  0  0  # atno 11005 bound_to 11000
  146.3400  140.2367  142.8594 LP  0  0  0  0  0  0  0  0  0  0  0  0  # atno 17320 bound_to 7965
  144.9869  140.8511  143.5363 LP  0  0  0  0  0  0  0  0  0  0  0  0  # atno 17321 bound_to 7965
  139.4811  144.5970  151.7673 LP  0  0  0  0  0  0  0  0  0  0  0  0  # atno 17342 bound_to 10162
  140.5102  144.1037  150.5993 LP  0  0  0  0  0  0  0  0  0  0  0  0  # atno 17343 bound_to 10162
  157.6021  130.8520  149.8818 LP  0  0  0  0  0  0  0  0  0  0  0  0  # atno 17370 bound_to 10713
  156.0578  130.3705  150.1052 LP  0  0  0  0  0  0  0  0  0  0  0  0  # atno 17371 bound_to 10713
  141.1424  133.9115  157.2296 LP  0  0  0  0  0  0  0  0  0  0  0  0  # atno 17394 bound_to 11000
  139.9700  135.0131  156.9488 LP  0  0  0  0  0  0  0  0  0  0  0  0  # atno 17395 bound_to 11000

$$$$
