AV-unprocessed.smi:1925|AV-procd|sdf|7792|dock10
  -GOLD-   22720 9533D 1   1.00000     0.00000
 Structure written by MMmdl.
 31 32  0  0  0  0  0  0  0  0  1 V2000
  150.8894  140.7656  155.9197 O   0  0  0  0  0  0  0  0  0  0  0  0
  150.4303  141.9032  155.8117 C   0  0  0  0  0  0  0  0  0  0  0  0
  149.5876  142.2696  154.8353 N   0  0  0  0  0  0  0  0  0  0  0  0
  149.1005  141.3935  153.7748 C   0  0  0  0  0  0  0  0  0  0  0  0
  147.5645  141.4220  153.6552 C   0  0  2  0  0  0  0  0  0  0  0  0
  146.9665  142.8006  153.4148 C   0  0  0  0  0  0  0  0  0  0  0  0
  145.5880  142.7281  154.0811 C   0  0  0  0  0  0  0  0  0  0  0  0
  145.5183  141.4546  154.7132 O   0  0  0  0  0  0  0  0  0  0  0  0
  146.8390  140.9838  154.9227 C   0  0  0  0  0  0  0  0  0  0  0  0
  150.6948  142.9316  156.6368 N   0  0  0  0  0  0  0  0  0  0  0  0
  151.5485  142.9502  157.7718 C   0  0  0  0  0  0  0  0  0  0  0  0
  151.5787  144.1739  158.4783 C   0  0  0  0  0  0  0  0  0  0  0  0
  152.3962  144.2962  159.6184 C   0  0  0  0  0  0  0  0  0  0  0  0
  153.1646  143.1902  160.0232 C   0  0  0  0  0  0  0  0  0  0  0  0
  153.0775  142.0088  159.2636 C   0  0  0  0  0  0  0  0  0  0  0  0
  152.2941  141.8895  158.1709 N   0  0  0  0  0  0  0  0  0  0  0  0
  149.2583  143.2237  154.8228 H   0  0  0  0  0  0  0  0  0  0  0  0
  149.5584  141.6718  152.8241 H   0  0  0  0  0  0  0  0  0  0  0  0
  149.4399  140.3806  153.9934 H   0  0  0  0  0  0  0  0  0  0  0  0
  147.2485  140.7630  152.8449 H   0  0  0  0  0  0  0  0  0  0  0  0
  147.5673  143.5742  153.8951 H   0  0  0  0  0  0  0  0  0  0  0  0
  146.9036  143.0386  152.3524 H   0  0  0  0  0  0  0  0  0  0  0  0
  145.4767  143.5165  154.8262 H   0  0  0  0  0  0  0  0  0  0  0  0
  144.7779  142.8283  153.3585 H   0  0  0  0  0  0  0  0  0  0  0  0
  146.8609  139.9037  155.0700 H   0  0  0  0  0  0  0  0  0  0  0  0
  147.2604  141.4633  155.8079 H   0  0  0  0  0  0  0  0  0  0  0  0
  150.2340  143.8046  156.4270 H   0  0  0  0  0  0  0  0  0  0  0  0
  150.9821  145.0140  158.1535 H   0  0  0  0  0  0  0  0  0  0  0  0
  152.4325  145.2228  160.1720 H   0  0  0  0  0  0  0  0  0  0  0  0
  153.8036  143.2453  160.8921 H   0  0  0  0  0  0  0  0  0  0  0  0
  153.6515  141.1366  159.5396 H   0  0  0  0  0  0  0  0  0  0  0  0
  1  2  2  0  0  0  0
  2  3  1  0  0  0  0
  2 10  1  0  0  0  0
  3  4  1  0  0  0  0
  3 17  1  0  0  0  0
  4  5  1  0  0  0  0
  4 18  1  0  0  0  0
  4 19  1  0  0  0  0
  5  9  1  0  0  0  0
  5  6  1  0  0  0  0
  5 20  1  0  0  0  0
  6  7  1  0  0  0  0
  6 21  1  0  0  0  0
  6 22  1  0  0  0  0
  7  8  1  0  0  0  0
  7 23  1  0  0  0  0
  7 24  1  0  0  0  0
  8  9  1  0  0  0  0
  9 25  1  0  0  0  0
  9 26  1  0  0  0  0
 10 11  1  0  0  0  0
 10 27  1  0  0  0  0
 11 16  1  0  0  0  0
 11 12  2  0  0  0  0
 12 13  1  0  0  0  0
 12 28  1  0  0  0  0
 13 14  2  0  0  0  0
 13 29  1  0  0  0  0
 14 15  1  0  0  0  0
 14 30  1  0  0  0  0
 15 16  2  0  0  0  0
 15 31  1  0  0  0  0
M  END
> <s_m_source_file>
AV-unprocessed.smi

> <i_m_source_file_index>
1925

> <i_lp_mmshare_version>
43012

> <i_f3d_flags>
0

> <s_epik_input>
bjFbY0hdW2NIXVtjSF1bY0hdYzFbTkhdQyg9TylbTkhdW0NIMl1bQ0BASF0yW0NIMl1bQ0gyXU9bQ0gyXTI=

> <s_epik_cmdline>
J2VwaWtfcHl0aG9uJywgJy1waCcsICc3LjAnLCAnLXRuJywgJzgnLCAnLW1hJywgJzIwMCcsICctbWV0YWxfYmluZGluZycsICctaW1hZScsICc8aW5maWxlLm1hZT4nLCAnLW9tYWUnLCAnPG91dGZpbGUubWFlPic=

> <r_lp_tautomer_probability>
1

> <r_epik_Ionization_Penalty>
4.81143e-05

> <r_epik_Ionization_Penalty_Charging>
0

> <r_epik_Ionization_Penalty_Neutral>
4.81143e-05

> <r_epik_State_Penalty>
-0

> <r_epik_Charging_Adjusted_Penalty>
0

> <i_epik_Tot_Q>
0

> <i_epik_Tot_abs_Q>
0

> <r_epik_Metal_State_Penalty>
-0

> <b_epik_Metal_Only>
0

> <s_lp_Force_Field>
OPLS_2005

> <r_lp_Energy>
20.9741

> <b_lp_Chiralities_Consistent>
1

> <s_lp_Variant>
AV-unprocessed.smi:1925-1

> <Gold.Version>
5.8.1

> <Gold.Id.Protein>
6NUR|6NUR_protein|mol2

> <Gold.PLP.Fitness>
41.8964

> <Gold.PLP.PLP>
-35.9691

> <Gold.PLP.part.hbond>
-2.0000

> <Gold.PLP.part.metal>
0.0000

> <Gold.PLP.part.buried>
-5.1481

> <Gold.PLP.part.nonpolar>
-29.5019

> <Gold.PLP.part.repulsive>
0.4463

> <Gold.PLP.ligand.clash>
0.0000

> <Gold.PLP.ligand.torsion>
0.0377

> <Gold.PLP.Chemscore.Hbond>
2.0000

> <Gold.PLP.Chemscore.CHOScore>
0.0000

> <Gold.PLP.Chemscore.Metal>
0.0000

> <Gold.Chemscore.Hbonds>
donor molecule, donor type, donor heavy atom, donor atom, acceptor molecule, acceptor atom, score
      L1  H     3    17       P1  8028  1.00
      L1  H    10    27       P1  8028  1.00

> <Gold.PLP.Chemscore.Internal.Correction>
0.0027

> <Gold.Rescore>
     Score         DG    S(hbond)    S(metal)    S(lipo)     H(rot)  DE(clash)    DE(int)     intcor
     16.28     -17.61       1.95        0.00      75.67       1.27       0.01       1.32       ----

> <Gold.Chemscore.Fitness>
16.2767

> <Gold.Chemscore.DG>
-17.6120

> <Gold.Chemscore.ZeroCoef>
-5.4800

> <Gold.Chemscore.Hbond>
1.9534

> <Gold.Chemscore.Metal>
0.0000

> <Gold.Chemscore.Lipo>
75.6668

> <Gold.Chemscore.Internal_Hbond>
0.0000

> <Gold.Chemscore.DEClash>
0.0106

> <Gold.Chemscore.DEInternal>
1.3247

> <Gold.Chemscore.Rot>
1.2678

> <Gold.Chemscore.Internal.Correction>
   9.000000E+99

> <Gold.Chemscore.Hbonds>
donor molecule, donor type, donor heavy atom, donor atom, acceptor molecule, acceptor atom, score
      L1  H     3    17       P1  8028  0.96
      L1  H    10    27       P1  8028  0.96

> <Gold.Chemscore.Hbond.Weighted>
-6.5245

> <Gold.Chemscore.Metal.Weighted>
-0.0000

> <Gold.Chemscore.Lipo.Weighted>
-8.8530

> <Gold.Chemscore.Internal_Hbond.Weighted>
0.0000

> <Gold.Chemscore.DEClash.Weighted>
0.0106

> <Gold.Chemscore.DEInternal.Weighted>
1.3247

> <Gold.Chemscore.Rot.Weighted>
3.2455

> <Gold.Chemscore.Internal.Correction.Weighted>
   9.000000E+99

> <Gold.Protein.RotatedTorsions>
[ 6907 6896 6895 6894 ] final -142.93 input  -60.11 | X-H torsion
[ 7974 7965 7964 7962 ] final  164.35 input  175.53 | X-H torsion
[ 8008 7997 7996 7995 ] final  -81.18 input   59.86 | X-H torsion
[ 10167 10162 10161 10158 ] final  -97.87 input  -65.29 | X-H torsion
[ 10718 10713 10712 10709 ] final    6.08 input   66.30 | X-H torsion
[ 10763 10752 10751 10750 ] final -113.51 input  -60.55 | X-H torsion
[ 11005 11000 10999 10996 ] final  136.55 input  -57.11 | X-H torsion

> <Gold.Protein.ActiveResidues>
 VAL166  LYS551  ARG553  GLY616  TRP617  ASP618  TYR619  PRO620  LYS621  CYS622 
 ASP623  PHE694  ASN695  SER759  ASP760  ASP761  ALA762  ILE779  LEU786  VAL792 
 PHE793  MET794  SER795  GLU796  ALA797  LYS798  CYS799  TRP800  GLU811  SER814 

> <Gold.Protein.RotatedAtoms>
  151.0937  133.5296  159.2613 H   0  0  0  0  0  0  0  0  0  0  0  0  # atno 6907 bound_to 6896
  151.2154  135.0497  159.8938 H   0  0  0  0  0  0  0  0  0  0  0  0  # atno 6908 bound_to 6896
  152.5436  134.0746  159.8262 H   0  0  0  0  0  0  0  0  0  0  0  0  # atno 6909 bound_to 6896
  144.7549  139.8314  143.6353 H   0  0  0  0  0  0  0  0  0  0  0  0  # atno 7974 bound_to 7965
  154.5957  140.0652  156.9300 H   0  0  0  0  0  0  0  0  0  0  0  0  # atno 8008 bound_to 7997
  155.2218  140.3331  155.4296 H   0  0  0  0  0  0  0  0  0  0  0  0  # atno 8009 bound_to 7997
  156.2285  140.1830  156.7286 H   0  0  0  0  0  0  0  0  0  0  0  0  # atno 8010 bound_to 7997
  140.2789  143.3295  152.0461 H   0  0  0  0  0  0  0  0  0  0  0  0  # atno 10167 bound_to 10162
  156.9169  130.5776  149.5647 H   0  0  0  0  0  0  0  0  0  0  0  0  # atno 10718 bound_to 10713
  154.8399  135.4451  154.1361 H   0  0  0  0  0  0  0  0  0  0  0  0  # atno 10763 bound_to 10752
  153.2558  135.6931  153.7636 H   0  0  0  0  0  0  0  0  0  0  0  0  # atno 10764 bound_to 10752
  153.6932  135.3384  155.3182 H   0  0  0  0  0  0  0  0  0  0  0  0  # atno 10765 bound_to 10752
  140.0053  134.9461  157.0162 H   0  0  0  0  0  0  0  0  0  0  0  0  # atno 11005 bound_to 11000
  146.1546  139.4640  143.0027 LP  0  0  0  0  0  0  0  0  0  0  0  0  # atno 17320 bound_to 7965
  145.6815  141.0190  143.1604 LP  0  0  0  0  0  0  0  0  0  0  0  0  # atno 17321 bound_to 7965
  139.4968  144.6605  151.6475 LP  0  0  0  0  0  0  0  0  0  0  0  0  # atno 17342 bound_to 10162
  140.5828  143.9916  150.6278 LP  0  0  0  0  0  0  0  0  0  0  0  0  # atno 17343 bound_to 10162
  156.0509  130.5579  150.8987 LP  0  0  0  0  0  0  0  0  0  0  0  0  # atno 17370 bound_to 10713
  157.5932  131.0944  150.9084 LP  0  0  0  0  0  0  0  0  0  0  0  0  # atno 17371 bound_to 10713
  140.4652  134.1443  155.7196 LP  0  0  0  0  0  0  0  0  0  0  0  0  # atno 17394 bound_to 11000
  141.1672  133.8679  157.1678 LP  0  0  0  0  0  0  0  0  0  0  0  0  # atno 17395 bound_to 11000

$$$$
