AV-unprocessed.smi:2100|AV-procd|sdf|8576|dock8
  -GOLD-   2272011303D 1   1.00000     0.00000
 Structure written by MMmdl.
 40 41  0  0  0  0  0  0  0  0  2 V2000
  148.9255  141.5665  154.6133 C   0  0  0  0  0  0  0  0  0  0  0  0
  149.2403  140.1824  155.1910 C   0  0  2  0  0  0  0  0  0  0  0  0
  150.7496  139.8915  155.1873 C   0  0  0  0  0  0  0  0  0  0  0  0
  151.0228  138.5114  155.6302 N   0  0  0  0  0  0  0  0  0  0  0  0
  152.6624  138.1043  156.0327 S   0  0  0  0  0  0  0  0  0  0  0  0
  152.6300  136.7576  156.6259 O   0  0  0  0  0  0  0  0  0  0  0  0
  153.4358  138.2925  154.7940 O   0  0  0  0  0  0  0  0  0  0  0  0
  152.8897  139.2656  157.1384 N   0  5  0  0  0  0  0  0  0  0  0  0
  152.1604  139.2143  158.3938 C   0  0  0  0  0  0  0  0  0  0  0  0
  151.0585  140.2991  158.4122 C   0  0  0  0  0  0  0  0  0  0  0  0
  151.5462  141.7134  158.7236 C   0  0  0  0  0  0  0  0  0  0  0  0
  152.4006  141.9540  159.8243 C   0  0  0  0  0  0  0  0  0  0  0  0
  152.8250  143.2723  160.0756 C   0  0  0  0  0  0  0  0  0  0  0  0
  152.3926  144.2993  159.2153 C   0  0  0  0  0  0  0  0  0  0  0  0
  151.5508  143.9597  158.1377 C   0  0  0  0  0  0  0  0  0  0  0  0
  151.1358  142.6993  157.8883 N   0  0  0  0  0  0  0  0  0  0  0  0
  150.2476  137.5110  154.8790 C   0  0  0  0  0  0  0  0  0  0  0  0
  148.7482  137.8667  154.8361 C   0  0  1  0  0  0  0  0  0  0  0  0
  148.0138  137.5731  156.1569 C   0  0  0  0  0  0  0  0  0  0  0  0
  148.5588  139.2119  154.4045 O   0  0  0  0  0  0  0  0  0  0  0  0
  149.4151  142.3515  155.1904 H   0  0  0  0  0  0  0  0  0  0  0  0
  147.8530  141.7609  154.6299 H   0  0  0  0  0  0  0  0  0  0  0  0
  149.2640  141.6494  153.5802 H   0  0  0  0  0  0  0  0  0  0  0  0
  148.8684  140.1569  156.2154 H   0  0  0  0  0  0  0  0  0  0  0  0
  151.1613  140.0255  154.1863 H   0  0  0  0  0  0  0  0  0  0  0  0
  151.2566  140.6081  155.8329 H   0  0  0  0  0  0  0  0  0  0  0  0
  151.6956  138.2382  158.5362 H   0  0  0  0  0  0  0  0  0  0  0  0
  152.8153  139.3588  159.2538 H   0  0  0  0  0  0  0  0  0  0  0  0
  150.5320  140.3083  157.4568 H   0  0  0  0  0  0  0  0  0  0  0  0
  150.3085  140.0272  159.1559 H   0  0  0  0  0  0  0  0  0  0  0  0
  152.7100  141.1450  160.4701 H   0  0  0  0  0  0  0  0  0  0  0  0
  153.4700  143.4910  160.9137 H   0  0  0  0  0  0  0  0  0  0  0  0
  152.6984  145.3222  159.3769 H   0  0  0  0  0  0  0  0  0  0  0  0
  151.2019  144.7219  157.4568 H   0  0  0  0  0  0  0  0  0  0  0  0
  150.6458  137.4591  153.8651 H   0  0  0  0  0  0  0  0  0  0  0  0
  150.3811  136.5231  155.3194 H   0  0  0  0  0  0  0  0  0  0  0  0
  148.2829  137.2400  154.0748 H   0  0  0  0  0  0  0  0  0  0  0  0
  148.0435  136.5079  156.3865 H   0  0  0  0  0  0  0  0  0  0  0  0
  146.9661  137.8678  156.0937 H   0  0  0  0  0  0  0  0  0  0  0  0
  148.4606  138.0957  157.0025 H   0  0  0  0  0  0  0  0  0  0  0  0
  1  2  1  0  0  0  0
  1 21  1  0  0  0  0
  1 22  1  0  0  0  0
  1 23  1  0  0  0  0
  2 20  1  0  0  0  0
  2  3  1  0  0  0  0
  2 24  1  0  0  0  0
  3  4  1  0  0  0  0
  3 25  1  0  0  0  0
  3 26  1  0  0  0  0
  4  5  1  0  0  0  0
  4 17  1  0  0  0  0
  5  6  2  0  0  0  0
  5  7  2  0  0  0  0
  5  8  1  0  0  0  0
  8  9  1  0  0  0  0
  9 10  1  0  0  0  0
  9 27  1  0  0  0  0
  9 28  1  0  0  0  0
 10 11  1  0  0  0  0
 10 29  1  0  0  0  0
 10 30  1  0  0  0  0
 11 16  1  0  0  0  0
 11 12  2  0  0  0  0
 12 13  1  0  0  0  0
 12 31  1  0  0  0  0
 13 14  2  0  0  0  0
 13 32  1  0  0  0  0
 14 15  1  0  0  0  0
 14 33  1  0  0  0  0
 15 16  2  0  0  0  0
 15 34  1  0  0  0  0
 17 18  1  0  0  0  0
 17 35  1  0  0  0  0
 17 36  1  0  0  0  0
 18 19  1  0  0  0  0
 18 20  1  0  0  0  0
 18 37  1  0  0  0  0
 19 38  1  0  0  0  0
 19 39  1  0  0  0  0
 19 40  1  0  0  0  0
M  CHG  1   8  -1
M  END
> <s_m_source_file>
AV-unprocessed.smi

> <i_m_source_file_index>
2100

> <i_lp_mmshare_version>
43012

> <i_f3d_flags>
0

> <s_epik_input>
W0NIM11bQ0BASF0xW0NIMl1OKFtDSDJdW0NASF0oTzEpW0NIM10pUyg9TykoPU8pW05IXVtDSDJdW0NIMl1jMltjSF1bY0hdW2NIXVtjSF1uMg==

> <s_epik_cmdline>
J2VwaWtfcHl0aG9uJywgJy1waCcsICc3LjAnLCAnLXRuJywgJzgnLCAnLW1hJywgJzIwMCcsICctbWV0YWxfYmluZGluZycsICctaW1hZScsICc8aW5maWxlLm1hZT4nLCAnLW9tYWUnLCAnPG91dGZpbGUubWFlPic=

> <r_epik_Ionization_Penalty>
1.27779

> <r_epik_Ionization_Penalty_Charging>
1.20871

> <r_epik_Ionization_Penalty_Neutral>
0.0690773

> <r_epik_State_Penalty>
1.64557

> <r_epik_Charging_Adjusted_Penalty>
2.85428

> <i_epik_Tot_Q>
-1

> <i_epik_Tot_abs_Q>
1

> <r_epik_Metal_State_Penalty>
0.643506

> <b_epik_Metal_Only>
0

> <s_lp_Force_Field>
OPLS_2005

> <r_lp_Energy>
11.2488

> <b_lp_Chiralities_Consistent>
1

> <s_lp_Variant>
AV-unprocessed.smi:2100-4

> <Gold.Version>
5.8.1

> <Gold.Id.Protein>
6NUR|6NUR_protein|mol2

> <Gold.PLP.Fitness>
48.4965

> <Gold.PLP.PLP>
-37.1714

> <Gold.PLP.part.hbond>
-2.9662

> <Gold.PLP.part.metal>
0.0000

> <Gold.PLP.part.buried>
-4.8401

> <Gold.PLP.part.nonpolar>
-31.6538

> <Gold.PLP.part.repulsive>
0.2816

> <Gold.PLP.ligand.clash>
0.0000

> <Gold.PLP.ligand.torsion>
1.0774

> <Gold.PLP.Chemscore.Hbond>
2.9920

> <Gold.PLP.Chemscore.CHOScore>
0.9984

> <Gold.PLP.Chemscore.Metal>
0.0000

> <Gold.Chemscore.Hbonds>
donor molecule, donor type, donor heavy atom, donor atom, acceptor molecule, acceptor atom, score
      P1  H  7997  8010       L1     8  2.00
      P1  H 10752 10764       L1     6  0.86
      L1  C    15    34       P1  8028  0.10

> <Gold.PLP.Chemscore.Internal.Correction>
1.5088

> <Gold.Rescore>
     Score         DG    S(hbond)    S(metal)    S(lipo)     H(rot)  DE(clash)    DE(int)     intcor
     16.79     -18.17       1.55        0.00      96.35       1.47       0.12       1.26       ----

> <Gold.Chemscore.Fitness>
16.7917

> <Gold.Chemscore.DG>
-18.1748

> <Gold.Chemscore.ZeroCoef>
-5.4800

> <Gold.Chemscore.Hbond>
1.5549

> <Gold.Chemscore.Metal>
0.0000

> <Gold.Chemscore.Lipo>
96.3488

> <Gold.Chemscore.Internal_Hbond>
0.0000

> <Gold.Chemscore.DEClash>
0.1243

> <Gold.Chemscore.DEInternal>
1.2588

> <Gold.Chemscore.Rot>
1.4731

> <Gold.Chemscore.Internal.Correction>
   9.000000E+99

> <Gold.Chemscore.Hbonds>
donor molecule, donor type, donor heavy atom, donor atom, acceptor molecule, acceptor atom, score
      P1  H  7997  8010       L1     8  0.77
      P1  H 10752 10764       L1     6  0.56

> <Gold.Chemscore.Hbond.Weighted>
-5.1932

> <Gold.Chemscore.Metal.Weighted>
-0.0000

> <Gold.Chemscore.Lipo.Weighted>
-11.2728

> <Gold.Chemscore.Internal_Hbond.Weighted>
0.0000

> <Gold.Chemscore.DEClash.Weighted>
0.1243

> <Gold.Chemscore.DEInternal.Weighted>
1.2588

> <Gold.Chemscore.Rot.Weighted>
3.7712

> <Gold.Chemscore.Internal.Correction.Weighted>
   9.000000E+99

> <Gold.Protein.RotatedTorsions>
[ 6907 6896 6895 6894 ] final  151.69 input  -60.11 | X-H torsion
[ 7974 7965 7964 7962 ] final  -85.79 input  175.53 | X-H torsion
[ 8008 7997 7996 7995 ] final   39.06 input   59.86 | X-H torsion
[ 10167 10162 10161 10158 ] final  -73.04 input  -65.29 | X-H torsion
[ 10718 10713 10712 10709 ] final  -46.69 input   66.30 | X-H torsion
[ 10763 10752 10751 10750 ] final   -3.46 input  -60.55 | X-H torsion
[ 11005 11000 10999 10996 ] final   14.74 input  -57.11 | X-H torsion

> <Gold.Protein.ActiveResidues>
 VAL166  LYS551  ARG553  GLY616  TRP617  ASP618  TYR619  PRO620  LYS621  CYS622 
 ASP623  PHE694  ASN695  SER759  ASP760  ASP761  ALA762  ILE779  LEU786  VAL792 
 PHE793  MET794  SER795  GLU796  ALA797  LYS798  CYS799  TRP800  GLU811  SER814 

> <Gold.Protein.RotatedAtoms>
  152.0972  133.4231  159.4570 H   0  0  0  0  0  0  0  0  0  0  0  0  # atno 6907 bound_to 6896
  150.6863  134.2803  159.4633 H   0  0  0  0  0  0  0  0  0  0  0  0  # atno 6908 bound_to 6896
  152.0660  134.9564  160.0625 H   0  0  0  0  0  0  0  0  0  0  0  0  # atno 6909 bound_to 6896
  145.4885  140.9554  143.1825 H   0  0  0  0  0  0  0  0  0  0  0  0  # atno 7974 bound_to 7965
  155.2304  140.3338  155.4304 H   0  0  0  0  0  0  0  0  0  0  0  0  # atno 8008 bound_to 7997
  156.2297  140.1845  156.7319 H   0  0  0  0  0  0  0  0  0  0  0  0  # atno 8009 bound_to 7997
  154.5957  140.0631  156.9286 H   0  0  0  0  0  0  0  0  0  0  0  0  # atno 8010 bound_to 7997
  140.5143  143.2340  151.7540 H   0  0  0  0  0  0  0  0  0  0  0  0  # atno 10167 bound_to 10162
  156.2158  130.4163  149.9056 H   0  0  0  0  0  0  0  0  0  0  0  0  # atno 10718 bound_to 10713
  153.3716  135.6995  153.6633 H   0  0  0  0  0  0  0  0  0  0  0  0  # atno 10763 bound_to 10752
  153.5281  135.3598  155.2663 H   0  0  0  0  0  0  0  0  0  0  0  0  # atno 10764 bound_to 10752
  154.8682  135.4174  154.2996 H   0  0  0  0  0  0  0  0  0  0  0  0  # atno 10765 bound_to 10752
  140.4662  134.1078  155.7724 H   0  0  0  0  0  0  0  0  0  0  0  0  # atno 11005 bound_to 11000
  144.7847  139.6451  143.7139 LP  0  0  0  0  0  0  0  0  0  0  0  0  # atno 17320 bound_to 7965
  146.2298  139.5792  142.9563 LP  0  0  0  0  0  0  0  0  0  0  0  0  # atno 17321 bound_to 7965
  139.4905  144.4346  151.9833 LP  0  0  0  0  0  0  0  0  0  0  0  0  # atno 17342 bound_to 10162
  140.3440  144.3169  150.5961 LP  0  0  0  0  0  0  0  0  0  0  0  0  # atno 17343 bound_to 10162
  156.6719  130.8823  151.3563 LP  0  0  0  0  0  0  0  0  0  0  0  0  # atno 17370 bound_to 10713
  157.7062  130.9388  150.0939 LP  0  0  0  0  0  0  0  0  0  0  0  0  # atno 17371 bound_to 10713
  141.1598  133.8813  157.1878 LP  0  0  0  0  0  0  0  0  0  0  0  0  # atno 17394 bound_to 11000
  139.9914  135.0063  156.9984 LP  0  0  0  0  0  0  0  0  0  0  0  0  # atno 17395 bound_to 11000

$$$$
