AV-unprocessed.smi:1464|AV-procd|sdf|5950|dock1
  -GOLD-   22720 6 33D 1   1.00000     0.00000
 Structure written by MMmdl.
 41 42  0  0  0  0  0  0  0  0  1 V2000
  153.0689  143.0697  162.8866 C   0  0  0  0  0  0  0  0  0  0  0  0
  152.5189  143.0285  161.4496 C   0  0  1  0  0  0  0  0  0  0  0  0
  151.9644  144.4157  161.0642 C   0  0  0  0  0  0  0  0  0  0  0  0
  151.3885  144.4348  159.6422 C   0  0  0  0  0  0  0  0  0  0  0  0
  152.4386  143.9788  158.6195 C   0  0  0  0  0  0  0  0  0  0  0  0
  153.0097  142.5896  158.9663 C   0  0  2  0  0  0  0  0  0  0  0  0
  152.0037  141.5465  158.7619 N   0  0  0  0  0  0  0  0  0  0  0  0
  152.2563  140.2622  158.4684 C   0  0  0  0  0  0  0  0  0  0  0  0
  153.3931  139.8159  158.3079 O   0  0  0  0  0  0  0  0  0  0  0  0
  151.0280  139.3545  158.3116 C   0  0  0  0  0  0  0  0  0  0  0  0
  150.8865  138.8038  156.9562 N   0  0  0  0  0  0  0  0  0  0  0  0
  150.5566  139.7445  155.9922 N   0  0  0  0  0  0  0  0  0  0  0  0
  150.4179  139.3840  154.7610 C   0  0  0  0  0  0  0  0  0  0  0  0
  150.0949  140.3485  153.8383 O   0  0  0  0  0  0  0  0  0  0  0  0
  150.5958  138.0058  154.3595 C   0  0  0  0  0  0  0  0  0  0  0  0
  150.9118  137.0960  155.3069 C   0  0  0  0  0  0  0  0  0  0  0  0
  151.0774  137.4706  156.7125 C   0  0  0  0  0  0  0  0  0  0  0  0
  151.3627  136.6629  157.5965 O   0  0  0  0  0  0  0  0  0  0  0  0
  153.5721  142.5492  160.4111 C   0  0  2  0  0  0  0  0  0  0  0  0
  154.1607  141.1623  160.7417 C   0  0  0  0  0  0  0  0  0  0  0  0
  149.8241  139.8760  153.0660 H   0  0  0  0  0  0  0  0  0  0  0  0
  153.9544  143.7024  162.9546 H   0  0  0  0  0  0  0  0  0  0  0  0
  153.3359  142.0767  163.2468 H   0  0  0  0  0  0  0  0  0  0  0  0
  152.3250  143.4666  163.5781 H   0  0  0  0  0  0  0  0  0  0  0  0
  151.6852  142.3249  161.4422 H   0  0  0  0  0  0  0  0  0  0  0  0
  151.1895  144.7164  161.7702 H   0  0  0  0  0  0  0  0  0  0  0  0
  152.7560  145.1623  161.1424 H   0  0  0  0  0  0  0  0  0  0  0  0
  150.5122  143.7876  159.5901 H   0  0  0  0  0  0  0  0  0  0  0  0
  151.0438  145.4393  159.3955 H   0  0  0  0  0  0  0  0  0  0  0  0
  152.0087  143.9770  157.6171 H   0  0  0  0  0  0  0  0  0  0  0  0
  153.2527  144.7045  158.5967 H   0  0  0  0  0  0  0  0  0  0  0  0
  153.8418  142.3933  158.2873 H   0  0  0  0  0  0  0  0  0  0  0  0
  151.0387  141.8246  158.8672 H   0  0  0  0  0  0  0  0  0  0  0  0
  151.0743  138.5413  159.0388 H   0  0  0  0  0  0  0  0  0  0  0  0
  150.1437  139.9357  158.5791 H   0  0  0  0  0  0  0  0  0  0  0  0
  150.4767  137.7208  153.3247 H   0  0  0  0  0  0  0  0  0  0  0  0
  151.0478  136.0633  155.0207 H   0  0  0  0  0  0  0  0  0  0  0  0
  154.4029  143.2559  160.4433 H   0  0  0  0  0  0  0  0  0  0  0  0
  153.3802  140.4101  160.8600 H   0  0  0  0  0  0  0  0  0  0  0  0
  154.7450  141.1824  161.6611 H   0  0  0  0  0  0  0  0  0  0  0  0
  154.8298  140.8237  159.9502 H   0  0  0  0  0  0  0  0  0  0  0  0
  1  2  1  0  0  0  0
  1 22  1  0  0  0  0
  1 23  1  0  0  0  0
  1 24  1  0  0  0  0
  2 19  1  0  0  0  0
  2  3  1  0  0  0  0
  2 25  1  0  0  0  0
  3  4  1  0  0  0  0
  3 26  1  0  0  0  0
  3 27  1  0  0  0  0
  4  5  1  0  0  0  0
  4 28  1  0  0  0  0
  4 29  1  0  0  0  0
  5  6  1  0  0  0  0
  5 30  1  0  0  0  0
  5 31  1  0  0  0  0
  6  7  1  0  0  0  0
  6 19  1  0  0  0  0
  6 32  1  0  0  0  0
  7  8  1  0  0  0  0
  7 33  1  0  0  0  0
  8  9  2  0  0  0  0
  8 10  1  0  0  0  0
 10 34  1  0  0  0  0
 10 35  1  0  0  0  0
 10 11  1  0  0  0  0
 11 12  1  0  0  0  0
 11 17  1  0  0  0  0
 12 13  2  0  0  0  0
 13 14  1  0  0  0  0
 13 15  1  0  0  0  0
 14 21  1  0  0  0  0
 15 36  1  0  0  0  0
 15 16  2  0  0  0  0
 16 37  1  0  0  0  0
 16 17  1  0  0  0  0
 17 18  2  0  0  0  0
 19 20  1  0  0  0  0
 19 38  1  0  0  0  0
 20 39  1  0  0  0  0
 20 40  1  0  0  0  0
 20 41  1  0  0  0  0
M  END
> <s_m_source_file>
AV-unprocessed.smi

> <i_m_source_file_index>
1464

> <i_lp_mmshare_version>
43012

> <i_f3d_flags>
0

> <s_epik_input>
W0NIM11bQ0BASF0xW0NIMl1bQ0gyXVtDSDJdW0NASF0oW0NASF0xW0NIM10pW05IXUMoPU8pW0NIMl1uMltuSF1jKD1PKVtjSF1bY0hdYzI9Tw==

> <s_epik_cmdline>
J2VwaWtfcHl0aG9uJywgJy1waCcsICc3LjAnLCAnLXRuJywgJzgnLCAnLW1hJywgJzIwMCcsICctbWV0YWxfYmluZGluZycsICctaW1hZScsICc8aW5maWxlLm1hZT4nLCAnLW9tYWUnLCAnPG91dGZpbGUubWFlPic=

> <r_lp_tautomer_probability>
0.9996

> <r_epik_Ionization_Penalty>
2.10335

> <r_epik_Ionization_Penalty_Charging>
3.98079e-08

> <r_epik_Ionization_Penalty_Neutral>
2.10335

> <r_epik_State_Penalty>
1.67957

> <r_epik_Charging_Adjusted_Penalty>
1.67957

> <i_epik_Tot_Q>
0

> <i_epik_Tot_abs_Q>
0

> <r_epik_Metal_State_Penalty>
1.67957

> <b_epik_Metal_Only>
0

> <s_lp_Force_Field>
OPLS_2005

> <r_lp_Energy>
23.2489

> <b_lp_Chiralities_Consistent>
1

> <s_lp_Variant>
AV-unprocessed.smi:1464-16

> <Gold.Version>
5.8.1

> <Gold.Id.Protein>
6NUR|6NUR_protein|mol2

> <Gold.PLP.Fitness>
52.6212

> <Gold.PLP.PLP>
-45.6164

> <Gold.PLP.part.hbond>
-2.8670

> <Gold.PLP.part.metal>
0.0000

> <Gold.PLP.part.buried>
-5.9792

> <Gold.PLP.part.nonpolar>
-36.2464

> <Gold.PLP.part.repulsive>
0.1043

> <Gold.PLP.ligand.clash>
0.0000

> <Gold.PLP.ligand.torsion>
0.4305

> <Gold.PLP.Chemscore.Hbond>
2.6160

> <Gold.PLP.Chemscore.CHOScore>
0.0000

> <Gold.PLP.Chemscore.Metal>
0.0000

> <Gold.Chemscore.Hbonds>
donor molecule, donor type, donor heavy atom, donor atom, acceptor molecule, acceptor atom, score
      L1  H    14    21       P1  7957  0.86
      P1  H  7989  7998       L1    14  0.74
      P1  H  7997  8009       L1     9  1.00

> <Gold.PLP.Chemscore.Internal.Correction>
0.0178

> <Gold.Rescore>
     Score         DG    S(hbond)    S(metal)    S(lipo)     H(rot)  DE(clash)    DE(int)     intcor
     19.82     -20.30       2.18        0.00     113.10       2.22       0.14       0.34       ----

> <Gold.Chemscore.Fitness>
19.8214

> <Gold.Chemscore.DG>
-20.3019

> <Gold.Chemscore.ZeroCoef>
-5.4800

> <Gold.Chemscore.Hbond>
2.1791

> <Gold.Chemscore.Metal>
0.0000

> <Gold.Chemscore.Lipo>
113.1039

> <Gold.Chemscore.Internal_Hbond>
0.0000

> <Gold.Chemscore.DEClash>
0.1370

> <Gold.Chemscore.DEInternal>
0.3436

> <Gold.Chemscore.Rot>
2.2224

> <Gold.Chemscore.Internal.Correction>
   9.000000E+99

> <Gold.Chemscore.Hbonds>
donor molecule, donor type, donor heavy atom, donor atom, acceptor molecule, acceptor atom, score
      L1  H    14    21       P1  7957  0.84
      P1  H  7989  7998       L1    14  0.08
      P1  H  7997  8009       L1     9  0.98

> <Gold.Chemscore.Hbond.Weighted>
-7.2781

> <Gold.Chemscore.Metal.Weighted>
-0.0000

> <Gold.Chemscore.Lipo.Weighted>
-13.2332

> <Gold.Chemscore.Internal_Hbond.Weighted>
0.0000

> <Gold.Chemscore.DEClash.Weighted>
0.1370

> <Gold.Chemscore.DEInternal.Weighted>
0.3436

> <Gold.Chemscore.Rot.Weighted>
5.6893

> <Gold.Chemscore.Internal.Correction.Weighted>
   9.000000E+99

> <Gold.Protein.RotatedTorsions>
[ 6907 6896 6895 6894 ] final   46.51 input  -60.11 | X-H torsion
[ 7974 7965 7964 7962 ] final    8.61 input  175.53 | X-H torsion
[ 8008 7997 7996 7995 ] final  162.29 input   59.86 | X-H torsion
[ 10167 10162 10161 10158 ] final  -51.41 input  -65.29 | X-H torsion
[ 10718 10713 10712 10709 ] final   14.36 input   66.30 | X-H torsion
[ 10763 10752 10751 10750 ] final  -85.12 input  -60.55 | X-H torsion
[ 11005 11000 10999 10996 ] final  167.60 input  -57.11 | X-H torsion

> <Gold.Protein.ActiveResidues>
 VAL166  LYS551  ARG553  GLY616  TRP617  ASP618  TYR619  PRO620  LYS621  CYS622 
 ASP623  PHE694  ASN695  SER759  ASP760  ASP761  ALA762  ILE779  LEU786  VAL792 
 PHE793  MET794  SER795  GLU796  ALA797  LYS798  CYS799  TRP800  GLU811  SER814 

> <Gold.Protein.RotatedAtoms>
  152.2572  134.8071  160.0436 H   0  0  0  0  0  0  0  0  0  0  0  0  # atno 6907 bound_to 6896
  151.8731  133.3474  159.3749 H   0  0  0  0  0  0  0  0  0  0  0  0  # atno 6908 bound_to 6896
  150.7104  134.5020  159.5610 H   0  0  0  0  0  0  0  0  0  0  0  0  # atno 6909 bound_to 6896
  146.2414  139.9907  142.8426 H   0  0  0  0  0  0  0  0  0  0  0  0  # atno 7974 bound_to 7965
  156.2042  140.1754  156.7836 H   0  0  0  0  0  0  0  0  0  0  0  0  # atno 8008 bound_to 7997
  154.5632  140.0696  156.8881 H   0  0  0  0  0  0  0  0  0  0  0  0  # atno 8009 bound_to 7997
  155.2810  140.3349  155.4261 H   0  0  0  0  0  0  0  0  0  0  0  0  # atno 8010 bound_to 7997
  140.6589  143.2620  151.4500 H   0  0  0  0  0  0  0  0  0  0  0  0  # atno 10167 bound_to 10162
  157.0380  130.6220  149.5746 H   0  0  0  0  0  0  0  0  0  0  0  0  # atno 10718 bound_to 10713
  154.6074  135.5496  153.7437 H   0  0  0  0  0  0  0  0  0  0  0  0  # atno 10763 bound_to 10752
  153.0180  135.6381  154.1627 H   0  0  0  0  0  0  0  0  0  0  0  0  # atno 10764 bound_to 10752
  154.1566  135.2899  155.3100 H   0  0  0  0  0  0  0  0  0  0  0  0  # atno 10765 bound_to 10752
  140.2785  134.7769  157.3737 H   0  0  0  0  0  0  0  0  0  0  0  0  # atno 11005 bound_to 11000
  145.1506  140.9621  143.4435 LP  0  0  0  0  0  0  0  0  0  0  0  0  # atno 17320 bound_to 7965
  145.0209  139.3425  143.6073 LP  0  0  0  0  0  0  0  0  0  0  0  0  # atno 17321 bound_to 7965
  139.5818  144.1692  152.1978 LP  0  0  0  0  0  0  0  0  0  0  0  0  # atno 17342 bound_to 10162
  140.1020  144.5531  150.6983 LP  0  0  0  0  0  0  0  0  0  0  0  0  # atno 17343 bound_to 10162
  156.0047  130.5132  150.7789 LP  0  0  0  0  0  0  0  0  0  0  0  0  # atno 17370 bound_to 10713
  157.5126  131.0926  151.0179 LP  0  0  0  0  0  0  0  0  0  0  0  0  # atno 17371 bound_to 10713
  140.1306  134.5100  155.8109 LP  0  0  0  0  0  0  0  0  0  0  0  0  # atno 17394 bound_to 11000
  141.2166  133.6788  156.7032 LP  0  0  0  0  0  0  0  0  0  0  0  0  # atno 17395 bound_to 11000

$$$$
