AV-unprocessed.smi:285|AV-procd|sdf|2172|dock7
  -GOLD-   2262021533D 1   1.00000     0.00000
 Structure written by MMmdl.
 31 33  0  0  0  0  0  0  0  0  1 V2000
  154.2498  137.7876  155.9942 N   0  0  0  0  0  0  0  0  0  0  0  0
  153.0230  138.1242  155.5716 C   0  0  0  0  0  0  0  0  0  0  0  0
  152.4034  137.3115  154.6840 N   0  0  0  0  0  0  0  0  0  0  0  0
  151.1804  137.6255  154.2445 C   0  0  0  0  0  0  0  0  0  0  0  0
  150.4239  138.6801  154.5597 N   0  0  0  0  0  0  0  0  0  0  0  0
  151.0476  139.4989  155.4575 C   0  0  0  0  0  0  0  0  0  0  0  0
  152.3461  139.2907  156.0092 C   0  0  0  0  0  0  0  0  0  0  0  0
  152.6668  140.3215  156.8838 N   0  0  0  0  0  0  0  0  0  0  0  0
  151.6076  141.0802  156.8343 C   0  0  0  0  0  0  0  0  0  0  0  0
  151.5245  142.6840  157.8587 Br  0  0  0  0  0  0  0  0  0  0  0  0
  150.5810  140.6753  156.0108 N   0  0  0  0  0  0  0  0  0  0  0  0
  149.2619  141.3330  155.7562 C   0  0  1  0  0  0  0  0  0  0  0  0
  149.1639  141.8248  154.3131 C   0  0  0  0  0  0  0  0  0  0  0  0
  147.6841  141.6558  154.0430 C   0  0  2  0  0  0  0  0  0  0  0  0
  146.9577  142.7769  154.5150 O   0  0  0  0  0  0  0  0  0  0  0  0
  147.3635  140.3725  154.8276 C   0  0  2  0  0  0  0  0  0  0  0  0
  145.8981  140.2183  155.2728 C   0  0  0  0  0  0  0  0  0  0  0  0
  145.1667  139.4928  154.3077 O   0  0  0  0  0  0  0  0  0  0  0  0
  148.2436  140.3987  155.9524 O   0  0  0  0  0  0  0  0  0  0  0  0
  154.7338  138.3780  156.6554 H   0  0  0  0  0  0  0  0  0  0  0  0
  154.6874  136.9447  155.6513 H   0  0  0  0  0  0  0  0  0  0  0  0
  150.7453  136.9337  153.5384 H   0  0  0  0  0  0  0  0  0  0  0  0
  149.1705  142.1314  156.4922 H   0  0  0  0  0  0  0  0  0  0  0  0
  149.5318  142.8466  154.2119 H   0  0  0  0  0  0  0  0  0  0  0  0
  149.7407  141.1726  153.6560 H   0  0  0  0  0  0  0  0  0  0  0  0
  147.4786  141.5389  152.9785 H   0  0  0  0  0  0  0  0  0  0  0  0
  147.5668  143.4764  154.6956 H   0  0  0  0  0  0  0  0  0  0  0  0
  147.6520  139.5254  154.2026 H   0  0  0  0  0  0  0  0  0  0  0  0
  145.8278  139.7321  156.2464 H   0  0  0  0  0  0  0  0  0  0  0  0
  145.4277  141.1979  155.3631 H   0  0  0  0  0  0  0  0  0  0  0  0
  144.5174  140.0654  153.9287 H   0  0  0  0  0  0  0  0  0  0  0  0
  1  2  1  0  0  0  0
  1 20  1  0  0  0  0
  1 21  1  0  0  0  0
  2  7  1  0  0  0  0
  2  3  2  0  0  0  0
  3  4  1  0  0  0  0
  4  5  2  0  0  0  0
  4 22  1  0  0  0  0
  5  6  1  0  0  0  0
  6 11  1  0  0  0  0
  6  7  2  0  0  0  0
  7  8  1  0  0  0  0
  8  9  2  0  0  0  0
  9 10  1  0  0  0  0
  9 11  1  0  0  0  0
 11 12  1  0  0  0  0
 12 19  1  0  0  0  0
 12 13  1  0  0  0  0
 12 23  1  0  0  0  0
 13 14  1  0  0  0  0
 13 24  1  0  0  0  0
 13 25  1  0  0  0  0
 14 15  1  0  0  0  0
 14 16  1  0  0  0  0
 14 26  1  0  0  0  0
 15 27  1  0  0  0  0
 16 17  1  0  0  0  0
 16 19  1  0  0  0  0
 16 28  1  0  0  0  0
 17 18  1  0  0  0  0
 17 29  1  0  0  0  0
 17 30  1  0  0  0  0
 18 31  1  0  0  0  0
M  END
> <s_m_source_file>
AV-unprocessed.smi

> <i_m_source_file_index>
285

> <i_lp_mmshare_version>
43012

> <i_f3d_flags>
0

> <s_epik_input>
bjFbY0hdbmMoW05IMl0pYyhjMTIpbmMoQnIpbjJbQ0BASF0zW0NIMl1bQ0BASF0oW09IXSlbQ0BIXShPMylbQ0gyXVtPSF0=

> <s_epik_cmdline>
J2VwaWtfcHl0aG9uJywgJy1waCcsICc3LjAnLCAnLXRuJywgJzgnLCAnLW1hJywgJzIwMCcsICctbWV0YWxfYmluZGluZycsICctaW1hZScsICc8aW5maWxlLm1hZT4nLCAnLW9tYWUnLCAnPG91dGZpbGUubWFlPic=

> <r_lp_tautomer_probability>
1

> <r_epik_Ionization_Penalty>
0.000103242

> <r_epik_Ionization_Penalty_Charging>
0

> <r_epik_Ionization_Penalty_Neutral>
0.000103242

> <r_epik_State_Penalty>
-0

> <r_epik_Charging_Adjusted_Penalty>
0

> <i_epik_Tot_Q>
0

> <i_epik_Tot_abs_Q>
0

> <r_epik_Metal_State_Penalty>
-0

> <b_epik_Metal_Only>
0

> <s_epik_Chemistry_Notes>
This compound contains an acetal/aminal-like group ( X-CH(R)-Y where X, Y are N, S, or O) that may be acid/base labile, releasing an aldehyde.

> <s_lp_Force_Field>
OPLS_2005

> <r_lp_Energy>
37.1806

> <b_lp_Chiralities_Consistent>
1

> <s_lp_Variant>
AV-unprocessed.smi:285-8

> <Gold.Version>
5.8.1

> <Gold.Id.Protein>
6NUR|6NUR_protein|mol2

> <Gold.PLP.Fitness>
37.3585

> <Gold.PLP.PLP>
-26.4603

> <Gold.PLP.part.hbond>
-3.7092

> <Gold.PLP.part.metal>
0.0000

> <Gold.PLP.part.buried>
-1.2477

> <Gold.PLP.part.nonpolar>
-22.5877

> <Gold.PLP.part.repulsive>
0.8174

> <Gold.PLP.ligand.clash>
0.0000

> <Gold.PLP.ligand.torsion>
0.5185

> <Gold.PLP.Chemscore.Hbond>
2.9112

> <Gold.PLP.Chemscore.CHOScore>
1.0662

> <Gold.PLP.Chemscore.Metal>
0.0000

> <Gold.Chemscore.Hbonds>
donor molecule, donor type, donor heavy atom, donor atom, acceptor molecule, acceptor atom, score
      L1  H    15    27       P1  8028  1.00
      L1  H    18    31       P1 10175  0.91
      P1  H  7997  8010       L1     8  0.17
      P1  H 10752 10765       L1     3  0.66
      L1  C     4    22       P1  7948  0.28
      L1  C     4    22       P1  7949  0.74

> <Gold.PLP.Chemscore.Internal.Correction>
0.0032

> <Gold.Rescore>
     Score         DG    S(hbond)    S(metal)    S(lipo)     H(rot)  DE(clash)    DE(int)     intcor
      9.25      -9.85       2.40        0.00      35.72       3.06       0.12       0.48       ----

> <Gold.Chemscore.Fitness>
9.2508

> <Gold.Chemscore.DG>
-9.8487

> <Gold.Chemscore.ZeroCoef>
-5.4800

> <Gold.Chemscore.Hbond>
2.4028

> <Gold.Chemscore.Metal>
0.0000

> <Gold.Chemscore.Lipo>
35.7165

> <Gold.Chemscore.Internal_Hbond>
0.0000

> <Gold.Chemscore.DEClash>
0.1213

> <Gold.Chemscore.DEInternal>
0.4766

> <Gold.Chemscore.Rot>
3.0607

> <Gold.Chemscore.Internal.Correction>
   9.000000E+99

> <Gold.Chemscore.Hbonds>
donor molecule, donor type, donor heavy atom, donor atom, acceptor molecule, acceptor atom, score
      L1  H    15    27       P1  8028  0.25
      L1  H    18    31       P1 10175  0.88
      P1  H 10752 10765       L1     3  0.61

> <Gold.Chemscore.Hbond.Weighted>
-8.0252

> <Gold.Chemscore.Metal.Weighted>
-0.0000

> <Gold.Chemscore.Lipo.Weighted>
-4.1788

> <Gold.Chemscore.Internal_Hbond.Weighted>
0.0000

> <Gold.Chemscore.DEClash.Weighted>
0.1213

> <Gold.Chemscore.DEInternal.Weighted>
0.4766

> <Gold.Chemscore.Rot.Weighted>
7.8354

> <Gold.Chemscore.Internal.Correction.Weighted>
   9.000000E+99

> <Gold.Protein.RotatedTorsions>
[ 6907 6896 6895 6894 ] final  154.18 input  -60.11 | X-H torsion
[ 7974 7965 7964 7962 ] final  -68.09 input  175.53 | X-H torsion
[ 8008 7997 7996 7995 ] final   89.40 input   59.86 | X-H torsion
[ 10167 10162 10161 10158 ] final -142.02 input  -65.29 | X-H torsion
[ 10718 10713 10712 10709 ] final -159.55 input   66.30 | X-H torsion
[ 10763 10752 10751 10750 ] final  178.36 input  -60.55 | X-H torsion
[ 11005 11000 10999 10996 ] final  -15.28 input  -57.11 | X-H torsion

> <Gold.Protein.ActiveResidues>
 VAL166  LYS551  ARG553  GLY616  TRP617  ASP618  TYR619  PRO620  LYS621  CYS622 
 ASP623  PHE694  ASN695  SER759  ASP760  ASP761  ALA762  ILE779  LEU786  VAL792 
 PHE793  MET794  SER795  GLU796  ALA797  LYS798  CYS799  TRP800  GLU811  SER814 

> <Gold.Protein.RotatedAtoms>
  152.0621  133.4067  159.4422 H   0  0  0  0  0  0  0  0  0  0  0  0  # atno 6907 bound_to 6896
  150.6866  134.3188  159.4787 H   0  0  0  0  0  0  0  0  0  0  0  0  # atno 6908 bound_to 6896
  152.1010  134.9341  160.0620 H   0  0  0  0  0  0  0  0  0  0  0  0  # atno 6909 bound_to 6896
  145.7209  140.9039  143.0631 H   0  0  0  0  0  0  0  0  0  0  0  0  # atno 7974 bound_to 7965
  155.9995  140.3361  155.6832 H   0  0  0  0  0  0  0  0  0  0  0  0  # atno 8008 bound_to 7997
  155.6309  140.0685  157.2667 H   0  0  0  0  0  0  0  0  0  0  0  0  # atno 8009 bound_to 7997
  154.4245  140.1760  156.1459 H   0  0  0  0  0  0  0  0  0  0  0  0  # atno 8010 bound_to 7997
  139.8128  143.7679  152.2664 H   0  0  0  0  0  0  0  0  0  0  0  0  # atno 10167 bound_to 10162
  156.5697  130.8683  151.2834 H   0  0  0  0  0  0  0  0  0  0  0  0  # atno 10718 bound_to 10713
  154.5067  135.2786  155.1376 H   0  0  0  0  0  0  0  0  0  0  0  0  # atno 10763 bound_to 10752
  154.2988  135.6252  153.5419 H   0  0  0  0  0  0  0  0  0  0  0  0  # atno 10764 bound_to 10752
  152.9911  135.5692  154.5523 H   0  0  0  0  0  0  0  0  0  0  0  0  # atno 10765 bound_to 10752
  140.7950  133.8258  155.9416 H   0  0  0  0  0  0  0  0  0  0  0  0  # atno 11005 bound_to 11000
  144.6917  139.9201  143.7467 LP  0  0  0  0  0  0  0  0  0  0  0  0  # atno 17320 bound_to 7965
  146.0626  139.3619  143.0572 LP  0  0  0  0  0  0  0  0  0  0  0  0  # atno 17321 bound_to 7965
  139.7833  144.7436  151.0057 LP  0  0  0  0  0  0  0  0  0  0  0  0  # atno 17342 bound_to 10162
  140.7817  143.4519  151.0401 LP  0  0  0  0  0  0  0  0  0  0  0  0  # atno 17343 bound_to 10162
  157.7351  130.9756  150.2063 LP  0  0  0  0  0  0  0  0  0  0  0  0  # atno 17370 bound_to 10713
  156.2726  130.3723  149.8016 LP  0  0  0  0  0  0  0  0  0  0  0  0  # atno 17371 bound_to 10713
  140.9351  134.1972  157.4837 LP  0  0  0  0  0  0  0  0  0  0  0  0  # atno 17394 bound_to 11000
  139.8727  134.9849  156.5258 LP  0  0  0  0  0  0  0  0  0  0  0  0  # atno 17395 bound_to 11000

$$$$
