AV-unprocessed.smi:1572|AV-procd|sdf|6330|dock4
  -GOLD-   22720 6543D 1   1.00000     0.00000
 Structure written by MMmdl.
 42 43  0  0  0  0  0  0  0  0  3 V2000
  151.0929  143.3227  158.0483 C   0  0  0  0  0  0  0  0  0  0  0  0
  150.1338  142.8378  157.0292 N   0  3  0  0  0  0  0  0  0  0  0  0
  149.0130  142.0482  157.5901 C   0  0  0  0  0  0  0  0  0  0  0  0
  149.4478  140.6124  157.9521 C   0  0  0  0  0  0  0  0  0  0  0  0
  149.9728  139.9363  156.7561 N   0  0  0  0  0  0  0  0  0  0  0  0
  150.1628  138.4662  156.8620 C   0  0  0  0  0  0  0  0  0  0  0  0
  150.8553  137.8943  155.6028 C   0  0  0  0  0  0  0  0  0  0  0  0
  151.0309  138.1203  158.0991 C   0  0  0  0  0  0  0  0  0  0  0  0
  148.7794  137.7738  157.0531 C   0  0  0  0  0  0  0  0  0  0  0  0
  148.3184  137.8102  158.4424 N   0  0  0  0  0  0  0  0  0  0  0  0
  148.5646  136.8947  159.3910 C   0  0  0  0  0  0  0  0  0  0  0  0
  149.3112  135.9421  159.1554 O   0  0  0  0  0  0  0  0  0  0  0  0
  147.9138  137.1285  160.5528 N   0  5  0  0  0  0  0  0  0  0  0  0
  147.5781  136.1008  161.3497 C   0  0  0  0  0  0  0  0  0  0  0  0
  147.5994  136.1909  162.6888 N   0  0  0  0  0  0  0  0  0  0  0  0
  147.2139  135.0164  163.3209 N   0  0  0  0  0  0  0  0  0  0  0  0
  146.9024  134.0687  162.4371 C   0  0  0  0  0  0  0  0  0  0  0  0
  147.0542  134.5232  160.7530 S   0  0  0  0  0  0  0  0  0  0  0  0
  151.1669  140.6803  156.3251 C   0  0  0  0  0  0  0  0  0  0  0  0
  150.7681  142.1082  155.9072 C   0  0  0  0  0  0  0  0  0  0  0  0
  151.6021  142.5011  158.5523 H   0  0  0  0  0  0  0  0  0  0  0  0
  150.5780  143.9161  158.8045 H   0  0  0  0  0  0  0  0  0  0  0  0
  151.8492  143.9592  157.5880 H   0  0  0  0  0  0  0  0  0  0  0  0
  148.5991  142.5546  158.4626 H   0  0  0  0  0  0  0  0  0  0  0  0
  148.2123  142.0093  156.8498 H   0  0  0  0  0  0  0  0  0  0  0  0
  150.1881  140.6142  158.7524 H   0  0  0  0  0  0  0  0  0  0  0  0
  148.5649  140.1080  158.3390 H   0  0  0  0  0  0  0  0  0  0  0  0
  151.0465  136.8271  155.7191 H   0  0  0  0  0  0  0  0  0  0  0  0
  151.8167  138.3716  155.4125 H   0  0  0  0  0  0  0  0  0  0  0  0
  150.2436  138.0051  154.7073 H   0  0  0  0  0  0  0  0  0  0  0  0
  151.0047  137.0507  158.3101 H   0  0  0  0  0  0  0  0  0  0  0  0
  150.6853  138.6348  158.9968 H   0  0  0  0  0  0  0  0  0  0  0  0
  152.0815  138.3710  157.9519 H   0  0  0  0  0  0  0  0  0  0  0  0
  148.0229  138.1663  156.3737 H   0  0  0  0  0  0  0  0  0  0  0  0
  148.8632  136.7216  156.7793 H   0  0  0  0  0  0  0  0  0  0  0  0
  147.7070  138.5733  158.6930 H   0  0  0  0  0  0  0  0  0  0  0  0
  146.5811  133.0963  162.7793 H   0  0  0  0  0  0  0  0  0  0  0  0
  151.9111  140.7084  157.1213 H   0  0  0  0  0  0  0  0  0  0  0  0
  151.6493  140.2062  155.4744 H   0  0  0  0  0  0  0  0  0  0  0  0
  150.0645  142.0634  155.0741 H   0  0  0  0  0  0  0  0  0  0  0  0
  151.6372  142.6591  155.5461 H   0  0  0  0  0  0  0  0  0  0  0  0
  149.7233  143.6696  156.6295 H   0  0  0  0  0  0  0  0  0  0  0  0
  1  2  1  0  0  0  0
  1 21  1  0  0  0  0
  1 22  1  0  0  0  0
  1 23  1  0  0  0  0
  2 20  1  0  0  0  0
  2  3  1  0  0  0  0
  2 42  1  0  0  0  0
  3  4  1  0  0  0  0
  3 24  1  0  0  0  0
  3 25  1  0  0  0  0
  4  5  1  0  0  0  0
  4 26  1  0  0  0  0
  4 27  1  0  0  0  0
  5  6  1  0  0  0  0
  5 19  1  0  0  0  0
  6  7  1  0  0  0  0
  6  8  1  0  0  0  0
  6  9  1  0  0  0  0
  7 28  1  0  0  0  0
  7 29  1  0  0  0  0
  7 30  1  0  0  0  0
  8 31  1  0  0  0  0
  8 32  1  0  0  0  0
  8 33  1  0  0  0  0
  9 10  1  0  0  0  0
  9 34  1  0  0  0  0
  9 35  1  0  0  0  0
 10 11  1  0  0  0  0
 10 36  1  0  0  0  0
 11 12  2  0  0  0  0
 11 13  1  0  0  0  0
 13 14  1  0  0  0  0
 14 18  1  0  0  0  0
 14 15  2  0  0  0  0
 15 16  1  0  0  0  0
 16 17  2  0  0  0  0
 17 18  1  0  0  0  0
 17 37  1  0  0  0  0
 19 20  1  0  0  0  0
 19 38  1  0  0  0  0
 19 39  1  0  0  0  0
 20 40  1  0  0  0  0
 20 41  1  0  0  0  0
M  CHG  1   2   1
M  CHG  1  13  -1
M  END
> <s_m_source_file>
AV-unprocessed.smi

> <i_m_source_file_index>
1572

> <i_lp_mmshare_version>
43012

> <i_f3d_flags>
0

> <s_epik_input>
W0NIM11OMVtDSDJdW0NIMl1OKFtDSDJdW0NIMl0xKUMoW0NIM10pKFtDSDNdKVtDSDJdW05IXUMoPU8pW05IXWMybm5bY0hdczI=

> <s_epik_cmdline>
J2VwaWtfcHl0aG9uJywgJy1waCcsICc3LjAnLCAnLXRuJywgJzgnLCAnLW1hJywgJzIwMCcsICctbWV0YWxfYmluZGluZycsICctaW1hZScsICc8aW5maWxlLm1hZT4nLCAnLW9tYWUnLCAnPG91dGZpbGUubWFlPic=

> <r_lp_tautomer_probability>
1

> <r_epik_Ionization_Penalty>
3.56565

> <r_epik_Ionization_Penalty_Charging>
3.52353

> <r_epik_Ionization_Penalty_Neutral>
0.0421115

> <r_epik_State_Penalty>
3.62656

> <r_epik_Charging_Adjusted_Penalty>
7.1501

> <i_epik_Tot_Q>
0

> <i_epik_Tot_abs_Q>
2

> <r_epik_Metal_State_Penalty>
0.645945

> <b_epik_Metal_Only>
1

> <s_lp_Force_Field>
OPLS_2005

> <r_lp_Energy>
17.8403

> <b_lp_Chiralities_Consistent>
1

> <s_lp_Variant>
AV-unprocessed.smi:1572-4

> <Gold.Version>
5.8.1

> <Gold.Id.Protein>
6NUR|6NUR_protein|mol2

> <Gold.PLP.Fitness>
45.4165

> <Gold.PLP.PLP>
-29.2770

> <Gold.PLP.part.hbond>
-4.8689

> <Gold.PLP.part.metal>
0.0000

> <Gold.PLP.part.buried>
-6.1844

> <Gold.PLP.part.nonpolar>
-18.0547

> <Gold.PLP.part.repulsive>
0.1685

> <Gold.PLP.ligand.clash>
0.0000

> <Gold.PLP.ligand.torsion>
1.0966

> <Gold.PLP.Chemscore.Hbond>
6.0909

> <Gold.PLP.Chemscore.CHOScore>
0.0000

> <Gold.PLP.Chemscore.Metal>
0.0000

> <Gold.Chemscore.Hbonds>
donor molecule, donor type, donor heavy atom, donor atom, acceptor molecule, acceptor atom, score
      L1  H     2    42       P1  8028  2.00
      P1  H  6896  6907       L1    12  1.00
      P1  H  6931  6943       L1    13  1.40
      P1  H  6934  6947       L1    13  1.51

> <Gold.PLP.Chemscore.Internal.Correction>
0.0600

> <Gold.Rescore>
     Score         DG    S(hbond)    S(metal)    S(lipo)     H(rot)  DE(clash)    DE(int)     intcor
     16.54     -17.90       3.01        0.00      56.69       1.67       0.13       1.23       ----

> <Gold.Chemscore.Fitness>
16.5436

> <Gold.Chemscore.DG>
-17.9027

> <Gold.Chemscore.ZeroCoef>
-5.4800

> <Gold.Chemscore.Hbond>
3.0132

> <Gold.Chemscore.Metal>
0.0000

> <Gold.Chemscore.Lipo>
56.6863

> <Gold.Chemscore.Internal_Hbond>
0.0000

> <Gold.Chemscore.DEClash>
0.1337

> <Gold.Chemscore.DEInternal>
1.2254

> <Gold.Chemscore.Rot>
1.6694

> <Gold.Chemscore.Internal.Correction>
   9.000000E+99

> <Gold.Chemscore.Hbonds>
donor molecule, donor type, donor heavy atom, donor atom, acceptor molecule, acceptor atom, score
      L1  H     2    42       P1  8028  1.00
      P1  H  6896  6907       L1    12  0.99
      P1  H  6931  6943       L1    13  0.15
      P1  H  6934  6947       L1    13  0.69

> <Gold.Chemscore.Hbond.Weighted>
-10.0642

> <Gold.Chemscore.Metal.Weighted>
-0.0000

> <Gold.Chemscore.Lipo.Weighted>
-6.6323

> <Gold.Chemscore.Internal_Hbond.Weighted>
0.0000

> <Gold.Chemscore.DEClash.Weighted>
0.1337

> <Gold.Chemscore.DEInternal.Weighted>
1.2254

> <Gold.Chemscore.Rot.Weighted>
4.2738

> <Gold.Chemscore.Internal.Correction.Weighted>
   9.000000E+99

> <Gold.Protein.RotatedTorsions>
[ 6907 6896 6895 6894 ] final  -52.03 input  -60.11 | X-H torsion
[ 7974 7965 7964 7962 ] final  120.65 input  175.53 | X-H torsion
[ 8008 7997 7996 7995 ] final  -63.10 input   59.86 | X-H torsion
[ 10167 10162 10161 10158 ] final  -45.22 input  -65.29 | X-H torsion
[ 10718 10713 10712 10709 ] final    7.73 input   66.30 | X-H torsion
[ 10763 10752 10751 10750 ] final  -88.14 input  -60.55 | X-H torsion
[ 11005 11000 10999 10996 ] final   73.71 input  -57.11 | X-H torsion

> <Gold.Protein.ActiveResidues>
 VAL166  LYS551  ARG553  GLY616  TRP617  ASP618  TYR619  PRO620  LYS621  CYS622 
 ASP623  PHE694  ASN695  SER759  ASP760  ASP761  ALA762  ILE779  LEU786  VAL792 
 PHE793  MET794  SER795  GLU796  ALA797  LYS798  CYS799  TRP800  GLU811  SER814 

> <Gold.Protein.RotatedAtoms>
  150.8555  134.7893  159.7042 H   0  0  0  0  0  0  0  0  0  0  0  0  # atno 6907 bound_to 6896
  152.4608  134.5185  159.9785 H   0  0  0  0  0  0  0  0  0  0  0  0  # atno 6908 bound_to 6896
  151.5298  133.3413  159.2952 H   0  0  0  0  0  0  0  0  0  0  0  0  # atno 6909 bound_to 6896
  145.1286  139.3342  143.4677 H   0  0  0  0  0  0  0  0  0  0  0  0  # atno 7974 bound_to 7965
  154.4536  140.0982  156.6690 H   0  0  0  0  0  0  0  0  0  0  0  0  # atno 8008 bound_to 7997
  155.5209  140.3479  155.4388 H   0  0  0  0  0  0  0  0  0  0  0  0  # atno 8009 bound_to 7997
  156.0731  140.1354  156.9793 H   0  0  0  0  0  0  0  0  0  0  0  0  # atno 8010 bound_to 7997
  140.6866  143.2890  151.3607 H   0  0  0  0  0  0  0  0  0  0  0  0  # atno 10167 bound_to 10162
  156.9413  130.5862  149.5652 H   0  0  0  0  0  0  0  0  0  0  0  0  # atno 10718 bound_to 10713
  154.6413  135.5388  153.7792 H   0  0  0  0  0  0  0  0  0  0  0  0  # atno 10763 bound_to 10752
  153.0335  135.6460  154.1156 H   0  0  0  0  0  0  0  0  0  0  0  0  # atno 10764 bound_to 10752
  154.1080  135.2928  155.3217 H   0  0  0  0  0  0  0  0  0  0  0  0  # atno 10765 bound_to 10752
  139.9426  134.7370  156.1059 H   0  0  0  0  0  0  0  0  0  0  0  0  # atno 11005 bound_to 11000
  146.3515  140.1275  142.8598 LP  0  0  0  0  0  0  0  0  0  0  0  0  # atno 17320 bound_to 7965
  145.0660  140.9122  143.4910 LP  0  0  0  0  0  0  0  0  0  0  0  0  # atno 17321 bound_to 7965
  139.6231  144.0868  152.2409 LP  0  0  0  0  0  0  0  0  0  0  0  0  # atno 17342 bound_to 10162
  140.0318  144.6075  150.7481 LP  0  0  0  0  0  0  0  0  0  0  0  0  # atno 17343 bound_to 10162
  156.0403  130.5486  150.8755 LP  0  0  0  0  0  0  0  0  0  0  0  0  # atno 17370 bound_to 10713
  157.5783  131.0946  150.9311 LP  0  0  0  0  0  0  0  0  0  0  0  0  # atno 17371 bound_to 10713
  141.1066  133.6658  156.2879 LP  0  0  0  0  0  0  0  0  0  0  0  0  # atno 17394 bound_to 11000
  140.5913  134.5648  157.5500 LP  0  0  0  0  0  0  0  0  0  0  0  0  # atno 17395 bound_to 11000

$$$$
