AV-unprocessed.smi:157|AV-procd|sdf|1313|dock4
  -GOLD-   2262019 03D 1   1.00000     0.00000
 Structure written by MMmdl.
 36 38  0  0  0  0  0  0  0  0  2 V2000
  150.9899  137.6744  153.8285 O   0  0  0  0  0  0  0  0  0  0  0  0
  152.2561  137.5609  154.4421 C   0  0  0  0  0  0  0  0  0  0  0  0
  152.3821  138.5978  155.5678 C   0  0  1  0  0  0  0  0  0  0  0  0
  151.0937  138.9006  156.0935 O   0  0  0  0  0  0  0  0  0  0  0  0
  151.2142  139.3835  157.3990 C   0  0  2  0  0  0  0  0  0  0  0  0
  151.0129  140.8678  157.3868 N   0  0  0  0  0  0  0  0  0  0  0  0
  150.1854  141.5717  156.5839 C   0  0  0  0  0  0  0  0  0  0  0  0
  150.2035  142.8773  156.7923 N   0  3  0  0  0  0  0  0  0  0  0  0
  151.1056  143.0984  157.8112 C   0  0  0  0  0  0  0  0  0  0  0  0
  151.5907  141.8386  158.1719 C   0  0  0  0  0  0  0  0  0  0  0  0
  152.5272  141.4834  159.1547 N   0  0  0  0  0  0  0  0  0  0  0  0
  152.8723  142.2795  160.1138 C   0  0  0  0  0  0  0  0  0  0  0  0
  152.5049  143.5974  160.3276 N   0  0  0  0  0  0  0  0  0  0  0  0
  152.5365  144.6051  159.2822 C   0  0  0  0  0  0  0  0  0  0  0  0
  151.3786  144.4935  158.2811 C   0  0  2  0  0  0  0  0  0  0  0  0
  150.2377  145.1093  158.8425 O   0  0  0  0  0  0  0  0  0  0  0  0
  152.6340  139.0508  157.8753 C   0  0  0  0  0  0  0  0  0  0  0  0
  153.1092  138.0808  156.8097 C   0  0  2  0  0  0  0  0  0  0  0  0
  154.5141  138.1313  156.6703 O   0  0  0  0  0  0  0  0  0  0  0  0
  152.8627  139.5120  155.2127 H   0  0  0  0  0  0  0  0  0  0  0  0
  150.4203  138.9909  158.0354 H   0  0  0  0  0  0  0  0  0  0  0  0
  151.6404  145.0902  157.4066 H   0  0  0  0  0  0  0  0  0  0  0  0
  152.7874  137.0664  157.0507 H   0  0  0  0  0  0  0  0  0  0  0  0
  150.9569  137.0785  153.0955 H   0  0  0  0  0  0  0  0  0  0  0  0
  152.4104  136.5473  154.8137 H   0  0  0  0  0  0  0  0  0  0  0  0
  153.0098  137.7443  153.6759 H   0  0  0  0  0  0  0  0  0  0  0  0
  149.5632  141.1096  155.8383 H   0  0  0  0  0  0  0  0  0  0  0  0
  153.5517  141.9139  160.8852 H   0  0  0  0  0  0  0  0  0  0  0  0
  152.6733  144.0043  161.2368 H   0  0  0  0  0  0  0  0  0  0  0  0
  152.5675  145.5988  159.7305 H   0  0  0  0  0  0  0  0  0  0  0  0
  153.4793  144.4866  158.7457 H   0  0  0  0  0  0  0  0  0  0  0  0
  149.5775  145.1939  158.1720 H   0  0  0  0  0  0  0  0  0  0  0  0
  153.2452  139.9557  157.8852 H   0  0  0  0  0  0  0  0  0  0  0  0
  152.6220  138.6220  158.8777 H   0  0  0  0  0  0  0  0  0  0  0  0
  154.7410  137.8537  155.7958 H   0  0  0  0  0  0  0  0  0  0  0  0
  149.6621  143.5725  156.2943 H   0  0  0  0  0  0  0  0  0  0  0  0
  1  2  1  0  0  0  0
  1 24  1  0  0  0  0
  2  3  1  0  0  0  0
  2 25  1  0  0  0  0
  2 26  1  0  0  0  0
  3 20  1  0  0  0  0
  3 18  1  0  0  0  0
  3  4  1  0  0  0  0
  4  5  1  0  0  0  0
  5 21  1  0  0  0  0
  5  6  1  0  0  0  0
  5 17  1  0  0  0  0
  6 10  1  0  0  0  0
  6  7  1  0  0  0  0
  7  8  2  0  0  0  0
  7 27  1  0  0  0  0
  8  9  1  0  0  0  0
  8 36  1  0  0  0  0
  9 15  1  0  0  0  0
  9 10  2  0  0  0  0
 10 11  1  0  0  0  0
 11 12  2  0  0  0  0
 12 13  1  0  0  0  0
 12 28  1  0  0  0  0
 13 14  1  0  0  0  0
 13 29  1  0  0  0  0
 14 15  1  0  0  0  0
 14 30  1  0  0  0  0
 14 31  1  0  0  0  0
 15 22  1  0  0  0  0
 15 16  1  0  0  0  0
 16 32  1  0  0  0  0
 17 18  1  0  0  0  0
 17 33  1  0  0  0  0
 17 34  1  0  0  0  0
 18 23  1  0  0  0  0
 18 19  1  0  0  0  0
 19 35  1  0  0  0  0
M  CHG  1   8   1
M  END
> <s_m_source_file>
AV-unprocessed.smi

> <i_m_source_file_index>
157

> <i_lp_mmshare_version>
43012

> <i_f3d_flags>
0

> <s_epik_input>
W09IXVtDSDJdW0NASF0xT1tDQEhdKFtDSDJdW0NAQEhdMVtPSF0pbihbY0hdbjIpYyhjMjMpTj1bQ0hdW05IXVtDSDJdW0NASF0zW09IXQ==

> <s_epik_cmdline>
J2VwaWtfcHl0aG9uJywgJy1waCcsICc3LjAnLCAnLXRuJywgJzgnLCAnLW1hJywgJzIwMCcsICctbWV0YWxfYmluZGluZycsICctaW1hZScsICc8aW5maWxlLm1hZT4nLCAnLW9tYWUnLCAnPG91dGZpbGUubWFlPic=

> <r_epik_Ionization_Penalty>
1.68594

> <r_epik_Ionization_Penalty_Charging>
0

> <r_epik_Ionization_Penalty_Neutral>
1.68594

> <r_epik_State_Penalty>
1.79006

> <r_epik_Charging_Adjusted_Penalty>
1.79006

> <i_epik_Tot_Q>
1

> <i_epik_Tot_abs_Q>
1

> <r_epik_Metal_State_Penalty>
5.85324

> <b_epik_Metal_Only>
0

> <s_epik_Chemistry_Notes>
This compound has an imine and may undergo hydrolysis. This compound contains an acetal/aminal-like group ( X-CH(R)-Y where X, Y are N, S, or O) that may be acid/base labile, releasing an aldehyde.

> <s_lp_Force_Field>
OPLS_2005

> <r_lp_Energy>
52.2724

> <b_lp_Chiralities_Consistent>
1

> <s_lp_Variant>
AV-unprocessed.smi:157-23

> <Gold.Version>
5.8.1

> <Gold.Id.Protein>
6NUR|6NUR_protein|mol2

> <Gold.PLP.Fitness>
44.7596

> <Gold.PLP.PLP>
-34.4273

> <Gold.PLP.part.hbond>
-4.6177

> <Gold.PLP.part.metal>
0.0000

> <Gold.PLP.part.buried>
-3.9724

> <Gold.PLP.part.nonpolar>
-26.9062

> <Gold.PLP.part.repulsive>
0.0817

> <Gold.PLP.ligand.clash>
0.0000

> <Gold.PLP.ligand.torsion>
1.2127

> <Gold.PLP.Chemscore.Hbond>
4.2458

> <Gold.PLP.Chemscore.CHOScore>
0.0000

> <Gold.PLP.Chemscore.Metal>
0.0000

> <Gold.Chemscore.Hbonds>
donor molecule, donor type, donor heavy atom, donor atom, acceptor molecule, acceptor atom, score
      L1  H     1    24       P1  7949  0.95
      L1  H     8    36       P1  8028  1.95
      L1  H    16    32       P1  8029  0.99
      P1  H  7997  8010       L1    19  0.23

> <Gold.PLP.Chemscore.Internal.Correction>
0.0205

> <Gold.Rescore>
     Score         DG    S(hbond)    S(metal)    S(lipo)     H(rot)  DE(clash)    DE(int)     intcor
      7.82     -11.88       2.61        0.00      60.36       3.67       1.50       2.56       ----

> <Gold.Chemscore.Fitness>
7.8182

> <Gold.Chemscore.DG>
-11.8826

> <Gold.Chemscore.ZeroCoef>
-5.4800

> <Gold.Chemscore.Hbond>
2.6123

> <Gold.Chemscore.Metal>
0.0000

> <Gold.Chemscore.Lipo>
60.3613

> <Gold.Chemscore.Internal_Hbond>
0.0000

> <Gold.Chemscore.DEClash>
1.5021

> <Gold.Chemscore.DEInternal>
2.5623

> <Gold.Chemscore.Rot>
3.6659

> <Gold.Chemscore.Internal.Correction>
   9.000000E+99

> <Gold.Chemscore.Hbonds>
donor molecule, donor type, donor heavy atom, donor atom, acceptor molecule, acceptor atom, score
      L1  H     1    24       P1  7949  0.21
      L1  H     8    36       P1  8028  0.91
      L1  H    16    32       P1  8029  0.32
      P1  H  7997  8010       L1    19  0.05

> <Gold.Chemscore.Hbond.Weighted>
-8.7251

> <Gold.Chemscore.Metal.Weighted>
-0.0000

> <Gold.Chemscore.Lipo.Weighted>
-7.0623

> <Gold.Chemscore.Internal_Hbond.Weighted>
0.0000

> <Gold.Chemscore.DEClash.Weighted>
1.5021

> <Gold.Chemscore.DEInternal.Weighted>
2.5623

> <Gold.Chemscore.Rot.Weighted>
9.3848

> <Gold.Chemscore.Internal.Correction.Weighted>
   9.000000E+99

> <Gold.Protein.RotatedTorsions>
[ 6907 6896 6895 6894 ] final -103.36 input  -60.11 | X-H torsion
[ 7974 7965 7964 7962 ] final   76.85 input  175.53 | X-H torsion
[ 8008 7997 7996 7995 ] final   22.12 input   59.86 | X-H torsion
[ 10167 10162 10161 10158 ] final   46.96 input  -65.29 | X-H torsion
[ 10718 10713 10712 10709 ] final -174.21 input   66.30 | X-H torsion
[ 10763 10752 10751 10750 ] final  168.83 input  -60.55 | X-H torsion
[ 11005 11000 10999 10996 ] final   23.96 input  -57.11 | X-H torsion

> <Gold.Protein.ActiveResidues>
 VAL166  LYS551  ARG553  GLY616  TRP617  ASP618  TYR619  PRO620  LYS621  CYS622 
 ASP623  PHE694  ASN695  SER759  ASP760  ASP761  ALA762  ILE779  LEU786  VAL792 
 PHE793  MET794  SER795  GLU796  ALA797  LYS798  CYS799  TRP800  GLU811  SER814 

> <Gold.Protein.RotatedAtoms>
  150.7237  134.0441  159.3775 H   0  0  0  0  0  0  0  0  0  0  0  0  # atno 6907 bound_to 6896
  151.8416  135.0586  160.0458 H   0  0  0  0  0  0  0  0  0  0  0  0  # atno 6908 bound_to 6896
  152.2858  133.5478  159.5563 H   0  0  0  0  0  0  0  0  0  0  0  0  # atno 6909 bound_to 6896
  145.6976  139.2572  143.1724 H   0  0  0  0  0  0  0  0  0  0  0  0  # atno 7974 bound_to 7965
  154.9609  140.3078  155.5031 H   0  0  0  0  0  0  0  0  0  0  0  0  # atno 8008 bound_to 7997
  156.2977  140.2301  156.4633 H   0  0  0  0  0  0  0  0  0  0  0  0  # atno 8009 bound_to 7997
  154.7966  140.0436  157.1229 H   0  0  0  0  0  0  0  0  0  0  0  0  # atno 8010 bound_to 7997
  140.3085  144.2848  150.6204 H   0  0  0  0  0  0  0  0  0  0  0  0  # atno 10167 bound_to 10162
  156.7817  130.9486  151.3120 H   0  0  0  0  0  0  0  0  0  0  0  0  # atno 10718 bound_to 10713
  154.3742  135.2753  155.2248 H   0  0  0  0  0  0  0  0  0  0  0  0  # atno 10763 bound_to 10752
  154.4383  135.5960  153.6116 H   0  0  0  0  0  0  0  0  0  0  0  0  # atno 10764 bound_to 10752
  152.9837  135.6012  154.3977 H   0  0  0  0  0  0  0  0  0  0  0  0  # atno 10765 bound_to 10752
  140.3639  134.2095  155.7670 H   0  0  0  0  0  0  0  0  0  0  0  0  # atno 11005 bound_to 11000
  146.0826  140.7746  142.9634 LP  0  0  0  0  0  0  0  0  0  0  0  0  # atno 17320 bound_to 7965
  144.6978  140.3513  143.7181 LP  0  0  0  0  0  0  0  0  0  0  0  0  # atno 17321 bound_to 7965
  140.5588  143.2195  151.7800 LP  0  0  0  0  0  0  0  0  0  0  0  0  # atno 17342 bound_to 10162
  139.4899  144.4376  151.9801 LP  0  0  0  0  0  0  0  0  0  0  0  0  # atno 17343 bound_to 10162
  157.6643  130.8994  149.9898 LP  0  0  0  0  0  0  0  0  0  0  0  0  # atno 17370 bound_to 10713
  156.1214  130.3646  149.9881 LP  0  0  0  0  0  0  0  0  0  0  0  0  # atno 17371 bound_to 10713
  141.1975  133.8056  157.0622 LP  0  0  0  0  0  0  0  0  0  0  0  0  # atno 17394 bound_to 11000
  140.0605  134.9757  157.1296 LP  0  0  0  0  0  0  0  0  0  0  0  0  # atno 17395 bound_to 11000

$$$$
