AV-unprocessed.smi:2740|AV-procd|sdf|10557|dock4
  -GOLD-   2272015 13D 1   1.00000     0.00000
 Structure written by MMmdl.
 30 31  0  0  0  0  0  0  0  0  2 V2000
  147.9925  141.6288  155.1523 C   0  0  0  0  0  0  0  0  0  0  0  0
  149.3233  140.9899  155.3637 C   0  0  0  0  0  0  0  0  0  0  0  0
  150.1058  140.3610  154.4304 C   0  0  0  0  0  0  0  0  0  0  0  0
  151.3025  139.8609  154.9457 N   0  0  0  0  0  0  0  0  0  0  0  0
  151.4510  140.0839  156.2558 C   0  0  0  0  0  0  0  0  0  0  0  0
  152.5299  139.6853  156.9492 N   0  5  0  0  0  0  0  0  0  0  0  0
  152.5749  139.8628  158.2894 C   0  0  0  0  0  0  0  0  0  0  0  0
  152.6528  138.9742  159.1413 O   0  0  0  0  0  0  0  0  0  0  0  0
  152.5261  141.1484  158.6673 N   0  0  0  0  0  0  0  0  0  0  0  0
  152.5592  141.6336  160.0429 C   0  0  0  0  0  0  0  0  0  0  0  0
  152.4581  143.1665  160.1071 C   0  0  1  0  0  0  0  0  0  0  0  0
  152.9788  143.8712  158.8550 C   0  0  0  0  0  0  0  0  0  0  0  0
  152.1930  145.1741  158.8172 C   0  0  0  0  0  0  0  0  0  0  0  0
  151.0877  144.9760  159.8578 C   0  0  0  0  0  0  0  0  0  0  0  0
  151.1029  143.5858  160.1464 O   0  0  0  0  0  0  0  0  0  0  0  0
  150.0832  140.9710  156.9326 S   0  0  0  0  0  0  0  0  0  0  0  0
  147.2535  140.8871  154.8493 H   0  0  0  0  0  0  0  0  0  0  0  0
  148.0478  142.3892  154.3732 H   0  0  0  0  0  0  0  0  0  0  0  0
  147.6345  142.1072  156.0643 H   0  0  0  0  0  0  0  0  0  0  0  0
  149.8907  140.2237  153.3811 H   0  0  0  0  0  0  0  0  0  0  0  0
  152.4581  141.8442  157.9393 H   0  0  0  0  0  0  0  0  0  0  0  0
  151.7475  141.1781  160.6127 H   0  0  0  0  0  0  0  0  0  0  0  0
  153.4869  141.2972  160.5064 H   0  0  0  0  0  0  0  0  0  0  0  0
  152.9776  143.5538  160.9861 H   0  0  0  0  0  0  0  0  0  0  0  0
  154.0575  144.0268  158.8848 H   0  0  0  0  0  0  0  0  0  0  0  0
  152.7496  143.2820  157.9661 H   0  0  0  0  0  0  0  0  0  0  0  0
  152.8167  146.0317  159.0722 H   0  0  0  0  0  0  0  0  0  0  0  0
  151.7793  145.3433  157.8225 H   0  0  0  0  0  0  0  0  0  0  0  0
  151.3139  145.5328  160.7684 H   0  0  0  0  0  0  0  0  0  0  0  0
  150.1093  145.2950  159.4977 H   0  0  0  0  0  0  0  0  0  0  0  0
  1  2  1  0  0  0  0
  1 17  1  0  0  0  0
  1 18  1  0  0  0  0
  1 19  1  0  0  0  0
  2 16  1  0  0  0  0
  2  3  2  0  0  0  0
  3  4  1  0  0  0  0
  3 20  1  0  0  0  0
  4  5  2  0  0  0  0
  5  6  1  0  0  0  0
  5 16  1  0  0  0  0
  6  7  1  0  0  0  0
  7  8  2  0  0  0  0
  7  9  1  0  0  0  0
  9 10  1  0  0  0  0
  9 21  1  0  0  0  0
 10 11  1  0  0  0  0
 10 22  1  0  0  0  0
 10 23  1  0  0  0  0
 11 15  1  0  0  0  0
 11 12  1  0  0  0  0
 11 24  1  0  0  0  0
 12 13  1  0  0  0  0
 12 25  1  0  0  0  0
 12 26  1  0  0  0  0
 13 14  1  0  0  0  0
 13 27  1  0  0  0  0
 13 28  1  0  0  0  0
 14 15  1  0  0  0  0
 14 29  1  0  0  0  0
 14 30  1  0  0  0  0
M  CHG  1   6  -1
M  END
> <s_m_source_file>
AV-unprocessed.smi

> <i_m_source_file_index>
2740

> <i_lp_mmshare_version>
43012

> <i_f3d_flags>
0

> <s_epik_input>
W0NIM11jMVtjSF1uYyhzMSlbTkhdQyg9TylbTkhdW0NIMl1bQ0BASF0yW0NIMl1bQ0gyXVtDSDJdTzI=

> <s_epik_cmdline>
J2VwaWtfcHl0aG9uJywgJy1waCcsICc3LjAnLCAnLXRuJywgJzgnLCAnLW1hJywgJzIwMCcsICctbWV0YWxfYmluZGluZycsICctaW1hZScsICc8aW5maWxlLm1hZT4nLCAnLW9tYWUnLCAnPG91dGZpbGUubWFlPic=

> <r_lp_tautomer_probability>
0.999

> <r_epik_Ionization_Penalty>
8.54039

> <r_epik_Ionization_Penalty_Charging>
6.77868

> <r_epik_Ionization_Penalty_Neutral>
1.76171

> <r_epik_State_Penalty>
6.77885

> <r_epik_Charging_Adjusted_Penalty>
13.5575

> <i_epik_Tot_Q>
-1

> <i_epik_Tot_abs_Q>
1

> <r_epik_Metal_State_Penalty>
2.69888

> <b_epik_Metal_Only>
1

> <s_lp_Force_Field>
OPLS_2005

> <r_lp_Energy>
13.1724

> <b_lp_Chiralities_Consistent>
1

> <s_lp_Variant>
AV-unprocessed.smi:2740-4

> <Gold.Version>
5.8.1

> <Gold.Id.Protein>
6NUR|6NUR_protein|mol2

> <Gold.PLP.Fitness>
41.7550

> <Gold.PLP.PLP>
-34.6900

> <Gold.PLP.part.hbond>
-2.3791

> <Gold.PLP.part.metal>
0.0000

> <Gold.PLP.part.buried>
-1.7255

> <Gold.PLP.part.nonpolar>
-30.5484

> <Gold.PLP.part.repulsive>
0.2200

> <Gold.PLP.ligand.clash>
0.0000

> <Gold.PLP.ligand.torsion>
0.9804

> <Gold.PLP.Chemscore.Hbond>
2.0000

> <Gold.PLP.Chemscore.CHOScore>
1.0000

> <Gold.PLP.Chemscore.Metal>
0.0000

> <Gold.Chemscore.Hbonds>
donor molecule, donor type, donor heavy atom, donor atom, acceptor molecule, acceptor atom, score
      P1  H  7997  8008       L1     6  1.90
      L1  C     3    20       P1  7957  1.00

> <Gold.PLP.Chemscore.Internal.Correction>
0.0257

> <Gold.Rescore>
     Score         DG    S(hbond)    S(metal)    S(lipo)     H(rot)  DE(clash)    DE(int)     intcor
     13.40     -14.41       0.82        0.00      80.25       1.25       0.07       0.95       ----

> <Gold.Chemscore.Fitness>
13.3964

> <Gold.Chemscore.DG>
-14.4124

> <Gold.Chemscore.ZeroCoef>
-5.4800

> <Gold.Chemscore.Hbond>
0.8224

> <Gold.Chemscore.Metal>
0.0000

> <Gold.Chemscore.Lipo>
80.2482

> <Gold.Chemscore.Internal_Hbond>
0.0000

> <Gold.Chemscore.DEClash>
0.0677

> <Gold.Chemscore.DEInternal>
0.9482

> <Gold.Chemscore.Rot>
1.2514

> <Gold.Chemscore.Internal.Correction>
   9.000000E+99

> <Gold.Chemscore.Hbonds>
donor molecule, donor type, donor heavy atom, donor atom, acceptor molecule, acceptor atom, score
      P1  H  7997  8008       L1     6  0.21

> <Gold.Chemscore.Hbond.Weighted>
-2.7469

> <Gold.Chemscore.Metal.Weighted>
-0.0000

> <Gold.Chemscore.Lipo.Weighted>
-9.3890

> <Gold.Chemscore.Internal_Hbond.Weighted>
0.0000

> <Gold.Chemscore.DEClash.Weighted>
0.0677

> <Gold.Chemscore.DEInternal.Weighted>
0.9482

> <Gold.Chemscore.Rot.Weighted>
3.2036

> <Gold.Chemscore.Internal.Correction.Weighted>
   9.000000E+99

> <Gold.Protein.RotatedTorsions>
[ 6907 6896 6895 6894 ] final   15.13 input  -60.11 | X-H torsion
[ 7974 7965 7964 7962 ] final  103.82 input  175.53 | X-H torsion
[ 8008 7997 7996 7995 ] final  -54.10 input   59.86 | X-H torsion
[ 10167 10162 10161 10158 ] final  -73.01 input  -65.29 | X-H torsion
[ 10718 10713 10712 10709 ] final -106.50 input   66.30 | X-H torsion
[ 10763 10752 10751 10750 ] final -102.20 input  -60.55 | X-H torsion
[ 11005 11000 10999 10996 ] final  123.12 input  -57.11 | X-H torsion

> <Gold.Protein.ActiveResidues>
 VAL166  LYS551  ARG553  GLY616  TRP617  ASP618  TYR619  PRO620  LYS621  CYS622 
 ASP623  PHE694  ASN695  SER759  ASP760  ASP761  ALA762  ILE779  LEU786  VAL792 
 PHE793  MET794  SER795  GLU796  ALA797  LYS798  CYS799  TRP800  GLU811  SER814 

> <Gold.Protein.RotatedAtoms>
  151.8132  135.0674  160.0415 H   0  0  0  0  0  0  0  0  0  0  0  0  # atno 6907 bound_to 6896
  152.3005  133.5646  159.5624 H   0  0  0  0  0  0  0  0  0  0  0  0  # atno 6908 bound_to 6896
  150.7271  134.0214  159.3744 H   0  0  0  0  0  0  0  0  0  0  0  0  # atno 6909 bound_to 6896
  145.3409  139.2462  143.3610 H   0  0  0  0  0  0  0  0  0  0  0  0  # atno 7974 bound_to 7965
  154.4152  140.1184  156.5261 H   0  0  0  0  0  0  0  0  0  0  0  0  # atno 8008 bound_to 7997
  155.6653  140.3496  155.4779 H   0  0  0  0  0  0  0  0  0  0  0  0  # atno 8009 bound_to 7997
  155.9678  140.1135  157.0829 H   0  0  0  0  0  0  0  0  0  0  0  0  # atno 8010 bound_to 7997
  140.5146  143.2340  151.7535 H   0  0  0  0  0  0  0  0  0  0  0  0  # atno 10167 bound_to 10162
  156.0393  130.5616  150.7689 H   0  0  0  0  0  0  0  0  0  0  0  0  # atno 10718 bound_to 10713
  154.7716  135.4869  153.9659 H   0  0  0  0  0  0  0  0  0  0  0  0  # atno 10763 bound_to 10752
  153.1374  135.6765  153.9088 H   0  0  0  0  0  0  0  0  0  0  0  0  # atno 10764 bound_to 10752
  153.8773  135.3136  155.3422 H   0  0  0  0  0  0  0  0  0  0  0  0  # atno 10765 bound_to 10752
  139.9298  134.9641  156.8212 H   0  0  0  0  0  0  0  0  0  0  0  0  # atno 11005 bound_to 11000
  146.3008  140.4006  142.8705 LP  0  0  0  0  0  0  0  0  0  0  0  0  # atno 17320 bound_to 7965
  144.8791  140.7376  143.5998 LP  0  0  0  0  0  0  0  0  0  0  0  0  # atno 17321 bound_to 7965
  139.4905  144.4342  151.9837 LP  0  0  0  0  0  0  0  0  0  0  0  0  # atno 17342 bound_to 10162
  140.3436  144.3173  150.5962 LP  0  0  0  0  0  0  0  0  0  0  0  0  # atno 17343 bound_to 10162
  157.5188  131.0930  151.0104 LP  0  0  0  0  0  0  0  0  0  0  0  0  # atno 17370 bound_to 10713
  157.0440  130.5760  149.5360 LP  0  0  0  0  0  0  0  0  0  0  0  0  # atno 17371 bound_to 10713
  140.6232  133.9974  155.7628 LP  0  0  0  0  0  0  0  0  0  0  0  0  # atno 17394 bound_to 11000
  141.0880  133.9960  157.3282 LP  0  0  0  0  0  0  0  0  0  0  0  0  # atno 17395 bound_to 11000

$$$$
