AV-unprocessed.smi:2798|AV-procd|sdf|10785|dock3
  -GOLD-   2272015223D 1   1.00000     0.00000
 Structure written by MMmdl.
 29 31  0  0  0  0  0  0  0  0  1 V2000
  151.7757  137.3257  154.2554 N   0  0  0  0  0  0  0  0  0  0  0  0
  151.5648  138.3017  154.8405 C   0  0  0  0  0  0  0  0  0  0  0  0
  151.3002  139.5268  155.5756 C   0  0  0  0  0  0  0  0  0  0  0  0
  151.8183  139.6823  156.8784 C   0  0  0  0  0  0  0  0  0  0  0  0
  151.5498  140.8763  157.5749 C   0  0  0  0  0  0  0  0  0  0  0  0
  150.7717  141.8772  156.9478 C   0  0  0  0  0  0  0  0  0  0  0  0
  150.4461  143.0993  157.5550 N   0  0  0  0  0  0  0  0  0  0  0  0
  150.6890  143.3350  158.9733 C   0  0  2  0  0  0  0  0  0  0  0  0
  150.3265  144.7577  159.4200 C   0  0  0  0  0  0  0  0  0  0  0  0
  151.6454  145.2449  160.0325 C   0  0  1  0  0  0  0  0  0  0  0  0
  151.9859  144.5159  161.3393 C   0  0  0  0  0  0  0  0  0  0  0  0
  152.4033  143.1374  160.8278 C   0  0  0  0  0  0  0  0  0  0  0  0
  152.1884  143.2828  159.3150 C   0  0  2  0  0  0  0  0  0  0  0  0
  152.5676  144.6392  159.1447 O   0  0  0  0  0  0  0  0  0  0  0  0
  150.3057  141.6195  155.6413 C   0  0  0  0  0  0  0  0  0  0  0  0
  150.5578  140.4771  154.9675 N   0  0  0  0  0  0  0  0  0  0  0  0
  152.4107  138.9053  157.3400 H   0  0  0  0  0  0  0  0  0  0  0  0
  151.9428  141.0035  158.5723 H   0  0  0  0  0  0  0  0  0  0  0  0
  149.8545  143.7519  157.0603 H   0  0  0  0  0  0  0  0  0  0  0  0
  150.1575  142.5817  159.5558 H   0  0  0  0  0  0  0  0  0  0  0  0
  150.0526  145.3892  158.5731 H   0  0  0  0  0  0  0  0  0  0  0  0
  149.5034  144.7770  160.1348 H   0  0  0  0  0  0  0  0  0  0  0  0
  151.7287  146.3302  160.0953 H   0  0  0  0  0  0  0  0  0  0  0  0
  152.8176  145.0011  161.8516 H   0  0  0  0  0  0  0  0  0  0  0  0
  151.1380  144.4764  162.0238 H   0  0  0  0  0  0  0  0  0  0  0  0
  153.4542  142.9500  161.0512 H   0  0  0  0  0  0  0  0  0  0  0  0
  151.8138  142.3276  161.2586 H   0  0  0  0  0  0  0  0  0  0  0  0
  152.7652  142.5709  158.7234 H   0  0  0  0  0  0  0  0  0  0  0  0
  149.7082  142.3518  155.1181 H   0  0  0  0  0  0  0  0  0  0  0  0
  1  2  3  0  0  0  0
  2  3  1  0  0  0  0
  3 16  1  0  0  0  0
  3  4  2  0  0  0  0
  4  5  1  0  0  0  0
  4 17  1  0  0  0  0
  5  6  2  0  0  0  0
  5 18  1  0  0  0  0
  6  7  1  0  0  0  0
  6 15  1  0  0  0  0
  7  8  1  0  0  0  0
  7 19  1  0  0  0  0
  8 13  1  0  0  0  0
  8  9  1  0  0  0  0
  8 20  1  0  0  0  0
  9 10  1  0  0  0  0
  9 21  1  0  0  0  0
  9 22  1  0  0  0  0
 10 14  1  0  0  0  0
 10 11  1  0  0  0  0
 10 23  1  0  0  0  0
 11 12  1  0  0  0  0
 11 24  1  0  0  0  0
 11 25  1  0  0  0  0
 12 13  1  0  0  0  0
 12 26  1  0  0  0  0
 12 27  1  0  0  0  0
 13 14  1  0  0  0  0
 13 28  1  0  0  0  0
 15 16  2  0  0  0  0
 15 29  1  0  0  0  0
M  END
> <s_m_source_file>
AV-unprocessed.smi

> <i_m_source_file_index>
2798

> <i_lp_mmshare_version>
43012

> <i_f3d_flags>
0

> <s_epik_input>
TiNDYzFbY0hdW2NIXWMoW2NIXW4xKVtOSF1bQ0BIXShbQ0gyXVtDQEBIXTIzKVtDQEBIXShPMylbQ0gyXVtDSDJdMg==

> <s_epik_cmdline>
J2VwaWtfcHl0aG9uJywgJy1waCcsICc3LjAnLCAnLXRuJywgJzgnLCAnLW1hJywgJzIwMCcsICctbWV0YWxfYmluZGluZycsICctaW1hZScsICc8aW5maWxlLm1hZT4nLCAnLW9tYWUnLCAnPG91dGZpbGUubWFlPic=

> <r_lp_tautomer_probability>
1

> <r_epik_Ionization_Penalty>
2.201e-07

> <r_epik_Ionization_Penalty_Charging>
0

> <r_epik_Ionization_Penalty_Neutral>
2.201e-07

> <r_epik_State_Penalty>
-0

> <r_epik_Charging_Adjusted_Penalty>
0

> <i_epik_Tot_Q>
0

> <i_epik_Tot_abs_Q>
0

> <r_epik_Metal_State_Penalty>
-0

> <b_epik_Metal_Only>
0

> <s_lp_Force_Field>
OPLS_2005

> <r_lp_Energy>
43.4695

> <b_lp_Chiralities_Consistent>
1

> <s_lp_Variant>
AV-unprocessed.smi:2798-1

> <Gold.Version>
5.8.1

> <Gold.Id.Protein>
6NUR|6NUR_protein|mol2

> <Gold.PLP.Fitness>
50.3916

> <Gold.PLP.PLP>
-38.6821

> <Gold.PLP.part.hbond>
-3.0000

> <Gold.PLP.part.metal>
0.0000

> <Gold.PLP.part.buried>
-4.5634

> <Gold.PLP.part.nonpolar>
-31.3755

> <Gold.PLP.part.repulsive>
0.5130

> <Gold.PLP.ligand.clash>
0.0000

> <Gold.PLP.ligand.torsion>
0.0373

> <Gold.PLP.Chemscore.Hbond>
2.9600

> <Gold.PLP.Chemscore.CHOScore>
0.9615

> <Gold.PLP.Chemscore.Metal>
0.0000

> <Gold.Chemscore.Hbonds>
donor molecule, donor type, donor heavy atom, donor atom, acceptor molecule, acceptor atom, score
      L1  H     7    19       P1  8028  1.00
      P1  H  7989  7998       L1    16  1.00
      P1  H 10752 10765       L1     1  0.98
      L1  C    15    29       P1  8028  0.93

> <Gold.PLP.Chemscore.Internal.Correction>
0.0198

> <Gold.Rescore>
     Score         DG    S(hbond)    S(metal)    S(lipo)     H(rot)  DE(clash)    DE(int)     intcor
     21.94     -22.06       2.34        0.00      96.74       1.00       0.10       0.02       ----

> <Gold.Chemscore.Fitness>
21.9378

> <Gold.Chemscore.DG>
-22.0570

> <Gold.Chemscore.ZeroCoef>
-5.4800

> <Gold.Chemscore.Hbond>
2.3408

> <Gold.Chemscore.Metal>
0.0000

> <Gold.Chemscore.Lipo>
96.7405

> <Gold.Chemscore.Internal_Hbond>
0.0000

> <Gold.Chemscore.DEClash>
0.0985

> <Gold.Chemscore.DEInternal>
0.0207

> <Gold.Chemscore.Rot>
1.0000

> <Gold.Chemscore.Internal.Correction>
   9.000000E+99

> <Gold.Chemscore.Hbonds>
donor molecule, donor type, donor heavy atom, donor atom, acceptor molecule, acceptor atom, score
      L1  H     7    19       P1  8028  0.94
      P1  H  7989  7998       L1    16  0.19
      P1  H 10752 10765       L1     1  0.86

> <Gold.Chemscore.Hbond.Weighted>
-7.8183

> <Gold.Chemscore.Metal.Weighted>
-0.0000

> <Gold.Chemscore.Lipo.Weighted>
-11.3186

> <Gold.Chemscore.Internal_Hbond.Weighted>
0.0000

> <Gold.Chemscore.DEClash.Weighted>
0.0985

> <Gold.Chemscore.DEInternal.Weighted>
0.0207

> <Gold.Chemscore.Rot.Weighted>
2.5600

> <Gold.Chemscore.Internal.Correction.Weighted>
   9.000000E+99

> <Gold.Protein.RotatedTorsions>
[ 6907 6896 6895 6894 ] final   68.60 input  -60.11 | X-H torsion
[ 7974 7965 7964 7962 ] final  -98.02 input  175.53 | X-H torsion
[ 8008 7997 7996 7995 ] final  128.31 input   59.86 | X-H torsion
[ 10167 10162 10161 10158 ] final  178.87 input  -65.29 | X-H torsion
[ 10718 10713 10712 10709 ] final  -93.42 input   66.30 | X-H torsion
[ 10763 10752 10751 10750 ] final  148.22 input  -60.55 | X-H torsion
[ 11005 11000 10999 10996 ] final -172.83 input  -57.11 | X-H torsion

> <Gold.Protein.ActiveResidues>
 VAL166  LYS551  ARG553  GLY616  TRP617  ASP618  TYR619  PRO620  LYS621  CYS622 
 ASP623  PHE694  ASN695  SER759  ASP760  ASP761  ALA762  ILE779  LEU786  VAL792 
 PHE793  MET794  SER795  GLU796  ALA797  LYS798  CYS799  TRP800  GLU811  SER814 

> <Gold.Protein.RotatedAtoms>
  152.4631  134.5138  159.9761 H   0  0  0  0  0  0  0  0  0  0  0  0  # atno 6907 bound_to 6896
  151.5182  133.3465  159.2904 H   0  0  0  0  0  0  0  0  0  0  0  0  # atno 6908 bound_to 6896
  150.8603  134.7982  159.7140 H   0  0  0  0  0  0  0  0  0  0  0  0  # atno 6909 bound_to 6896
  145.3260  140.9432  143.2688 H   0  0  0  0  0  0  0  0  0  0  0  0  # atno 7974 bound_to 7965
  156.2912  140.2648  156.2415 H   0  0  0  0  0  0  0  0  0  0  0  0  # atno 8008 bound_to 7997
  154.9972  140.0388  157.2363 H   0  0  0  0  0  0  0  0  0  0  0  0  # atno 8009 bound_to 7997
  154.7633  140.2765  155.6201 H   0  0  0  0  0  0  0  0  0  0  0  0  # atno 8010 bound_to 7997
  139.5312  144.2628  152.0692 H   0  0  0  0  0  0  0  0  0  0  0  0  # atno 10167 bound_to 10162
  156.0013  130.5026  150.5773 H   0  0  0  0  0  0  0  0  0  0  0  0  # atno 10718 bound_to 10713
  154.0512  135.2881  155.3340 H   0  0  0  0  0  0  0  0  0  0  0  0  # atno 10763 bound_to 10752
  154.6868  135.5242  153.8340 H   0  0  0  0  0  0  0  0  0  0  0  0  # atno 10764 bound_to 10752
  153.0560  135.6595  154.0708 H   0  0  0  0  0  0  0  0  0  0  0  0  # atno 10765 bound_to 10752
  140.4925  134.5971  157.4960 H   0  0  0  0  0  0  0  0  0  0  0  0  # atno 11005 bound_to 11000
  144.8901  139.4786  143.6682 LP  0  0  0  0  0  0  0  0  0  0  0  0  # atno 17320 bound_to 7965
  146.3064  139.7594  142.9053 LP  0  0  0  0  0  0  0  0  0  0  0  0  # atno 17321 bound_to 7965
  140.2092  144.4580  150.6394 LP  0  0  0  0  0  0  0  0  0  0  0  0  # atno 17342 bound_to 10162
  140.6491  143.2220  151.6118 LP  0  0  0  0  0  0  0  0  0  0  0  0  # atno 17343 bound_to 10162
  157.3659  131.0757  151.1598 LP  0  0  0  0  0  0  0  0  0  0  0  0  # atno 17370 bound_to 10713
  157.2367  130.6550  149.5872 LP  0  0  0  0  0  0  0  0  0  0  0  0  # atno 17371 bound_to 10713
  139.9760  134.7214  155.9948 LP  0  0  0  0  0  0  0  0  0  0  0  0  # atno 17394 bound_to 11000
  141.1477  133.6553  156.3916 LP  0  0  0  0  0  0  0  0  0  0  0  0  # atno 17395 bound_to 11000

$$$$
