AV-unprocessed.smi:651|AV-procd|sdf|3191|dock8
  -GOLD-   22720 0113D 1   1.00000     0.00000
 Structure written by MMmdl.
 39 40  0  0  0  0  0  0  0  0  2 V2000
  144.9658  135.8987  151.7732 C   0  0  0  0  0  0  0  0  0  0  0  0
  145.6606  137.0946  152.3891 C   0  0  0  0  0  0  0  0  0  0  0  0
  146.1067  137.1007  153.7280 C   0  0  0  0  0  0  0  0  0  0  0  0
  146.7521  138.2483  154.2340 C   0  0  0  0  0  0  0  0  0  0  0  0
  146.9391  139.3670  153.3921 C   0  0  0  0  0  0  0  0  0  0  0  0
  147.6376  140.6149  153.9041 C   0  0  0  0  0  0  0  0  0  0  0  0
  149.0584  140.2774  154.3562 C   0  0  0  0  0  0  0  0  0  0  0  0
  149.5245  139.1642  154.1174 O   0  0  0  0  0  0  0  0  0  0  0  0
  149.7205  141.2424  155.0181 N   0  0  0  0  0  0  0  0  0  0  0  0
  151.0647  141.1672  155.5995 C   0  0  1  0  0  0  0  0  0  0  0  0
  151.2413  142.0233  156.8713 C   0  0  0  0  0  0  0  0  0  0  0  0
  151.5577  141.0401  157.9987 C   0  0  0  0  0  0  0  0  0  0  0  0
  152.2399  139.8636  157.3040 C   0  0  0  0  0  0  0  0  0  0  0  0
  151.5045  139.7233  155.9620 C   0  0  2  0  0  0  0  0  0  0  0  0
  152.3633  139.0629  154.8731 C   0  0  0  0  0  0  0  0  0  0  0  0
  151.9107  137.9196  154.3525 N   0  0  0  0  0  0  0  0  0  0  0  0
  153.4191  139.5747  154.5045 O   0  0  0  0  0  0  0  0  0  0  0  0
  146.4672  139.3043  152.0623 C   0  0  0  0  0  0  0  0  0  0  0  0
  145.8562  138.1856  151.6151 N   0  3  0  0  0  0  0  0  0  0  0  0
  144.6968  135.1664  152.5349 H   0  0  0  0  0  0  0  0  0  0  0  0
  145.6199  135.4133  151.0481 H   0  0  0  0  0  0  0  0  0  0  0  0
  144.0532  136.2067  151.2620 H   0  0  0  0  0  0  0  0  0  0  0  0
  145.9594  136.2378  154.3612 H   0  0  0  0  0  0  0  0  0  0  0  0
  147.1006  138.2657  155.2565 H   0  0  0  0  0  0  0  0  0  0  0  0
  147.6710  141.3641  153.1118 H   0  0  0  0  0  0  0  0  0  0  0  0
  147.0778  141.0546  154.7310 H   0  0  0  0  0  0  0  0  0  0  0  0
  149.2389  142.1202  155.1487 H   0  0  0  0  0  0  0  0  0  0  0  0
  151.7283  141.5836  154.8398 H   0  0  0  0  0  0  0  0  0  0  0  0
  152.0891  142.6959  156.7353 H   0  0  0  0  0  0  0  0  0  0  0  0
  150.3779  142.6473  157.1045 H   0  0  0  0  0  0  0  0  0  0  0  0
  152.1774  141.4829  158.7789 H   0  0  0  0  0  0  0  0  0  0  0  0
  150.6313  140.7024  158.4646 H   0  0  0  0  0  0  0  0  0  0  0  0
  153.2958  140.0951  157.1540 H   0  0  0  0  0  0  0  0  0  0  0  0
  152.1841  138.9530  157.9014 H   0  0  0  0  0  0  0  0  0  0  0  0
  150.6264  139.1010  156.1414 H   0  0  0  0  0  0  0  0  0  0  0  0
  152.4376  137.4498  153.6305 H   0  0  0  0  0  0  0  0  0  0  0  0
  151.0385  137.5312  154.6812 H   0  0  0  0  0  0  0  0  0  0  0  0
  146.5664  140.1069  151.3458 H   0  0  0  0  0  0  0  0  0  0  0  0
  145.5293  138.1632  150.6488 H   0  0  0  0  0  0  0  0  0  0  0  0
  1  2  1  0  0  0  0
  1 20  1  0  0  0  0
  1 21  1  0  0  0  0
  1 22  1  0  0  0  0
  2 19  1  0  0  0  0
  2  3  2  0  0  0  0
  3  4  1  0  0  0  0
  3 23  1  0  0  0  0
  4  5  2  0  0  0  0
  4 24  1  0  0  0  0
  5  6  1  0  0  0  0
  5 18  1  0  0  0  0
  6  7  1  0  0  0  0
  6 25  1  0  0  0  0
  6 26  1  0  0  0  0
  7  8  2  0  0  0  0
  7  9  1  0  0  0  0
  9 10  1  0  0  0  0
  9 27  1  0  0  0  0
 10 14  1  0  0  0  0
 10 11  1  0  0  0  0
 10 28  1  0  0  0  0
 11 12  1  0  0  0  0
 11 29  1  0  0  0  0
 11 30  1  0  0  0  0
 12 13  1  0  0  0  0
 12 31  1  0  0  0  0
 12 32  1  0  0  0  0
 13 14  1  0  0  0  0
 13 33  1  0  0  0  0
 13 34  1  0  0  0  0
 14 15  1  0  0  0  0
 14 35  1  0  0  0  0
 15 16  1  0  0  0  0
 15 17  2  0  0  0  0
 16 36  1  0  0  0  0
 16 37  1  0  0  0  0
 18 19  2  0  0  0  0
 18 38  1  0  0  0  0
 19 39  1  0  0  0  0
M  CHG  1  19   1
M  END
> <s_m_source_file>
AV-unprocessed.smi

> <i_m_source_file_index>
651

> <i_lp_mmshare_version>
43012

> <i_f3d_flags>
0

> <s_epik_input>
W0NIM11jMVtjSF1bY0hdYyhbY0hdbjEpW0NIMl1DKD1PKVtOSF1bQ0BASF0yW0NIMl1bQ0gyXVtDSDJdW0NASF0yQyg9TylbTkgyXQ==

> <s_epik_cmdline>
J2VwaWtfcHl0aG9uJywgJy1waCcsICc3LjAnLCAnLXRuJywgJzgnLCAnLW1hJywgJzIwMCcsICctbWV0YWxfYmluZGluZycsICctaW1hZScsICc8aW5maWxlLm1hZT4nLCAnLW9tYWUnLCAnPG91dGZpbGUubWFlPic=

> <r_epik_Ionization_Penalty>
2.14971

> <r_epik_Ionization_Penalty_Charging>
2.14971

> <r_epik_Ionization_Penalty_Neutral>
1.65229e-07

> <r_epik_State_Penalty>
2.28946

> <r_epik_Charging_Adjusted_Penalty>
4.43917

> <i_epik_Tot_Q>
1

> <i_epik_Tot_abs_Q>
1

> <r_epik_Metal_State_Penalty>
2.30508

> <b_epik_Metal_Only>
0

> <s_lp_Force_Field>
OPLS_2005

> <r_lp_Energy>
21.472

> <b_lp_Chiralities_Consistent>
1

> <s_lp_Variant>
AV-unprocessed.smi:651-8

> <Gold.Version>
5.8.1

> <Gold.Id.Protein>
6NUR|6NUR_protein|mol2

> <Gold.PLP.Fitness>
38.6719

> <Gold.PLP.PLP>
-35.0271

> <Gold.PLP.part.hbond>
-3.0000

> <Gold.PLP.part.metal>
0.0000

> <Gold.PLP.part.buried>
-2.9926

> <Gold.PLP.part.nonpolar>
-29.0839

> <Gold.PLP.part.repulsive>
0.9012

> <Gold.PLP.ligand.clash>
0.0000

> <Gold.PLP.ligand.torsion>
0.4500

> <Gold.PLP.Chemscore.Hbond>
1.5120

> <Gold.PLP.Chemscore.CHOScore>
0.0000

> <Gold.PLP.Chemscore.Metal>
0.0000

> <Gold.Chemscore.Hbonds>
donor molecule, donor type, donor heavy atom, donor atom, acceptor molecule, acceptor atom, score
      L1  H    19    39       P1 10171  0.69
      P1  H  7997  8008       L1    17  1.00

> <Gold.PLP.Chemscore.Internal.Correction>
0.0088

> <Gold.Rescore>
     Score         DG    S(hbond)    S(metal)    S(lipo)     H(rot)  DE(clash)    DE(int)     intcor
      9.13     -13.79       1.64        0.00      68.95       2.04       0.26       4.41       ----

> <Gold.Chemscore.Fitness>
9.1299

> <Gold.Chemscore.DG>
-13.7938

> <Gold.Chemscore.ZeroCoef>
-5.4800

> <Gold.Chemscore.Hbond>
1.6364

> <Gold.Chemscore.Metal>
0.0000

> <Gold.Chemscore.Lipo>
68.9481

> <Gold.Chemscore.Internal_Hbond>
0.0000

> <Gold.Chemscore.DEClash>
0.2572

> <Gold.Chemscore.DEInternal>
4.4068

> <Gold.Chemscore.Rot>
2.0386

> <Gold.Chemscore.Internal.Correction>
   9.000000E+99

> <Gold.Chemscore.Hbonds>
donor molecule, donor type, donor heavy atom, donor atom, acceptor molecule, acceptor atom, score
      L1  H    19    39       P1 10171  0.68
      P1  H  7997  8008       L1    17  0.99

> <Gold.Chemscore.Hbond.Weighted>
-5.4657

> <Gold.Chemscore.Metal.Weighted>
-0.0000

> <Gold.Chemscore.Lipo.Weighted>
-8.0669

> <Gold.Chemscore.Internal_Hbond.Weighted>
0.0000

> <Gold.Chemscore.DEClash.Weighted>
0.2572

> <Gold.Chemscore.DEInternal.Weighted>
4.4068

> <Gold.Chemscore.Rot.Weighted>
5.2188

> <Gold.Chemscore.Internal.Correction.Weighted>
   9.000000E+99

> <Gold.Protein.RotatedTorsions>
[ 6907 6896 6895 6894 ] final  151.62 input  -60.11 | X-H torsion
[ 7974 7965 7964 7962 ] final  106.68 input  175.53 | X-H torsion
[ 8008 7997 7996 7995 ] final   13.67 input   59.86 | X-H torsion
[ 10167 10162 10161 10158 ] final  -94.69 input  -65.29 | X-H torsion
[ 10718 10713 10712 10709 ] final  -36.60 input   66.30 | X-H torsion
[ 10763 10752 10751 10750 ] final   22.11 input  -60.55 | X-H torsion
[ 11005 11000 10999 10996 ] final   18.09 input  -57.11 | X-H torsion

> <Gold.Protein.ActiveResidues>
 VAL166  LYS551  ARG553  GLY616  TRP617  ASP618  TYR619  PRO620  LYS621  CYS622 
 ASP623  PHE694  ASN695  SER759  ASP760  ASP761  ALA762  ILE779  LEU786  VAL792 
 PHE793  MET794  SER795  GLU796  ALA797  LYS798  CYS799  TRP800  GLU811  SER814 

> <Gold.Protein.RotatedAtoms>
  152.0981  133.4235  159.4574 H   0  0  0  0  0  0  0  0  0  0  0  0  # atno 6907 bound_to 6896
  150.6863  134.2793  159.4630 H   0  0  0  0  0  0  0  0  0  0  0  0  # atno 6908 bound_to 6896
  152.0651  134.9569  160.0625 H   0  0  0  0  0  0  0  0  0  0  0  0  # atno 6909 bound_to 6896
  145.3035  139.2562  143.3801 H   0  0  0  0  0  0  0  0  0  0  0  0  # atno 7974 bound_to 7965
  154.8377  140.2909  155.5680 H   0  0  0  0  0  0  0  0  0  0  0  0  # atno 8008 bound_to 7997
  156.3010  140.2520  156.3245 H   0  0  0  0  0  0  0  0  0  0  0  0  # atno 8009 bound_to 7997
  154.9160  140.0387  157.1961 H   0  0  0  0  0  0  0  0  0  0  0  0  # atno 8010 bound_to 7997
  140.3118  143.3100  152.0140 H   0  0  0  0  0  0  0  0  0  0  0  0  # atno 10167 bound_to 10162
  156.3249  130.4271  149.7926 H   0  0  0  0  0  0  0  0  0  0  0  0  # atno 10718 bound_to 10713
  153.0942  135.6655  153.9796 H   0  0  0  0  0  0  0  0  0  0  0  0  # atno 10763 bound_to 10752
  153.9384  135.2996  155.3445 H   0  0  0  0  0  0  0  0  0  0  0  0  # atno 10764 bound_to 10752
  154.7359  135.5102  153.9114 H   0  0  0  0  0  0  0  0  0  0  0  0  # atno 10765 bound_to 10752
  140.4286  134.1443  155.7678 H   0  0  0  0  0  0  0  0  0  0  0  0  # atno 11005 bound_to 11000
  146.3144  140.3554  142.8660 LP  0  0  0  0  0  0  0  0  0  0  0  0  # atno 17320 bound_to 7965
  144.9074  140.7716  143.5829 LP  0  0  0  0  0  0  0  0  0  0  0  0  # atno 17321 bound_to 7965
  139.4892  144.6378  151.6939 LP  0  0  0  0  0  0  0  0  0  0  0  0  # atno 17342 bound_to 10162
  140.5561  144.0346  150.6148 LP  0  0  0  0  0  0  0  0  0  0  0  0  # atno 17343 bound_to 10162
  156.5220  130.8219  151.3207 LP  0  0  0  0  0  0  0  0  0  0  0  0  # atno 17370 bound_to 10713
  157.7419  130.9880  150.2479 LP  0  0  0  0  0  0  0  0  0  0  0  0  # atno 17371 bound_to 10713
  141.1755  133.8523  157.1436 LP  0  0  0  0  0  0  0  0  0  0  0  0  # atno 17394 bound_to 11000
  140.0150  134.9971  157.0474 LP  0  0  0  0  0  0  0  0  0  0  0  0  # atno 17395 bound_to 11000

$$$$
