#       Name:                AV-unprocessed.smi:897
#       Creating user name   scv26
#       Creation time:       Fri Mar 27 01:56:48 2020


#       File generated by GOLD software.
#

@<TRIPOS>MOLECULE
AV-unprocessed.smi:897
    39    41     1
SMALL
NO_CHARGES


@<TRIPOS>ATOM
      1 ****        -3.3304   1.8515  -0.0681 C.3            1 S1                 0.0000
      2 ****        -2.6952   0.4823   0.0525 C.ar           1 S1                 0.0000
      3 ****        -3.4746  -0.6872  -0.0177 C.ar           1 S1                 0.0000
      4 ****        -2.8323  -1.9362   0.1022 C.ar           1 S1                 0.0000
      5 ****        -3.6657  -3.2069   0.0337 C.3            1 S1                 0.0000
      6 ****        -1.4248  -1.9650   0.2843 C.ar           1 S1                 0.0000
      7 ****        -0.7196  -3.2397   0.4075 C.1            1 S1                 0.0000
      8 ****        -0.1611  -4.2484   0.5049 N.1            1 S1                 0.0000
      9 ****        -0.7257  -0.7274   0.3401 C.ar           1 S1                 0.0000
     10 ****         0.6698  -0.7032   0.5227 N.pl3          1 S1                 0.0000
     11 ****         1.4434   0.5236   0.3626 C.3            1 S1                 0.0000
     12 ****         1.5686   0.9697  -1.1001 C.3            1 S1                 0.0000
     13 ****         3.0896   1.0460  -1.2799 C.3            1 S1                 0.0000
     14 ****         3.7134   2.1991  -0.4818 C.3            1 S1                 0.0000
     15 ****         3.6218   1.6731   0.9504 C.3            1 S1                 0.0000
     16 ****         2.9192   0.3240   0.7473 C.3            1 S1                 0.0000
     17 ****         3.4875  -0.0630  -0.4938 O.3            1 S1                 0.0000
     18 ****        -1.3587   0.4650   0.2277 N.ar           1 S1                 0.0000
     19 ****        -4.4178   1.7813  -0.1097 H              1 S1                 0.0000
     20 ****        -2.9855   2.3497  -0.9747 H              1 S1                 0.0000
     21 ****        -3.0637   2.4715   0.7883 H              1 S1                 0.0000
     22 ****        -4.5438  -0.6269  -0.1598 H              1 S1                 0.0000
     23 ****        -3.3559  -3.8223  -0.8113 H              1 S1                 0.0000
     24 ****        -4.7254  -2.9810  -0.0866 H              1 S1                 0.0000
     25 ****        -3.5511  -3.7897   0.9479 H              1 S1                 0.0000
     26 ****         1.1732  -1.5776   0.5687 H              1 S1                 0.0000
     27 ****         1.0052   1.3061   0.9839 H              1 S1                 0.0000
     28 ****         1.1473   0.2313  -1.7843 H              1 S1                 0.0000
     29 ****         1.0775   1.9244  -1.2905 H              1 S1                 0.0000
     30 ****         3.4140   0.9990  -2.3197 H              1 S1                 0.0000
     31 ****         4.7550   2.3518  -0.7665 H              1 S1                 0.0000
     32 ****         3.1774   3.1380  -0.6246 H              1 S1                 0.0000
     33 ****         4.6185   1.5300   1.3693 H              1 S1                 0.0000
     34 ****         3.0662   2.3379   1.6128 H              1 S1                 0.0000
     35 ****         3.0846  -0.3803   1.5636 H              1 S1                 0.0000
     36 ****         0.3215  -5.1202   0.5890 LP             1 S1                 0.0000
     37 ****         4.4826  -0.1460  -0.4402 LP             1 S1                 0.0000
     38 ****         3.0993  -0.9202  -0.8322 LP             1 S1                 0.0000
     39 ****        -0.8421   1.3199   0.2740 LP             1 S1                 0.0000
@<TRIPOS>BOND
    1    1    2 1     
    2    1   19 1     
    3    1   20 1     
    4    1   21 1     
    5    2   18 ar    
    6    2    3 ar    
    7    3    4 ar    
    8    3   22 1     
    9    4    5 1     
   10    4    6 ar    
   11    5   23 1     
   12    5   24 1     
   13    5   25 1     
   14    6    7 1     
   15    6    9 ar    
   16    7    8 3     
   17    9   10 1     
   18    9   18 ar    
   19   10   11 1     
   20   10   26 1     
   21   11   16 1     
   22   11   12 1     
   23   11   27 1     
   24   12   13 1     
   25   12   28 1     
   26   12   29 1     
   27   13   17 1     
   28   13   14 1     
   29   13   30 1     
   30   14   15 1     
   31   14   31 1     
   32   14   32 1     
   33   15   16 1     
   34   15   33 1     
   35   15   34 1     
   36   16   17 1     
   37   16   35 1     
   38    8   36 1     
   39   17   37 1     
   40   17   38 1     
   41   18   39 1     
@<TRIPOS>SUBSTRUCTURE
      1 S1             1
@<TRIPOS>SET
LONE_PAIRS      STATIC     ATOMS    <user>   **** ""
4 36 37 38 39
DONOR_HYDROGENS      STATIC     ATOMS    <user>   **** ""
1 26
ATOM$BLUE        STATIC     ATOMS    COLORGROUP SYSTEM
4 36 37 38 39
ATOM$RED        STATIC     ATOMS    COLORGROUP SYSTEM
1 26
