#       Name:                AV-unprocessed.smi:54
#       Creating user name   scv26
#       Creation time:       Thu Mar 26 16:41:15 2020


#       File generated by GOLD software.
#

@<TRIPOS>MOLECULE
AV-unprocessed.smi:54
    58    60     1
SMALL
NO_CHARGES


@<TRIPOS>ATOM
      1 ****         0.3379   4.4380  -0.5800 C.3            1 S1                 0.0000
      2 ****        -0.8199   3.8895   0.2696 C.3            1 S1                 0.0000
      3 ****        -0.7974   4.4770   1.6901 C.3            1 S1                 0.0000
      4 ****        -0.7753   2.3583   0.3183 C.2            1 S1                 0.0000
      5 ****         0.1864   1.7482   0.7844 O.2            1 S1                 0.0000
      6 ****        -1.9468   1.6834  -0.2064 N.am           1 S1                 0.0000
      7 ****        -2.1558   0.3493  -0.2827 C.2            1 S1                 0.0000
      8 ****        -1.1762  -0.5435  -0.2426 N.2            1 S1                 0.0000
      9 ****        -1.5847  -1.8442  -0.3627 C.2            1 S1                 0.0000
     10 ****        -2.8857  -2.2821  -0.5106 C.2            1 S1                 0.0000
     11 ****        -2.9221  -3.6688  -0.5948 N.2            1 S1                 0.0000
     12 ****        -1.6712  -4.0223  -0.5062 C.2            1 S1                 0.0000
     13 ****        -0.7914  -2.9757  -0.3719 N.pl3          1 S1                 0.0000
     14 ****         0.6958  -3.0515  -0.2578 C.3            1 S1                 0.0000
     15 ****         1.0953  -2.2682   0.8195 O.3            1 S1                 0.0000
     16 ****         2.4015  -1.7829   0.5474 C.3            1 S1                 0.0000
     17 ****         2.7815  -0.6275   1.4897 C.3            1 S1                 0.0000
     18 ****         3.2966  -1.1395   2.7003 O.3            1 S1                 0.0000
     19 ****         2.3319  -1.4390  -0.9492 C.3            1 S1                 0.0000
     20 ****         1.8044  -0.1436  -1.1633 O.3            1 S1                 0.0000
     21 ****         1.3906  -2.5019  -1.5169 C.3            1 S1                 0.0000
     22 ****         2.1545  -3.5071  -2.1538 O.3            1 S1                 0.0000
     23 ****        -3.9550  -1.3273  -0.5569 C.2            1 S1                 0.0000
     24 ****        -5.1594  -1.5374  -0.6831 O.2            1 S1                 0.0000
     25 ****        -3.4930  -0.0113  -0.4406 N.am           1 S1                 0.0000
     26 ****         0.9143  -4.1023  -0.0606 H              1 S1                 0.0000
     27 ****         3.1067  -2.6080   0.6696 H              1 S1                 0.0000
     28 ****         3.3222  -1.4659  -1.4063 H              1 S1                 0.0000
     29 ****         0.6694  -2.0880  -2.2239 H              1 S1                 0.0000
     30 ****         0.3279   4.0148  -1.5852 H              1 S1                 0.0000
     31 ****         1.3069   4.2117  -0.1329 H              1 S1                 0.0000
     32 ****         0.2667   5.5212  -0.6812 H              1 S1                 0.0000
     33 ****        -1.7562   4.1879  -0.2044 H              1 S1                 0.0000
     34 ****        -1.6169   4.0855   2.2939 H              1 S1                 0.0000
     35 ****        -0.9010   5.5620   1.6640 H              1 S1                 0.0000
     36 ****         0.1361   4.2478   2.2058 H              1 S1                 0.0000
     37 ****        -2.7035   2.2796  -0.5070 H              1 S1                 0.0000
     38 ****        -1.3567  -5.0551  -0.5439 H              1 S1                 0.0000
     39 ****         3.5606  -0.0121   1.0390 H              1 S1                 0.0000
     40 ****         1.9281   0.0183   1.6916 H              1 S1                 0.0000
     41 ****         3.5134  -0.4137   3.2654 H              1 S1                 0.0000
     42 ****         2.3544   0.4845  -0.7211 H              1 S1                 0.0000
     43 ****         2.7749  -3.8526  -1.5304 H              1 S1                 0.0000
     44 ****        -4.1919   0.7161  -0.4707 H              1 S1                 0.0000
     45 ****         0.9706   2.2522   1.1463 LP             1 S1                 0.0000
     46 ****         0.1838   0.7483   0.8011 LP             1 S1                 0.0000
     47 ****        -0.2158  -0.2870  -0.1334 LP             1 S1                 0.0000
     48 ****        -3.7228  -4.2587  -0.6992 LP             1 S1                 0.0000
     49 ****         1.1046  -2.8185   1.6544 LP             1 S1                 0.0000
     50 ****         0.4648  -1.5005   0.9333 LP             1 S1                 0.0000
     51 ****         4.1175  -1.6800   2.5156 LP             1 S1                 0.0000
     52 ****         2.6097  -1.7170   3.1415 LP             1 S1                 0.0000
     53 ****         0.8753  -0.0940  -0.7971 LP             1 S1                 0.0000
     54 ****         1.7875   0.0550  -2.1433 LP             1 S1                 0.0000
     55 ****         2.6426  -3.1163  -2.9341 LP             1 S1                 0.0000
     56 ****         1.5515  -4.2392  -2.4705 LP             1 S1                 0.0000
     57 ****        -5.4971  -2.4747  -0.7691 LP             1 S1                 0.0000
     58 ****        -5.8015  -0.7711  -0.6998 LP             1 S1                 0.0000
@<TRIPOS>BOND
    1    1    2 1     
    2    1   30 1     
    3    1   31 1     
    4    1   32 1     
    5    2    3 1     
    6    2    4 1     
    7    2   33 1     
    8    3   34 1     
    9    3   35 1     
   10    3   36 1     
   11    4    5 2     
   12    4    6 am    
   13    6   37 1     
   14    6    7 1     
   15    7   25 1     
   16    7    8 2     
   17    8    9 1     
   18    9   13 1     
   19    9   10 2     
   20   10   11 1     
   21   10   23 1     
   22   11   12 2     
   23   12   13 1     
   24   12   38 1     
   25   13   14 1     
   26   14   26 1     
   27   14   21 1     
   28   14   15 1     
   29   15   16 1     
   30   16   27 1     
   31   16   17 1     
   32   16   19 1     
   33   17   18 1     
   34   17   39 1     
   35   17   40 1     
   36   18   41 1     
   37   19   28 1     
   38   19   20 1     
   39   19   21 1     
   40   20   42 1     
   41   21   29 1     
   42   21   22 1     
   43   22   43 1     
   44   23   24 2     
   45   23   25 am    
   46   25   44 1     
   47    5   45 1     
   48    5   46 1     
   49    8   47 1     
   50   11   48 1     
   51   15   49 1     
   52   15   50 1     
   53   18   51 1     
   54   18   52 1     
   55   20   53 1     
   56   20   54 1     
   57   22   55 1     
   58   22   56 1     
   59   24   57 1     
   60   24   58 1     
@<TRIPOS>SUBSTRUCTURE
      1 S1             1
@<TRIPOS>SET
LONE_PAIRS      STATIC     ATOMS    <user>   **** ""
14 45 46 47 48 49 50 51 52 53 54 55 56 57 58
DONOR_HYDROGENS      STATIC     ATOMS    <user>   **** ""
5 37 41 42 43 44
ATOM$BLUE        STATIC     ATOMS    COLORGROUP SYSTEM
14 45 46 47 48 49 50 51 52 53 54 55 56 57 58
ATOM$RED        STATIC     ATOMS    COLORGROUP SYSTEM
5 37 41 42 43 44
