#       Name:                AV-unprocessed.smi:1847
#       Creating user name   scv26
#       Creation time:       Fri Mar 27 09:22:37 2020


#       File generated by GOLD software.
#

@<TRIPOS>MOLECULE
AV-unprocessed.smi:1847
    32    33     1
SMALL
NO_CHARGES


@<TRIPOS>ATOM
      1 ****        -0.5330   1.2392   1.2628 O.2            1 S1                 0.0000
      2 ****         0.0145   0.4918   0.4469 C.2            1 S1                 0.0000
      3 ****        -0.6454  -0.4253  -0.3069 N.pl3          1 S1                -1.0000
      4 ****        -1.9747  -0.5759  -0.1972 C.ar           1 S1                 0.0000
      5 ****        -2.8699   0.1579  -1.0070 C.ar           1 S1                 0.0000
      6 ****        -4.2573  -0.0426  -0.8616 C.ar           1 S1                 0.0000
      7 ****        -4.7937  -0.9135   0.0183 N.ar           1 S1                 0.0000
      8 ****        -3.9422  -1.6220   0.7888 C.ar           1 S1                 0.0000
      9 ****        -2.5407  -1.4924   0.7171 C.ar           1 S1                 0.0000
     10 ****         1.4591   0.5554   0.2389 C.2            1 S1                 0.0000
     11 ****         2.2126   1.4177   0.9625 C.2            1 S1                 0.0000
     12 ****         3.5680   1.5665   0.8037 O.3            1 S1                 0.0000
     13 ****         4.1025   0.9333  -0.3525 C.3            1 S1                 0.0000
     14 ****         3.4529  -0.4427  -0.5556 C.3            1 S1                 0.0000
     15 ****         2.0409  -0.3058  -0.6659 O.3            1 S1                 0.0000
     16 ****        -2.4989   0.8690  -1.7306 H              1 S1                 0.0000
     17 ****        -4.9549   0.5125  -1.4711 H              1 S1                 0.0000
     18 ****        -4.3908  -2.3152   1.4847 H              1 S1                 0.0000
     19 ****        -1.9087  -2.0888   1.3590 H              1 S1                 0.0000
     20 ****         1.8268   2.1006   1.7058 H              1 S1                 0.0000
     21 ****         3.9288   1.5679  -1.2226 H              1 S1                 0.0000
     22 ****         5.1818   0.8330  -0.2380 H              1 S1                 0.0000
     23 ****         3.8370  -0.9172  -1.4585 H              1 S1                 0.0000
     24 ****         3.6863  -1.1040   0.2801 H              1 S1                 0.0000
     25 ****        -1.5224   1.1906   1.4000 LP             1 S1                 0.0000
     26 ****         0.0128   1.8933   1.7864 LP             1 S1                 0.0000
     27 ****        -0.1350  -0.9949  -0.9512 LP             1 S1                 0.0000
     28 ****        -5.7839  -1.0295   0.0963 LP             1 S1                 0.0000
     29 ****         4.0203   1.1805   1.6077 LP             1 S1                 0.0000
     30 ****         3.7696   2.5442   0.7451 LP             1 S1                 0.0000
     31 ****         1.8339   0.0271  -1.5859 LP             1 S1                 0.0000
     32 ****         1.6322  -1.2095  -0.5387 LP             1 S1                 0.0000
@<TRIPOS>BOND
    1    1    2 2     
    2    2    3 1     
    3    2   10 1     
    4    3    4 1     
    5    4    9 ar    
    6    4    5 ar    
    7    5    6 ar    
    8    5   16 1     
    9    6    7 ar    
   10    6   17 1     
   11    7    8 ar    
   12    8    9 ar    
   13    8   18 1     
   14    9   19 1     
   15   10   15 1     
   16   10   11 2     
   17   11   12 1     
   18   11   20 1     
   19   12   13 1     
   20   13   14 1     
   21   13   21 1     
   22   13   22 1     
   23   14   15 1     
   24   14   23 1     
   25   14   24 1     
   26    1   25 1     
   27    1   26 1     
   28    3   27 1     
   29    7   28 1     
   30   12   29 1     
   31   12   30 1     
   32   15   31 1     
   33   15   32 1     
@<TRIPOS>SUBSTRUCTURE
      1 S1             1
@<TRIPOS>SET
LONE_PAIRS      STATIC     ATOMS    <user>   **** ""
8 25 26 27 28 29 30 31 32
ATOM$BLUE        STATIC     ATOMS    COLORGROUP SYSTEM
8 25 26 27 28 29 30 31 32
