AV-unprocessed.smi:182|AV-procd|sdf|1455|dock5
  -GOLD-   2262019253D 1   1.00000     0.00000
 Structure written by MMmdl.
 56 59  0  0  0  0  0  0  0  0  1 V2000
  148.8108  141.1185  153.6113 N   0  0  0  0  0  0  0  0  0  0  0  0
  149.6157  140.8150  154.6322 C   0  0  0  0  0  0  0  0  0  0  0  0
  150.5943  140.0828  154.4963 O   0  0  0  0  0  0  0  0  0  0  0  0
  149.2577  141.4184  155.9940 C   0  0  0  0  0  0  0  0  0  0  0  0
  147.8056  141.1286  156.4247 C   0  0  0  0  0  0  0  0  0  0  0  0
  147.5826  139.6939  156.9430 C   0  0  2  0  0  0  0  0  0  0  0  0
  148.5303  139.3810  158.1178 C   0  0  0  0  0  0  0  0  0  0  0  0
  148.3276  137.9422  158.6145 C   0  0  0  0  0  0  0  0  0  0  0  0
  148.4926  136.9383  157.4645 C   0  0  0  0  0  0  0  0  0  0  0  0
  147.6067  137.2761  156.3516 N   0  0  0  0  0  0  0  0  0  0  0  0
  147.4195  136.2751  155.4530 C   0  0  0  0  0  0  0  0  0  0  0  0
  148.0533  135.0833  155.6225 N   0  0  0  0  0  0  0  0  0  0  0  0
  147.8721  134.0897  154.7482 C   0  0  0  0  0  0  0  0  0  0  0  0
  147.1104  134.0711  153.6534 N   0  0  0  0  0  0  0  0  0  0  0  0
  146.4725  135.2630  153.4740 C   0  0  0  0  0  0  0  0  0  0  0  0
  146.5763  136.4089  154.3131 C   0  0  0  0  0  0  0  0  0  0  0  0
  145.8098  137.4450  153.7919 N   0  0  0  0  0  0  0  0  0  0  0  0
  145.2777  136.9382  152.7135 C   0  0  0  0  0  0  0  0  0  0  0  0
  145.5969  135.6225  152.4642 N   0  0  0  0  0  0  0  0  0  0  0  0
  145.1838  134.8381  151.3378 C   0  0  0  0  0  0  0  0  0  0  0  0
  144.3289  133.5815  151.5191 C   0  0  0  0  0  0  0  0  0  0  0  0
  145.0278  132.9381  150.2995 C   0  0  0  0  0  0  0  0  0  0  0  0
  145.3957  131.4529  150.4527 C   0  0  0  0  0  0  0  0  0  0  0  0
  146.3500  131.2651  151.4778 O   0  0  0  0  0  0  0  0  0  0  0  0
  144.3176  133.1475  148.9471 C   0  0  0  0  0  0  0  0  0  0  0  0
  143.0646  132.4945  148.9155 O   0  0  0  0  0  0  0  0  0  0  0  0
  146.1715  133.9313  150.6002 C   0  0  0  0  0  0  0  0  0  0  0  0
  147.7577  138.6369  155.8305 C   0  0  0  0  0  0  0  0  0  0  0  0
  149.0041  140.7426  152.6942 H   0  0  0  0  0  0  0  0  0  0  0  0
  148.0121  141.7187  153.7574 H   0  0  0  0  0  0  0  0  0  0  0  0
  149.9448  141.0272  156.7458 H   0  0  0  0  0  0  0  0  0  0  0  0
  149.4310  142.4929  155.9374 H   0  0  0  0  0  0  0  0  0  0  0  0
  147.4959  141.8409  157.1911 H   0  0  0  0  0  0  0  0  0  0  0  0
  147.1481  141.2990  155.5706 H   0  0  0  0  0  0  0  0  0  0  0  0
  146.5600  139.6256  157.3175 H   0  0  0  0  0  0  0  0  0  0  0  0
  149.5665  139.5159  157.8039 H   0  0  0  0  0  0  0  0  0  0  0  0
  148.3600  140.0793  158.9380 H   0  0  0  0  0  0  0  0  0  0  0  0
  149.0380  137.7165  159.4099 H   0  0  0  0  0  0  0  0  0  0  0  0
  147.3322  137.8397  159.0484 H   0  0  0  0  0  0  0  0  0  0  0  0
  149.5229  136.9510  157.1063 H   0  0  0  0  0  0  0  0  0  0  0  0
  148.3059  135.9321  157.8373 H   0  0  0  0  0  0  0  0  0  0  0  0
  148.4128  133.1785  154.9572 H   0  0  0  0  0  0  0  0  0  0  0  0
  144.6289  137.5143  152.0695 H   0  0  0  0  0  0  0  0  0  0  0  0
  144.7068  135.5335  150.6451 H   0  0  0  0  0  0  0  0  0  0  0  0
  144.5446  133.0624  152.4551 H   0  0  0  0  0  0  0  0  0  0  0  0
  143.2574  133.7485  151.4066 H   0  0  0  0  0  0  0  0  0  0  0  0
  144.5162  130.8606  150.7071 H   0  0  0  0  0  0  0  0  0  0  0  0
  145.7856  131.0363  149.5238 H   0  0  0  0  0  0  0  0  0  0  0  0
  147.2026  131.4914  151.1392 H   0  0  0  0  0  0  0  0  0  0  0  0
  144.1450  134.2060  148.7517 H   0  0  0  0  0  0  0  0  0  0  0  0
  144.9237  132.7834  148.1171 H   0  0  0  0  0  0  0  0  0  0  0  0
  142.3885  133.1346  149.0773 H   0  0  0  0  0  0  0  0  0  0  0  0
  146.6287  134.3836  149.7194 H   0  0  0  0  0  0  0  0  0  0  0  0
  146.9325  133.5168  151.2645 H   0  0  0  0  0  0  0  0  0  0  0  0
  147.0174  138.8038  155.0475 H   0  0  0  0  0  0  0  0  0  0  0  0
  148.7423  138.7366  155.3709 H   0  0  0  0  0  0  0  0  0  0  0  0
  1  2  1  0  0  0  0
  1 29  1  0  0  0  0
  1 30  1  0  0  0  0
  2  3  2  0  0  0  0
  2  4  1  0  0  0  0
  4  5  1  0  0  0  0
  4 31  1  0  0  0  0
  4 32  1  0  0  0  0
  5  6  1  0  0  0  0
  5 33  1  0  0  0  0
  5 34  1  0  0  0  0
  6 28  1  0  0  0  0
  6  7  1  0  0  0  0
  6 35  1  0  0  0  0
  7  8  1  0  0  0  0
  7 36  1  0  0  0  0
  7 37  1  0  0  0  0
  8  9  1  0  0  0  0
  8 38  1  0  0  0  0
  8 39  1  0  0  0  0
  9 10  1  0  0  0  0
  9 40  1  0  0  0  0
  9 41  1  0  0  0  0
 10 11  1  0  0  0  0
 10 28  1  0  0  0  0
 11 16  1  0  0  0  0
 11 12  2  0  0  0  0
 12 13  1  0  0  0  0
 13 14  2  0  0  0  0
 13 42  1  0  0  0  0
 14 15  1  0  0  0  0
 15 19  1  0  0  0  0
 15 16  2  0  0  0  0
 16 17  1  0  0  0  0
 17 18  2  0  0  0  0
 18 19  1  0  0  0  0
 18 43  1  0  0  0  0
 19 20  1  0  0  0  0
 20 27  1  0  0  0  0
 20 21  1  0  0  0  0
 20 44  1  0  0  0  0
 21 22  1  0  0  0  0
 21 45  1  0  0  0  0
 21 46  1  0  0  0  0
 22 23  1  0  0  0  0
 22 25  1  0  0  0  0
 22 27  1  0  0  0  0
 23 24  1  0  0  0  0
 23 47  1  0  0  0  0
 23 48  1  0  0  0  0
 24 49  1  0  0  0  0
 25 26  1  0  0  0  0
 25 50  1  0  0  0  0
 25 51  1  0  0  0  0
 26 52  1  0  0  0  0
 27 53  1  0  0  0  0
 27 54  1  0  0  0  0
 28 55  1  0  0  0  0
 28 56  1  0  0  0  0
M  END
> <s_m_source_file>
AV-unprocessed.smi

> <i_m_source_file_index>
182

> <i_lp_mmshare_version>
43012

> <i_f3d_flags>
0

> <s_epik_input>
W05IMl1DKD1PKVtDSDJdW0NIMl1bQ0BASF0xW0NIMl1bQ0gyXVtDSDJdTihbQ0gyXTEpYyhuW2NIXW4yKWMoYzIzKW5bY0hdbjNbQ0hdKFtDSDJdNClbQ0gyXUM0KFtDSDJdW09IXSlbQ0gyXVtPSF0=

> <s_epik_cmdline>
J2VwaWtfcHl0aG9uJywgJy1waCcsICc3LjAnLCAnLXRuJywgJzgnLCAnLW1hJywgJzIwMCcsICctbWV0YWxfYmluZGluZycsICctaW1hZScsICc8aW5maWxlLm1hZT4nLCAnLW9tYWUnLCAnPG91dGZpbGUubWFlPic=

> <r_lp_tautomer_probability>
1

> <r_epik_Ionization_Penalty>
0.00186057

> <r_epik_Ionization_Penalty_Charging>
0

> <r_epik_Ionization_Penalty_Neutral>
0.00186057

> <r_epik_State_Penalty>
0.00110736

> <r_epik_Charging_Adjusted_Penalty>
0.00110736

> <i_epik_Tot_Q>
0

> <i_epik_Tot_abs_Q>
0

> <r_epik_Metal_State_Penalty>
-0

> <b_epik_Metal_Only>
0

> <s_lp_Force_Field>
OPLS_2005

> <r_lp_Energy>
36.2346

> <b_lp_Chiralities_Consistent>
1

> <s_lp_Variant>
AV-unprocessed.smi:182-1

> <Gold.Version>
5.8.1

> <Gold.Id.Protein>
6NUR|6NUR_protein|mol2

> <Gold.PLP.Fitness>
48.4464

> <Gold.PLP.PLP>
-33.0174

> <Gold.PLP.part.hbond>
-6.0000

> <Gold.PLP.part.metal>
0.0000

> <Gold.PLP.part.buried>
-4.9090

> <Gold.PLP.part.nonpolar>
-22.3997

> <Gold.PLP.part.repulsive>
0.6250

> <Gold.PLP.ligand.clash>
0.0000

> <Gold.PLP.ligand.torsion>
0.9871

> <Gold.PLP.Chemscore.Hbond>
4.9825

> <Gold.PLP.Chemscore.CHOScore>
0.4924

> <Gold.PLP.Chemscore.Metal>
0.0000

> <Gold.Chemscore.Hbonds>
donor molecule, donor type, donor heavy atom, donor atom, acceptor molecule, acceptor atom, score
      L1  H     1    29       P1  7957  1.00
      L1  H    24    49       P1 10747  0.86
      L1  H    26    52       P1 10186  1.00
      P1  H  7989  7998       L1     3  1.00
      P1  H 10785 10796       L1    26  0.18
      L1  C    18    43       P1 10171  0.80

> <Gold.PLP.Chemscore.Internal.Correction>
0.9785

> <Gold.Rescore>
     Score         DG    S(hbond)    S(metal)    S(lipo)     H(rot)  DE(clash)    DE(int)     intcor
     11.63     -15.25       4.29        0.00      65.82       4.79       1.18       2.44       ----

> <Gold.Chemscore.Fitness>
11.6339

> <Gold.Chemscore.DG>
-15.2485

> <Gold.Chemscore.ZeroCoef>
-5.4800

> <Gold.Chemscore.Hbond>
4.2920

> <Gold.Chemscore.Metal>
0.0000

> <Gold.Chemscore.Lipo>
65.8232

> <Gold.Chemscore.Internal_Hbond>
0.0000

> <Gold.Chemscore.DEClash>
1.1788

> <Gold.Chemscore.DEInternal>
2.4358

> <Gold.Chemscore.Rot>
4.7922

> <Gold.Chemscore.Internal.Correction>
   9.000000E+99

> <Gold.Chemscore.Hbonds>
donor molecule, donor type, donor heavy atom, donor atom, acceptor molecule, acceptor atom, score
      L1  H     1    29       P1  7957  1.00
      L1  H    24    49       P1 10747  0.80
      L1  H    26    52       P1 10186  0.99
      P1  H  7989  7998       L1     3  0.55
      P1  H 10785 10796       L1    26  0.16

> <Gold.Chemscore.Hbond.Weighted>
-14.3352

> <Gold.Chemscore.Metal.Weighted>
-0.0000

> <Gold.Chemscore.Lipo.Weighted>
-7.7013

> <Gold.Chemscore.Internal_Hbond.Weighted>
0.0000

> <Gold.Chemscore.DEClash.Weighted>
1.1788

> <Gold.Chemscore.DEInternal.Weighted>
2.4358

> <Gold.Chemscore.Rot.Weighted>
12.2680

> <Gold.Chemscore.Internal.Correction.Weighted>
   9.000000E+99

> <Gold.Protein.RotatedTorsions>
[ 6907 6896 6895 6894 ] final -156.87 input  -60.11 | X-H torsion
[ 7974 7965 7964 7962 ] final  -41.69 input  175.53 | X-H torsion
[ 8008 7997 7996 7995 ] final   95.32 input   59.86 | X-H torsion
[ 10167 10162 10161 10158 ] final   37.75 input  -65.29 | X-H torsion
[ 10718 10713 10712 10709 ] final   53.91 input   66.30 | X-H torsion
[ 10763 10752 10751 10750 ] final   95.81 input  -60.55 | X-H torsion
[ 11005 11000 10999 10996 ] final  -78.94 input  -57.11 | X-H torsion

> <Gold.Protein.ActiveResidues>
 VAL166  LYS551  ARG553  GLY616  TRP617  ASP618  TYR619  PRO620  LYS621  CYS622 
 ASP623  PHE694  ASN695  SER759  ASP760  ASP761  ALA762  ILE779  LEU786  VAL792 
 PHE793  MET794  SER795  GLU796  ALA797  LYS798  CYS799  TRP800  GLU811  SER814 

> <Gold.Protein.RotatedAtoms>
  151.2943  133.4151  159.2634 H   0  0  0  0  0  0  0  0  0  0  0  0  # atno 6907 bound_to 6896
  151.0251  134.9498  159.8091 H   0  0  0  0  0  0  0  0  0  0  0  0  # atno 6908 bound_to 6896
  152.5333  134.2905  159.9094 H   0  0  0  0  0  0  0  0  0  0  0  0  # atno 6909 bound_to 6896
  146.0187  140.6876  142.9189 H   0  0  0  0  0  0  0  0  0  0  0  0  # atno 7974 bound_to 7965
  156.0676  140.3288  155.7536 H   0  0  0  0  0  0  0  0  0  0  0  0  # atno 8008 bound_to 7997
  155.5357  140.0597  157.2897 H   0  0  0  0  0  0  0  0  0  0  0  0  # atno 8009 bound_to 7997
  154.4513  140.1919  156.0529 H   0  0  0  0  0  0  0  0  0  0  0  0  # atno 8010 bound_to 7997
  140.4003  144.1733  150.6133 H   0  0  0  0  0  0  0  0  0  0  0  0  # atno 10167 bound_to 10162
  157.5210  130.8565  149.8558 H   0  0  0  0  0  0  0  0  0  0  0  0  # atno 10718 bound_to 10713
  153.2575  135.4241  155.0860 H   0  0  0  0  0  0  0  0  0  0  0  0  # atno 10763 bound_to 10752
  154.8407  135.3441  154.6425 H   0  0  0  0  0  0  0  0  0  0  0  0  # atno 10764 bound_to 10752
  153.6845  135.7037  153.5165 H   0  0  0  0  0  0  0  0  0  0  0  0  # atno 10765 bound_to 10752
  141.1666  133.7084  156.8048 H   0  0  0  0  0  0  0  0  0  0  0  0  # atno 11005 bound_to 11000
  144.6981  140.3528  143.7178 LP  0  0  0  0  0  0  0  0  0  0  0  0  # atno 17320 bound_to 7965
  145.7227  139.1714  143.2475 LP  0  0  0  0  0  0  0  0  0  0  0  0  # atno 17321 bound_to 7965
  140.4747  143.2400  151.9040 LP  0  0  0  0  0  0  0  0  0  0  0  0  # atno 17342 bound_to 10162
  139.4785  144.5333  151.8635 LP  0  0  0  0  0  0  0  0  0  0  0  0  # atno 17343 bound_to 10162
  156.0353  130.3753  150.1577 LP  0  0  0  0  0  0  0  0  0  0  0  0  # atno 17370 bound_to 10713
  156.9765  130.9851  151.3447 LP  0  0  0  0  0  0  0  0  0  0  0  0  # atno 17371 bound_to 10713
  140.2230  134.8743  157.3397 LP  0  0  0  0  0  0  0  0  0  0  0  0  # atno 17394 bound_to 11000
  140.1968  134.4303  155.7684 LP  0  0  0  0  0  0  0  0  0  0  0  0  # atno 17395 bound_to 11000

$$$$
