#       Name:                AV-unprocessed.smi:3028
#       Creating user name   scv26
#       Creation time:       Fri Mar 27 16:46:36 2020


#       File generated by GOLD software.
#

@<TRIPOS>MOLECULE
AV-unprocessed.smi:3028
    53    54     1
SMALL
NO_CHARGES


@<TRIPOS>ATOM
      1 ****        -4.5728  -5.1198   2.3040 C.3            1 S1                 0.0000
      2 ****        -3.7972  -3.9187   1.8449 C.2            1 S1                 0.0000
      3 ****        -3.4831  -2.7444   2.5861 C.2            1 S1                 0.0000
      4 ****        -2.7815  -1.8679   1.8873 N.2            1 S1                 0.0000
      5 ****        -2.6197  -2.4485   0.6769 N.pl3          1 S1                 0.0000
      6 ****        -1.8781  -1.7630  -0.3745 C.3            1 S1                 0.0000
      7 ****        -2.5975  -0.4551  -0.7581 C.3            1 S1                 0.0000
      8 ****        -0.3909  -1.5450   0.0160 C.3            1 S1                 0.0000
      9 ****         0.3040  -2.8227   0.5221 C.3            1 S1                 0.0000
     10 ****         0.3592  -1.0896  -1.1510 N.3            1 S1                 0.0000
     11 ****         0.8446   0.2876  -0.9915 C.3            1 S1                 0.0000
     12 ****         1.6250   0.7976  -2.2127 C.2            1 S1                 0.0000
     13 ****         1.6512   0.1402  -3.2526 O.2            1 S1                 0.0000
     14 ****         2.2679   1.9750  -2.1306 N.am           1 S1                 0.0000
     15 ****         3.0598   2.6323  -3.1688 C.3            1 S1                 0.0000
     16 ****         4.1977   3.4371  -2.5232 C.3            1 S1                 0.0000
     17 ****         4.9530   4.2548  -3.5841 C.3            1 S1                 0.0000
     18 ****         4.0479   5.1072  -4.2777 O.3            1 S1                 0.0000
     19 ****         3.0427   4.3905  -4.9867 C.3            1 S1                 0.0000
     20 ****         2.1820   3.5794  -4.0047 C.3            1 S1                 0.0000
     21 ****        -3.2250  -3.6872   0.6260 C.2            1 S1                 0.0000
     22 ****        -4.9912  -4.9757   3.3003 H              1 S1                 0.0000
     23 ****        -3.9461  -6.0108   2.3447 H              1 S1                 0.0000
     24 ****        -5.4051  -5.3410   1.6355 H              1 S1                 0.0000
     25 ****        -3.7437  -2.5042   3.6065 H              1 S1                 0.0000
     26 ****        -1.9046  -2.4184  -1.2470 H              1 S1                 0.0000
     27 ****        -2.1488   0.0036  -1.6392 H              1 S1                 0.0000
     28 ****        -2.5605   0.2750   0.0511 H              1 S1                 0.0000
     29 ****        -3.6466  -0.6399  -0.9915 H              1 S1                 0.0000
     30 ****        -0.3407  -0.8092   0.8214 H              1 S1                 0.0000
     31 ****        -0.1441  -3.1859   1.4471 H              1 S1                 0.0000
     32 ****         1.3588  -2.6395   0.7310 H              1 S1                 0.0000
     33 ****         0.2453  -3.6262  -0.2131 H              1 S1                 0.0000
     34 ****        -0.2140  -1.1867  -1.9770 H              1 S1                 0.0000
     35 ****        -0.0019   0.9537  -0.8199 H              1 S1                 0.0000
     36 ****         1.4860   0.3344  -0.1111 H              1 S1                 0.0000
     37 ****         2.1975   2.4679  -1.2521 H              1 S1                 0.0000
     38 ****         3.5138   1.8911  -3.8278 H              1 S1                 0.0000
     39 ****         3.7940   4.1153  -1.7698 H              1 S1                 0.0000
     40 ****         4.8875   2.7693  -2.0057 H              1 S1                 0.0000
     41 ****         5.7193   4.8676  -3.1090 H              1 S1                 0.0000
     42 ****         5.4638   3.5984  -4.2902 H              1 S1                 0.0000
     43 ****         2.4204   5.1019  -5.5299 H              1 S1                 0.0000
     44 ****         3.5025   3.7377  -5.7303 H              1 S1                 0.0000
     45 ****         1.4232   3.0200  -4.5520 H              1 S1                 0.0000
     46 ****         1.6471   4.2664  -3.3472 H              1 S1                 0.0000
     47 ****        -3.1979  -4.2969  -0.2651 H              1 S1                 0.0000
     48 ****        -2.4456  -0.9750   2.1871 LP             1 S1                 0.0000
     49 ****         1.1725  -1.6633  -1.2486 LP             1 S1                 0.0000
     50 ****         1.1630  -0.7309  -3.3059 LP             1 S1                 0.0000
     51 ****         2.1608   0.4770  -4.0444 LP             1 S1                 0.0000
     52 ****         4.5666   5.6590  -4.9307 LP             1 S1                 0.0000
     53 ****         3.6028   5.7077  -3.6134 LP             1 S1                 0.0000
@<TRIPOS>BOND
    1    1    2 1     
    2    1   22 1     
    3    1   23 1     
    4    1   24 1     
    5    2   21 2     
    6    2    3 1     
    7    3    4 2     
    8    3   25 1     
    9    4    5 1     
   10    5    6 1     
   11    5   21 1     
   12    6    7 1     
   13    6    8 1     
   14    6   26 1     
   15    7   27 1     
   16    7   28 1     
   17    7   29 1     
   18    8    9 1     
   19    8   10 1     
   20    8   30 1     
   21    9   31 1     
   22    9   32 1     
   23    9   33 1     
   24   10   11 1     
   25   10   34 1     
   26   11   12 1     
   27   11   35 1     
   28   11   36 1     
   29   12   13 2     
   30   12   14 am    
   31   14   15 1     
   32   14   37 1     
   33   15   20 1     
   34   15   16 1     
   35   15   38 1     
   36   16   17 1     
   37   16   39 1     
   38   16   40 1     
   39   17   18 1     
   40   17   41 1     
   41   17   42 1     
   42   18   19 1     
   43   19   20 1     
   44   19   43 1     
   45   19   44 1     
   46   20   45 1     
   47   20   46 1     
   48   21   47 1     
   49    4   48 1     
   50   10   49 1     
   51   13   50 1     
   52   13   51 1     
   53   18   52 1     
   54   18   53 1     
@<TRIPOS>SUBSTRUCTURE
      1 S1             1
@<TRIPOS>SET
LONE_PAIRS      STATIC     ATOMS    <user>   **** ""
6 48 49 50 51 52 53
DONOR_HYDROGENS      STATIC     ATOMS    <user>   **** ""
2 34 37
ATOM$BLUE        STATIC     ATOMS    COLORGROUP SYSTEM
6 48 49 50 51 52 53
ATOM$RED        STATIC     ATOMS    COLORGROUP SYSTEM
2 34 37
