AV-unprocessed.smi:739|AV-procd|sdf|3543|dock6
  -GOLD-   22720 0533D 1   1.00000     0.00000
 Structure written by MMmdl.
 32 34  0  0  0  0  0  0  0  0  1 V2000
  152.1913  140.4215  157.1031 O   0  0  0  0  0  0  0  0  0  0  0  0
  151.0375  141.2333  157.1807 C   0  0  1  0  0  0  0  0  0  0  0  0
  151.4785  142.7090  157.1147 C   0  0  0  0  0  0  0  0  0  0  0  0
  151.4501  143.3500  158.4178 N   0  0  0  0  0  0  0  0  0  0  0  0
  150.7783  144.4679  158.7536 C   0  0  0  0  0  0  0  0  0  0  0  0
  150.8977  144.8977  160.0065 N   0  0  0  0  0  0  0  0  0  0  0  0
  151.7461  143.9475  160.5485 C   0  0  0  0  0  0  0  0  0  0  0  0
  152.2749  143.8288  161.8537 C   0  0  0  0  0  0  0  0  0  0  0  0
  153.1383  142.7627  162.1810 C   0  0  0  0  0  0  0  0  0  0  0  0
  153.6374  142.6650  163.4360 F   0  0  0  0  0  0  0  0  0  0  0  0
  153.4845  141.7996  161.2098 C   0  0  0  0  0  0  0  0  0  0  0  0
  154.3162  140.7805  161.5315 F   0  0  0  0  0  0  0  0  0  0  0  0
  152.9671  141.8954  159.9041 C   0  0  0  0  0  0  0  0  0  0  0  0
  152.1081  142.9623  159.5809 C   0  0  0  0  0  0  0  0  0  0  0  0
  150.0163  140.8871  156.1056 C   0  0  0  0  0  0  0  0  0  0  0  0
  148.8141  141.6213  156.0136 C   0  0  0  0  0  0  0  0  0  0  0  0
  147.8787  141.3287  155.0024 C   0  0  0  0  0  0  0  0  0  0  0  0
  148.1389  140.2990  154.0779 C   0  0  0  0  0  0  0  0  0  0  0  0
  147.2409  140.0196  153.1040 F   0  0  0  0  0  0  0  0  0  0  0  0
  149.3350  139.5616  154.1656 C   0  0  0  0  0  0  0  0  0  0  0  0
  150.2713  139.8545  155.1762 C   0  0  0  0  0  0  0  0  0  0  0  0
  152.0051  139.5959  157.5238 H   0  0  0  0  0  0  0  0  0  0  0  0
  150.5936  141.0405  158.1585 H   0  0  0  0  0  0  0  0  0  0  0  0
  152.4982  142.7783  156.7329 H   0  0  0  0  0  0  0  0  0  0  0  0
  150.8496  143.2742  156.4257 H   0  0  0  0  0  0  0  0  0  0  0  0
  150.1699  144.9985  158.0356 H   0  0  0  0  0  0  0  0  0  0  0  0
  152.0177  144.5605  162.6051 H   0  0  0  0  0  0  0  0  0  0  0  0
  153.2325  141.1603  159.1592 H   0  0  0  0  0  0  0  0  0  0  0  0
  148.6105  142.4203  156.7113 H   0  0  0  0  0  0  0  0  0  0  0  0
  146.9627  141.8968  154.9340 H   0  0  0  0  0  0  0  0  0  0  0  0
  149.5368  138.7735  153.4552 H   0  0  0  0  0  0  0  0  0  0  0  0
  151.1909  139.2899  155.2285 H   0  0  0  0  0  0  0  0  0  0  0  0
  1  2  1  0  0  0  0
  1 22  1  0  0  0  0
  2  3  1  0  0  0  0
  2 15  1  0  0  0  0
  2 23  1  0  0  0  0
  3  4  1  0  0  0  0
  3 24  1  0  0  0  0
  3 25  1  0  0  0  0
  4 14  1  0  0  0  0
  4  5  1  0  0  0  0
  5  6  2  0  0  0  0
  5 26  1  0  0  0  0
  6  7  1  0  0  0  0
  7 14  2  0  0  0  0
  7  8  1  0  0  0  0
  8  9  2  0  0  0  0
  8 27  1  0  0  0  0
  9 10  1  0  0  0  0
  9 11  1  0  0  0  0
 11 12  1  0  0  0  0
 11 13  2  0  0  0  0
 13 14  1  0  0  0  0
 13 28  1  0  0  0  0
 15 21  1  0  0  0  0
 15 16  2  0  0  0  0
 16 17  1  0  0  0  0
 16 29  1  0  0  0  0
 17 18  2  0  0  0  0
 17 30  1  0  0  0  0
 18 19  1  0  0  0  0
 18 20  1  0  0  0  0
 20 21  2  0  0  0  0
 20 31  1  0  0  0  0
 21 32  1  0  0  0  0
M  END
> <s_m_source_file>
AV-unprocessed.smi

> <i_m_source_file_index>
739

> <i_lp_mmshare_version>
43012

> <i_f3d_flags>
0

> <s_epik_input>
W2NIXTFbY0hdYyhGKVtjSF1bY0hdYzFbQ0BIXShbT0hdKVtDSDJdbihbY0hdbjIpYyhjMjMpW2NIXWMoRiljKEYpW2NIXTM=

> <s_epik_cmdline>
J2VwaWtfcHl0aG9uJywgJy1waCcsICc3LjAnLCAnLXRuJywgJzgnLCAnLW1hJywgJzIwMCcsICctbWV0YWxfYmluZGluZycsICctaW1hZScsICc8aW5maWxlLm1hZT4nLCAnLW9tYWUnLCAnPG91dGZpbGUubWFlPic=

> <r_epik_Ionization_Penalty>
0.0156356

> <r_epik_Ionization_Penalty_Charging>
0

> <r_epik_Ionization_Penalty_Neutral>
0.0156356

> <r_epik_State_Penalty>
0.0122974

> <r_epik_Charging_Adjusted_Penalty>
0.0122974

> <i_epik_Tot_Q>
0

> <i_epik_Tot_abs_Q>
0

> <r_epik_Metal_State_Penalty>
1.24258e-05

> <b_epik_Metal_Only>
0

> <s_lp_Force_Field>
OPLS_2005

> <r_lp_Energy>
11.0695

> <b_lp_Chiralities_Consistent>
1

> <s_lp_Variant>
AV-unprocessed.smi:739-2

> <Gold.Version>
5.8.1

> <Gold.Id.Protein>
6NUR|6NUR_protein|mol2

> <Gold.PLP.Fitness>
53.8459

> <Gold.PLP.PLP>
-51.0275

> <Gold.PLP.part.hbond>
-0.6064

> <Gold.PLP.part.metal>
0.0000

> <Gold.PLP.part.buried>
-3.0378

> <Gold.PLP.part.nonpolar>
-47.9682

> <Gold.PLP.part.repulsive>
0.1522

> <Gold.PLP.ligand.clash>
0.0000

> <Gold.PLP.ligand.torsion>
0.6682

> <Gold.PLP.Chemscore.Hbond>
0.3853

> <Gold.PLP.Chemscore.CHOScore>
0.9949

> <Gold.PLP.Chemscore.Metal>
0.0000

> <Gold.Chemscore.Hbonds>
donor molecule, donor type, donor heavy atom, donor atom, acceptor molecule, acceptor atom, score
      P1  H  7997  8010       L1     1  0.39
      L1  C     5    26       P1  8028  0.30
      L1  C     5    26       P1  8029  0.64

> <Gold.PLP.Chemscore.Internal.Correction>
0.0141

> <Gold.Rescore>
     Score         DG    S(hbond)    S(metal)    S(lipo)     H(rot)  DE(clash)    DE(int)     intcor
     13.43     -14.48       0.09        0.00     119.56       2.07       0.42       0.63       ----

> <Gold.Chemscore.Fitness>
13.4318

> <Gold.Chemscore.DG>
-14.4793

> <Gold.Chemscore.ZeroCoef>
-5.4800

> <Gold.Chemscore.Hbond>
0.0930

> <Gold.Chemscore.Metal>
0.0000

> <Gold.Chemscore.Lipo>
119.5560

> <Gold.Chemscore.Internal_Hbond>
0.0000

> <Gold.Chemscore.DEClash>
0.4196

> <Gold.Chemscore.DEInternal>
0.6279

> <Gold.Chemscore.Rot>
2.0700

> <Gold.Chemscore.Internal.Correction>
   9.000000E+99

> <Gold.Chemscore.Hbonds>
donor molecule, donor type, donor heavy atom, donor atom, acceptor molecule, acceptor atom, score
      P1  H  7997  8010       L1     1  0.13

> <Gold.Chemscore.Hbond.Weighted>
-0.3105

> <Gold.Chemscore.Metal.Weighted>
-0.0000

> <Gold.Chemscore.Lipo.Weighted>
-13.9880

> <Gold.Chemscore.Internal_Hbond.Weighted>
0.0000

> <Gold.Chemscore.DEClash.Weighted>
0.4196

> <Gold.Chemscore.DEInternal.Weighted>
0.6279

> <Gold.Chemscore.Rot.Weighted>
5.2992

> <Gold.Chemscore.Internal.Correction.Weighted>
   9.000000E+99

> <Gold.Protein.RotatedTorsions>
[ 6907 6896 6895 6894 ] final   70.40 input  -60.11 | X-H torsion
[ 7974 7965 7964 7962 ] final   -8.80 input  175.53 | X-H torsion
[ 8008 7997 7996 7995 ] final   72.14 input   59.86 | X-H torsion
[ 10167 10162 10161 10158 ] final  -69.97 input  -65.29 | X-H torsion
[ 10718 10713 10712 10709 ] final   66.83 input   66.30 | X-H torsion
[ 10763 10752 10751 10750 ] final -149.97 input  -60.55 | X-H torsion
[ 11005 11000 10999 10996 ] final  -60.09 input  -57.11 | X-H torsion

> <Gold.Protein.ActiveResidues>
 VAL166  LYS551  ARG553  GLY616  TRP617  ASP618  TYR619  PRO620  LYS621  CYS622 
 ASP623  PHE694  ASN695  SER759  ASP760  ASP761  ALA762  ILE779  LEU786  VAL792 
 PHE793  MET794  SER795  GLU796  ALA797  LYS798  CYS799  TRP800  GLU811  SER814 

> <Gold.Protein.RotatedAtoms>
  152.4747  134.4874  159.9684 H   0  0  0  0  0  0  0  0  0  0  0  0  # atno 6907 bound_to 6896
  151.4892  133.3523  159.2858 H   0  0  0  0  0  0  0  0  0  0  0  0  # atno 6908 bound_to 6896
  150.8778  134.8191  159.7264 H   0  0  0  0  0  0  0  0  0  0  0  0  # atno 6909 bound_to 6896
  146.2270  140.2522  142.8348 H   0  0  0  0  0  0  0  0  0  0  0  0  # atno 7974 bound_to 7965
  155.7644  140.3486  155.5214 H   0  0  0  0  0  0  0  0  0  0  0  0  # atno 8008 bound_to 7997
  155.8882  140.1013  157.1458 H   0  0  0  0  0  0  0  0  0  0  0  0  # atno 8009 bound_to 7997
  154.4031  140.1309  156.4270 H   0  0  0  0  0  0  0  0  0  0  0  0  # atno 8010 bound_to 7997
  140.5389  143.2316  151.7126 H   0  0  0  0  0  0  0  0  0  0  0  0  # atno 10167 bound_to 10162
  157.6193  130.9288  150.0161 H   0  0  0  0  0  0  0  0  0  0  0  0  # atno 10718 bound_to 10713
  154.8146  135.3296  154.7211 H   0  0  0  0  0  0  0  0  0  0  0  0  # atno 10763 bound_to 10752
  153.7854  135.6915  153.4885 H   0  0  0  0  0  0  0  0  0  0  0  0  # atno 10764 bound_to 10752
  153.1952  135.4536  155.0146 H   0  0  0  0  0  0  0  0  0  0  0  0  # atno 10765 bound_to 10752
  141.1273  133.6620  156.5170 H   0  0  0  0  0  0  0  0  0  0  0  0  # atno 11005 bound_to 11000
  144.9403  140.8071  143.5634 LP  0  0  0  0  0  0  0  0  0  0  0  0  # atno 17320 bound_to 7965
  145.2473  139.2046  143.4961 LP  0  0  0  0  0  0  0  0  0  0  0  0  # atno 17321 bound_to 7965
  139.4981  144.4000  152.0191 LP  0  0  0  0  0  0  0  0  0  0  0  0  # atno 17342 bound_to 10162
  140.3107  144.3541  150.6034 LP  0  0  0  0  0  0  0  0  0  0  0  0  # atno 17343 bound_to 10162
  156.1330  130.3643  149.9701 LP  0  0  0  0  0  0  0  0  0  0  0  0  # atno 17370 bound_to 10713
  156.7758  130.9203  151.3645 LP  0  0  0  0  0  0  0  0  0  0  0  0  # atno 17371 bound_to 10713
  140.4323  134.7090  157.4948 LP  0  0  0  0  0  0  0  0  0  0  0  0  # atno 17394 bound_to 11000
  140.0285  134.6441  155.9139 LP  0  0  0  0  0  0  0  0  0  0  0  0  # atno 17395 bound_to 11000

$$$$
