#       Name:                AV-unprocessed.smi:1429
#       Creating user name   scv26
#       Creation time:       Fri Mar 27 05:47:29 2020


#       File generated by GOLD software.
#

@<TRIPOS>MOLECULE
AV-unprocessed.smi:1429
    36    37     1
SMALL
NO_CHARGES


@<TRIPOS>ATOM
      1 ****        -6.3852   1.7493  -0.3968 C.3            1 S1                 0.0000
      2 ****        -5.0166   1.1593  -0.4223 C.2            1 S1                 0.0000
      3 ****        -4.7214  -0.0053   0.1675 N.2            1 S1                 0.0000
      4 ****        -3.3862  -0.3503   0.0119 N.2            1 S1                 0.0000
      5 ****        -2.7110   0.5690  -0.6914 C.2            1 S1                 0.0000
      6 ****        -1.3281   0.4684  -0.9984 N.am           1 S1                 0.0000
      7 ****        -0.4716  -0.5150  -0.6706 C.2            1 S1                 0.0000
      8 ****        -0.7593  -1.5261  -0.0295 O.2            1 S1                 0.0000
      9 ****         0.7610  -0.2600  -1.1324 N.am           1 S1                 0.0000
     10 ****         1.9197  -1.1269  -0.9444 C.3            1 S1                 0.0000
     11 ****         2.5318  -0.9797   0.4617 C.3            1 S1                 0.0000
     12 ****         3.0570   0.4053   0.7859 C.3            1 S1                 0.0000
     13 ****         3.9877   0.1147   1.9580 C.3            1 S1                 0.0000
     14 ****         4.5344  -1.1748   1.7006 O.3            1 S1                 0.0000
     15 ****         3.7791  -1.8348   0.6877 C.3            1 S1                 0.0000
     16 ****        -3.6618   1.9450  -1.2245 S.3            1 S1                 0.0000
     17 ****        -7.1388   0.9617  -0.4274 H              1 S1                 0.0000
     18 ****        -6.5310   2.4032  -1.2567 H              1 S1                 0.0000
     19 ****        -6.5221   2.3318   0.5142 H              1 S1                 0.0000
     20 ****        -0.9460   1.2366  -1.5300 H              1 S1                 0.0000
     21 ****         0.9105   0.5938  -1.6502 H              1 S1                 0.0000
     22 ****         1.6393  -2.1656  -1.1268 H              1 S1                 0.0000
     23 ****         2.6586  -0.8710  -1.7044 H              1 S1                 0.0000
     24 ****         1.7906  -1.2531   1.2148 H              1 S1                 0.0000
     25 ****         3.6259   0.8056  -0.0547 H              1 S1                 0.0000
     26 ****         2.2697   1.1167   1.0374 H              1 S1                 0.0000
     27 ****         4.7695   0.8664   2.0692 H              1 S1                 0.0000
     28 ****         3.4223   0.0729   2.8897 H              1 S1                 0.0000
     29 ****         3.5330  -2.8562   0.9788 H              1 S1                 0.0000
     30 ****         4.3888  -1.8808  -0.2158 H              1 S1                 0.0000
     31 ****        -5.3868  -0.5631   0.6635 LP             1 S1                 0.0000
     32 ****        -2.9770  -1.1850   0.3804 LP             1 S1                 0.0000
     33 ****        -1.6960  -1.6647   0.2919 LP             1 S1                 0.0000
     34 ****        -0.0562  -2.2087   0.1697 LP             1 S1                 0.0000
     35 ****         4.5083  -1.7184   2.5395 LP             1 S1                 0.0000
     36 ****         5.4819  -1.0774   1.3958 LP             1 S1                 0.0000
@<TRIPOS>BOND
    1    1    2 1     
    2    1   17 1     
    3    1   18 1     
    4    1   19 1     
    5    2   16 1     
    6    2    3 2     
    7    3    4 1     
    8    4    5 2     
    9    5    6 1     
   10    5   16 1     
   11    6    7 am    
   12    6   20 1     
   13    7    8 2     
   14    7    9 am    
   15    9   10 1     
   16    9   21 1     
   17   10   11 1     
   18   10   22 1     
   19   10   23 1     
   20   11   15 1     
   21   11   12 1     
   22   11   24 1     
   23   12   13 1     
   24   12   25 1     
   25   12   26 1     
   26   13   14 1     
   27   13   27 1     
   28   13   28 1     
   29   14   15 1     
   30   15   29 1     
   31   15   30 1     
   32    3   31 1     
   33    4   32 1     
   34    8   33 1     
   35    8   34 1     
   36   14   35 1     
   37   14   36 1     
@<TRIPOS>SUBSTRUCTURE
      1 S1             1
@<TRIPOS>SET
LONE_PAIRS      STATIC     ATOMS    <user>   **** ""
6 31 32 33 34 35 36
DONOR_HYDROGENS      STATIC     ATOMS    <user>   **** ""
2 20 21
ATOM$BLUE        STATIC     ATOMS    COLORGROUP SYSTEM
6 31 32 33 34 35 36
ATOM$RED        STATIC     ATOMS    COLORGROUP SYSTEM
2 20 21
