AV-unprocessed.smi:278|AV-procd|sdf|2090|dock6
  -GOLD-   2262021373D 1   1.00000     0.00000
 Structure written by MMmdl.
 50 54  0  0  0  0  0  0  0  0  1 V2000
  150.0642  144.4610  160.2048 O   0  0  0  0  0  0  0  0  0  0  0  0
  151.4678  144.7971  159.9200 S   0  0  0  0  0  0  0  0  0  0  0  0
  151.9033  146.1957  159.7912 O   0  0  0  0  0  0  0  0  0  0  0  0
  152.5420  143.9151  161.0998 C   0  0  0  0  0  0  0  0  0  0  0  0
  152.5859  142.4677  160.5886 C   0  0  0  0  0  0  0  0  0  0  0  0
  152.4369  142.4414  159.0443 C   0  0  1  0  0  0  0  0  0  0  0  0
  151.3133  141.5306  158.5383 C   0  0  0  0  0  0  0  0  0  0  0  0
  150.8777  142.1237  157.2842 N   0  0  0  0  0  0  0  0  0  0  0  0
  149.6996  141.6675  156.8085 C   0  0  0  0  0  0  0  0  0  0  0  0
  148.5848  142.0229  157.4922 N   0  0  0  0  0  0  0  0  0  0  0  0
  147.3855  141.6001  157.0806 C   0  0  0  0  0  0  0  0  0  0  0  0
  147.0856  140.8297  156.0324 N   0  0  0  0  0  0  0  0  0  0  0  0
  148.2065  140.4723  155.3424 C   0  0  0  0  0  0  0  0  0  0  0  0
  149.5437  140.8436  155.6573 C   0  0  0  0  0  0  0  0  0  0  0  0
  150.4189  140.2886  154.7310 N   0  0  0  0  0  0  0  0  0  0  0  0
  149.6445  139.6256  153.9165 C   0  0  0  0  0  0  0  0  0  0  0  0
  148.3013  139.6805  154.2117 N   0  0  0  0  0  0  0  0  0  0  0  0
  147.2257  139.0343  153.4808 C   0  0  0  0  0  0  0  0  0  0  0  0
  146.0455  138.6495  154.3940 C   0  0  1  0  0  0  0  0  0  0  0  0
  145.1304  139.7231  154.5071 O   0  0  0  0  0  0  0  0  0  0  0  0
  145.3262  137.3657  153.9307 C   0  0  1  0  0  0  0  0  0  0  0  0
  144.1930  136.8555  154.8270 C   0  0  0  0  0  0  0  0  0  0  0  0
  143.3612  136.0694  153.8379 C   0  0  0  0  0  0  0  0  0  0  0  0
  143.4669  136.9388  152.5882 C   0  0  0  0  0  0  0  0  0  0  0  0
  144.7737  137.5046  152.6230 O   0  0  0  0  0  0  0  0  0  0  0  0
  150.9699  143.5702  157.4269 C   0  0  0  0  0  0  0  0  0  0  0  0
  152.0520  143.8198  158.4867 C   0  0  1  0  0  0  0  0  0  0  0  0
  153.3773  142.1356  158.5833 H   0  0  0  0  0  0  0  0  0  0  0  0
  152.9251  144.3204  158.0668 H   0  0  0  0  0  0  0  0  0  0  0  0
  153.5318  144.3700  161.0577 H   0  0  0  0  0  0  0  0  0  0  0  0
  152.1519  144.0074  162.1135 H   0  0  0  0  0  0  0  0  0  0  0  0
  153.5023  141.9696  160.9056 H   0  0  0  0  0  0  0  0  0  0  0  0
  151.7654  141.9166  161.0490 H   0  0  0  0  0  0  0  0  0  0  0  0
  151.6629  140.5087  158.3889 H   0  0  0  0  0  0  0  0  0  0  0  0
  150.4874  141.5018  159.2493 H   0  0  0  0  0  0  0  0  0  0  0  0
  146.5454  141.9240  157.6773 H   0  0  0  0  0  0  0  0  0  0  0  0
  150.0344  139.0716  153.0751 H   0  0  0  0  0  0  0  0  0  0  0  0
  146.8945  139.7016  152.6842 H   0  0  0  0  0  0  0  0  0  0  0  0
  147.6302  138.1462  152.9940 H   0  0  0  0  0  0  0  0  0  0  0  0
  146.4328  138.4697  155.3976 H   0  0  0  0  0  0  0  0  0  0  0  0
  144.8662  139.9843  153.6382 H   0  0  0  0  0  0  0  0  0  0  0  0
  146.0682  136.5695  153.8523 H   0  0  0  0  0  0  0  0  0  0  0  0
  144.5502  136.2520  155.6616 H   0  0  0  0  0  0  0  0  0  0  0  0
  143.5968  137.6744  155.2310 H   0  0  0  0  0  0  0  0  0  0  0  0
  143.8129  135.0929  153.6580 H   0  0  0  0  0  0  0  0  0  0  0  0
  142.3328  135.9172  154.1665 H   0  0  0  0  0  0  0  0  0  0  0  0
  143.2977  136.3769  151.6694 H   0  0  0  0  0  0  0  0  0  0  0  0
  142.7382  137.7494  152.6283 H   0  0  0  0  0  0  0  0  0  0  0  0
  151.2600  144.0107  156.4725 H   0  0  0  0  0  0  0  0  0  0  0  0
  150.0161  144.0146  157.7110 H   0  0  0  0  0  0  0  0  0  0  0  0
  1  2  2  0  0  0  0
  2 27  1  0  0  0  0
  2  3  2  0  0  0  0
  2  4  1  0  0  0  0
  4  5  1  0  0  0  0
  4 30  1  0  0  0  0
  4 31  1  0  0  0  0
  5  6  1  0  0  0  0
  5 32  1  0  0  0  0
  5 33  1  0  0  0  0
  6 28  1  0  0  0  0
  6 27  1  0  0  0  0
  6  7  1  0  0  0  0
  7  8  1  0  0  0  0
  7 34  1  0  0  0  0
  7 35  1  0  0  0  0
  8  9  1  0  0  0  0
  8 26  1  0  0  0  0
  9 14  1  0  0  0  0
  9 10  2  0  0  0  0
 10 11  1  0  0  0  0
 11 12  2  0  0  0  0
 11 36  1  0  0  0  0
 12 13  1  0  0  0  0
 13 17  1  0  0  0  0
 13 14  2  0  0  0  0
 14 15  1  0  0  0  0
 15 16  2  0  0  0  0
 16 17  1  0  0  0  0
 16 37  1  0  0  0  0
 17 18  1  0  0  0  0
 18 19  1  0  0  0  0
 18 38  1  0  0  0  0
 18 39  1  0  0  0  0
 19 20  1  0  0  0  0
 19 21  1  0  0  0  0
 19 40  1  0  0  0  0
 20 41  1  0  0  0  0
 21 25  1  0  0  0  0
 21 22  1  0  0  0  0
 21 42  1  0  0  0  0
 22 23  1  0  0  0  0
 22 43  1  0  0  0  0
 22 44  1  0  0  0  0
 23 24  1  0  0  0  0
 23 45  1  0  0  0  0
 23 46  1  0  0  0  0
 24 25  1  0  0  0  0
 24 47  1  0  0  0  0
 24 48  1  0  0  0  0
 26 27  1  0  0  0  0
 26 49  1  0  0  0  0
 26 50  1  0  0  0  0
 27 29  1  0  0  0  0
M  END
> <s_m_source_file>
AV-unprocessed.smi

> <i_m_source_file_index>
278

> <i_lp_mmshare_version>
43012

> <i_f3d_flags>
0

> <s_epik_input>
W0NIMl0xW0NIMl1TKD1PKSg9TylbQ0BASF0oW0NAQEhdMTIpW0NIMl1OKFtDSDJdMiljKG5bY0hdbjMpYyhjMzQpbltjSF1uNFtDSDJdW0NASF0oW09IXSlbQ0BASF01W0NIMl1bQ0gyXVtDSDJdTzU=

> <s_epik_cmdline>
J2VwaWtfcHl0aG9uJywgJy1waCcsICc3LjAnLCAnLXRuJywgJzgnLCAnLW1hJywgJzIwMCcsICctbWV0YWxfYmluZGluZycsICctaW1hZScsICc8aW5maWxlLm1hZT4nLCAnLW9tYWUnLCAnPG91dGZpbGUubWFlPic=

> <r_lp_tautomer_probability>
1

> <r_epik_Ionization_Penalty>
0.000636766

> <r_epik_Ionization_Penalty_Charging>
0

> <r_epik_Ionization_Penalty_Neutral>
0.000636766

> <r_epik_State_Penalty>
0.000329976

> <r_epik_Charging_Adjusted_Penalty>
0.000329976

> <i_epik_Tot_Q>
0

> <i_epik_Tot_abs_Q>
0

> <r_epik_Metal_State_Penalty>
-0

> <b_epik_Metal_Only>
0

> <s_lp_Force_Field>
OPLS_2005

> <r_lp_Energy>
54.1016

> <b_lp_Chiralities_Consistent>
1

> <s_lp_Variant>
AV-unprocessed.smi:278-4

> <Gold.Version>
5.8.1

> <Gold.Id.Protein>
6NUR|6NUR_protein|mol2

> <Gold.PLP.Fitness>
45.8410

> <Gold.PLP.PLP>
-39.7528

> <Gold.PLP.part.hbond>
-3.3105

> <Gold.PLP.part.metal>
0.0000

> <Gold.PLP.part.buried>
-3.2588

> <Gold.PLP.part.nonpolar>
-33.7570

> <Gold.PLP.part.repulsive>
0.9367

> <Gold.PLP.ligand.clash>
0.0000

> <Gold.PLP.ligand.torsion>
0.8726

> <Gold.PLP.Chemscore.Hbond>
1.9000

> <Gold.PLP.Chemscore.CHOScore>
0.6855

> <Gold.PLP.Chemscore.Metal>
0.0000

> <Gold.Chemscore.Hbonds>
donor molecule, donor type, donor heavy atom, donor atom, acceptor molecule, acceptor atom, score
      L1  H    20    41       P1 10175  1.00
      P1  H  7989  7998       L1    15  0.90
      L1  C    16    37       P1  7957  0.67

> <Gold.PLP.Chemscore.Internal.Correction>
0.0771

> <Gold.Rescore>
     Score         DG    S(hbond)    S(metal)    S(lipo)     H(rot)  DE(clash)    DE(int)     intcor
     10.55     -13.92       1.57        0.00      81.20       2.46       1.24       2.13       ----

> <Gold.Chemscore.Fitness>
10.5525

> <Gold.Chemscore.DG>
-13.9197

> <Gold.Chemscore.ZeroCoef>
-5.4800

> <Gold.Chemscore.Hbond>
1.5707

> <Gold.Chemscore.Metal>
0.0000

> <Gold.Chemscore.Lipo>
81.2013

> <Gold.Chemscore.Internal_Hbond>
0.0000

> <Gold.Chemscore.DEClash>
1.2367

> <Gold.Chemscore.DEInternal>
2.1305

> <Gold.Chemscore.Rot>
2.4636

> <Gold.Chemscore.Internal.Correction>
   9.000000E+99

> <Gold.Chemscore.Hbonds>
donor molecule, donor type, donor heavy atom, donor atom, acceptor molecule, acceptor atom, score
      L1  H    20    41       P1 10175  0.96
      P1  H  7989  7998       L1    15  0.18

> <Gold.Chemscore.Hbond.Weighted>
-5.2460

> <Gold.Chemscore.Metal.Weighted>
-0.0000

> <Gold.Chemscore.Lipo.Weighted>
-9.5005

> <Gold.Chemscore.Internal_Hbond.Weighted>
0.0000

> <Gold.Chemscore.DEClash.Weighted>
1.2367

> <Gold.Chemscore.DEInternal.Weighted>
2.1305

> <Gold.Chemscore.Rot.Weighted>
6.3068

> <Gold.Chemscore.Internal.Correction.Weighted>
   9.000000E+99

> <Gold.Protein.RotatedTorsions>
[ 6907 6896 6895 6894 ] final  -70.58 input  -60.11 | X-H torsion
[ 7974 7965 7964 7962 ] final   15.20 input  175.53 | X-H torsion
[ 8008 7997 7996 7995 ] final   -7.74 input   59.86 | X-H torsion
[ 10167 10162 10161 10158 ] final  136.16 input  -65.29 | X-H torsion
[ 10718 10713 10712 10709 ] final  156.87 input   66.30 | X-H torsion
[ 10763 10752 10751 10750 ] final  -12.13 input  -60.55 | X-H torsion
[ 11005 11000 10999 10996 ] final -132.81 input  -57.11 | X-H torsion

> <Gold.Protein.ActiveResidues>
 VAL166  LYS551  ARG553  GLY616  TRP617  ASP618  TYR619  PRO620  LYS621  CYS622 
 ASP623  PHE694  ASN695  SER759  ASP760  ASP761  ALA762  ILE779  LEU786  VAL792 
 PHE793  MET794  SER795  GLU796  ALA797  LYS798  CYS799  TRP800  GLU811  SER814 

> <Gold.Protein.RotatedAtoms>
  150.7251  134.5433  159.5757 H   0  0  0  0  0  0  0  0  0  0  0  0  # atno 6907 bound_to 6896
  152.2938  134.7688  160.0381 H   0  0  0  0  0  0  0  0  0  0  0  0  # atno 6908 bound_to 6896
  151.8292  133.3370  159.3645 H   0  0  0  0  0  0  0  0  0  0  0  0  # atno 6909 bound_to 6896
  146.2285  139.8929  142.8552 H   0  0  0  0  0  0  0  0  0  0  0  0  # atno 7974 bound_to 7965
  154.5809  140.2399  155.8056 H   0  0  0  0  0  0  0  0  0  0  0  0  # atno 8008 bound_to 7997
  156.2178  140.3007  155.9836 H   0  0  0  0  0  0  0  0  0  0  0  0  # atno 8009 bound_to 7997
  155.2543  140.0412  157.2981 H   0  0  0  0  0  0  0  0  0  0  0  0  # atno 8010 bound_to 7997
  139.5190  144.6479  151.5387 H   0  0  0  0  0  0  0  0  0  0  0  0  # atno 10167 bound_to 10162
  157.1992  131.0672  151.2035 H   0  0  0  0  0  0  0  0  0  0  0  0  # atno 10718 bound_to 10713
  153.4939  135.7017  153.5869 H   0  0  0  0  0  0  0  0  0  0  0  0  # atno 10763 bound_to 10752
  153.4029  135.3867  155.1999 H   0  0  0  0  0  0  0  0  0  0  0  0  # atno 10764 bound_to 10752
  154.8715  135.3886  154.4403 H   0  0  0  0  0  0  0  0  0  0  0  0  # atno 10765 bound_to 10752
  140.9137  134.1535  157.4369 H   0  0  0  0  0  0  0  0  0  0  0  0  # atno 11005 bound_to 11000
  145.2400  141.0005  143.3941 LP  0  0  0  0  0  0  0  0  0  0  0  0  # atno 17320 bound_to 7965
  144.9460  139.4136  143.6426 LP  0  0  0  0  0  0  0  0  0  0  0  0  # atno 17321 bound_to 7965
  140.6271  143.9147  150.6574 LP  0  0  0  0  0  0  0  0  0  0  0  0  # atno 17342 bound_to 10162
  140.2439  143.3643  152.1463 LP  0  0  0  0  0  0  0  0  0  0  0  0  # atno 17343 bound_to 10162
  157.3784  130.7218  149.6613 LP  0  0  0  0  0  0  0  0  0  0  0  0  # atno 17370 bound_to 10713
  155.9702  130.4179  150.4303 LP  0  0  0  0  0  0  0  0  0  0  0  0  # atno 17371 bound_to 10713
  139.8762  134.9945  156.5698 LP  0  0  0  0  0  0  0  0  0  0  0  0  # atno 17394 bound_to 11000
  140.8078  133.8454  155.8783 LP  0  0  0  0  0  0  0  0  0  0  0  0  # atno 17395 bound_to 11000

$$$$
