AV-unprocessed.smi:3278|AV-procd|sdf|12540|dock1
  -GOLD-   2272018453D 1   1.00000     0.00000
 Structure written by MMmdl.
 39 40  0  0  0  0  0  0  0  0  2 V2000
  145.9158  143.3883  154.2854 C   0  0  0  0  0  0  0  0  0  0  0  0
  147.0155  142.4493  154.3428 N   0  0  0  0  0  0  0  0  0  0  0  0
  148.0063  142.3412  155.2940 C   0  0  0  0  0  0  0  0  0  0  0  0
  148.8217  141.3052  154.9279 C   0  0  0  0  0  0  0  0  0  0  0  0
  150.0498  140.7603  155.6257 C   0  0  1  0  0  0  0  0  0  0  0  0
  149.6332  139.9950  156.8931 C   0  0  0  0  0  0  0  0  0  0  0  0
  150.7464  139.8285  154.8183 O   0  0  0  0  0  0  0  0  0  0  0  0
  151.0402  141.8924  155.9767 C   0  0  0  0  0  0  0  0  0  0  0  0
  150.5065  142.7772  157.0374 N   0  3  0  0  0  0  0  0  0  0  0  0
  151.5116  143.3391  157.9659 C   0  0  2  0  0  0  0  0  0  0  0  0
  151.8862  142.2718  159.0130 C   0  0  0  0  0  0  0  0  0  0  0  0
  152.9922  142.7381  159.9741 C   0  0  0  0  0  0  0  0  0  0  0  0
  152.5802  143.9743  160.7846 C   0  0  0  0  0  0  0  0  0  0  0  0
  152.2482  145.3854  159.6969 S   0  0  0  0  0  0  0  0  0  0  0  0
  150.9867  144.6238  158.6398 C   0  0  0  0  0  0  0  0  0  0  0  0
  148.2346  140.8475  153.7115 C   0  0  0  0  0  0  0  0  0  0  0  0
  147.1534  141.5271  153.3695 N   0  0  0  0  0  0  0  0  0  0  0  0
  145.9516  144.0600  155.1437 H   0  0  0  0  0  0  0  0  0  0  0  0
  144.9683  142.8488  154.2966 H   0  0  0  0  0  0  0  0  0  0  0  0
  145.9816  143.9789  153.3709 H   0  0  0  0  0  0  0  0  0  0  0  0
  148.0481  143.0030  156.1469 H   0  0  0  0  0  0  0  0  0  0  0  0
  149.1110  140.6451  157.5962 H   0  0  0  0  0  0  0  0  0  0  0  0
  150.4976  139.5798  157.4130 H   0  0  0  0  0  0  0  0  0  0  0  0
  148.9639  139.1673  156.6543 H   0  0  0  0  0  0  0  0  0  0  0  0
  151.4738  139.4821  155.3130 H   0  0  0  0  0  0  0  0  0  0  0  0
  151.9804  141.4615  156.3246 H   0  0  0  0  0  0  0  0  0  0  0  0
  151.2748  142.4756  155.0859 H   0  0  0  0  0  0  0  0  0  0  0  0
  149.9889  143.5324  156.6106 H   0  0  0  0  0  0  0  0  0  0  0  0
  152.4081  143.5757  157.3903 H   0  0  0  0  0  0  0  0  0  0  0  0
  151.0029  141.9864  159.5865 H   0  0  0  0  0  0  0  0  0  0  0  0
  152.2233  141.3672  158.5049 H   0  0  0  0  0  0  0  0  0  0  0  0
  153.2384  141.9262  160.6591 H   0  0  0  0  0  0  0  0  0  0  0  0
  153.9041  142.9512  159.4145 H   0  0  0  0  0  0  0  0  0  0  0  0
  151.6888  143.7631  161.3765 H   0  0  0  0  0  0  0  0  0  0  0  0
  153.3706  144.2492  161.4833 H   0  0  0  0  0  0  0  0  0  0  0  0
  150.6904  145.3654  157.8984 H   0  0  0  0  0  0  0  0  0  0  0  0
  150.1044  144.4073  159.2435 H   0  0  0  0  0  0  0  0  0  0  0  0
  148.5590  140.0386  153.0736 H   0  0  0  0  0  0  0  0  0  0  0  0
  149.8627  142.2227  157.5839 H   0  0  0  0  0  0  0  0  0  0  0  0
  1  2  1  0  0  0  0
  1 18  1  0  0  0  0
  1 19  1  0  0  0  0
  1 20  1  0  0  0  0
  2 17  1  0  0  0  0
  2  3  1  0  0  0  0
  3  4  2  0  0  0  0
  3 21  1  0  0  0  0
  4  5  1  0  0  0  0
  4 16  1  0  0  0  0
  5  6  1  0  0  0  0
  5  7  1  0  0  0  0
  5  8  1  0  0  0  0
  6 22  1  0  0  0  0
  6 23  1  0  0  0  0
  6 24  1  0  0  0  0
  7 25  1  0  0  0  0
  8  9  1  0  0  0  0
  8 26  1  0  0  0  0
  8 27  1  0  0  0  0
  9 10  1  0  0  0  0
  9 28  1  0  0  0  0
  9 39  1  0  0  0  0
 10 15  1  0  0  0  0
 10 11  1  0  0  0  0
 10 29  1  0  0  0  0
 11 12  1  0  0  0  0
 11 30  1  0  0  0  0
 11 31  1  0  0  0  0
 12 13  1  0  0  0  0
 12 32  1  0  0  0  0
 12 33  1  0  0  0  0
 13 14  1  0  0  0  0
 13 34  1  0  0  0  0
 13 35  1  0  0  0  0
 14 15  1  0  0  0  0
 15 36  1  0  0  0  0
 15 37  1  0  0  0  0
 16 17  2  0  0  0  0
 16 38  1  0  0  0  0
M  CHG  1   9   1
M  END
> <s_m_source_file>
AV-unprocessed.smi

> <i_m_source_file_index>
3278

> <i_lp_mmshare_version>
43012

> <i_f3d_flags>
0

> <s_epik_input>
W0NIM11uMVtjSF1jKFtjSF1uMSlbQ0BAXShbQ0gzXSkoW09IXSlbQ0gyXVtOSF1bQ0BASF0yW0NIMl1bQ0gyXVtDSDJdU1tDSDJdMg==

> <s_epik_cmdline>
J2VwaWtfcHl0aG9uJywgJy1waCcsICc3LjAnLCAnLXRuJywgJzgnLCAnLW1hJywgJzIwMCcsICctbWV0YWxfYmluZGluZycsICctaW1hZScsICc8aW5maWxlLm1hZT4nLCAnLW9tYWUnLCAnPG91dGZpbGUubWFlPic=

> <r_lp_tautomer_probability>
1

> <r_epik_Ionization_Penalty>
0.0185703

> <r_epik_Ionization_Penalty_Charging>
0.0185619

> <r_epik_Ionization_Penalty_Neutral>
8.47286e-06

> <r_epik_State_Penalty>
0.0147768

> <r_epik_Charging_Adjusted_Penalty>
0.0333386

> <i_epik_Tot_Q>
1

> <i_epik_Tot_abs_Q>
1

> <r_epik_Metal_State_Penalty>
0.0147782

> <b_epik_Metal_Only>
0

> <s_lp_Force_Field>
OPLS_2005

> <r_lp_Energy>
8.27039

> <b_lp_Chiralities_Consistent>
1

> <s_lp_Variant>
AV-unprocessed.smi:3278-1

> <Gold.Version>
5.8.1

> <Gold.Id.Protein>
6NUR|6NUR_protein|mol2

> <Gold.PLP.Fitness>
50.5784

> <Gold.PLP.PLP>
-38.2513

> <Gold.PLP.part.hbond>
-2.0000

> <Gold.PLP.part.metal>
0.0000

> <Gold.PLP.part.buried>
-0.4253

> <Gold.PLP.part.nonpolar>
-34.9671

> <Gold.PLP.part.repulsive>
0.2097

> <Gold.PLP.ligand.clash>
0.0000

> <Gold.PLP.ligand.torsion>
0.8141

> <Gold.PLP.Chemscore.Hbond>
3.0000

> <Gold.PLP.Chemscore.CHOScore>
1.6172

> <Gold.PLP.Chemscore.Metal>
0.0000

> <Gold.Chemscore.Hbonds>
donor molecule, donor type, donor heavy atom, donor atom, acceptor molecule, acceptor atom, score
      L1  H     9    28       P1  8028  2.00
      P1  H  7989  7998       L1     7  1.00
      L1  C     3    21       P1  8028  0.50
      L1  C    16    38       P1  7957  1.00

> <Gold.PLP.Chemscore.Internal.Correction>
0.1037

> <Gold.Rescore>
     Score         DG    S(hbond)    S(metal)    S(lipo)     H(rot)  DE(clash)    DE(int)     intcor
     17.26     -18.16       1.58        0.00     107.21       2.00       0.29       0.61       ----

> <Gold.Chemscore.Fitness>
17.2583

> <Gold.Chemscore.DG>
-18.1561

> <Gold.Chemscore.ZeroCoef>
-5.4800

> <Gold.Chemscore.Hbond>
1.5755

> <Gold.Chemscore.Metal>
0.0000

> <Gold.Chemscore.Lipo>
107.2096

> <Gold.Chemscore.Internal_Hbond>
0.0000

> <Gold.Chemscore.DEClash>
0.2860

> <Gold.Chemscore.DEInternal>
0.6118

> <Gold.Chemscore.Rot>
2.0038

> <Gold.Chemscore.Internal.Correction>
   9.000000E+99

> <Gold.Chemscore.Hbonds>
donor molecule, donor type, donor heavy atom, donor atom, acceptor molecule, acceptor atom, score
      L1  H     9    28       P1  8028  1.00
      P1  H  7989  7998       L1     7  0.17

> <Gold.Chemscore.Hbond.Weighted>
-5.2623

> <Gold.Chemscore.Metal.Weighted>
-0.0000

> <Gold.Chemscore.Lipo.Weighted>
-12.5435

> <Gold.Chemscore.Internal_Hbond.Weighted>
0.0000

> <Gold.Chemscore.DEClash.Weighted>
0.2860

> <Gold.Chemscore.DEInternal.Weighted>
0.6118

> <Gold.Chemscore.Rot.Weighted>
5.1296

> <Gold.Chemscore.Internal.Correction.Weighted>
   9.000000E+99

> <Gold.Protein.RotatedTorsions>
[ 6907 6896 6895 6894 ] final   19.81 input  -60.11 | X-H torsion
[ 7974 7965 7964 7962 ] final  148.39 input  175.53 | X-H torsion
[ 8008 7997 7996 7995 ] final  -50.52 input   59.86 | X-H torsion
[ 10167 10162 10161 10158 ] final   20.27 input  -65.29 | X-H torsion
[ 10718 10713 10712 10709 ] final -147.54 input   66.30 | X-H torsion
[ 10763 10752 10751 10750 ] final -173.64 input  -60.55 | X-H torsion
[ 11005 11000 10999 10996 ] final  -74.44 input  -57.11 | X-H torsion

> <Gold.Protein.ActiveResidues>
 VAL166  LYS551  ARG553  GLY616  TRP617  ASP618  TYR619  PRO620  LYS621  CYS622 
 ASP623  PHE694  ASN695  SER759  ASP760  ASP761  ALA762  ILE779  LEU786  VAL792 
 PHE793  MET794  SER795  GLU796  ALA797  LYS798  CYS799  TRP800  GLU811  SER814 

> <Gold.Protein.RotatedAtoms>
  151.8867  135.0432  160.0493 H   0  0  0  0  0  0  0  0  0  0  0  0  # atno 6907 bound_to 6896
  152.2469  133.5177  159.5311 H   0  0  0  0  0  0  0  0  0  0  0  0  # atno 6908 bound_to 6896
  150.7071  134.0930  159.3981 H   0  0  0  0  0  0  0  0  0  0  0  0  # atno 6909 bound_to 6896
  144.8517  139.6148  143.5970 H   0  0  0  0  0  0  0  0  0  0  0  0  # atno 7974 bound_to 7965
  154.4064  140.1270  156.4680 H   0  0  0  0  0  0  0  0  0  0  0  0  # atno 8008 bound_to 7997
  155.7208  140.3492  155.4995 H   0  0  0  0  0  0  0  0  0  0  0  0  # atno 8009 bound_to 7997
  155.9216  140.1053  157.1192 H   0  0  0  0  0  0  0  0  0  0  0  0  # atno 8010 bound_to 7997
  140.5516  143.9499  150.6582 H   0  0  0  0  0  0  0  0  0  0  0  0  # atno 10167 bound_to 10162
  156.4088  130.7971  151.2187 H   0  0  0  0  0  0  0  0  0  0  0  0  # atno 10718 bound_to 10713
  154.6055  135.2859  155.0489 H   0  0  0  0  0  0  0  0  0  0  0  0  # atno 10763 bound_to 10752
  154.1738  135.6468  153.5020 H   0  0  0  0  0  0  0  0  0  0  0  0  # atno 10764 bound_to 10752
  153.0174  135.5407  154.6790 H   0  0  0  0  0  0  0  0  0  0  0  0  # atno 10765 bound_to 10752
  141.1635  133.6911  156.7364 H   0  0  0  0  0  0  0  0  0  0  0  0  # atno 11005 bound_to 11000
  146.2790  139.6828  142.9242 LP  0  0  0  0  0  0  0  0  0  0  0  0  # atno 17320 bound_to 7965
  145.4486  141.0427  143.2817 LP  0  0  0  0  0  0  0  0  0  0  0  0  # atno 17321 bound_to 7965
  140.2926  143.3314  152.1048 LP  0  0  0  0  0  0  0  0  0  0  0  0  # atno 17342 bound_to 10162
  139.5030  144.6746  151.6160 LP  0  0  0  0  0  0  0  0  0  0  0  0  # atno 17343 bound_to 10162
  157.7506  131.0264  150.3960 LP  0  0  0  0  0  0  0  0  0  0  0  0  # atno 17370 bound_to 10713
  156.4254  130.3961  149.6796 LP  0  0  0  0  0  0  0  0  0  0  0  0  # atno 17371 bound_to 10713
  140.2707  134.8394  157.3844 LP  0  0  0  0  0  0  0  0  0  0  0  0  # atno 17394 bound_to 11000
  140.1524  134.4832  155.7952 LP  0  0  0  0  0  0  0  0  0  0  0  0  # atno 17395 bound_to 11000

$$$$
