AV-unprocessed.smi:686|AV-procd|sdf|3340|dock9
  -GOLD-   22720 0313D 1   1.00000     0.00000
 Structure written by MMmdl.
 41 42  0  0  0  0  0  0  0  0  2 V2000
  147.1159  140.5005  152.5900 C   0  0  0  0  0  0  0  0  0  0  0  0
  146.5463  139.1664  153.0998 C   0  0  1  0  0  0  0  0  0  0  0  0
  146.2039  138.1426  152.0074 C   0  0  0  0  0  0  0  0  0  0  0  0
  146.4813  136.7951  152.5679 N   0  3  2  0  0  0  0  0  0  0  0  0
  145.4460  135.7608  152.2868 C   0  0  0  0  0  0  0  0  0  0  0  0
  145.2810  135.5129  150.7748 C   0  0  0  0  0  0  0  0  0  0  0  0
  144.0862  136.1614  152.8901 C   0  0  0  0  0  0  0  0  0  0  0  0
  146.8378  136.9775  153.9943 C   0  0  0  0  0  0  0  0  0  0  0  0
  147.4095  138.3929  154.1012 C   0  0  1  0  0  0  0  0  0  0  0  0
  148.8278  138.4078  153.7248 N   0  0  0  0  0  0  0  0  0  0  0  0
  150.0281  138.6330  154.9429 S   0  0  0  0  0  0  0  0  0  0  0  0
  150.6591  139.9367  154.6882 O   0  0  0  0  0  0  0  0  0  0  0  0
  149.3972  138.3625  156.2438 O   0  0  0  0  0  0  0  0  0  0  0  0
  151.2368  137.2956  154.5530 C   0  0  0  0  0  0  0  0  0  0  0  0
  150.9928  136.1117  155.4464 C   0  0  0  0  0  0  0  0  0  0  0  0
  149.8660  135.2443  155.4776 C   0  0  0  0  0  0  0  0  0  0  0  0
  150.1778  134.3517  156.4624 C   0  0  0  0  0  0  0  0  0  0  0  0
  151.3916  134.6390  156.9974 O   0  0  0  0  0  0  0  0  0  0  0  0
  151.9029  135.7663  156.3449 N   0  0  0  0  0  0  0  0  0  0  0  0
  148.0289  140.3581  152.0113 H   0  0  0  0  0  0  0  0  0  0  0  0
  147.3464  141.1685  153.4203 H   0  0  0  0  0  0  0  0  0  0  0  0
  146.3965  141.0079  151.9466 H   0  0  0  0  0  0  0  0  0  0  0  0
  145.6131  139.3963  153.6169 H   0  0  0  0  0  0  0  0  0  0  0  0
  145.1631  138.2605  151.7027 H   0  0  0  0  0  0  0  0  0  0  0  0
  146.8254  138.2805  151.1218 H   0  0  0  0  0  0  0  0  0  0  0  0
  145.7663  134.8257  152.7489 H   0  0  0  0  0  0  0  0  0  0  0  0
  144.4837  134.7944  150.5823 H   0  0  0  0  0  0  0  0  0  0  0  0
  146.1856  135.1038  150.3248 H   0  0  0  0  0  0  0  0  0  0  0  0
  145.0300  136.4334  150.2464 H   0  0  0  0  0  0  0  0  0  0  0  0
  143.3246  135.4140  152.6653 H   0  0  0  0  0  0  0  0  0  0  0  0
  143.7405  137.1142  152.4874 H   0  0  0  0  0  0  0  0  0  0  0  0
  144.1264  136.2544  153.9751 H   0  0  0  0  0  0  0  0  0  0  0  0
  145.9340  136.9133  154.6029 H   0  0  0  0  0  0  0  0  0  0  0  0
  147.5246  136.2052  154.3397 H   0  0  0  0  0  0  0  0  0  0  0  0
  147.3059  138.7979  155.1088 H   0  0  0  0  0  0  0  0  0  0  0  0
  149.0742  137.6508  153.0875 H   0  0  0  0  0  0  0  0  0  0  0  0
  151.1514  137.0369  153.4972 H   0  0  0  0  0  0  0  0  0  0  0  0
  152.2386  137.6935  154.7146 H   0  0  0  0  0  0  0  0  0  0  0  0
  148.9723  135.2704  154.8718 H   0  0  0  0  0  0  0  0  0  0  0  0
  149.6655  133.4968  156.8785 H   0  0  0  0  0  0  0  0  0  0  0  0
  147.3298  136.4831  152.1173 H   0  0  0  0  0  0  0  0  0  0  0  0
  1  2  1  0  0  0  0
  1 20  1  0  0  0  0
  1 21  1  0  0  0  0
  1 22  1  0  0  0  0
  2  9  1  0  0  0  0
  2  3  1  0  0  0  0
  2 23  1  0  0  0  0
  3  4  1  0  0  0  0
  3 24  1  0  0  0  0
  3 25  1  0  0  0  0
  4  5  1  0  0  0  0
  4  8  1  0  0  0  0
  4 41  1  0  0  0  0
  5  6  1  0  0  0  0
  5  7  1  0  0  0  0
  5 26  1  0  0  0  0
  6 27  1  0  0  0  0
  6 28  1  0  0  0  0
  6 29  1  0  0  0  0
  7 30  1  0  0  0  0
  7 31  1  0  0  0  0
  7 32  1  0  0  0  0
  8  9  1  0  0  0  0
  8 33  1  0  0  0  0
  8 34  1  0  0  0  0
  9 10  1  0  0  0  0
  9 35  1  0  0  0  0
 10 11  1  0  0  0  0
 10 36  1  0  0  0  0
 11 12  2  0  0  0  0
 11 13  2  0  0  0  0
 11 14  1  0  0  0  0
 14 15  1  0  0  0  0
 14 37  1  0  0  0  0
 14 38  1  0  0  0  0
 15 19  2  0  0  0  0
 15 16  1  0  0  0  0
 16 17  2  0  0  0  0
 16 39  1  0  0  0  0
 17 18  1  0  0  0  0
 17 40  1  0  0  0  0
 18 19  1  0  0  0  0
M  CHG  1   4   1
M  END
> <s_m_source_file>
AV-unprocessed.smi

> <i_m_source_file_index>
686

> <i_lp_mmshare_version>
43012

> <i_f3d_flags>
0

> <s_epik_input>
W0NIM11bQ0BASF0xW0NIMl1OKFtDSF0oW0NIM10pW0NIM10pW0NIMl1bQ0BIXTFbTkhdUyg9TykoPU8pW0NIMl1jMltjSF1bY0hdb24y

> <s_epik_cmdline>
J2VwaWtfcHl0aG9uJywgJy1waCcsICc3LjAnLCAnLXRuJywgJzgnLCAnLW1hJywgJzIwMCcsICctbWV0YWxfYmluZGluZycsICctaW1hZScsICc8aW5maWxlLm1hZT4nLCAnLW9tYWUnLCAnPG91dGZpbGUubWFlPic=

> <r_epik_Ionization_Penalty>
0.00200818

> <r_epik_Ionization_Penalty_Charging>
0.000701289

> <r_epik_Ionization_Penalty_Neutral>
0.00130689

> <r_epik_State_Penalty>
0.00131314

> <r_epik_Charging_Adjusted_Penalty>
0.00201443

> <i_epik_Tot_Q>
1

> <i_epik_Tot_abs_Q>
1

> <r_epik_Metal_State_Penalty>
0.310831

> <b_epik_Metal_Only>
0

> <s_lp_Force_Field>
OPLS_2005

> <r_lp_Energy>
21.9273

> <b_lp_Chiralities_Consistent>
1

> <s_lp_Variant>
AV-unprocessed.smi:686-4

> <Gold.Version>
5.8.1

> <Gold.Id.Protein>
6NUR|6NUR_protein|mol2

> <Gold.PLP.Fitness>
39.9070

> <Gold.PLP.PLP>
-27.4169

> <Gold.PLP.part.hbond>
-5.6838

> <Gold.PLP.part.metal>
0.0000

> <Gold.PLP.part.buried>
-0.5206

> <Gold.PLP.part.nonpolar>
-22.2811

> <Gold.PLP.part.repulsive>
0.1106

> <Gold.PLP.ligand.clash>
0.0000

> <Gold.PLP.ligand.torsion>
1.3473

> <Gold.PLP.Chemscore.Hbond>
5.0000

> <Gold.PLP.Chemscore.CHOScore>
0.0000

> <Gold.PLP.Chemscore.Metal>
0.0000

> <Gold.Chemscore.Hbonds>
donor molecule, donor type, donor heavy atom, donor atom, acceptor molecule, acceptor atom, score
      L1  H     4    41       P1  7948  2.00
      L1  H    10    36       P1  7948  1.00
      P1  H  7989  7998       L1    12  1.00
      P1  H 10752 10764       L1    19  1.00

> <Gold.PLP.Chemscore.Internal.Correction>
0.1846

> <Gold.Rescore>
     Score         DG    S(hbond)    S(metal)    S(lipo)     H(rot)  DE(clash)    DE(int)     intcor
     18.92     -20.43       3.79        0.00      61.32       1.91       0.27       1.24       ----

> <Gold.Chemscore.Fitness>
18.9212

> <Gold.Chemscore.DG>
-20.4270

> <Gold.Chemscore.ZeroCoef>
-5.4800

> <Gold.Chemscore.Hbond>
3.7923

> <Gold.Chemscore.Metal>
0.0000

> <Gold.Chemscore.Lipo>
61.3163

> <Gold.Chemscore.Internal_Hbond>
0.0000

> <Gold.Chemscore.DEClash>
0.2662

> <Gold.Chemscore.DEInternal>
1.2395

> <Gold.Chemscore.Rot>
1.9115

> <Gold.Chemscore.Internal.Correction>
   9.000000E+99

> <Gold.Chemscore.Hbonds>
donor molecule, donor type, donor heavy atom, donor atom, acceptor molecule, acceptor atom, score
      L1  H     4    41       P1  7948  0.99
      L1  H    10    36       P1  7948  1.00
      P1  H  7989  7998       L1    12  1.00
      P1  H 10752 10764       L1    19  0.29

> <Gold.Chemscore.Hbond.Weighted>
-12.6664

> <Gold.Chemscore.Metal.Weighted>
-0.0000

> <Gold.Chemscore.Lipo.Weighted>
-7.1740

> <Gold.Chemscore.Internal_Hbond.Weighted>
0.0000

> <Gold.Chemscore.DEClash.Weighted>
0.2662

> <Gold.Chemscore.DEInternal.Weighted>
1.2395

> <Gold.Chemscore.Rot.Weighted>
4.8935

> <Gold.Chemscore.Internal.Correction.Weighted>
   9.000000E+99

> <Gold.Protein.RotatedTorsions>
[ 6907 6896 6895 6894 ] final  130.37 input  -60.11 | X-H torsion
[ 7974 7965 7964 7962 ] final  101.41 input  175.53 | X-H torsion
[ 8008 7997 7996 7995 ] final  -96.29 input   59.86 | X-H torsion
[ 10167 10162 10161 10158 ] final   31.67 input  -65.29 | X-H torsion
[ 10718 10713 10712 10709 ] final -145.71 input   66.30 | X-H torsion
[ 10763 10752 10751 10750 ] final   -8.51 input  -60.55 | X-H torsion
[ 11005 11000 10999 10996 ] final   72.29 input  -57.11 | X-H torsion

> <Gold.Protein.ActiveResidues>
 VAL166  LYS551  ARG553  GLY616  TRP617  ASP618  TYR619  PRO620  LYS621  CYS622 
 ASP623  PHE694  ASN695  SER759  ASP760  ASP761  ALA762  ILE779  LEU786  VAL792 
 PHE793  MET794  SER795  GLU796  ALA797  LYS798  CYS799  TRP800  GLU811  SER814 

> <Gold.Protein.RotatedAtoms>
  152.3533  133.6206  159.5960 H   0  0  0  0  0  0  0  0  0  0  0  0  # atno 6907 bound_to 6896
  150.7552  133.9539  159.3503 H   0  0  0  0  0  0  0  0  0  0  0  0  # atno 6908 bound_to 6896
  151.7388  135.0859  160.0363 H   0  0  0  0  0  0  0  0  0  0  0  0  # atno 6909 bound_to 6896
  145.3727  139.2395  143.3446 H   0  0  0  0  0  0  0  0  0  0  0  0  # atno 7974 bound_to 7965
  154.7725  140.0472  157.1062 H   0  0  0  0  0  0  0  0  0  0  0  0  # atno 8008 bound_to 7997
  154.9803  140.3100  155.4929 H   0  0  0  0  0  0  0  0  0  0  0  0  # atno 8009 bound_to 7997
  156.2923  140.2237  156.4902 H   0  0  0  0  0  0  0  0  0  0  0  0  # atno 8010 bound_to 7997
  140.4568  144.0967  150.6203 H   0  0  0  0  0  0  0  0  0  0  0  0  # atno 10167 bound_to 10162
  156.3858  130.7860  151.2058 H   0  0  0  0  0  0  0  0  0  0  0  0  # atno 10718 bound_to 10713
  153.4415  135.7014  153.6166 H   0  0  0  0  0  0  0  0  0  0  0  0  # atno 10763 bound_to 10752
  153.4539  135.3752  155.2300 H   0  0  0  0  0  0  0  0  0  0  0  0  # atno 10764 bound_to 10752
  154.8727  135.4003  154.3814 H   0  0  0  0  0  0  0  0  0  0  0  0  # atno 10765 bound_to 10752
  139.9498  134.7247  156.0889 H   0  0  0  0  0  0  0  0  0  0  0  0  # atno 11005 bound_to 11000
  146.2878  140.4381  142.8751 LP  0  0  0  0  0  0  0  0  0  0  0  0  # atno 17320 bound_to 7965
  144.8564  140.7077  143.6135 LP  0  0  0  0  0  0  0  0  0  0  0  0  # atno 17321 bound_to 7965
  140.4142  143.2642  151.9796 LP  0  0  0  0  0  0  0  0  0  0  0  0  # atno 17342 bound_to 10162
  139.4802  144.5889  151.7806 LP  0  0  0  0  0  0  0  0  0  0  0  0  # atno 17343 bound_to 10162
  157.7496  131.0330  150.4253 LP  0  0  0  0  0  0  0  0  0  0  0  0  # atno 17370 bound_to 10713
  156.4505  130.4010  149.6639 LP  0  0  0  0  0  0  0  0  0  0  0  0  # atno 17371 bound_to 10713
  141.1158  133.6628  156.3091 LP  0  0  0  0  0  0  0  0  0  0  0  0  # atno 17394 bound_to 11000
  140.5746  134.5806  157.5465 LP  0  0  0  0  0  0  0  0  0  0  0  0  # atno 17395 bound_to 11000

$$$$
