AV-unprocessed.smi:1041|AV-procd|sdf|4529|dock10
  -GOLD-   22720 2553D 1   1.00000     0.00000
 Structure written by MMmdl.
 53 54  0  0  0  0  0  0  0  0  2 V2000
  151.3285  143.8183  159.1995 C   0  0  0  0  0  0  0  0  0  0  0  0
  150.6235  142.6870  159.6798 O   0  0  0  0  0  0  0  0  0  0  0  0
  149.3972  142.4802  158.9987 C   0  0  0  0  0  0  0  0  0  0  0  0
  149.6650  141.6351  157.7436 C   0  0  0  0  0  0  0  0  0  0  0  0
  148.6240  141.8231  156.7017 N   0  3  2  0  0  0  0  0  0  0  0  0
  147.3607  141.1149  157.0337 C   0  0  0  0  0  0  0  0  0  0  0  0
  146.2550  141.4269  156.0072 C   0  0  0  0  0  0  0  0  0  0  0  0
  146.6910  141.1101  154.5644 C   0  0  2  0  0  0  0  0  0  0  0  0
  146.7175  139.5884  154.2869 C   0  0  0  0  0  0  0  0  0  0  0  0
  145.4797  139.1279  153.6675 N   0  0  0  0  0  0  0  0  0  0  0  0
  144.7214  138.1097  154.1029 C   0  0  0  0  0  0  0  0  0  0  0  0
  144.9530  137.4785  155.1334 O   0  0  0  0  0  0  0  0  0  0  0  0
  143.5403  137.7228  153.2143 C   0  0  0  0  0  0  0  0  0  0  0  0
  143.6820  136.3686  152.5225 C   0  0  0  0  0  0  0  0  0  0  0  0
  144.7428  136.0421  151.7268 C   0  0  0  0  0  0  0  0  0  0  0  0
  145.8980  136.9909  151.4578 C   0  0  0  0  0  0  0  0  0  0  0  0
  144.8339  134.7906  151.1018 N   0  0  0  0  0  0  0  0  0  0  0  0
  143.8861  133.9320  151.2864 C   0  0  0  0  0  0  0  0  0  0  0  0
  143.8679  132.5484  150.6717 C   0  0  0  0  0  0  0  0  0  0  0  0
  142.7732  134.2048  152.0798 N   0  0  0  0  0  0  0  0  0  0  0  0
  142.6002  135.3838  152.7177 C   0  0  0  0  0  0  0  0  0  0  0  0
  141.5919  135.5834  153.3935 O   0  0  0  0  0  0  0  0  0  0  0  0
  148.0237  141.8360  154.2835 C   0  0  0  0  0  0  0  0  0  0  0  0
  149.0962  141.4936  155.3309 C   0  0  0  0  0  0  0  0  0  0  0  0
  142.0608  133.4970  152.1841 H   0  0  0  0  0  0  0  0  0  0  0  0
  152.2627  143.9288  159.7499 H   0  0  0  0  0  0  0  0  0  0  0  0
  150.7476  144.7316  159.3365 H   0  0  0  0  0  0  0  0  0  0  0  0
  151.5715  143.7126  158.1414 H   0  0  0  0  0  0  0  0  0  0  0  0
  148.6655  142.0068  159.6536 H   0  0  0  0  0  0  0  0  0  0  0  0
  148.9812  143.4443  158.7024 H   0  0  0  0  0  0  0  0  0  0  0  0
  150.6463  141.8672  157.3276 H   0  0  0  0  0  0  0  0  0  0  0  0
  149.7004  140.5875  158.0462 H   0  0  0  0  0  0  0  0  0  0  0  0
  147.5454  140.0415  157.0892 H   0  0  0  0  0  0  0  0  0  0  0  0
  147.0196  141.4235  158.0226 H   0  0  0  0  0  0  0  0  0  0  0  0
  145.3465  140.8783  156.2577 H   0  0  0  0  0  0  0  0  0  0  0  0
  145.9966  142.4844  156.0780 H   0  0  0  0  0  0  0  0  0  0  0  0
  145.9418  141.5354  153.8948 H   0  0  0  0  0  0  0  0  0  0  0  0
  147.5814  139.3135  153.6810 H   0  0  0  0  0  0  0  0  0  0  0  0
  146.8321  139.0493  155.2278 H   0  0  0  0  0  0  0  0  0  0  0  0
  145.2045  139.5847  152.8094 H   0  0  0  0  0  0  0  0  0  0  0  0
  142.6386  137.7294  153.8264 H   0  0  0  0  0  0  0  0  0  0  0  0
  143.3723  138.5065  152.4737 H   0  0  0  0  0  0  0  0  0  0  0  0
  146.4219  137.2297  152.3836 H   0  0  0  0  0  0  0  0  0  0  0  0
  145.5403  137.9177  151.0104 H   0  0  0  0  0  0  0  0  0  0  0  0
  146.6216  136.5492  150.7716 H   0  0  0  0  0  0  0  0  0  0  0  0
  143.8873  132.6207  149.5840 H   0  0  0  0  0  0  0  0  0  0  0  0
  142.9767  131.9897  150.9612 H   0  0  0  0  0  0  0  0  0  0  0  0
  144.7434  131.9840  150.9937 H   0  0  0  0  0  0  0  0  0  0  0  0
  148.3914  141.6154  153.2815 H   0  0  0  0  0  0  0  0  0  0  0  0
  147.8511  142.9129  154.2986 H   0  0  0  0  0  0  0  0  0  0  0  0
  150.0006  142.0533  155.0968 H   0  0  0  0  0  0  0  0  0  0  0  0
  149.3613  140.4370  155.2761 H   0  0  0  0  0  0  0  0  0  0  0  0
  148.3981  142.8078  156.7052 H   0  0  0  0  0  0  0  0  0  0  0  0
  1  2  1  0  0  0  0
  1 26  1  0  0  0  0
  1 27  1  0  0  0  0
  1 28  1  0  0  0  0
  2  3  1  0  0  0  0
  3  4  1  0  0  0  0
  3 29  1  0  0  0  0
  3 30  1  0  0  0  0
  4  5  1  0  0  0  0
  4 31  1  0  0  0  0
  4 32  1  0  0  0  0
  5 24  1  0  0  0  0
  5  6  1  0  0  0  0
  5 53  1  0  0  0  0
  6  7  1  0  0  0  0
  6 33  1  0  0  0  0
  6 34  1  0  0  0  0
  7  8  1  0  0  0  0
  7 35  1  0  0  0  0
  7 36  1  0  0  0  0
  8  9  1  0  0  0  0
  8 23  1  0  0  0  0
  8 37  1  0  0  0  0
  9 10  1  0  0  0  0
  9 38  1  0  0  0  0
  9 39  1  0  0  0  0
 10 11  1  0  0  0  0
 10 40  1  0  0  0  0
 11 12  2  0  0  0  0
 11 13  1  0  0  0  0
 13 14  1  0  0  0  0
 13 41  1  0  0  0  0
 13 42  1  0  0  0  0
 14 21  1  0  0  0  0
 14 15  2  0  0  0  0
 15 16  1  0  0  0  0
 15 17  1  0  0  0  0
 16 43  1  0  0  0  0
 16 44  1  0  0  0  0
 16 45  1  0  0  0  0
 17 18  2  0  0  0  0
 18 19  1  0  0  0  0
 18 20  1  0  0  0  0
 19 46  1  0  0  0  0
 19 47  1  0  0  0  0
 19 48  1  0  0  0  0
 20 25  1  0  0  0  0
 20 21  1  0  0  0  0
 21 22  2  0  0  0  0
 23 24  1  0  0  0  0
 23 49  1  0  0  0  0
 23 50  1  0  0  0  0
 24 51  1  0  0  0  0
 24 52  1  0  0  0  0
M  CHG  1   5   1
M  END
> <s_m_source_file>
AV-unprocessed.smi

> <i_m_source_file_index>
1041

> <i_lp_mmshare_version>
43012

> <i_f3d_flags>
0

> <s_epik_input>
W0NIM11PW0NIMl1bQ0gyXU4xW0NIMl1bQ0gyXVtDSF0oW0NIMl1bQ0gyXTEpW0NIMl1bTkhdQyg9TylbQ0gyXWMyYyhbQ0gzXSluYyhbQ0gzXSlbbkhdYzI9Tw==

> <s_epik_cmdline>
J2VwaWtfcHl0aG9uJywgJy1waCcsICc3LjAnLCAnLXRuJywgJzgnLCAnLW1hJywgJzIwMCcsICctbWV0YWxfYmluZGluZycsICctaW1hZScsICc8aW5maWxlLm1hZT4nLCAnLW9tYWUnLCAnPG91dGZpbGUubWFlPic=

> <r_lp_tautomer_probability>
0.839158

> <r_epik_Ionization_Penalty>
0.00964357

> <r_epik_Ionization_Penalty_Charging>
0.00961423

> <r_epik_Ionization_Penalty_Neutral>
2.93415e-05

> <r_epik_State_Penalty>
0.0972512

> <r_epik_Charging_Adjusted_Penalty>
0.106865

> <i_epik_Tot_Q>
1

> <i_epik_Tot_abs_Q>
1

> <r_epik_Metal_State_Penalty>
0.270886

> <b_epik_Metal_Only>
0

> <s_lp_Force_Field>
OPLS_2005

> <r_lp_Energy>
21.6557

> <b_lp_Chiralities_Consistent>
1

> <s_lp_Variant>
AV-unprocessed.smi:1041-2

> <Gold.Version>
5.8.1

> <Gold.Id.Protein>
6NUR|6NUR_protein|mol2

> <Gold.PLP.Fitness>
45.6045

> <Gold.PLP.PLP>
-37.9834

> <Gold.PLP.part.hbond>
-4.0000

> <Gold.PLP.part.metal>
0.0000

> <Gold.PLP.part.buried>
-3.0045

> <Gold.PLP.part.nonpolar>
-30.2345

> <Gold.PLP.part.repulsive>
0.3821

> <Gold.PLP.ligand.clash>
0.0000

> <Gold.PLP.ligand.torsion>
1.1041

> <Gold.PLP.Chemscore.Hbond>
3.2337

> <Gold.PLP.Chemscore.CHOScore>
0.0000

> <Gold.PLP.Chemscore.Metal>
0.0000

> <Gold.Chemscore.Hbonds>
donor molecule, donor type, donor heavy atom, donor atom, acceptor molecule, acceptor atom, score
      L1  H     5    53       P1  8028  0.88
      L1  H    10    40       P1 10175  0.56

> <Gold.PLP.Chemscore.Internal.Correction>
0.1280

> <Gold.Rescore>
     Score         DG    S(hbond)    S(metal)    S(lipo)     H(rot)  DE(clash)    DE(int)     intcor
     15.34     -18.31       2.93        0.00      79.10       2.43       2.16       0.80       ----

> <Gold.Chemscore.Fitness>
15.3448

> <Gold.Chemscore.DG>
-18.3060

> <Gold.Chemscore.ZeroCoef>
-5.4800

> <Gold.Chemscore.Hbond>
2.9312

> <Gold.Chemscore.Metal>
0.0000

> <Gold.Chemscore.Lipo>
79.0970

> <Gold.Chemscore.Internal_Hbond>
0.0000

> <Gold.Chemscore.DEClash>
2.1624

> <Gold.Chemscore.DEInternal>
0.7988

> <Gold.Chemscore.Rot>
2.4291

> <Gold.Chemscore.Internal.Correction>
   9.000000E+99

> <Gold.Chemscore.Hbonds>
donor molecule, donor type, donor heavy atom, donor atom, acceptor molecule, acceptor atom, score
      L1  H     5    53       P1  8028  0.31
      L1  H    10    40       P1 10175  0.56

> <Gold.Chemscore.Hbond.Weighted>
-9.7903

> <Gold.Chemscore.Metal.Weighted>
-0.0000

> <Gold.Chemscore.Lipo.Weighted>
-9.2543

> <Gold.Chemscore.Internal_Hbond.Weighted>
0.0000

> <Gold.Chemscore.DEClash.Weighted>
2.1624

> <Gold.Chemscore.DEInternal.Weighted>
0.7988

> <Gold.Chemscore.Rot.Weighted>
6.2186

> <Gold.Chemscore.Internal.Correction.Weighted>
   9.000000E+99

> <Gold.Protein.RotatedTorsions>
[ 6907 6896 6895 6894 ] final  -32.77 input  -60.11 | X-H torsion
[ 7974 7965 7964 7962 ] final  125.00 input  175.53 | X-H torsion
[ 8008 7997 7996 7995 ] final  119.98 input   59.86 | X-H torsion
[ 10167 10162 10161 10158 ] final   88.79 input  -65.29 | X-H torsion
[ 10718 10713 10712 10709 ] final  158.10 input   66.30 | X-H torsion
[ 10763 10752 10751 10750 ] final  133.25 input  -60.55 | X-H torsion
[ 11005 11000 10999 10996 ] final  -81.58 input  -57.11 | X-H torsion

> <Gold.Protein.ActiveResidues>
 VAL166  LYS551  ARG553  GLY616  TRP617  ASP618  TYR619  PRO620  LYS621  CYS622 
 ASP623  PHE694  ASN695  SER759  ASP760  ASP761  ALA762  ILE779  LEU786  VAL792 
 PHE793  MET794  SER795  GLU796  ALA797  LYS798  CYS799  TRP800  GLU811  SER814 

> <Gold.Protein.RotatedAtoms>
  151.0743  134.9818  159.8324 H   0  0  0  0  0  0  0  0  0  0  0  0  # atno 6907 bound_to 6896
  152.5412  134.2260  159.8816 H   0  0  0  0  0  0  0  0  0  0  0  0  # atno 6908 bound_to 6896
  151.2286  133.4419  159.2636 H   0  0  0  0  0  0  0  0  0  0  0  0  # atno 6909 bound_to 6896
  145.0780  139.3679  143.4923 H   0  0  0  0  0  0  0  0  0  0  0  0  # atno 7974 bound_to 7965
  156.2621  140.2841  156.1077 H   0  0  0  0  0  0  0  0  0  0  0  0  # atno 8008 bound_to 7997
  155.1291  140.0393  157.2787 H   0  0  0  0  0  0  0  0  0  0  0  0  # atno 8009 bound_to 7997
  154.6613  140.2567  155.7112 H   0  0  0  0  0  0  0  0  0  0  0  0  # atno 8010 bound_to 7997
  139.8637  144.6530  150.9028 H   0  0  0  0  0  0  0  0  0  0  0  0  # atno 10167 bound_to 10162
  157.1825  131.0636  151.2124 H   0  0  0  0  0  0  0  0  0  0  0  0  # atno 10718 bound_to 10713
  153.8040  135.3138  155.3393 H   0  0  0  0  0  0  0  0  0  0  0  0  # atno 10763 bound_to 10752
  154.8078  135.4687  154.0440 H   0  0  0  0  0  0  0  0  0  0  0  0  # atno 10764 bound_to 10752
  153.1797  135.6891  153.8583 H   0  0  0  0  0  0  0  0  0  0  0  0  # atno 10765 bound_to 10752
  141.1666  133.7203  156.8444 H   0  0  0  0  0  0  0  0  0  0  0  0  # atno 11005 bound_to 11000
  146.3530  140.0557  142.8633 LP  0  0  0  0  0  0  0  0  0  0  0  0  # atno 17320 bound_to 7965
  145.1212  140.9463  143.4599 LP  0  0  0  0  0  0  0  0  0  0  0  0  # atno 17321 bound_to 7965
  140.7771  143.3722  151.1628 LP  0  0  0  0  0  0  0  0  0  0  0  0  # atno 17342 bound_to 10162
  139.7349  143.9014  152.3031 LP  0  0  0  0  0  0  0  0  0  0  0  0  # atno 17343 bound_to 10162
  157.3939  130.7296  149.6717 LP  0  0  0  0  0  0  0  0  0  0  0  0  # atno 17370 bound_to 10713
  155.9722  130.4139  150.4105 LP  0  0  0  0  0  0  0  0  0  0  0  0  # atno 17371 bound_to 10713
  140.1960  134.8931  157.3115 LP  0  0  0  0  0  0  0  0  0  0  0  0  # atno 17394 bound_to 11000
  140.2238  134.3991  155.7553 LP  0  0  0  0  0  0  0  0  0  0  0  0  # atno 17395 bound_to 11000

$$$$
