#       Name:                AV-unprocessed.smi:2244
#       Creating user name   scv26
#       Creation time:       Fri Mar 27 12:27:56 2020


#       File generated by GOLD software.
#

@<TRIPOS>MOLECULE
AV-unprocessed.smi:2244
    55    57     1
SMALL
NO_CHARGES


@<TRIPOS>ATOM
      1 ****         1.2091  -8.8660   1.6744 C.3            1 S1                 0.0000
      2 ****         2.4945  -8.0491   1.4123 C.3            1 S1                 0.0000
      3 ****         3.3784  -8.1560   2.6724 C.3            1 S1                 0.0000
      4 ****         3.2149  -8.6941   0.2098 C.3            1 S1                 0.0000
      5 ****         2.1988  -6.5693   1.1094 C.ar           1 S1                 0.0000
      6 ****         0.8942  -6.0270   1.0962 C.ar           1 S1                 0.0000
      7 ****         0.7571  -4.6586   0.8083 C.ar           1 S1                 0.0000
      8 ****         1.9182  -3.9028   0.5484 C.ar           1 S1                 0.0000
      9 ****         1.6845  -2.5246   0.2674 N.am           1 S1                 0.0000
     10 ****         2.5312  -1.5164  -0.0329 C.2            1 S1                 0.0000
     11 ****         3.7440  -1.7084  -0.1037 O.2            1 S1                 0.0000
     12 ****         1.9735  -0.3131  -0.2453 N.am           1 S1                 0.0000
     13 ****         2.6921   0.9112  -0.5815 C.3            1 S1                 0.0000
     14 ****         2.9838   0.9781  -2.0896 C.3            1 S1                 0.0000
     15 ****         3.5858   2.3413  -2.4648 C.3            1 S1                 0.0000
     16 ****         2.7153   3.3893  -2.0518 O.3            1 S1                 0.0000
     17 ****         2.5239   3.4365  -0.6410 C.3            1 S1                 0.0000
     18 ****         1.6755   4.6513  -0.3212 C.3            1 S1                 0.0000
     19 ****         2.3092   6.0093  -0.1302 C.3            1 S1                 0.0000
     20 ****         1.7157   5.2813   1.0515 C.3            1 S1                 0.0000
     21 ****         1.8551   2.1315  -0.1709 C.3            1 S1                 0.0000
     22 ****         3.1404  -4.4931   0.5787 N.ar           1 S1                 0.0000
     23 ****         3.2794  -5.7930   0.8529 N.ar           1 S1                 0.0000
     24 ****         1.4411  -9.9111   1.8826 H              1 S1                 0.0000
     25 ****         0.5416  -8.8540   0.8119 H              1 S1                 0.0000
     26 ****         0.6572  -8.4854   2.5346 H              1 S1                 0.0000
     27 ****         2.8911  -7.7035   3.5368 H              1 S1                 0.0000
     28 ****         4.3380  -7.6560   2.5379 H              1 S1                 0.0000
     29 ****         3.5911  -9.1960   2.9222 H              1 S1                 0.0000
     30 ****         3.4195  -9.7503   0.3885 H              1 S1                 0.0000
     31 ****         4.1719  -8.2132   0.0044 H              1 S1                 0.0000
     32 ****         2.6116  -8.6246  -0.6959 H              1 S1                 0.0000
     33 ****         0.0135  -6.6166   1.2978 H              1 S1                 0.0000
     34 ****        -0.2222  -4.2026   0.7888 H              1 S1                 0.0000
     35 ****         0.7129  -2.2530   0.3043 H              1 S1                 0.0000
     36 ****         0.9684  -0.2425  -0.1684 H              1 S1                 0.0000
     37 ****         3.6350   0.9415  -0.0320 H              1 S1                 0.0000
     38 ****         3.6635   0.1777  -2.3833 H              1 S1                 0.0000
     39 ****         2.0616   0.8271  -2.6527 H              1 S1                 0.0000
     40 ****         4.5693   2.4704  -2.0107 H              1 S1                 0.0000
     41 ****         3.7243   2.4042  -3.5442 H              1 S1                 0.0000
     42 ****         3.4928   3.5510  -0.1511 H              1 S1                 0.0000
     43 ****         0.7037   4.6471  -0.8111 H              1 S1                 0.0000
     44 ****         3.3938   6.0754  -0.1861 H              1 S1                 0.0000
     45 ****         1.7691   6.8725  -0.5136 H              1 S1                 0.0000
     46 ****         0.7799   5.6592   1.4577 H              1 S1                 0.0000
     47 ****         2.4056   4.8629   1.7815 H              1 S1                 0.0000
     48 ****         0.8571   2.0587  -0.6066 H              1 S1                 0.0000
     49 ****         1.7222   2.1478   0.9117 H              1 S1                 0.0000
     50 ****         4.1162  -2.6216   0.0622 LP             1 S1                 0.0000
     51 ****         4.3579  -0.9512  -0.3272 LP             1 S1                 0.0000
     52 ****         1.8261   3.2547  -2.4889 LP             1 S1                 0.0000
     53 ****         3.1043   4.2613  -2.3492 LP             1 S1                 0.0000
     54 ****         3.9541  -3.9429   0.3917 LP             1 S1                 0.0000
     55 ****         4.1933  -6.1987   0.8692 LP             1 S1                 0.0000
@<TRIPOS>BOND
    1    1    2 1     
    2    1   24 1     
    3    1   25 1     
    4    1   26 1     
    5    2    3 1     
    6    2    4 1     
    7    2    5 1     
    8    3   27 1     
    9    3   28 1     
   10    3   29 1     
   11    4   30 1     
   12    4   31 1     
   13    4   32 1     
   14    5   23 ar    
   15    5    6 ar    
   16    6    7 ar    
   17    6   33 1     
   18    7    8 ar    
   19    7   34 1     
   20    8    9 1     
   21    8   22 ar    
   22    9   10 am    
   23    9   35 1     
   24   10   11 2     
   25   10   12 am    
   26   12   13 1     
   27   12   36 1     
   28   13   21 1     
   29   13   14 1     
   30   13   37 1     
   31   14   15 1     
   32   14   38 1     
   33   14   39 1     
   34   15   16 1     
   35   15   40 1     
   36   15   41 1     
   37   16   17 1     
   38   17   18 1     
   39   17   21 1     
   40   17   42 1     
   41   18   20 1     
   42   18   19 1     
   43   18   43 1     
   44   19   20 1     
   45   19   44 1     
   46   19   45 1     
   47   20   46 1     
   48   20   47 1     
   49   21   48 1     
   50   21   49 1     
   51   22   23 ar    
   52   11   50 1     
   53   11   51 1     
   54   16   52 1     
   55   16   53 1     
   56   22   54 1     
   57   23   55 1     
@<TRIPOS>SUBSTRUCTURE
      1 S1             1
@<TRIPOS>SET
LONE_PAIRS      STATIC     ATOMS    <user>   **** ""
6 50 51 52 53 54 55
DONOR_HYDROGENS      STATIC     ATOMS    <user>   **** ""
2 35 36
ATOM$BLUE        STATIC     ATOMS    COLORGROUP SYSTEM
6 50 51 52 53 54 55
ATOM$RED        STATIC     ATOMS    COLORGROUP SYSTEM
2 35 36
