AV-unprocessed.smi:180|AV-procd|sdf|1452|dock10
  -GOLD-   2262019253D 1   1.00000     0.00000
 Structure written by MMmdl.
 54 57  0  0  0  0  0  0  0  0  1 V2000
  152.1912  144.0400  158.1963 C   0  0  0  0  0  0  0  0  0  0  0  0
  151.2306  142.8625  158.3229 C   0  0  0  0  0  0  0  0  0  0  0  0
  151.4641  141.9603  159.1266 O   0  0  0  0  0  0  0  0  0  0  0  0
  150.1569  142.8806  157.5192 N   0  0  0  0  0  0  0  0  0  0  0  0
  149.1274  141.8480  157.4744 C   0  0  0  0  0  0  0  0  0  0  0  0
  149.6496  140.5511  156.8332 C   0  0  1  0  0  0  0  0  0  0  0  0
  148.4989  139.6638  156.3221 C   0  0  0  0  0  0  0  0  0  0  0  0
  149.0383  138.4924  155.6437 N   0  0  0  0  0  0  0  0  0  0  0  0
  148.1085  137.5803  155.2924 C   0  0  0  0  0  0  0  0  0  0  0  0
  148.0342  136.4556  156.0445 N   0  0  0  0  0  0  0  0  0  0  0  0
  147.1349  135.5126  155.7476 C   0  0  0  0  0  0  0  0  0  0  0  0
  146.2338  135.4979  154.7627 N   0  0  0  0  0  0  0  0  0  0  0  0
  146.3066  136.6307  154.0059 C   0  0  0  0  0  0  0  0  0  0  0  0
  147.2106  137.7132  154.1957 C   0  0  0  0  0  0  0  0  0  0  0  0
  146.9975  138.6849  153.2251 N   0  0  0  0  0  0  0  0  0  0  0  0
  146.0198  138.2056  152.5057 C   0  0  0  0  0  0  0  0  0  0  0  0
  145.5339  136.9831  152.9131 N   0  0  0  0  0  0  0  0  0  0  0  0
  144.4544  136.2258  152.2988 C   0  0  0  0  0  0  0  0  0  0  0  0
  144.9062  135.2588  151.1743 C   0  0  0  0  0  0  0  0  0  0  0  0
  145.0432  136.0666  150.0191 O   0  0  0  0  0  0  0  0  0  0  0  0
  146.2673  134.5896  151.4634 C   0  0  0  0  0  0  0  0  0  0  0  0
  146.6469  133.5667  150.3776 C   0  0  0  0  0  0  0  0  0  0  0  0
  145.6151  132.5964  150.2399 O   0  0  0  0  0  0  0  0  0  0  0  0
  144.3780  133.1593  149.8188 C   0  0  0  0  0  0  0  0  0  0  0  0
  143.8671  134.1566  150.8744 C   0  0  0  0  0  0  0  0  0  0  0  0
  149.9602  138.8350  154.5696 C   0  0  0  0  0  0  0  0  0  0  0  0
  151.0700  139.7509  155.1107 C   0  0  0  0  0  0  0  0  0  0  0  0
  150.4848  140.8942  155.7275 O   0  0  0  0  0  0  0  0  0  0  0  0
  151.6453  144.9741  158.0598 H   0  0  0  0  0  0  0  0  0  0  0  0
  152.8519  143.8975  157.3408 H   0  0  0  0  0  0  0  0  0  0  0  0
  152.8058  144.1338  159.0922 H   0  0  0  0  0  0  0  0  0  0  0  0
  150.0500  143.6590  156.8850 H   0  0  0  0  0  0  0  0  0  0  0  0
  148.7604  141.6511  158.4833 H   0  0  0  0  0  0  0  0  0  0  0  0
  148.2787  142.2309  156.9073 H   0  0  0  0  0  0  0  0  0  0  0  0
  150.2326  139.9927  157.5684 H   0  0  0  0  0  0  0  0  0  0  0  0
  147.8698  139.3480  157.1557 H   0  0  0  0  0  0  0  0  0  0  0  0
  147.8682  140.2332  155.6387 H   0  0  0  0  0  0  0  0  0  0  0  0
  147.1368  134.6462  156.3922 H   0  0  0  0  0  0  0  0  0  0  0  0
  145.6172  138.7379  151.6562 H   0  0  0  0  0  0  0  0  0  0  0  0
  143.9457  135.6700  153.0879 H   0  0  0  0  0  0  0  0  0  0  0  0
  143.7220  136.9359  151.9111 H   0  0  0  0  0  0  0  0  0  0  0  0
  144.7214  136.9323  150.2192 H   0  0  0  0  0  0  0  0  0  0  0  0
  147.0510  135.3415  151.5639 H   0  0  0  0  0  0  0  0  0  0  0  0
  146.2249  134.0609  152.4154 H   0  0  0  0  0  0  0  0  0  0  0  0
  146.8324  134.0560  149.4202 H   0  0  0  0  0  0  0  0  0  0  0  0
  147.5704  133.0578  150.6538 H   0  0  0  0  0  0  0  0  0  0  0  0
  144.4952  133.6382  148.8456 H   0  0  0  0  0  0  0  0  0  0  0  0
  143.6548  132.3545  149.6874 H   0  0  0  0  0  0  0  0  0  0  0  0
  143.6494  133.5950  151.7825 H   0  0  0  0  0  0  0  0  0  0  0  0
  142.9228  134.5965  150.5514 H   0  0  0  0  0  0  0  0  0  0  0  0
  150.3955  137.9278  154.1481 H   0  0  0  0  0  0  0  0  0  0  0  0
  149.4223  139.3403  153.7666 H   0  0  0  0  0  0  0  0  0  0  0  0
  151.6991  139.2198  155.8268 H   0  0  0  0  0  0  0  0  0  0  0  0
  151.7177  140.0778  154.2974 H   0  0  0  0  0  0  0  0  0  0  0  0
  1  2  1  0  0  0  0
  1 29  1  0  0  0  0
  1 30  1  0  0  0  0
  1 31  1  0  0  0  0
  2  3  2  0  0  0  0
  2  4  1  0  0  0  0
  4  5  1  0  0  0  0
  4 32  1  0  0  0  0
  5  6  1  0  0  0  0
  5 33  1  0  0  0  0
  5 34  1  0  0  0  0
  6 28  1  0  0  0  0
  6  7  1  0  0  0  0
  6 35  1  0  0  0  0
  7  8  1  0  0  0  0
  7 36  1  0  0  0  0
  7 37  1  0  0  0  0
  8  9  1  0  0  0  0
  8 26  1  0  0  0  0
  9 14  1  0  0  0  0
  9 10  2  0  0  0  0
 10 11  1  0  0  0  0
 11 12  2  0  0  0  0
 11 38  1  0  0  0  0
 12 13  1  0  0  0  0
 13 17  1  0  0  0  0
 13 14  2  0  0  0  0
 14 15  1  0  0  0  0
 15 16  2  0  0  0  0
 16 17  1  0  0  0  0
 16 39  1  0  0  0  0
 17 18  1  0  0  0  0
 18 19  1  0  0  0  0
 18 40  1  0  0  0  0
 18 41  1  0  0  0  0
 19 25  1  0  0  0  0
 19 20  1  0  0  0  0
 19 21  1  0  0  0  0
 20 42  1  0  0  0  0
 21 22  1  0  0  0  0
 21 43  1  0  0  0  0
 21 44  1  0  0  0  0
 22 23  1  0  0  0  0
 22 45  1  0  0  0  0
 22 46  1  0  0  0  0
 23 24  1  0  0  0  0
 24 25  1  0  0  0  0
 24 47  1  0  0  0  0
 24 48  1  0  0  0  0
 25 49  1  0  0  0  0
 25 50  1  0  0  0  0
 26 27  1  0  0  0  0
 26 51  1  0  0  0  0
 26 52  1  0  0  0  0
 27 28  1  0  0  0  0
 27 53  1  0  0  0  0
 27 54  1  0  0  0  0
M  END
> <s_m_source_file>
AV-unprocessed.smi

> <i_m_source_file_index>
180

> <i_lp_mmshare_version>
43012

> <i_f3d_flags>
0

> <s_epik_input>
W0NIM11DKD1PKVtOSF1bQ0gyXVtDQEBIXTFbQ0gyXU4oW0NIMl1bQ0gyXU8xKWMobltjSF1uMiljKGMyMyluW2NIXW4zW0NIMl1DNChbT0hdKVtDSDJdW0NIMl1PW0NIMl1bQ0gyXTQ=

> <s_epik_cmdline>
J2VwaWtfcHl0aG9uJywgJy1waCcsICc3LjAnLCAnLXRuJywgJzgnLCAnLW1hJywgJzIwMCcsICctbWV0YWxfYmluZGluZycsICctaW1hZScsICc8aW5maWxlLm1hZT4nLCAnLW9tYWUnLCAnPG91dGZpbGUubWFlPic=

> <r_lp_tautomer_probability>
1

> <r_epik_Ionization_Penalty>
7.38871e-05

> <r_epik_Ionization_Penalty_Charging>
0

> <r_epik_Ionization_Penalty_Neutral>
7.38871e-05

> <r_epik_State_Penalty>
-0

> <r_epik_Charging_Adjusted_Penalty>
0

> <i_epik_Tot_Q>
0

> <i_epik_Tot_abs_Q>
0

> <r_epik_Metal_State_Penalty>
-0

> <b_epik_Metal_Only>
0

> <s_lp_Force_Field>
OPLS_2005

> <r_lp_Energy>
30.2573

> <b_lp_Chiralities_Consistent>
1

> <s_lp_Variant>
AV-unprocessed.smi:180-2

> <Gold.Version>
5.8.1

> <Gold.Id.Protein>
6NUR|6NUR_protein|mol2

> <Gold.PLP.Fitness>
43.2319

> <Gold.PLP.PLP>
-36.8842

> <Gold.PLP.part.hbond>
-3.0000

> <Gold.PLP.part.metal>
0.0000

> <Gold.PLP.part.buried>
-5.3741

> <Gold.PLP.part.nonpolar>
-29.2201

> <Gold.PLP.part.repulsive>
0.5491

> <Gold.PLP.ligand.clash>
0.0000

> <Gold.PLP.ligand.torsion>
1.1579

> <Gold.PLP.Chemscore.Hbond>
1.8233

> <Gold.PLP.Chemscore.CHOScore>
1.0000

> <Gold.PLP.Chemscore.Metal>
0.0000

> <Gold.Chemscore.Hbonds>
donor molecule, donor type, donor heavy atom, donor atom, acceptor molecule, acceptor atom, score
      L1  H     4    32       P1  8028  0.99
      L1  H    20    42       P1 10171  1.00
      L1  C    16    39       P1 10171  1.00
      L1  C    16    39       P1 10175  0.35

> <Gold.PLP.Chemscore.Internal.Correction>
0.1937

> <Gold.Rescore>
     Score         DG    S(hbond)    S(metal)    S(lipo)     H(rot)  DE(clash)    DE(int)     intcor
     11.99     -13.26       1.93        0.00      76.84       2.99       0.06       1.21       ----

> <Gold.Chemscore.Fitness>
11.9912

> <Gold.Chemscore.DG>
-13.2603

> <Gold.Chemscore.ZeroCoef>
-5.4800

> <Gold.Chemscore.Hbond>
1.9284

> <Gold.Chemscore.Metal>
0.0000

> <Gold.Chemscore.Lipo>
76.8363

> <Gold.Chemscore.Internal_Hbond>
0.0000

> <Gold.Chemscore.DEClash>
0.0576

> <Gold.Chemscore.DEInternal>
1.2115

> <Gold.Chemscore.Rot>
2.9885

> <Gold.Chemscore.Internal.Correction>
   9.000000E+99

> <Gold.Chemscore.Hbonds>
donor molecule, donor type, donor heavy atom, donor atom, acceptor molecule, acceptor atom, score
      L1  H     4    32       P1  8028  0.92
      L1  H    20    42       P1 10171  0.97

> <Gold.Chemscore.Hbond.Weighted>
-6.4410

> <Gold.Chemscore.Metal.Weighted>
-0.0000

> <Gold.Chemscore.Lipo.Weighted>
-8.9898

> <Gold.Chemscore.Internal_Hbond.Weighted>
0.0000

> <Gold.Chemscore.DEClash.Weighted>
0.0576

> <Gold.Chemscore.DEInternal.Weighted>
1.2115

> <Gold.Chemscore.Rot.Weighted>
7.6506

> <Gold.Chemscore.Internal.Correction.Weighted>
   9.000000E+99

> <Gold.Protein.RotatedTorsions>
[ 6907 6896 6895 6894 ] final  130.49 input  -60.11 | X-H torsion
[ 7974 7965 7964 7962 ] final  -14.53 input  175.53 | X-H torsion
[ 8008 7997 7996 7995 ] final -166.84 input   59.86 | X-H torsion
[ 10167 10162 10161 10158 ] final -118.18 input  -65.29 | X-H torsion
[ 10718 10713 10712 10709 ] final   46.14 input   66.30 | X-H torsion
[ 10763 10752 10751 10750 ] final  -65.13 input  -60.55 | X-H torsion
[ 11005 11000 10999 10996 ] final  -28.15 input  -57.11 | X-H torsion

> <Gold.Protein.ActiveResidues>
 VAL166  LYS551  ARG553  GLY616  TRP617  ASP618  TYR619  PRO620  LYS621  CYS622 
 ASP623  PHE694  ASN695  SER759  ASP760  ASP761  ALA762  ILE779  LEU786  VAL792 
 PHE793  MET794  SER795  GLU796  ALA797  LYS798  CYS799  TRP800  GLU811  SER814 

> <Gold.Protein.RotatedAtoms>
  152.3520  133.6192  159.5951 H   0  0  0  0  0  0  0  0  0  0  0  0  # atno 6907 bound_to 6896
  150.7544  133.9558  159.3509 H   0  0  0  0  0  0  0  0  0  0  0  0  # atno 6908 bound_to 6896
  151.7409  135.0855  160.0366 H   0  0  0  0  0  0  0  0  0  0  0  0  # atno 6909 bound_to 6896
  146.2070  140.3361  142.8403 H   0  0  0  0  0  0  0  0  0  0  0  0  # atno 7974 bound_to 7965
  155.8695  140.0991  157.1560 H   0  0  0  0  0  0  0  0  0  0  0  0  # atno 8008 bound_to 7997
  154.3996  140.1350  156.4123 H   0  0  0  0  0  0  0  0  0  0  0  0  # atno 8009 bound_to 7997
  155.7767  140.3459  155.5278 H   0  0  0  0  0  0  0  0  0  0  0  0  # atno 8010 bound_to 7997
  140.0603  143.4974  152.2035 H   0  0  0  0  0  0  0  0  0  0  0  0  # atno 10167 bound_to 10162
  157.4449  130.8103  149.7731 H   0  0  0  0  0  0  0  0  0  0  0  0  # atno 10718 bound_to 10713
  154.3404  135.6158  153.5593 H   0  0  0  0  0  0  0  0  0  0  0  0  # atno 10763 bound_to 10752
  152.9804  135.5768  154.4859 H   0  0  0  0  0  0  0  0  0  0  0  0  # atno 10764 bound_to 10752
  154.4562  135.2854  155.1723 H   0  0  0  0  0  0  0  0  0  0  0  0  # atno 10765 bound_to 10752
  140.9182  133.7416  156.0765 H   0  0  0  0  0  0  0  0  0  0  0  0  # atno 11005 bound_to 11000
  144.8818  140.7410  143.5982 LP  0  0  0  0  0  0  0  0  0  0  0  0  # atno 17320 bound_to 7965
  145.3282  139.1767  143.4551 LP  0  0  0  0  0  0  0  0  0  0  0  0  # atno 17321 bound_to 7965
  139.5898  144.7545  151.3429 LP  0  0  0  0  0  0  0  0  0  0  0  0  # atno 17342 bound_to 10162
  140.7175  143.7227  150.7684 LP  0  0  0  0  0  0  0  0  0  0  0  0  # atno 17343 bound_to 10162
  155.9963  130.3906  150.2783 LP  0  0  0  0  0  0  0  0  0  0  0  0  # atno 17370 bound_to 10713
  157.0950  131.0180  151.3107 LP  0  0  0  0  0  0  0  0  0  0  0  0  # atno 17371 bound_to 10713
  140.8022  134.3496  157.5436 LP  0  0  0  0  0  0  0  0  0  0  0  0  # atno 17394 bound_to 11000
  139.8770  134.9204  156.3251 LP  0  0  0  0  0  0  0  0  0  0  0  0  # atno 17395 bound_to 11000

$$$$
