AV-unprocessed.smi:914|AV-procd|sdf|4151|dock4
  -GOLD-   22720 2 53D 1   1.00000     0.00000
 Structure written by MMmdl.
 33 34  0  0  0  0  0  0  0  0  1 V2000
  147.0709  139.9468  152.6293 O   0  0  0  0  0  0  0  0  0  0  0  0
  147.9221  140.2814  153.4509 C   0  0  0  0  0  0  0  0  0  0  0  0
  148.9961  139.4296  153.7267 N   0  0  0  0  0  0  0  0  0  0  0  0
  150.0249  139.6869  154.6334 C   0  0  0  0  0  0  0  0  0  0  0  0
  150.9121  138.8515  154.8089 O   0  0  0  0  0  0  0  0  0  0  0  0
  149.9762  140.9236  155.3167 N   0  0  0  0  0  0  0  0  0  0  0  0
  150.9998  141.1992  156.2955 C   0  0  0  0  0  0  0  0  0  0  0  0
  150.6723  140.5991  157.6718 C   0  0  0  0  0  0  0  0  0  0  0  0
  151.1628  141.4768  158.6705 O   0  0  0  0  0  0  0  0  0  0  0  0
  152.5656  141.6640  158.6134 C   0  0  0  0  0  0  0  0  0  0  0  0
  152.9722  142.5938  159.7624 C   0  0  1  0  0  0  0  0  0  0  0  0
  151.9523  143.6909  160.0640 C   0  0  0  0  0  0  0  0  0  0  0  0
  152.2856  144.0234  161.4999 C   0  0  0  0  0  0  0  0  0  0  0  0
  152.6135  142.6467  162.0725 C   0  0  0  0  0  0  0  0  0  0  0  0
  153.0964  141.8658  160.9808 O   0  0  0  0  0  0  0  0  0  0  0  0
  148.9244  141.7955  155.0815 C   0  0  0  0  0  0  0  0  0  0  0  0
  147.9248  141.5342  154.2053 C   0  0  0  0  0  0  0  0  0  0  0  0
  146.6416  142.6676  153.9758 Cl  0  0  0  0  0  0  0  0  0  0  0  0
  149.0267  138.5503  153.2313 H   0  0  0  0  0  0  0  0  0  0  0  0
  151.9501  140.8382  155.8973 H   0  0  0  0  0  0  0  0  0  0  0  0
  151.0870  142.2854  156.3530 H   0  0  0  0  0  0  0  0  0  0  0  0
  149.5963  140.4542  157.7803 H   0  0  0  0  0  0  0  0  0  0  0  0
  151.1457  139.6222  157.7779 H   0  0  0  0  0  0  0  0  0  0  0  0
  153.0840  140.7077  158.6999 H   0  0  0  0  0  0  0  0  0  0  0  0
  152.8424  142.1049  157.6548 H   0  0  0  0  0  0  0  0  0  0  0  0
  153.9407  143.0490  159.5491 H   0  0  0  0  0  0  0  0  0  0  0  0
  152.0368  144.5468  159.3933 H   0  0  0  0  0  0  0  0  0  0  0  0
  150.9351  143.3022  159.9965 H   0  0  0  0  0  0  0  0  0  0  0  0
  153.1657  144.6669  161.5392 H   0  0  0  0  0  0  0  0  0  0  0  0
  151.4719  144.5227  162.0265 H   0  0  0  0  0  0  0  0  0  0  0  0
  153.3455  142.6988  162.8785 H   0  0  0  0  0  0  0  0  0  0  0  0
  151.7131  142.1723  162.4644 H   0  0  0  0  0  0  0  0  0  0  0  0
  148.8924  142.7272  155.6287 H   0  0  0  0  0  0  0  0  0  0  0  0
  1  2  2  0  0  0  0
  2 17  1  0  0  0  0
  2  3  1  0  0  0  0
  3 19  1  0  0  0  0
  3  4  1  0  0  0  0
  4  5  2  0  0  0  0
  4  6  1  0  0  0  0
  6  7  1  0  0  0  0
  6 16  1  0  0  0  0
  7  8  1  0  0  0  0
  7 20  1  0  0  0  0
  7 21  1  0  0  0  0
  8  9  1  0  0  0  0
  8 22  1  0  0  0  0
  8 23  1  0  0  0  0
  9 10  1  0  0  0  0
 10 11  1  0  0  0  0
 10 24  1  0  0  0  0
 10 25  1  0  0  0  0
 11 15  1  0  0  0  0
 11 12  1  0  0  0  0
 11 26  1  0  0  0  0
 12 13  1  0  0  0  0
 12 27  1  0  0  0  0
 12 28  1  0  0  0  0
 13 14  1  0  0  0  0
 13 29  1  0  0  0  0
 13 30  1  0  0  0  0
 14 15  1  0  0  0  0
 14 31  1  0  0  0  0
 14 32  1  0  0  0  0
 16 17  2  0  0  0  0
 16 33  1  0  0  0  0
 17 18  1  0  0  0  0
M  END
> <s_m_source_file>
AV-unprocessed.smi

> <i_m_source_file_index>
914

> <i_lp_mmshare_version>
43012

> <i_f3d_flags>
0

> <s_epik_input>
Tz1jMVtuSF1jKD1PKW4oW2NIXWMxQ2wpW0NIMl1bQ0gyXU9bQ0gyXVtDQEBIXTJbQ0gyXVtDSDJdW0NIMl1PMg==

> <s_epik_cmdline>
J2VwaWtfcHl0aG9uJywgJy1waCcsICc3LjAnLCAnLXRuJywgJzgnLCAnLW1hJywgJzIwMCcsICctbWV0YWxfYmluZGluZycsICctaW1hZScsICc8aW5maWxlLm1hZT4nLCAnLW9tYWUnLCAnPG91dGZpbGUubWFlPic=

> <r_lp_tautomer_probability>
0.999537

> <r_epik_Ionization_Penalty>
0.030751

> <r_epik_Ionization_Penalty_Charging>
0.030751

> <r_epik_Ionization_Penalty_Neutral>
1.46719e-11

> <r_epik_State_Penalty>
0.0253757

> <r_epik_Charging_Adjusted_Penalty>
0.0561266

> <i_epik_Tot_Q>
0

> <i_epik_Tot_abs_Q>
0

> <r_epik_Metal_State_Penalty>
2.25222

> <b_epik_Metal_Only>
0

> <s_lp_Force_Field>
OPLS_2005

> <r_lp_Energy>
21.1237

> <b_lp_Chiralities_Consistent>
1

> <s_lp_Variant>
AV-unprocessed.smi:914-2

> <Gold.Version>
5.8.1

> <Gold.Id.Protein>
6NUR|6NUR_protein|mol2

> <Gold.PLP.Fitness>
41.1823

> <Gold.PLP.PLP>
-39.8028

> <Gold.PLP.part.hbond>
-1.0000

> <Gold.PLP.part.metal>
0.0000

> <Gold.PLP.part.buried>
-4.4167

> <Gold.PLP.part.nonpolar>
-35.6370

> <Gold.PLP.part.repulsive>
1.2104

> <Gold.PLP.ligand.clash>
0.0000

> <Gold.PLP.ligand.torsion>
0.8272

> <Gold.PLP.Chemscore.Hbond>
0.0000

> <Gold.PLP.Chemscore.CHOScore>
1.0000

> <Gold.PLP.Chemscore.Metal>
0.0000

> <Gold.Chemscore.Hbonds>
donor molecule, donor type, donor heavy atom, donor atom, acceptor molecule, acceptor atom, score
      L1  C    16    33       P1  8028  0.89

> <Gold.PLP.Chemscore.Internal.Correction>
0.0339

> <Gold.Rescore>
     Score         DG    S(hbond)    S(metal)    S(lipo)     H(rot)  DE(clash)    DE(int)     intcor
     12.22     -13.17       0.97        0.00      84.78       2.14       0.06       0.89       ----

> <Gold.Chemscore.Fitness>
12.2222

> <Gold.Chemscore.DG>
-13.1658

> <Gold.Chemscore.ZeroCoef>
-5.4800

> <Gold.Chemscore.Hbond>
0.9698

> <Gold.Chemscore.Metal>
0.0000

> <Gold.Chemscore.Lipo>
84.7838

> <Gold.Chemscore.Internal_Hbond>
0.0000

> <Gold.Chemscore.DEClash>
0.0553

> <Gold.Chemscore.DEInternal>
0.8883

> <Gold.Chemscore.Rot>
2.1379

> <Gold.Chemscore.Internal.Correction>
   9.000000E+99

> <Gold.Chemscore.Hbond.Weighted>
-3.2391

> <Gold.Chemscore.Metal.Weighted>
-0.0000

> <Gold.Chemscore.Lipo.Weighted>
-9.9197

> <Gold.Chemscore.Internal_Hbond.Weighted>
0.0000

> <Gold.Chemscore.DEClash.Weighted>
0.0553

> <Gold.Chemscore.DEInternal.Weighted>
0.8883

> <Gold.Chemscore.Rot.Weighted>
5.4730

> <Gold.Chemscore.Internal.Correction.Weighted>
   9.000000E+99

> <Gold.Protein.RotatedTorsions>
[ 6907 6896 6895 6894 ] final -157.43 input  -60.11 | X-H torsion
[ 7974 7965 7964 7962 ] final  -24.89 input  175.53 | X-H torsion
[ 8008 7997 7996 7995 ] final    1.04 input   59.86 | X-H torsion
[ 10167 10162 10161 10158 ] final -118.11 input  -65.29 | X-H torsion
[ 10718 10713 10712 10709 ] final -117.98 input   66.30 | X-H torsion
[ 10763 10752 10751 10750 ] final -138.42 input  -60.55 | X-H torsion
[ 11005 11000 10999 10996 ] final -108.46 input  -57.11 | X-H torsion

> <Gold.Protein.ActiveResidues>
 VAL166  LYS551  ARG553  GLY616  TRP617  ASP618  TYR619  PRO620  LYS621  CYS622 
 ASP623  PHE694  ASN695  SER759  ASP760  ASP761  ALA762  ILE779  LEU786  VAL792 
 PHE793  MET794  SER795  GLU796  ALA797  LYS798  CYS799  TRP800  GLU811  SER814 

> <Gold.Protein.RotatedAtoms>
  151.3027  133.4115  159.2640 H   0  0  0  0  0  0  0  0  0  0  0  0  # atno 6907 bound_to 6896
  151.0181  134.9449  159.8055 H   0  0  0  0  0  0  0  0  0  0  0  0  # atno 6908 bound_to 6896
  152.5317  134.2990  159.9124 H   0  0  0  0  0  0  0  0  0  0  0  0  # atno 6909 bound_to 6896
  146.1526  140.4813  142.8605 H   0  0  0  0  0  0  0  0  0  0  0  0  # atno 7974 bound_to 7965
  154.6751  140.2620  155.6966 H   0  0  0  0  0  0  0  0  0  0  0  0  # atno 8008 bound_to 7997
  156.2674  140.2821  156.1197 H   0  0  0  0  0  0  0  0  0  0  0  0  # atno 8009 bound_to 7997
  155.1112  140.0375  157.2714 H   0  0  0  0  0  0  0  0  0  0  0  0  # atno 8010 bound_to 7997
  140.0611  143.4967  152.2031 H   0  0  0  0  0  0  0  0  0  0  0  0  # atno 10167 bound_to 10162
  156.1073  130.6220  150.9233 H   0  0  0  0  0  0  0  0  0  0  0  0  # atno 10718 bound_to 10713
  154.8637  135.3613  154.5382 H   0  0  0  0  0  0  0  0  0  0  0  0  # atno 10763 bound_to 10752
  153.6004  135.7013  153.5391 H   0  0  0  0  0  0  0  0  0  0  0  0  # atno 10764 bound_to 10752
  153.3295  135.4128  155.1445 H   0  0  0  0  0  0  0  0  0  0  0  0  # atno 10765 bound_to 10752
  141.0900  133.9071  157.2096 H   0  0  0  0  0  0  0  0  0  0  0  0  # atno 11005 bound_to 11000
  144.7923  140.6055  143.6533 LP  0  0  0  0  0  0  0  0  0  0  0  0  # atno 17320 bound_to 7965
  145.4787  139.1497  143.3774 LP  0  0  0  0  0  0  0  0  0  0  0  0  # atno 17321 bound_to 7965
  139.5893  144.7544  151.3440 LP  0  0  0  0  0  0  0  0  0  0  0  0  # atno 17342 bound_to 10162
  140.7171  143.7235  150.7677 LP  0  0  0  0  0  0  0  0  0  0  0  0  # atno 17343 bound_to 10162
  157.6251  131.0926  150.8550 LP  0  0  0  0  0  0  0  0  0  0  0  0  # atno 17370 bound_to 10713
  156.8666  130.5131  149.5299 LP  0  0  0  0  0  0  0  0  0  0  0  0  # atno 17371 bound_to 10713
  139.9725  135.0124  156.9548 LP  0  0  0  0  0  0  0  0  0  0  0  0  # atno 17394 bound_to 11000
  140.5273  134.0848  155.7307 LP  0  0  0  0  0  0  0  0  0  0  0  0  # atno 17395 bound_to 11000

$$$$
