AV-unprocessed.smi:274|AV-procd|sdf|2060|dock5
  -GOLD-   2262021303D 1   1.00000     0.00000
 Structure written by MMmdl.
 50 53  0  0  0  0  0  0  0  0  1 V2000
  150.9112  141.6182  157.3676 C   0  0  0  0  0  0  0  0  0  0  0  0
  149.4162  141.8085  157.0414 C   0  0  0  0  0  0  0  0  0  0  0  0
  148.6321  141.9604  158.3608 C   0  0  0  0  0  0  0  0  0  0  0  0
  148.8284  140.6786  156.1379 C   0  0  2  0  0  0  0  0  0  0  0  0
  149.4915  140.6275  154.7378 C   0  0  0  0  0  0  0  0  0  0  0  0
  150.6104  140.1359  154.6065 O   0  0  0  0  0  0  0  0  0  0  0  0
  148.8126  141.0954  153.6746 N   0  0  0  0  0  0  0  0  0  0  0  0
  147.4488  141.6252  153.6854 C   0  0  0  0  0  0  0  0  0  0  0  0
  146.9016  141.8749  155.1022 C   0  0  0  0  0  0  0  0  0  0  0  0
  147.3689  140.8397  156.0213 N   0  0  0  0  0  0  0  0  0  0  0  0
  146.5769  139.7374  156.0781 C   0  0  0  0  0  0  0  0  0  0  0  0
  145.8136  139.4974  157.1776 N   0  0  0  0  0  0  0  0  0  0  0  0
  145.0515  138.4020  157.2434 C   0  0  0  0  0  0  0  0  0  0  0  0
  144.9088  137.4295  156.3410 N   0  0  0  0  0  0  0  0  0  0  0  0
  145.6718  137.6647  155.2352 C   0  0  0  0  0  0  0  0  0  0  0  0
  146.5214  138.7864  155.0218 C   0  0  0  0  0  0  0  0  0  0  0  0
  147.1213  138.6959  153.7717 N   0  0  0  0  0  0  0  0  0  0  0  0
  146.6575  137.5808  153.2772 C   0  0  0  0  0  0  0  0  0  0  0  0
  145.7942  136.8876  154.0959 N   0  0  0  0  0  0  0  0  0  0  0  0
  145.1369  135.6224  153.8030 C   0  0  0  0  0  0  0  0  0  0  0  0
  145.6821  134.8983  152.5447 C   0  0  2  0  0  0  0  0  0  0  0  0
  147.0524  134.5963  152.7328 O   0  0  0  0  0  0  0  0  0  0  0  0
  145.5182  135.6903  151.2450 C   0  0  0  0  0  0  0  0  0  0  0  0
  144.2719  135.0766  150.6240 C   0  0  0  0  0  0  0  0  0  0  0  0
  144.4333  133.7017  150.9206 O   0  0  0  0  0  0  0  0  0  0  0  0
  144.9027  133.5980  152.2591 C   0  0  0  0  0  0  0  0  0  0  0  0
  151.0959  140.6458  157.8249 H   0  0  0  0  0  0  0  0  0  0  0  0
  151.2611  142.3815  158.0632 H   0  0  0  0  0  0  0  0  0  0  0  0
  151.5385  141.6987  156.4805 H   0  0  0  0  0  0  0  0  0  0  0  0
  149.3331  142.7572  156.5102 H   0  0  0  0  0  0  0  0  0  0  0  0
  148.6354  141.0306  158.9303 H   0  0  0  0  0  0  0  0  0  0  0  0
  147.5932  142.2431  158.1899 H   0  0  0  0  0  0  0  0  0  0  0  0
  149.0683  142.7360  158.9910 H   0  0  0  0  0  0  0  0  0  0  0  0
  149.0514  139.7331  156.6357 H   0  0  0  0  0  0  0  0  0  0  0  0
  149.2690  141.0454  152.7753 H   0  0  0  0  0  0  0  0  0  0  0  0
  147.4032  142.5377  153.0911 H   0  0  0  0  0  0  0  0  0  0  0  0
  146.8180  140.8921  153.1815 H   0  0  0  0  0  0  0  0  0  0  0  0
  147.2507  142.8414  155.4650 H   0  0  0  0  0  0  0  0  0  0  0  0
  145.8142  141.9492  155.0736 H   0  0  0  0  0  0  0  0  0  0  0  0
  144.4757  138.2873  158.1498 H   0  0  0  0  0  0  0  0  0  0  0  0
  146.9389  137.2290  152.2952 H   0  0  0  0  0  0  0  0  0  0  0  0
  145.2410  134.9783  154.6774 H   0  0  0  0  0  0  0  0  0  0  0  0
  144.0686  135.8132  153.6928 H   0  0  0  0  0  0  0  0  0  0  0  0
  147.5610  135.3604  152.5076 H   0  0  0  0  0  0  0  0  0  0  0  0
  145.4307  136.7672  151.3773 H   0  0  0  0  0  0  0  0  0  0  0  0
  146.3623  135.5147  150.5758 H   0  0  0  0  0  0  0  0  0  0  0  0
  143.3661  135.4564  151.0995 H   0  0  0  0  0  0  0  0  0  0  0  0
  144.2028  135.2532  149.5505 H   0  0  0  0  0  0  0  0  0  0  0  0
  145.5058  132.6972  152.3793 H   0  0  0  0  0  0  0  0  0  0  0  0
  144.0396  133.5012  152.9189 H   0  0  0  0  0  0  0  0  0  0  0  0
  1  2  1  0  0  0  0
  1 27  1  0  0  0  0
  1 28  1  0  0  0  0
  1 29  1  0  0  0  0
  2  3  1  0  0  0  0
  2  4  1  0  0  0  0
  2 30  1  0  0  0  0
  3 31  1  0  0  0  0
  3 32  1  0  0  0  0
  3 33  1  0  0  0  0
  4 10  1  0  0  0  0
  4  5  1  0  0  0  0
  4 34  1  0  0  0  0
  5  6  2  0  0  0  0
  5  7  1  0  0  0  0
  7  8  1  0  0  0  0
  7 35  1  0  0  0  0
  8  9  1  0  0  0  0
  8 36  1  0  0  0  0
  8 37  1  0  0  0  0
  9 10  1  0  0  0  0
  9 38  1  0  0  0  0
  9 39  1  0  0  0  0
 10 11  1  0  0  0  0
 11 16  1  0  0  0  0
 11 12  2  0  0  0  0
 12 13  1  0  0  0  0
 13 14  2  0  0  0  0
 13 40  1  0  0  0  0
 14 15  1  0  0  0  0
 15 19  1  0  0  0  0
 15 16  2  0  0  0  0
 16 17  1  0  0  0  0
 17 18  2  0  0  0  0
 18 19  1  0  0  0  0
 18 41  1  0  0  0  0
 19 20  1  0  0  0  0
 20 21  1  0  0  0  0
 20 42  1  0  0  0  0
 20 43  1  0  0  0  0
 21 26  1  0  0  0  0
 21 22  1  0  0  0  0
 21 23  1  0  0  0  0
 22 44  1  0  0  0  0
 23 24  1  0  0  0  0
 23 45  1  0  0  0  0
 23 46  1  0  0  0  0
 24 25  1  0  0  0  0
 24 47  1  0  0  0  0
 24 48  1  0  0  0  0
 25 26  1  0  0  0  0
 26 49  1  0  0  0  0
 26 50  1  0  0  0  0
M  END
> <s_m_source_file>
AV-unprocessed.smi

> <i_m_source_file_index>
274

> <i_lp_mmshare_version>
43012

> <i_f3d_flags>
0

> <s_epik_input>
W0NIM11bQ0hdKFtDSDNdKVtDQEBIXTFDKD1PKVtOSF1bQ0gyXVtDSDJdTjFjKG5bY0hdbjIpYyhjMjMpbltjSF1uM1tDSDJdW0NAQF00KFtPSF0pW0NIMl1bQ0gyXU9bQ0gyXTQ=

> <s_epik_cmdline>
J2VwaWtfcHl0aG9uJywgJy1waCcsICc3LjAnLCAnLXRuJywgJzgnLCAnLW1hJywgJzIwMCcsICctbWV0YWxfYmluZGluZycsICctaW1hZScsICc8aW5maWxlLm1hZT4nLCAnLW9tYWUnLCAnPG91dGZpbGUubWFlPic=

> <r_lp_tautomer_probability>
1

> <r_epik_Ionization_Penalty>
0.000690079

> <r_epik_Ionization_Penalty_Charging>
0

> <r_epik_Ionization_Penalty_Neutral>
0.000690079

> <r_epik_State_Penalty>
0.000321372

> <r_epik_Charging_Adjusted_Penalty>
0.000321372

> <i_epik_Tot_Q>
0

> <i_epik_Tot_abs_Q>
0

> <r_epik_Metal_State_Penalty>
-0

> <b_epik_Metal_Only>
0

> <s_lp_Force_Field>
OPLS_2005

> <r_lp_Energy>
42.4

> <b_lp_Chiralities_Consistent>
1

> <s_lp_Variant>
AV-unprocessed.smi:274-3

> <Gold.Version>
5.8.1

> <Gold.Id.Protein>
6NUR|6NUR_protein|mol2

> <Gold.PLP.Fitness>
37.8313

> <Gold.PLP.PLP>
-26.5931

> <Gold.PLP.part.hbond>
-3.0000

> <Gold.PLP.part.metal>
0.0000

> <Gold.PLP.part.buried>
-5.8421

> <Gold.PLP.part.nonpolar>
-19.3201

> <Gold.PLP.part.repulsive>
1.7242

> <Gold.PLP.ligand.clash>
0.0000

> <Gold.PLP.ligand.torsion>
0.4314

> <Gold.PLP.Chemscore.Hbond>
2.9760

> <Gold.PLP.Chemscore.CHOScore>
0.8641

> <Gold.PLP.Chemscore.Metal>
0.0000

> <Gold.Chemscore.Hbonds>
donor molecule, donor type, donor heavy atom, donor atom, acceptor molecule, acceptor atom, score
      L1  H     7    35       P1  7957  0.98
      L1  H    22    44       P1  7948  1.00
      P1  H  7989  7998       L1     6  1.00
      L1  C    18    41       P1  7948  0.88

> <Gold.PLP.Chemscore.Internal.Correction>
0.5808

> <Gold.Rescore>
     Score         DG    S(hbond)    S(metal)    S(lipo)     H(rot)  DE(clash)    DE(int)     intcor
      9.95     -14.49       2.91        0.00      48.61       2.50       0.42       4.11       ----

> <Gold.Chemscore.Fitness>
9.9503

> <Gold.Chemscore.DG>
-14.4863

> <Gold.Chemscore.ZeroCoef>
-5.4800

> <Gold.Chemscore.Hbond>
2.9090

> <Gold.Chemscore.Metal>
0.0000

> <Gold.Chemscore.Lipo>
48.6080

> <Gold.Chemscore.Internal_Hbond>
0.0000

> <Gold.Chemscore.DEClash>
0.4212

> <Gold.Chemscore.DEInternal>
4.1148

> <Gold.Chemscore.Rot>
2.4988

> <Gold.Chemscore.Internal.Correction>
   9.000000E+99

> <Gold.Chemscore.Hbonds>
donor molecule, donor type, donor heavy atom, donor atom, acceptor molecule, acceptor atom, score
      L1  H     7    35       P1  7957  0.93
      L1  H    22    44       P1  7948  0.98
      P1  H  7989  7998       L1     6  0.92

> <Gold.Chemscore.Hbond.Weighted>
-9.7162

> <Gold.Chemscore.Metal.Weighted>
-0.0000

> <Gold.Chemscore.Lipo.Weighted>
-5.6871

> <Gold.Chemscore.Internal_Hbond.Weighted>
0.0000

> <Gold.Chemscore.DEClash.Weighted>
0.4212

> <Gold.Chemscore.DEInternal.Weighted>
4.1148

> <Gold.Chemscore.Rot.Weighted>
6.3970

> <Gold.Chemscore.Internal.Correction.Weighted>
   9.000000E+99

> <Gold.Protein.RotatedTorsions>
[ 6907 6896 6895 6894 ] final  151.36 input  -60.11 | X-H torsion
[ 7974 7965 7964 7962 ] final  -10.43 input  175.53 | X-H torsion
[ 8008 7997 7996 7995 ] final  130.60 input   59.86 | X-H torsion
[ 10167 10162 10161 10158 ] final   67.23 input  -65.29 | X-H torsion
[ 10718 10713 10712 10709 ] final -116.87 input   66.30 | X-H torsion
[ 10763 10752 10751 10750 ] final  125.09 input  -60.55 | X-H torsion
[ 11005 11000 10999 10996 ] final   -3.09 input  -57.11 | X-H torsion

> <Gold.Protein.ActiveResidues>
 VAL166  LYS551  ARG553  GLY616  TRP617  ASP618  TYR619  PRO620  LYS621  CYS622 
 ASP623  PHE694  ASN695  SER759  ASP760  ASP761  ALA762  ILE779  LEU786  VAL792 
 PHE793  MET794  SER795  GLU796  ALA797  LYS798  CYS799  TRP800  GLU811  SER814 

> <Gold.Protein.RotatedAtoms>
  152.1017  133.4253  159.4589 H   0  0  0  0  0  0  0  0  0  0  0  0  # atno 6907 bound_to 6896
  150.6864  134.2753  159.4614 H   0  0  0  0  0  0  0  0  0  0  0  0  # atno 6908 bound_to 6896
  152.0614  134.9591  160.0625 H   0  0  0  0  0  0  0  0  0  0  0  0  # atno 6909 bound_to 6896
  146.2221  140.2762  142.8359 H   0  0  0  0  0  0  0  0  0  0  0  0  # atno 7974 bound_to 7965
  156.2957  140.2592  156.2788 H   0  0  0  0  0  0  0  0  0  0  0  0  # atno 8008 bound_to 7997
  154.9622  140.0392  157.2214 H   0  0  0  0  0  0  0  0  0  0  0  0  # atno 8009 bound_to 7997
  154.7936  140.2816  155.5978 H   0  0  0  0  0  0  0  0  0  0  0  0  # atno 8010 bound_to 7997
  140.0918  144.4981  150.7093 H   0  0  0  0  0  0  0  0  0  0  0  0  # atno 10167 bound_to 10162
  156.0994  130.6159  150.9091 H   0  0  0  0  0  0  0  0  0  0  0  0  # atno 10718 bound_to 10713
  153.6717  135.3329  155.3155 H   0  0  0  0  0  0  0  0  0  0  0  0  # atno 10763 bound_to 10752
  154.8489  135.4388  154.1698 H   0  0  0  0  0  0  0  0  0  0  0  0  # atno 10764 bound_to 10752
  153.2691  135.6998  153.7575 H   0  0  0  0  0  0  0  0  0  0  0  0  # atno 10765 bound_to 10752
  140.6655  133.9282  155.8462 H   0  0  0  0  0  0  0  0  0  0  0  0  # atno 11005 bound_to 11000
  144.9231  140.7890  143.5736 LP  0  0  0  0  0  0  0  0  0  0  0  0  # atno 17320 bound_to 7965
  145.2700  139.1958  143.4846 LP  0  0  0  0  0  0  0  0  0  0  0  0  # atno 17321 bound_to 7965
  140.7024  143.2444  151.4825 LP  0  0  0  0  0  0  0  0  0  0  0  0  # atno 17342 bound_to 10162
  139.5720  144.1906  152.1850 LP  0  0  0  0  0  0  0  0  0  0  0  0  # atno 17343 bound_to 10162
  157.6161  131.0933  150.8708 LP  0  0  0  0  0  0  0  0  0  0  0  0  # atno 17370 bound_to 10713
  156.8839  130.5189  149.5289 LP  0  0  0  0  0  0  0  0  0  0  0  0  # atno 17371 bound_to 10713
  141.0432  134.0591  157.3876 LP  0  0  0  0  0  0  0  0  0  0  0  0  # atno 17394 bound_to 11000
  139.8998  135.0160  156.7215 LP  0  0  0  0  0  0  0  0  0  0  0  0  # atno 17395 bound_to 11000

$$$$
