AV-unprocessed.smi:561|AV-procd|sdf|2937|dock6
  -GOLD-   2262023433D 1   1.00000     0.00000
 Structure written by MMmdl.
 37 38  0  0  0  0  0  0  0  0  2 V2000
  146.3532  130.6316  153.0539 C   0  0  0  0  0  0  0  0  0  0  0  0
  147.3460  131.6558  152.4881 C   0  0  1  0  0  0  0  0  0  0  0  0
  146.6495  132.9980  152.1787 C   0  0  0  0  0  0  0  0  0  0  0  0
  145.5694  132.8664  151.1953 N   0  0  0  0  0  0  0  0  0  0  0  0
  145.4847  131.9554  150.1740 C   0  0  0  0  0  0  0  0  0  0  0  0
  144.3137  132.2187  149.5116 C   0  0  0  0  0  0  0  0  0  0  0  0
  143.7308  133.2749  150.1591 N   0  3  0  0  0  0  0  0  0  0  0  0
  144.4937  133.6644  151.1856 C   0  0  0  0  0  0  0  0  0  0  0  0
  148.4339  131.8374  153.4480 N   0  0  0  0  0  0  0  0  0  0  0  0
  149.0374  130.8628  154.1540 C   0  0  0  0  0  0  0  0  0  0  0  0
  148.7320  129.6741  154.0542 O   0  0  0  0  0  0  0  0  0  0  0  0
  150.1250  131.3011  155.0684 C   0  0  0  0  0  0  0  0  0  0  0  0
  150.2246  132.5488  155.4052 N   0  0  0  0  0  0  0  0  0  0  0  0
  151.2262  133.0048  156.2374 N   0  0  0  0  0  0  0  0  0  0  0  0
  151.3585  134.4590  156.2986 C   0  0  0  0  0  0  0  0  0  0  0  0
  152.0291  132.2085  156.9862 C   0  0  0  0  0  0  0  0  0  0  0  0
  152.9271  132.6325  157.7135 O   0  0  0  0  0  0  0  0  0  0  0  0
  151.7515  130.7038  156.9195 C   0  0  0  0  0  0  0  0  0  0  0  0
  151.1301  130.2844  155.5723 C   0  0  0  0  0  0  0  0  0  0  0  0
  145.5401  130.4442  152.3519 H   0  0  0  0  0  0  0  0  0  0  0  0
  145.9119  130.9790  153.9886 H   0  0  0  0  0  0  0  0  0  0  0  0
  146.8426  129.6771  153.2503 H   0  0  0  0  0  0  0  0  0  0  0  0
  147.7407  131.2403  151.5591 H   0  0  0  0  0  0  0  0  0  0  0  0
  146.2039  133.4099  153.0851 H   0  0  0  0  0  0  0  0  0  0  0  0
  147.3667  133.7367  151.8169 H   0  0  0  0  0  0  0  0  0  0  0  0
  146.2479  131.2119  149.9954 H   0  0  0  0  0  0  0  0  0  0  0  0
  143.8640  131.7466  148.6503 H   0  0  0  0  0  0  0  0  0  0  0  0
  144.2865  134.4720  151.8649 H   0  0  0  0  0  0  0  0  0  0  0  0
  148.7509  132.7849  153.5982 H   0  0  0  0  0  0  0  0  0  0  0  0
  152.3600  134.7670  155.9949 H   0  0  0  0  0  0  0  0  0  0  0  0
  151.1840  134.8183  157.3139 H   0  0  0  0  0  0  0  0  0  0  0  0
  150.6465  134.9636  155.6434 H   0  0  0  0  0  0  0  0  0  0  0  0
  152.6686  130.1441  157.1055 H   0  0  0  0  0  0  0  0  0  0  0  0
  151.0650  130.4614  157.7316 H   0  0  0  0  0  0  0  0  0  0  0  0
  150.6603  129.3082  155.6982 H   0  0  0  0  0  0  0  0  0  0  0  0
  151.9144  130.1540  154.8257 H   0  0  0  0  0  0  0  0  0  0  0  0
  142.8507  133.7021  149.8995 H   0  0  0  0  0  0  0  0  0  0  0  0
  1  2  1  0  0  0  0
  1 20  1  0  0  0  0
  1 21  1  0  0  0  0
  1 22  1  0  0  0  0
  2  3  1  0  0  0  0
  2  9  1  0  0  0  0
  2 23  1  0  0  0  0
  3  4  1  0  0  0  0
  3 24  1  0  0  0  0
  3 25  1  0  0  0  0
  4  8  1  0  0  0  0
  4  5  1  0  0  0  0
  5  6  2  0  0  0  0
  5 26  1  0  0  0  0
  6  7  1  0  0  0  0
  6 27  1  0  0  0  0
  7  8  2  0  0  0  0
  7 37  1  0  0  0  0
  8 28  1  0  0  0  0
  9 10  1  0  0  0  0
  9 29  1  0  0  0  0
 10 11  2  0  0  0  0
 10 12  1  0  0  0  0
 12 19  1  0  0  0  0
 12 13  2  0  0  0  0
 13 14  1  0  0  0  0
 14 15  1  0  0  0  0
 14 16  1  0  0  0  0
 15 30  1  0  0  0  0
 15 31  1  0  0  0  0
 15 32  1  0  0  0  0
 16 17  2  0  0  0  0
 16 18  1  0  0  0  0
 18 19  1  0  0  0  0
 18 33  1  0  0  0  0
 18 34  1  0  0  0  0
 19 35  1  0  0  0  0
 19 36  1  0  0  0  0
M  CHG  1   7   1
M  END
> <s_m_source_file>
AV-unprocessed.smi

> <i_m_source_file_index>
561

> <i_lp_mmshare_version>
43012

> <i_f3d_flags>
0

> <s_epik_input>
W2NIXTFuW2NIXVtjSF1uMVtDSDJdW0NAQEhdKFtDSDNdKVtOSF1DKD1PKUMyPU5OKFtDSDNdKUMoPU8pW0NIMl1bQ0gyXTI=

> <s_epik_cmdline>
J2VwaWtfcHl0aG9uJywgJy1waCcsICc3LjAnLCAnLXRuJywgJzgnLCAnLW1hJywgJzIwMCcsICctbWV0YWxfYmluZGluZycsICctaW1hZScsICc8aW5maWxlLm1hZT4nLCAnLW9tYWUnLCAnPG91dGZpbGUubWFlPic=

> <r_lp_tautomer_probability>
1

> <r_epik_Ionization_Penalty>
0.358595

> <r_epik_Ionization_Penalty_Charging>
0

> <r_epik_Ionization_Penalty_Neutral>
0.358595

> <r_epik_State_Penalty>
0.355181

> <r_epik_Charging_Adjusted_Penalty>
0.355181

> <i_epik_Tot_Q>
1

> <i_epik_Tot_abs_Q>
1

> <r_epik_Metal_State_Penalty>
0.718565

> <b_epik_Metal_Only>
0

> <s_epik_Chemistry_Notes>
This compound has an imine and may undergo hydrolysis.

> <s_lp_Force_Field>
OPLS_2005

> <r_lp_Energy>
19.4288

> <b_lp_Chiralities_Consistent>
1

> <s_lp_Variant>
AV-unprocessed.smi:561-2

> <Gold.Version>
5.8.1

> <Gold.Id.Protein>
6NUR|6NUR_protein|mol2

> <Gold.PLP.Fitness>
41.1342

> <Gold.PLP.PLP>
-31.4522

> <Gold.PLP.part.hbond>
-2.7481

> <Gold.PLP.part.metal>
0.0000

> <Gold.PLP.part.buried>
-1.7957

> <Gold.PLP.part.nonpolar>
-27.3663

> <Gold.PLP.part.repulsive>
0.1963

> <Gold.PLP.ligand.clash>
0.0000

> <Gold.PLP.ligand.torsion>
0.7449

> <Gold.PLP.Chemscore.Hbond>
3.0000

> <Gold.PLP.Chemscore.CHOScore>
0.7185

> <Gold.PLP.Chemscore.Metal>
0.0000

> <Gold.Chemscore.Hbonds>
donor molecule, donor type, donor heavy atom, donor atom, acceptor molecule, acceptor atom, score
      L1  H     7    37       P1 10186  2.00
      P1  H  6896  6907       L1    17  1.00
      L1  C     5    26       P1 10747  0.45

> <Gold.PLP.Chemscore.Internal.Correction>
0.0163

> <Gold.Rescore>
     Score         DG    S(hbond)    S(metal)    S(lipo)     H(rot)  DE(clash)    DE(int)     intcor
     11.02     -14.88       1.99        0.00      61.93       1.76       1.60       2.27       ----

> <Gold.Chemscore.Fitness>
11.0163

> <Gold.Chemscore.DG>
-14.8846

> <Gold.Chemscore.ZeroCoef>
-5.4800

> <Gold.Chemscore.Hbond>
1.9946

> <Gold.Chemscore.Metal>
0.0000

> <Gold.Chemscore.Lipo>
61.9263

> <Gold.Chemscore.Internal_Hbond>
0.0000

> <Gold.Chemscore.DEClash>
1.6010

> <Gold.Chemscore.DEInternal>
2.2672

> <Gold.Chemscore.Rot>
1.7589

> <Gold.Chemscore.Internal.Correction>
   9.000000E+99

> <Gold.Chemscore.Hbonds>
donor molecule, donor type, donor heavy atom, donor atom, acceptor molecule, acceptor atom, score
      L1  H     7    37       P1 10186  0.95
      P1  H  6896  6907       L1    17  0.71

> <Gold.Chemscore.Hbond.Weighted>
-6.6620

> <Gold.Chemscore.Metal.Weighted>
-0.0000

> <Gold.Chemscore.Lipo.Weighted>
-7.2454

> <Gold.Chemscore.Internal_Hbond.Weighted>
0.0000

> <Gold.Chemscore.DEClash.Weighted>
1.6010

> <Gold.Chemscore.DEInternal.Weighted>
2.2672

> <Gold.Chemscore.Rot.Weighted>
4.5028

> <Gold.Chemscore.Internal.Correction.Weighted>
   9.000000E+99

> <Gold.Protein.RotatedTorsions>
[ 6907 6896 6895 6894 ] final  149.01 input  -60.11 | X-H torsion
[ 7974 7965 7964 7962 ] final  -69.73 input  175.53 | X-H torsion
[ 8008 7997 7996 7995 ] final -156.18 input   59.86 | X-H torsion
[ 10167 10162 10161 10158 ] final   94.61 input  -65.29 | X-H torsion
[ 10718 10713 10712 10709 ] final  -62.34 input   66.30 | X-H torsion
[ 10763 10752 10751 10750 ] final   10.05 input  -60.55 | X-H torsion
[ 11005 11000 10999 10996 ] final   63.97 input  -57.11 | X-H torsion

> <Gold.Protein.ActiveResidues>
 VAL166  LYS551  ARG553  GLY616  TRP617  ASP618  TYR619  PRO620  LYS621  CYS622 
 ASP623  PHE694  ASN695  SER759  ASP760  ASP761  ALA762  ILE779  LEU786  VAL792 
 PHE793  MET794  SER795  GLU796  ALA797  LYS798  CYS799  TRP800  GLU811  SER814 

> <Gold.Protein.RotatedAtoms>
  152.1338  133.4423  159.4733 H   0  0  0  0  0  0  0  0  0  0  0  0  # atno 6907 bound_to 6896
  150.6880  134.2389  159.4473 H   0  0  0  0  0  0  0  0  0  0  0  0  # atno 6908 bound_to 6896
  152.0275  134.9787  160.0622 H   0  0  0  0  0  0  0  0  0  0  0  0  # atno 6909 bound_to 6896
  145.7000  140.9120  143.0736 H   0  0  0  0  0  0  0  0  0  0  0  0  # atno 7974 bound_to 7965
  155.7133  140.0781  157.2362 H   0  0  0  0  0  0  0  0  0  0  0  0  # atno 8008 bound_to 7997
  154.4055  140.1626  156.2374 H   0  0  0  0  0  0  0  0  0  0  0  0  # atno 8009 bound_to 7997
  155.9263  140.3394  155.6216 H   0  0  0  0  0  0  0  0  0  0  0  0  # atno 8010 bound_to 7997
  139.8067  144.6791  150.9693 H   0  0  0  0  0  0  0  0  0  0  0  0  # atno 10167 bound_to 10162
  156.0861  130.4208  150.1122 H   0  0  0  0  0  0  0  0  0  0  0  0  # atno 10718 bound_to 10713
  153.2074  135.6864  153.8156 H   0  0  0  0  0  0  0  0  0  0  0  0  # atno 10763 bound_to 10752
  153.7400  135.3239  155.3303 H   0  0  0  0  0  0  0  0  0  0  0  0  # atno 10764 bound_to 10752
  154.8204  135.4656  154.0867 H   0  0  0  0  0  0  0  0  0  0  0  0  # atno 10765 bound_to 10752
  139.9989  134.6473  155.9963 H   0  0  0  0  0  0  0  0  0  0  0  0  # atno 11005 bound_to 11000
  144.6971  139.8935  143.7454 LP  0  0  0  0  0  0  0  0  0  0  0  0  # atno 17320 bound_to 7965
  146.0806  139.3794  143.0467 LP  0  0  0  0  0  0  0  0  0  0  0  0  # atno 17321 bound_to 7965
  140.7819  143.4226  151.0818 LP  0  0  0  0  0  0  0  0  0  0  0  0  # atno 17342 bound_to 10162
  139.7895  143.8239  152.3149 LP  0  0  0  0  0  0  0  0  0  0  0  0  # atno 17343 bound_to 10162
  156.9142  130.9662  151.3558 LP  0  0  0  0  0  0  0  0  0  0  0  0  # atno 17370 bound_to 10713
  157.5996  130.8503  149.8782 LP  0  0  0  0  0  0  0  0  0  0  0  0  # atno 17371 bound_to 10713
  141.1626  133.6538  156.4372 LP  0  0  0  0  0  0  0  0  0  0  0  0  # atno 17394 bound_to 11000
  140.4765  134.6705  157.5152 LP  0  0  0  0  0  0  0  0  0  0  0  0  # atno 17395 bound_to 11000

$$$$
