AV-unprocessed.smi:1272|AV-procd|sdf|5335|dock4
  -GOLD-   22720 4463D 1   1.00000     0.00000
 Structure written by MMmdl.
 45 47  0  0  0  0  0  0  0  0  1 V2000
  153.4859  142.2526  162.3844 C   0  0  0  0  0  0  0  0  0  0  0  0
  153.9358  141.3408  161.2361 C   0  0  0  0  0  0  0  0  0  0  0  0
  153.0455  141.4619  160.0842 N   0  0  0  0  0  0  0  0  0  0  0  0
  152.5778  140.4502  159.3155 C   0  0  0  0  0  0  0  0  0  0  0  0
  152.8180  139.2529  159.4711 O   0  0  0  0  0  0  0  0  0  0  0  0
  151.8013  140.9844  158.3434 N   0  0  0  0  0  0  0  0  0  0  0  0
  151.0925  140.2507  157.2954 C   0  0  0  0  0  0  0  0  0  0  0  0
  151.2658  140.9156  155.9139 C   0  0  1  0  0  0  0  0  0  0  0  0
  151.4414  139.8791  154.9676 O   0  0  0  0  0  0  0  0  0  0  0  0
  150.0155  141.7240  155.5020 C   0  0  0  0  0  0  0  0  0  0  0  0
  148.7528  140.9847  155.5376 N   0  0  0  0  0  0  0  0  0  0  0  0
  147.8092  141.5170  154.5598 C   0  0  0  0  0  0  0  0  0  0  0  0
  146.4728  140.7551  154.5736 C   0  0  0  0  0  0  0  0  0  0  0  0
  145.9162  140.7956  155.8835 O   0  0  0  0  0  0  0  0  0  0  0  0
  146.7853  140.2404  156.8649 C   0  0  0  0  0  0  0  0  0  0  0  0
  148.1257  140.9964  156.8575 C   0  0  0  0  0  0  0  0  0  0  0  0
  151.7742  142.3788  158.4921 C   0  0  0  0  0  0  0  0  0  0  0  0
  151.1197  143.3773  157.7497 C   0  0  0  0  0  0  0  0  0  0  0  0
  151.3024  144.7171  158.1655 C   0  0  0  0  0  0  0  0  0  0  0  0
  152.1150  145.0259  159.2871 C   0  0  0  0  0  0  0  0  0  0  0  0
  152.7601  144.0015  160.0184 C   0  0  0  0  0  0  0  0  0  0  0  0
  152.5600  142.6791  159.5854 C   0  0  0  0  0  0  0  0  0  0  0  0
  154.1579  142.1610  163.2379 H   0  0  0  0  0  0  0  0  0  0  0  0
  152.4817  141.9956  162.7228 H   0  0  0  0  0  0  0  0  0  0  0  0
  153.4795  143.2989  162.0777 H   0  0  0  0  0  0  0  0  0  0  0  0
  154.9568  141.5908  160.9440 H   0  0  0  0  0  0  0  0  0  0  0  0
  153.9636  140.3035  161.5708 H   0  0  0  0  0  0  0  0  0  0  0  0
  151.4012  139.2050  157.2716 H   0  0  0  0  0  0  0  0  0  0  0  0
  150.0361  140.2359  157.5678 H   0  0  0  0  0  0  0  0  0  0  0  0
  152.1413  141.5667  155.9207 H   0  0  0  0  0  0  0  0  0  0  0  0
  151.1773  139.0640  155.3664 H   0  0  0  0  0  0  0  0  0  0  0  0
  149.9403  142.6412  156.0888 H   0  0  0  0  0  0  0  0  0  0  0  0
  150.1644  142.0556  154.4738 H   0  0  0  0  0  0  0  0  0  0  0  0
  147.6226  142.5730  154.7625 H   0  0  0  0  0  0  0  0  0  0  0  0
  148.2417  141.4635  153.5599 H   0  0  0  0  0  0  0  0  0  0  0  0
  145.7707  141.2073  153.8730 H   0  0  0  0  0  0  0  0  0  0  0  0
  146.6149  139.7190  154.2620 H   0  0  0  0  0  0  0  0  0  0  0  0
  146.3122  140.3165  157.8441 H   0  0  0  0  0  0  0  0  0  0  0  0
  146.9397  139.1788  156.6653 H   0  0  0  0  0  0  0  0  0  0  0  0
  148.7858  140.5369  157.5926 H   0  0  0  0  0  0  0  0  0  0  0  0
  147.9623  142.0256  157.1805 H   0  0  0  0  0  0  0  0  0  0  0  0
  150.5009  143.1377  156.8979 H   0  0  0  0  0  0  0  0  0  0  0  0
  150.8175  145.5145  157.6220 H   0  0  0  0  0  0  0  0  0  0  0  0
  152.2420  146.0559  159.5867 H   0  0  0  0  0  0  0  0  0  0  0  0
  153.3795  144.2303  160.8729 H   0  0  0  0  0  0  0  0  0  0  0  0
  1  2  1  0  0  0  0
  1 23  1  0  0  0  0
  1 24  1  0  0  0  0
  1 25  1  0  0  0  0
  2  3  1  0  0  0  0
  2 26  1  0  0  0  0
  2 27  1  0  0  0  0
  3 22  1  0  0  0  0
  3  4  1  0  0  0  0
  4  5  2  0  0  0  0
  4  6  1  0  0  0  0
  6  7  1  0  0  0  0
  6 17  1  0  0  0  0
  7  8  1  0  0  0  0
  7 28  1  0  0  0  0
  7 29  1  0  0  0  0
  8  9  1  0  0  0  0
  8 10  1  0  0  0  0
  8 30  1  0  0  0  0
  9 31  1  0  0  0  0
 10 11  1  0  0  0  0
 10 32  1  0  0  0  0
 10 33  1  0  0  0  0
 11 16  1  0  0  0  0
 11 12  1  0  0  0  0
 12 13  1  0  0  0  0
 12 34  1  0  0  0  0
 12 35  1  0  0  0  0
 13 14  1  0  0  0  0
 13 36  1  0  0  0  0
 13 37  1  0  0  0  0
 14 15  1  0  0  0  0
 15 16  1  0  0  0  0
 15 38  1  0  0  0  0
 15 39  1  0  0  0  0
 16 40  1  0  0  0  0
 16 41  1  0  0  0  0
 17 22  2  0  0  0  0
 17 18  1  0  0  0  0
 18 19  2  0  0  0  0
 18 42  1  0  0  0  0
 19 20  1  0  0  0  0
 19 43  1  0  0  0  0
 20 21  2  0  0  0  0
 20 44  1  0  0  0  0
 21 22  1  0  0  0  0
 21 45  1  0  0  0  0
M  END
> <s_m_source_file>
AV-unprocessed.smi

> <i_m_source_file_index>
1272

> <i_lp_mmshare_version>
43012

> <i_f3d_flags>
0

> <s_epik_input>
W2NIXTFbY0hdW2NIXVtjSF1jKGMxMiluKFtDSDJdW0NIM10pYyg9TyluMltDSDJdW0NASF0oW09IXSlbQ0gyXU4zW0NIMl1bQ0gyXU9bQ0gyXVtDSDJdMw==

> <s_epik_cmdline>
J2VwaWtfcHl0aG9uJywgJy1waCcsICc3LjAnLCAnLXRuJywgJzgnLCAnLW1hJywgJzIwMCcsICctbWV0YWxfYmluZGluZycsICctaW1hZScsICc8aW5maWxlLm1hZT4nLCAnLW9tYWUnLCAnPG91dGZpbGUubWFlPic=

> <r_epik_Ionization_Penalty>
0.214359

> <r_epik_Ionization_Penalty_Charging>
2.31431e-09

> <r_epik_Ionization_Penalty_Neutral>
0.214359

> <r_epik_State_Penalty>
0.204533

> <r_epik_Charging_Adjusted_Penalty>
0.204533

> <i_epik_Tot_Q>
0

> <i_epik_Tot_abs_Q>
0

> <r_epik_Metal_State_Penalty>
0.204533

> <b_epik_Metal_Only>
0

> <s_lp_Force_Field>
OPLS_2005

> <r_lp_Energy>
62.2606

> <b_lp_Chiralities_Consistent>
1

> <s_lp_Variant>
AV-unprocessed.smi:1272-2

> <Gold.Version>
5.8.1

> <Gold.Id.Protein>
6NUR|6NUR_protein|mol2

> <Gold.PLP.Fitness>
49.2818

> <Gold.PLP.PLP>
-49.3713

> <Gold.PLP.part.hbond>
-1.0000

> <Gold.PLP.part.metal>
0.0000

> <Gold.PLP.part.buried>
-6.1078

> <Gold.PLP.part.nonpolar>
-40.9280

> <Gold.PLP.part.repulsive>
0.1460

> <Gold.PLP.ligand.clash>
0.0000

> <Gold.PLP.ligand.torsion>
1.3300

> <Gold.PLP.Chemscore.Hbond>
0.8500

> <Gold.PLP.Chemscore.CHOScore>
0.0000

> <Gold.PLP.Chemscore.Metal>
0.0000

> <Gold.Chemscore.Hbonds>
donor molecule, donor type, donor heavy atom, donor atom, acceptor molecule, acceptor atom, score
      P1  H  7989  7998       L1     9  0.95

> <Gold.PLP.Chemscore.Internal.Correction>
0.0204

> <Gold.Rescore>
     Score         DG    S(hbond)    S(metal)    S(lipo)     H(rot)  DE(clash)    DE(int)     intcor
     15.35     -16.94       0.66        0.00     125.80       2.14       0.20       1.39       ----

> <Gold.Chemscore.Fitness>
15.3488

> <Gold.Chemscore.DG>
-16.9435

> <Gold.Chemscore.ZeroCoef>
-5.4800

> <Gold.Chemscore.Hbond>
0.6645

> <Gold.Chemscore.Metal>
0.0000

> <Gold.Chemscore.Lipo>
125.8029

> <Gold.Chemscore.Internal_Hbond>
0.0000

> <Gold.Chemscore.DEClash>
0.2011

> <Gold.Chemscore.DEInternal>
1.3936

> <Gold.Chemscore.Rot>
2.1386

> <Gold.Chemscore.Internal.Correction>
   9.000000E+99

> <Gold.Chemscore.Hbonds>
donor molecule, donor type, donor heavy atom, donor atom, acceptor molecule, acceptor atom, score
      P1  H  7989  7998       L1     9  0.21

> <Gold.Chemscore.Hbond.Weighted>
-2.2195

> <Gold.Chemscore.Metal.Weighted>
-0.0000

> <Gold.Chemscore.Lipo.Weighted>
-14.7189

> <Gold.Chemscore.Internal_Hbond.Weighted>
0.0000

> <Gold.Chemscore.DEClash.Weighted>
0.2011

> <Gold.Chemscore.DEInternal.Weighted>
1.3936

> <Gold.Chemscore.Rot.Weighted>
5.4749

> <Gold.Chemscore.Internal.Correction.Weighted>
   9.000000E+99

> <Gold.Protein.RotatedTorsions>
[ 6907 6896 6895 6894 ] final    4.74 input  -60.11 | X-H torsion
[ 7974 7965 7964 7962 ] final   32.49 input  175.53 | X-H torsion
[ 8008 7997 7996 7995 ] final  -61.44 input   59.86 | X-H torsion
[ 10167 10162 10161 10158 ] final    9.49 input  -65.29 | X-H torsion
[ 10718 10713 10712 10709 ] final  -66.08 input   66.30 | X-H torsion
[ 10763 10752 10751 10750 ] final   80.67 input  -60.55 | X-H torsion
[ 11005 11000 10999 10996 ] final  162.70 input  -57.11 | X-H torsion

> <Gold.Protein.ActiveResidues>
 VAL166  LYS551  ARG553  GLY616  TRP617  ASP618  TYR619  PRO620  LYS621  CYS622 
 ASP623  PHE694  ASN695  SER759  ASP760  ASP761  ALA762  ILE779  LEU786  VAL792 
 PHE793  MET794  SER795  GLU796  ALA797  LYS798  CYS799  TRP800  GLU811  SER814 

> <Gold.Protein.RotatedAtoms>
  151.6461  135.1007  160.0151 H   0  0  0  0  0  0  0  0  0  0  0  0  # atno 6907 bound_to 6896
  152.4027  133.6837  159.6338 H   0  0  0  0  0  0  0  0  0  0  0  0  # atno 6908 bound_to 6896
  150.7925  133.8680  159.3291 H   0  0  0  0  0  0  0  0  0  0  0  0  # atno 6909 bound_to 6896
  146.1483  139.6519  142.9116 H   0  0  0  0  0  0  0  0  0  0  0  0  # atno 7974 bound_to 7965
  154.4448  140.1017  156.6432 H   0  0  0  0  0  0  0  0  0  0  0  0  # atno 8008 bound_to 7997
  155.5479  140.3485  155.4443 H   0  0  0  0  0  0  0  0  0  0  0  0  # atno 8009 bound_to 7997
  156.0550  140.1313  156.9996 H   0  0  0  0  0  0  0  0  0  0  0  0  # atno 8010 bound_to 7997
  140.6252  143.8118  150.7224 H   0  0  0  0  0  0  0  0  0  0  0  0  # atno 10167 bound_to 10162
  156.0632  130.4257  150.1657 H   0  0  0  0  0  0  0  0  0  0  0  0  # atno 10718 bound_to 10713
  153.1053  135.4794  154.8940 H   0  0  0  0  0  0  0  0  0  0  0  0  # atno 10763 bound_to 10752
  154.7423  135.3085  154.8709 H   0  0  0  0  0  0  0  0  0  0  0  0  # atno 10764 bound_to 10752
  153.9313  135.6844  153.4799 H   0  0  0  0  0  0  0  0  0  0  0  0  # atno 10765 bound_to 10752
  140.2284  134.8143  157.3292 H   0  0  0  0  0  0  0  0  0  0  0  0  # atno 11005 bound_to 11000
  145.4885  141.0438  143.2606 LP  0  0  0  0  0  0  0  0  0  0  0  0  # atno 17320 bound_to 7965
  144.7872  139.6401  143.7129 LP  0  0  0  0  0  0  0  0  0  0  0  0  # atno 17321 bound_to 7965
  140.1717  143.4189  152.1996 LP  0  0  0  0  0  0  0  0  0  0  0  0  # atno 17342 bound_to 10162
  139.5473  144.7309  151.4543 LP  0  0  0  0  0  0  0  0  0  0  0  0  # atno 17343 bound_to 10162
  156.9722  130.9838  151.3456 LP  0  0  0  0  0  0  0  0  0  0  0  0  # atno 17370 bound_to 10713
  157.5656  130.8275  149.8323 LP  0  0  0  0  0  0  0  0  0  0  0  0  # atno 17371 bound_to 10713
  140.1776  134.4530  155.7792 LP  0  0  0  0  0  0  0  0  0  0  0  0  # atno 17394 bound_to 11000
  141.2219  133.6969  156.7814 LP  0  0  0  0  0  0  0  0  0  0  0  0  # atno 17395 bound_to 11000

$$$$
