AV-unprocessed.smi:1637|AV-procd|sdf|6545|dock10
  -GOLD-   22720 7233D 1   1.00000     0.00000
 Structure written by MMmdl.
 38 39  0  0  0  0  0  0  0  0  1 V2000
  151.3382  140.7124  155.8390 C   0  0  0  0  0  0  0  0  0  0  0  0
  150.2556  141.5274  155.4032 O   0  0  0  0  0  0  0  0  0  0  0  0
  149.1761  140.9150  154.8003 C   0  0  0  0  0  0  0  0  0  0  0  0
  148.0056  141.6691  154.5873 C   0  0  0  0  0  0  0  0  0  0  0  0
  146.8999  141.0540  153.9690 C   0  0  0  0  0  0  0  0  0  0  0  0
  146.9986  139.6943  153.5859 C   0  0  0  0  0  0  0  0  0  0  0  0
  145.9700  138.9509  152.9434 N   0  0  0  0  0  0  0  0  0  0  0  0
  145.7771  137.6214  152.8961 C   0  0  0  0  0  0  0  0  0  0  0  0
  146.5105  136.7710  153.3991 O   0  0  0  0  0  0  0  0  0  0  0  0
  144.6642  137.3229  152.2104 N   0  0  0  0  0  0  0  0  0  0  0  0
  144.1580  135.9754  151.9429 C   0  0  1  0  0  0  0  0  0  0  0  0
  145.0707  135.2579  150.9232 C   0  0  0  0  0  0  0  0  0  0  0  0
  144.3848  134.1066  150.1703 C   0  0  0  0  0  0  0  0  0  0  0  0
  143.9223  132.9402  151.0561 C   0  0  0  0  0  0  0  0  0  0  0  0
  142.8102  133.3217  152.0481 C   0  0  0  0  0  0  0  0  0  0  0  0
  143.3226  134.0144  153.2239 N   0  0  0  0  0  0  0  0  0  0  0  0
  143.9477  135.2011  153.2578 C   0  0  0  0  0  0  0  0  0  0  0  0
  144.3546  135.6621  154.3242 O   0  0  0  0  0  0  0  0  0  0  0  0
  148.2166  139.0306  153.8415 C   0  0  0  0  0  0  0  0  0  0  0  0
  149.2802  139.6144  154.4324 N   0  0  0  0  0  0  0  0  0  0  0  0
  152.1032  141.3419  156.2928 H   0  0  0  0  0  0  0  0  0  0  0  0
  151.7984  140.1818  155.0043 H   0  0  0  0  0  0  0  0  0  0  0  0
  151.0172  139.9893  156.5901 H   0  0  0  0  0  0  0  0  0  0  0  0
  147.9574  142.7050  154.8894 H   0  0  0  0  0  0  0  0  0  0  0  0
  146.0139  141.6441  153.7996 H   0  0  0  0  0  0  0  0  0  0  0  0
  145.2946  139.5075  152.4401 H   0  0  0  0  0  0  0  0  0  0  0  0
  144.1271  138.0852  151.8231 H   0  0  0  0  0  0  0  0  0  0  0  0
  143.1681  136.0916  151.4972 H   0  0  0  0  0  0  0  0  0  0  0  0
  145.4132  135.9733  150.1743 H   0  0  0  0  0  0  0  0  0  0  0  0
  145.9736  134.8962  151.4176 H   0  0  0  0  0  0  0  0  0  0  0  0
  143.5350  134.4959  149.6080 H   0  0  0  0  0  0  0  0  0  0  0  0
  145.0804  133.7197  149.4250 H   0  0  0  0  0  0  0  0  0  0  0  0
  143.5429  132.1536  150.4029 H   0  0  0  0  0  0  0  0  0  0  0  0
  144.7708  132.5044  151.5855 H   0  0  0  0  0  0  0  0  0  0  0  0
  142.0345  133.9159  151.5631 H   0  0  0  0  0  0  0  0  0  0  0  0
  142.3221  132.4136  152.4024 H   0  0  0  0  0  0  0  0  0  0  0  0
  143.2019  133.5377  154.1059 H   0  0  0  0  0  0  0  0  0  0  0  0
  148.3450  137.9948  153.5626 H   0  0  0  0  0  0  0  0  0  0  0  0
  1  2  1  0  0  0  0
  1 21  1  0  0  0  0
  1 22  1  0  0  0  0
  1 23  1  0  0  0  0
  2  3  1  0  0  0  0
  3 20  1  0  0  0  0
  3  4  2  0  0  0  0
  4  5  1  0  0  0  0
  4 24  1  0  0  0  0
  5  6  2  0  0  0  0
  5 25  1  0  0  0  0
  6  7  1  0  0  0  0
  6 19  1  0  0  0  0
  7  8  1  0  0  0  0
  7 26  1  0  0  0  0
  8  9  2  0  0  0  0
  8 10  1  0  0  0  0
 10 11  1  0  0  0  0
 10 27  1  0  0  0  0
 11 17  1  0  0  0  0
 11 12  1  0  0  0  0
 11 28  1  0  0  0  0
 12 13  1  0  0  0  0
 12 29  1  0  0  0  0
 12 30  1  0  0  0  0
 13 14  1  0  0  0  0
 13 31  1  0  0  0  0
 13 32  1  0  0  0  0
 14 15  1  0  0  0  0
 14 33  1  0  0  0  0
 14 34  1  0  0  0  0
 15 16  1  0  0  0  0
 15 35  1  0  0  0  0
 15 36  1  0  0  0  0
 16 17  1  0  0  0  0
 16 37  1  0  0  0  0
 17 18  2  0  0  0  0
 19 20  2  0  0  0  0
 19 38  1  0  0  0  0
M  END
> <s_m_source_file>
AV-unprocessed.smi

> <i_m_source_file_index>
1637

> <i_lp_mmshare_version>
43012

> <i_f3d_flags>
0

> <s_epik_input>
W0NIM11PYzFbY0hdW2NIXWMoW2NIXW4xKVtOSF1DKD1PKVtOSF1bQ0BASF0yW0NIMl1bQ0gyXVtDSDJdW0NIMl1bTkhdQzI9Tw==

> <s_epik_cmdline>
J2VwaWtfcHl0aG9uJywgJy1waCcsICc3LjAnLCAnLXRuJywgJzgnLCAnLW1hJywgJzIwMCcsICctbWV0YWxfYmluZGluZycsICctaW1hZScsICc8aW5maWxlLm1hZT4nLCAnLW9tYWUnLCAnPG91dGZpbGUubWFlPic=

> <r_lp_tautomer_probability>
1

> <r_epik_Ionization_Penalty>
8.30847e-05

> <r_epik_Ionization_Penalty_Charging>
0

> <r_epik_Ionization_Penalty_Neutral>
8.30847e-05

> <r_epik_State_Penalty>
-0

> <r_epik_Charging_Adjusted_Penalty>
0

> <i_epik_Tot_Q>
0

> <i_epik_Tot_abs_Q>
0

> <r_epik_Metal_State_Penalty>
-0

> <b_epik_Metal_Only>
0

> <s_lp_Force_Field>
OPLS_2005

> <r_lp_Energy>
13.0177

> <b_lp_Chiralities_Consistent>
1

> <s_lp_Variant>
AV-unprocessed.smi:1637-2

> <Gold.Version>
5.8.1

> <Gold.Id.Protein>
6NUR|6NUR_protein|mol2

> <Gold.PLP.Fitness>
42.0367

> <Gold.PLP.PLP>
-32.7413

> <Gold.PLP.part.hbond>
-3.9205

> <Gold.PLP.part.metal>
0.0000

> <Gold.PLP.part.buried>
-3.1144

> <Gold.PLP.part.nonpolar>
-27.4366

> <Gold.PLP.part.repulsive>
1.4863

> <Gold.PLP.ligand.clash>
0.0000

> <Gold.PLP.ligand.torsion>
0.2926

> <Gold.PLP.Chemscore.Hbond>
2.2844

> <Gold.PLP.Chemscore.CHOScore>
1.0000

> <Gold.PLP.Chemscore.Metal>
0.0000

> <Gold.Chemscore.Hbonds>
donor molecule, donor type, donor heavy atom, donor atom, acceptor molecule, acceptor atom, score
      L1  H     7    26       P1 10175  0.98
      L1  H    10    27       P1 10171  0.51
      L1  H    16    37       P1 10957  0.78
      L1  C    19    38       P1  7948  1.00

> <Gold.PLP.Chemscore.Internal.Correction>
0.0275

> <Gold.Rescore>
     Score         DG    S(hbond)    S(metal)    S(lipo)     H(rot)  DE(clash)    DE(int)     intcor
     12.82     -17.09       2.30        0.00      62.26       1.31       0.17       4.10       ----

> <Gold.Chemscore.Fitness>
12.8232

> <Gold.Chemscore.DG>
-17.0904

> <Gold.Chemscore.ZeroCoef>
-5.4800

> <Gold.Chemscore.Hbond>
2.2985

> <Gold.Chemscore.Metal>
0.0000

> <Gold.Chemscore.Lipo>
62.2593

> <Gold.Chemscore.Internal_Hbond>
0.0000

> <Gold.Chemscore.DEClash>
0.1655

> <Gold.Chemscore.DEInternal>
4.1017

> <Gold.Chemscore.Rot>
1.3090

> <Gold.Chemscore.Internal.Correction>
   9.000000E+99

> <Gold.Chemscore.Hbonds>
donor molecule, donor type, donor heavy atom, donor atom, acceptor molecule, acceptor atom, score
      L1  H     7    26       P1 10175  0.93
      L1  H    10    27       P1 10171  0.50
      L1  H    16    37       P1 10957  0.76

> <Gold.Chemscore.Hbond.Weighted>
-7.6770

> <Gold.Chemscore.Metal.Weighted>
-0.0000

> <Gold.Chemscore.Lipo.Weighted>
-7.2843

> <Gold.Chemscore.Internal_Hbond.Weighted>
0.0000

> <Gold.Chemscore.DEClash.Weighted>
0.1655

> <Gold.Chemscore.DEInternal.Weighted>
4.1017

> <Gold.Chemscore.Rot.Weighted>
3.3509

> <Gold.Chemscore.Internal.Correction.Weighted>
   9.000000E+99

> <Gold.Protein.RotatedTorsions>
[ 6907 6896 6895 6894 ] final  142.13 input  -60.11 | X-H torsion
[ 7974 7965 7964 7962 ] final  135.80 input  175.53 | X-H torsion
[ 8008 7997 7996 7995 ] final  151.34 input   59.86 | X-H torsion
[ 10167 10162 10161 10158 ] final  -29.47 input  -65.29 | X-H torsion
[ 10718 10713 10712 10709 ] final    9.90 input   66.30 | X-H torsion
[ 10763 10752 10751 10750 ] final   64.79 input  -60.55 | X-H torsion
[ 11005 11000 10999 10996 ] final  -90.81 input  -57.11 | X-H torsion

> <Gold.Protein.ActiveResidues>
 VAL166  LYS551  ARG553  GLY616  TRP617  ASP618  TYR619  PRO620  LYS621  CYS622 
 ASP623  PHE694  ASN695  SER759  ASP760  ASP761  ALA762  ILE779  LEU786  VAL792 
 PHE793  MET794  SER795  GLU796  ALA797  LYS798  CYS799  TRP800  GLU811  SER814 

> <Gold.Protein.RotatedAtoms>
  152.2225  133.4995  159.5170 H   0  0  0  0  0  0  0  0  0  0  0  0  # atno 6907 bound_to 6896
  150.7016  134.1323  159.4083 H   0  0  0  0  0  0  0  0  0  0  0  0  # atno 6908 bound_to 6896
  151.9244  135.0284  160.0575 H   0  0  0  0  0  0  0  0  0  0  0  0  # atno 6909 bound_to 6896
  144.9628  139.4691  143.5471 H   0  0  0  0  0  0  0  0  0  0  0  0  # atno 7974 bound_to 7965
  156.2678  140.2050  156.6160 H   0  0  0  0  0  0  0  0  0  0  0  0  # atno 8008 bound_to 7997
  154.6794  140.0541  157.0274 H   0  0  0  0  0  0  0  0  0  0  0  0  # atno 8009 bound_to 7997
  155.1022  140.3207  155.4547 H   0  0  0  0  0  0  0  0  0  0  0  0  # atno 8010 bound_to 7997
  140.7260  143.3926  151.1403 H   0  0  0  0  0  0  0  0  0  0  0  0  # atno 10167 bound_to 10162
  156.9730  130.5976  149.5670 H   0  0  0  0  0  0  0  0  0  0  0  0  # atno 10718 bound_to 10713
  153.0070  135.5380  154.6565 H   0  0  0  0  0  0  0  0  0  0  0  0  # atno 10763 bound_to 10752
  154.5785  135.2848  155.0759 H   0  0  0  0  0  0  0  0  0  0  0  0  # atno 10764 bound_to 10752
  154.1897  135.6502  153.5109 H   0  0  0  0  0  0  0  0  0  0  0  0  # atno 10765 bound_to 10752
  141.1558  133.7715  156.9790 H   0  0  0  0  0  0  0  0  0  0  0  0  # atno 11005 bound_to 11000
  146.3358  139.8789  142.8827 LP  0  0  0  0  0  0  0  0  0  0  0  0  # atno 17320 bound_to 7965
  145.2675  141.0097  143.3791 LP  0  0  0  0  0  0  0  0  0  0  0  0  # atno 17321 bound_to 7965
  139.7534  143.8744  152.3082 LP  0  0  0  0  0  0  0  0  0  0  0  0  # atno 17342 bound_to 10162
  139.8606  144.7119  150.9104 LP  0  0  0  0  0  0  0  0  0  0  0  0  # atno 17343 bound_to 10162
  156.0275  130.5368  150.8445 LP  0  0  0  0  0  0  0  0  0  0  0  0  # atno 17370 bound_to 10713
  157.5579  131.0945  150.9602 LP  0  0  0  0  0  0  0  0  0  0  0  0  # atno 17371 bound_to 10713
  140.1079  134.9495  157.2021 LP  0  0  0  0  0  0  0  0  0  0  0  0  # atno 17394 bound_to 11000
  140.3233  134.2892  155.7242 LP  0  0  0  0  0  0  0  0  0  0  0  0  # atno 17395 bound_to 11000

$$$$
