AV-unprocessed.smi:3335|AV-procd|sdf|12837|dock9
  -GOLD-   2272019223D 1   1.00000     0.00000
 Structure written by MMmdl.
 47 48  0  0  0  0  0  0  0  0  2 V2000
  151.4209  141.8654  158.2706 C   0  0  0  0  0  0  0  0  0  0  0  0
  150.9234  141.2174  157.0109 C   0  0  0  0  0  0  0  0  0  0  0  0
  151.5261  140.1584  156.2752 C   0  0  0  0  0  0  0  0  0  0  0  0
  150.8357  139.8258  155.1972 N   0  0  0  0  0  0  0  0  0  0  0  0
  149.7592  140.6446  155.2129 N   0  0  0  0  0  0  0  0  0  0  0  0
  148.7777  140.6081  154.1336 C   0  0  2  0  0  0  0  0  0  0  0  0
  147.7843  141.7871  154.2137 C   0  0  0  0  0  0  0  0  0  0  0  0
  148.1070  139.2140  154.0475 C   0  0  2  0  0  0  0  0  0  0  0  0
  148.5725  138.2624  155.1641 C   0  0  0  0  0  0  0  0  0  0  0  0
  148.3111  138.6046  152.7094 N   0  3  0  0  0  0  0  0  0  0  0  0
  147.1410  138.6240  151.8002 C   0  0  2  0  0  0  0  0  0  0  0  0
  146.8614  140.0681  151.3561 C   0  0  0  0  0  0  0  0  0  0  0  0
  145.8894  138.0366  152.4839 C   0  0  0  0  0  0  0  0  0  0  0  0
  145.4570  138.5822  153.5001 O   0  0  0  0  0  0  0  0  0  0  0  0
  145.2904  136.9509  151.9498 N   0  0  0  0  0  0  0  0  0  0  0  0
  144.1018  136.2734  152.4675 C   0  0  0  0  0  0  0  0  0  0  0  0
  143.9671  134.9876  151.6518 C   0  0  0  0  0  0  0  0  0  0  0  0
  144.6697  135.3040  150.3396 C   0  0  0  0  0  0  0  0  0  0  0  0
  145.7664  136.2927  150.7341 C   0  0  0  0  0  0  0  0  0  0  0  0
  149.7974  141.5026  156.2923 C   0  0  0  0  0  0  0  0  0  0  0  0
  152.2028  141.2751  158.7487 H   0  0  0  0  0  0  0  0  0  0  0  0
  150.6221  141.9914  159.0015 H   0  0  0  0  0  0  0  0  0  0  0  0
  151.8383  142.8534  158.0752 H   0  0  0  0  0  0  0  0  0  0  0  0
  152.4444  139.6308  156.4869 H   0  0  0  0  0  0  0  0  0  0  0  0
  149.3452  140.7479  153.2123 H   0  0  0  0  0  0  0  0  0  0  0  0
  147.1532  141.8380  153.3269 H   0  0  0  0  0  0  0  0  0  0  0  0
  148.3162  142.7368  154.2808 H   0  0  0  0  0  0  0  0  0  0  0  0
  147.1294  141.7144  155.0824 H   0  0  0  0  0  0  0  0  0  0  0  0
  147.0377  139.3774  154.1908 H   0  0  0  0  0  0  0  0  0  0  0  0
  148.4659  138.7277  156.1443 H   0  0  0  0  0  0  0  0  0  0  0  0
  149.6176  137.9773  155.0429 H   0  0  0  0  0  0  0  0  0  0  0  0
  147.9839  137.3453  155.1792 H   0  0  0  0  0  0  0  0  0  0  0  0
  149.0542  139.1107  152.2468 H   0  0  0  0  0  0  0  0  0  0  0  0
  147.4046  138.0463  150.9157 H   0  0  0  0  0  0  0  0  0  0  0  0
  146.0172  140.1180  150.6674 H   0  0  0  0  0  0  0  0  0  0  0  0
  147.7245  140.4927  150.8426 H   0  0  0  0  0  0  0  0  0  0  0  0
  146.6333  140.7124  152.2064 H   0  0  0  0  0  0  0  0  0  0  0  0
  144.1787  136.0526  153.5328 H   0  0  0  0  0  0  0  0  0  0  0  0
  143.2314  136.9124  152.3110 H   0  0  0  0  0  0  0  0  0  0  0  0
  144.4903  134.1755  152.1583 H   0  0  0  0  0  0  0  0  0  0  0  0
  142.9298  134.6812  151.5135 H   0  0  0  0  0  0  0  0  0  0  0  0
  145.0604  134.4155  149.8427 H   0  0  0  0  0  0  0  0  0  0  0  0
  143.9691  135.7879  149.6577 H   0  0  0  0  0  0  0  0  0  0  0  0
  145.9657  137.0037  149.9307 H   0  0  0  0  0  0  0  0  0  0  0  0
  146.6947  135.7646  150.9575 H   0  0  0  0  0  0  0  0  0  0  0  0
  149.0284  142.2430  156.4572 H   0  0  0  0  0  0  0  0  0  0  0  0
  148.6121  137.6501  152.8431 H   0  0  0  0  0  0  0  0  0  0  0  0
  1  2  1  0  0  0  0
  1 21  1  0  0  0  0
  1 22  1  0  0  0  0
  1 23  1  0  0  0  0
  2 20  2  0  0  0  0
  2  3  1  0  0  0  0
  3  4  2  0  0  0  0
  3 24  1  0  0  0  0
  4  5  1  0  0  0  0
  5  6  1  0  0  0  0
  5 20  1  0  0  0  0
  6  7  1  0  0  0  0
  6  8  1  0  0  0  0
  6 25  1  0  0  0  0
  7 26  1  0  0  0  0
  7 27  1  0  0  0  0
  7 28  1  0  0  0  0
  8  9  1  0  0  0  0
  8 10  1  0  0  0  0
  8 29  1  0  0  0  0
  9 30  1  0  0  0  0
  9 31  1  0  0  0  0
  9 32  1  0  0  0  0
 10 11  1  0  0  0  0
 10 33  1  0  0  0  0
 10 47  1  0  0  0  0
 11 12  1  0  0  0  0
 11 13  1  0  0  0  0
 11 34  1  0  0  0  0
 12 35  1  0  0  0  0
 12 36  1  0  0  0  0
 12 37  1  0  0  0  0
 13 14  2  0  0  0  0
 13 15  1  0  0  0  0
 15 19  1  0  0  0  0
 15 16  1  0  0  0  0
 16 17  1  0  0  0  0
 16 38  1  0  0  0  0
 16 39  1  0  0  0  0
 17 18  1  0  0  0  0
 17 40  1  0  0  0  0
 17 41  1  0  0  0  0
 18 19  1  0  0  0  0
 18 42  1  0  0  0  0
 18 43  1  0  0  0  0
 19 44  1  0  0  0  0
 19 45  1  0  0  0  0
 20 46  1  0  0  0  0
M  CHG  1  10   1
M  END
> <s_m_source_file>
AV-unprocessed.smi

> <i_m_source_file_index>
3335

> <i_lp_mmshare_version>
43012

> <i_f3d_flags>
0

> <s_epik_input>
W0NIM11jMVtjSF1ubihbY0hdMSlbQ0BIXShbQ0gzXSlbQ0BIXShbQ0gzXSlbTkhdW0NASF0oW0NIM10pQyg9TylOMltDSDJdW0NIMl1bQ0gyXVtDSDJdMg==

> <s_epik_cmdline>
J2VwaWtfcHl0aG9uJywgJy1waCcsICc3LjAnLCAnLXRuJywgJzgnLCAnLW1hJywgJzIwMCcsICctbWV0YWxfYmluZGluZycsICctaW1hZScsICc8aW5maWxlLm1hZT4nLCAnLW9tYWUnLCAnPG91dGZpbGUubWFlPic=

> <r_lp_tautomer_probability>
1

> <r_epik_Ionization_Penalty>
0.14175

> <r_epik_Ionization_Penalty_Charging>
0.141731

> <r_epik_Ionization_Penalty_Neutral>
1.91261e-05

> <r_epik_State_Penalty>
0.131043

> <r_epik_Charging_Adjusted_Penalty>
0.272773

> <i_epik_Tot_Q>
1

> <i_epik_Tot_abs_Q>
1

> <r_epik_Metal_State_Penalty>
0.131408

> <b_epik_Metal_Only>
0

> <s_lp_Force_Field>
OPLS_2005

> <r_lp_Energy>
36.483

> <b_lp_Chiralities_Consistent>
1

> <s_lp_Variant>
AV-unprocessed.smi:3335-1

> <Gold.Version>
5.8.1

> <Gold.Id.Protein>
6NUR|6NUR_protein|mol2

> <Gold.PLP.Fitness>
46.7818

> <Gold.PLP.PLP>
-37.4715

> <Gold.PLP.part.hbond>
-2.8887

> <Gold.PLP.part.metal>
0.0000

> <Gold.PLP.part.buried>
1.1624

> <Gold.PLP.part.nonpolar>
-37.0013

> <Gold.PLP.part.repulsive>
0.8221

> <Gold.PLP.ligand.clash>
0.0000

> <Gold.PLP.ligand.torsion>
2.2523

> <Gold.PLP.Chemscore.Hbond>
3.6223

> <Gold.PLP.Chemscore.CHOScore>
0.9131

> <Gold.PLP.Chemscore.Metal>
0.0000

> <Gold.Chemscore.Hbonds>
donor molecule, donor type, donor heavy atom, donor atom, acceptor molecule, acceptor atom, score
      L1  H    10    33       P1  7957  0.98
      L1  H    10    47       P1  7948  1.50
      P1  H  7989  7998       L1     4  0.39
      L1  C    20    46       P1  8028  0.82

> <Gold.PLP.Chemscore.Internal.Correction>
0.2089

> <Gold.Rescore>
     Score         DG    S(hbond)    S(metal)    S(lipo)     H(rot)  DE(clash)    DE(int)     intcor
     11.63     -18.01       1.91        0.00      89.40       1.68       1.14       5.25       ----

> <Gold.Chemscore.Fitness>
11.6275

> <Gold.Chemscore.DG>
-18.0108

> <Gold.Chemscore.ZeroCoef>
-5.4800

> <Gold.Chemscore.Hbond>
1.9060

> <Gold.Chemscore.Metal>
0.0000

> <Gold.Chemscore.Lipo>
89.4017

> <Gold.Chemscore.Internal_Hbond>
0.0000

> <Gold.Chemscore.DEClash>
1.1355

> <Gold.Chemscore.DEInternal>
5.2478

> <Gold.Chemscore.Rot>
1.6778

> <Gold.Chemscore.Internal.Correction>
   9.000000E+99

> <Gold.Chemscore.Hbonds>
donor molecule, donor type, donor heavy atom, donor atom, acceptor molecule, acceptor atom, score
      L1  H    10    33       P1  7957  0.87
      L1  H    10    47       P1  7948  0.74
      P1  H  7989  7998       L1     4  0.02

> <Gold.Chemscore.Hbond.Weighted>
-6.3660

> <Gold.Chemscore.Metal.Weighted>
-0.0000

> <Gold.Chemscore.Lipo.Weighted>
-10.4600

> <Gold.Chemscore.Internal_Hbond.Weighted>
0.0000

> <Gold.Chemscore.DEClash.Weighted>
1.1355

> <Gold.Chemscore.DEInternal.Weighted>
5.2478

> <Gold.Chemscore.Rot.Weighted>
4.2952

> <Gold.Chemscore.Internal.Correction.Weighted>
   9.000000E+99

> <Gold.Protein.RotatedTorsions>
[ 6907 6896 6895 6894 ] final  -66.74 input  -60.11 | X-H torsion
[ 7974 7965 7964 7962 ] final -146.92 input  175.53 | X-H torsion
[ 8008 7997 7996 7995 ] final  142.39 input   59.86 | X-H torsion
[ 10167 10162 10161 10158 ] final -131.19 input  -65.29 | X-H torsion
[ 10718 10713 10712 10709 ] final  121.13 input   66.30 | X-H torsion
[ 10763 10752 10751 10750 ] final    1.64 input  -60.55 | X-H torsion
[ 11005 11000 10999 10996 ] final -173.47 input  -57.11 | X-H torsion

> <Gold.Protein.ActiveResidues>
 VAL166  LYS551  ARG553  GLY616  TRP617  ASP618  TYR619  PRO620  LYS621  CYS622 
 ASP623  PHE694  ASN695  SER759  ASP760  ASP761  ALA762  ILE779  LEU786  VAL792 
 PHE793  MET794  SER795  GLU796  ALA797  LYS798  CYS799  TRP800  GLU811  SER814 

> <Gold.Protein.RotatedAtoms>
  150.7448  134.5978  159.6020 H   0  0  0  0  0  0  0  0  0  0  0  0  # atno 6907 bound_to 6896
  152.3348  134.7209  160.0289 H   0  0  0  0  0  0  0  0  0  0  0  0  # atno 6908 bound_to 6896
  151.7681  133.3303  159.3473 H   0  0  0  0  0  0  0  0  0  0  0  0  # atno 6909 bound_to 6896
  144.8127  140.5394  143.5631 H   0  0  0  0  0  0  0  0  0  0  0  0  # atno 7974 bound_to 7965
  156.2950  140.2290  156.4720 H   0  0  0  0  0  0  0  0  0  0  0  0  # atno 8008 bound_to 7997
  154.7927  140.0453  157.1234 H   0  0  0  0  0  0  0  0  0  0  0  0  # atno 8009 bound_to 7997
  154.9627  140.3056  155.5027 H   0  0  0  0  0  0  0  0  0  0  0  0  # atno 8010 bound_to 7997
  139.9215  143.6377  152.2552 H   0  0  0  0  0  0  0  0  0  0  0  0  # atno 10167 bound_to 10162
  157.5840  131.1072  150.8131 H   0  0  0  0  0  0  0  0  0  0  0  0  # atno 10718 bound_to 10713
  153.3055  135.6959  153.7163 H   0  0  0  0  0  0  0  0  0  0  0  0  # atno 10763 bound_to 10752
  153.6061  135.3453  155.2963 H   0  0  0  0  0  0  0  0  0  0  0  0  # atno 10764 bound_to 10752
  154.8562  135.4352  154.2179 H   0  0  0  0  0  0  0  0  0  0  0  0  # atno 10765 bound_to 10752
  140.4854  134.6036  157.4935 H   0  0  0  0  0  0  0  0  0  0  0  0  # atno 11005 bound_to 11000
  145.5286  139.1475  143.3512 LP  0  0  0  0  0  0  0  0  0  0  0  0  # atno 17320 bound_to 7965
  146.2428  140.5426  142.8927 LP  0  0  0  0  0  0  0  0  0  0  0  0  # atno 17321 bound_to 7965
  139.6858  144.7651  151.1527 LP  0  0  0  0  0  0  0  0  0  0  0  0  # atno 17342 bound_to 10162
  140.7661  143.5660  150.9048 LP  0  0  0  0  0  0  0  0  0  0  0  0  # atno 17343 bound_to 10162
  156.8570  130.5100  149.5307 LP  0  0  0  0  0  0  0  0  0  0  0  0  # atno 17370 bound_to 10713
  156.0888  130.5879  150.9695 LP  0  0  0  0  0  0  0  0  0  0  0  0  # atno 17371 bound_to 10713
  139.9801  134.7151  155.9875 LP  0  0  0  0  0  0  0  0  0  0  0  0  # atno 17394 bound_to 11000
  141.1511  133.6548  156.4015 LP  0  0  0  0  0  0  0  0  0  0  0  0  # atno 17395 bound_to 11000

$$$$
