AV-unprocessed.smi:2124|AV-procd|sdf|8670|dock9
  -GOLD-   2272011423D 1   1.00000     0.00000
 Structure written by MMmdl.
 46 48  0  0  0  0  0  0  0  0  2 V2000
  153.9339  136.6333  161.7514 C   0  0  0  0  0  0  0  0  0  0  0  0
  153.5219  137.0803  160.3651 C   0  0  0  0  0  0  0  0  0  0  0  0
  152.2965  136.9775  160.0150 N   0  0  0  0  0  0  0  0  0  0  0  0
  151.9080  137.3851  158.7275 C   0  0  0  0  0  0  0  0  0  0  0  0
  150.4350  137.2193  158.3968 C   0  0  0  0  0  0  0  0  0  0  0  0
  152.8163  137.8891  157.8437 C   0  0  0  0  0  0  0  0  0  0  0  0
  152.4569  138.3449  156.4303 C   0  0  0  0  0  0  0  0  0  0  0  0
  151.7260  139.6859  156.3267 C   0  0  0  0  0  0  0  0  0  0  0  0
  151.3054  140.0877  155.2415 O   0  0  0  0  0  0  0  0  0  0  0  0
  151.5830  140.3695  157.4724 N   0  0  0  0  0  0  0  0  0  0  0  0
  150.8984  141.6523  157.6207 C   0  0  2  0  0  0  0  0  0  0  0  0
  151.2914  142.5706  156.4482 C   0  0  0  0  0  0  0  0  0  0  0  0
  151.2450  142.2608  159.0023 C   0  0  2  0  0  0  0  0  0  0  0  0
  150.6233  143.6610  159.2391 C   0  0  0  0  0  0  0  0  0  0  0  0
  151.8314  144.5238  159.6424 C   0  0  1  0  0  0  0  0  0  0  0  0
  152.3334  144.0923  161.0323 C   0  0  0  0  0  0  0  0  0  0  0  0
  152.9981  142.7335  160.7437 C   0  0  0  0  0  0  0  0  0  0  0  0
  152.7509  142.5471  159.2341 C   0  0  2  0  0  0  0  0  0  0  0  0
  152.9153  143.9754  158.7248 C   0  0  0  0  0  0  0  0  0  0  0  0
  154.2161  138.0010  158.2897 C   0  0  0  0  0  0  0  0  0  0  0  0
  155.0697  138.4690  157.5369 O   0  0  0  0  0  0  0  0  0  0  0  0
  154.5151  137.5760  159.5504 N   0  5  0  0  0  0  0  0  0  0  0  0
  153.0636  136.5020  162.3955 H   0  0  0  0  0  0  0  0  0  0  0  0
  154.5895  137.3723  162.2131 H   0  0  0  0  0  0  0  0  0  0  0  0
  154.4668  135.6839  161.6962 H   0  0  0  0  0  0  0  0  0  0  0  0
  150.3026  136.4772  157.6095 H   0  0  0  0  0  0  0  0  0  0  0  0
  150.0062  138.1632  158.0608 H   0  0  0  0  0  0  0  0  0  0  0  0
  149.8697  136.8883  159.2686 H   0  0  0  0  0  0  0  0  0  0  0  0
  153.3575  138.3680  155.8151 H   0  0  0  0  0  0  0  0  0  0  0  0
  151.8233  137.5941  155.9592 H   0  0  0  0  0  0  0  0  0  0  0  0
  151.9587  139.9570  158.3140 H   0  0  0  0  0  0  0  0  0  0  0  0
  149.8215  141.4810  157.5791 H   0  0  0  0  0  0  0  0  0  0  0  0
  150.7440  143.5119  156.4682 H   0  0  0  0  0  0  0  0  0  0  0  0
  151.0726  142.0998  155.4892 H   0  0  0  0  0  0  0  0  0  0  0  0
  152.3565  142.8034  156.4662 H   0  0  0  0  0  0  0  0  0  0  0  0
  150.8854  141.5724  159.7691 H   0  0  0  0  0  0  0  0  0  0  0  0
  150.1761  144.0614  158.3279 H   0  0  0  0  0  0  0  0  0  0  0  0
  149.8477  143.6465  160.0057 H   0  0  0  0  0  0  0  0  0  0  0  0
  151.6513  145.5955  159.5544 H   0  0  0  0  0  0  0  0  0  0  0  0
  153.0646  144.8018  161.4219 H   0  0  0  0  0  0  0  0  0  0  0  0
  151.5220  144.0141  161.7569 H   0  0  0  0  0  0  0  0  0  0  0  0
  154.0669  142.7793  160.9568 H   0  0  0  0  0  0  0  0  0  0  0  0
  152.5754  141.9251  161.3413 H   0  0  0  0  0  0  0  0  0  0  0  0
  153.4303  141.8241  158.7849 H   0  0  0  0  0  0  0  0  0  0  0  0
  152.6856  144.0914  157.6644 H   0  0  0  0  0  0  0  0  0  0  0  0
  153.9029  144.3951  158.9238 H   0  0  0  0  0  0  0  0  0  0  0  0
  1  2  1  0  0  0  0
  1 23  1  0  0  0  0
  1 24  1  0  0  0  0
  1 25  1  0  0  0  0
  2 22  1  0  0  0  0
  2  3  2  0  0  0  0
  3  4  1  0  0  0  0
  4  5  1  0  0  0  0
  4  6  2  0  0  0  0
  5 26  1  0  0  0  0
  5 27  1  0  0  0  0
  5 28  1  0  0  0  0
  6  7  1  0  0  0  0
  6 20  1  0  0  0  0
  7  8  1  0  0  0  0
  7 29  1  0  0  0  0
  7 30  1  0  0  0  0
  8  9  2  0  0  0  0
  8 10  1  0  0  0  0
 10 11  1  0  0  0  0
 10 31  1  0  0  0  0
 11 12  1  0  0  0  0
 11 13  1  0  0  0  0
 11 32  1  0  0  0  0
 12 33  1  0  0  0  0
 12 34  1  0  0  0  0
 12 35  1  0  0  0  0
 13 18  1  0  0  0  0
 13 14  1  0  0  0  0
 13 36  1  0  0  0  0
 14 15  1  0  0  0  0
 14 37  1  0  0  0  0
 14 38  1  0  0  0  0
 15 19  1  0  0  0  0
 15 16  1  0  0  0  0
 15 39  1  0  0  0  0
 16 17  1  0  0  0  0
 16 40  1  0  0  0  0
 16 41  1  0  0  0  0
 17 18  1  0  0  0  0
 17 42  1  0  0  0  0
 17 43  1  0  0  0  0
 18 19  1  0  0  0  0
 18 44  1  0  0  0  0
 19 45  1  0  0  0  0
 19 46  1  0  0  0  0
 20 21  2  0  0  0  0
 20 22  1  0  0  0  0
M  CHG  1  22  -1
M  END
> <s_m_source_file>
AV-unprocessed.smi

> <i_m_source_file_index>
2124

> <i_lp_mmshare_version>
43012

> <i_f3d_flags>
0

> <s_epik_input>
W0NIM11jMW5jKFtDSDNdKWMoYyg9TylbbkhdMSlbQ0gyXUMoPU8pW05IXVtDQEhdKFtDSDNdKVtDQEhdKFtDSDJdW0NASF0yMylbQ0BIXShbQ0gyXTMpW0NIMl1bQ0gyXTI=

> <s_epik_cmdline>
J2VwaWtfcHl0aG9uJywgJy1waCcsICc3LjAnLCAnLXRuJywgJzgnLCAnLW1hJywgJzIwMCcsICctbWV0YWxfYmluZGluZycsICctaW1hZScsICc8aW5maWxlLm1hZT4nLCAnLW9tYWUnLCAnPG91dGZpbGUubWFlPic=

> <r_lp_tautomer_probability>
0.839158

> <r_epik_Ionization_Penalty>
6.63797

> <r_epik_Ionization_Penalty_Charging>
7.48558e-08

> <r_epik_Ionization_Penalty_Neutral>
6.63797

> <r_epik_State_Penalty>
4.49496

> <r_epik_Charging_Adjusted_Penalty>
4.49496

> <i_epik_Tot_Q>
-1

> <i_epik_Tot_abs_Q>
1

> <r_epik_Metal_State_Penalty>
0.841241

> <b_epik_Metal_Only>
1

> <s_lp_Force_Field>
OPLS_2005

> <r_lp_Energy>
56.157

> <b_lp_Chiralities_Consistent>
1

> <s_lp_Variant>
AV-unprocessed.smi:2124-21

> <Gold.Version>
5.8.1

> <Gold.Id.Protein>
6NUR|6NUR_protein|mol2

> <Gold.PLP.Fitness>
48.6063

> <Gold.PLP.PLP>
-41.4864

> <Gold.PLP.part.hbond>
-2.2568

> <Gold.PLP.part.metal>
0.0000

> <Gold.PLP.part.buried>
-7.0373

> <Gold.PLP.part.nonpolar>
-33.1231

> <Gold.PLP.part.repulsive>
0.0939

> <Gold.PLP.ligand.clash>
0.0000

> <Gold.PLP.ligand.torsion>
0.4272

> <Gold.PLP.Chemscore.Hbond>
2.6511

> <Gold.PLP.Chemscore.CHOScore>
0.0000

> <Gold.PLP.Chemscore.Metal>
0.0000

> <Gold.Chemscore.Hbonds>
donor molecule, donor type, donor heavy atom, donor atom, acceptor molecule, acceptor atom, score
      P1  H  6896  6909       L1     3  1.00
      P1  H  7989  7998       L1     9  1.00
      P1  H  7997  8008       L1    21  0.56

> <Gold.PLP.Chemscore.Internal.Correction>
0.0210

> <Gold.Rescore>
     Score         DG    S(hbond)    S(metal)    S(lipo)     H(rot)  DE(clash)    DE(int)     intcor
     19.37     -21.65       2.01        0.00     116.01       1.61       0.13       2.16       ----

> <Gold.Chemscore.Fitness>
19.3650

> <Gold.Chemscore.DG>
-21.6532

> <Gold.Chemscore.ZeroCoef>
-5.4800

> <Gold.Chemscore.Hbond>
2.0086

> <Gold.Chemscore.Metal>
0.0000

> <Gold.Chemscore.Lipo>
116.0139

> <Gold.Chemscore.Internal_Hbond>
0.0000

> <Gold.Chemscore.DEClash>
0.1271

> <Gold.Chemscore.DEInternal>
2.1611

> <Gold.Chemscore.Rot>
1.6051

> <Gold.Chemscore.Internal.Correction>
   9.000000E+99

> <Gold.Chemscore.Hbonds>
donor molecule, donor type, donor heavy atom, donor atom, acceptor molecule, acceptor atom, score
      P1  H  6896  6909       L1     3  0.24
      P1  H  7989  7998       L1     9  0.97
      P1  H  7997  8008       L1    21  0.51

> <Gold.Chemscore.Hbond.Weighted>
-6.7086

> <Gold.Chemscore.Metal.Weighted>
-0.0000

> <Gold.Chemscore.Lipo.Weighted>
-13.5736

> <Gold.Chemscore.Internal_Hbond.Weighted>
0.0000

> <Gold.Chemscore.DEClash.Weighted>
0.1271

> <Gold.Chemscore.DEInternal.Weighted>
2.1611

> <Gold.Chemscore.Rot.Weighted>
4.1090

> <Gold.Chemscore.Internal.Correction.Weighted>
   9.000000E+99

> <Gold.Protein.RotatedTorsions>
[ 6907 6896 6895 6894 ] final  136.24 input  -60.11 | X-H torsion
[ 7974 7965 7964 7962 ] final  156.71 input  175.53 | X-H torsion
[ 8008 7997 7996 7995 ] final -124.12 input   59.86 | X-H torsion
[ 10167 10162 10161 10158 ] final   78.65 input  -65.29 | X-H torsion
[ 10718 10713 10712 10709 ] final  -44.98 input   66.30 | X-H torsion
[ 10763 10752 10751 10750 ] final    2.58 input  -60.55 | X-H torsion
[ 11005 11000 10999 10996 ] final  -74.88 input  -57.11 | X-H torsion

> <Gold.Protein.ActiveResidues>
 VAL166  LYS551  ARG553  GLY616  TRP617  ASP618  TYR619  PRO620  LYS621  CYS622 
 ASP623  PHE694  ASN695  SER759  ASP760  ASP761  ALA762  ILE779  LEU786  VAL792 
 PHE793  MET794  SER795  GLU796  ALA797  LYS798  CYS799  TRP800  GLU811  SER814 

> <Gold.Protein.RotatedAtoms>
  152.2916  133.5566  159.5560 H   0  0  0  0  0  0  0  0  0  0  0  0  # atno 6907 bound_to 6896
  150.7238  134.0421  159.3778 H   0  0  0  0  0  0  0  0  0  0  0  0  # atno 6908 bound_to 6896
  151.8326  135.0617  160.0489 H   0  0  0  0  0  0  0  0  0  0  0  0  # atno 6909 bound_to 6896
  144.7946  139.7241  143.6207 H   0  0  0  0  0  0  0  0  0  0  0  0  # atno 7974 bound_to 7965
  155.1917  140.0413  157.2901 H   0  0  0  0  0  0  0  0  0  0  0  0  # atno 8008 bound_to 7997
  154.6134  140.2482  155.7611 H   0  0  0  0  0  0  0  0  0  0  0  0  # atno 8009 bound_to 7997
  156.2392  140.2910  156.0408 H   0  0  0  0  0  0  0  0  0  0  0  0  # atno 8010 bound_to 7997
  139.9687  144.5910  150.8005 H   0  0  0  0  0  0  0  0  0  0  0  0  # atno 10167 bound_to 10162
  156.2330  130.4174  149.8852 H   0  0  0  0  0  0  0  0  0  0  0  0  # atno 10718 bound_to 10713
  153.2938  135.6950  153.7268 H   0  0  0  0  0  0  0  0  0  0  0  0  # atno 10763 bound_to 10752
  153.6208  135.3427  155.3011 H   0  0  0  0  0  0  0  0  0  0  0  0  # atno 10764 bound_to 10752
  154.8531  135.4386  154.2028 H   0  0  0  0  0  0  0  0  0  0  0  0  # atno 10765 bound_to 10752
  141.1640  133.6927  156.7432 H   0  0  0  0  0  0  0  0  0  0  0  0  # atno 11005 bound_to 11000
  146.2210  139.5636  142.9618 LP  0  0  0  0  0  0  0  0  0  0  0  0  # atno 17320 bound_to 7965
  145.5705  141.0394  143.2176 LP  0  0  0  0  0  0  0  0  0  0  0  0  # atno 17321 bound_to 7965
  140.7529  143.2999  151.3107 LP  0  0  0  0  0  0  0  0  0  0  0  0  # atno 17342 bound_to 10162
  139.6498  144.0383  152.2618 LP  0  0  0  0  0  0  0  0  0  0  0  0  # atno 17343 bound_to 10162
  156.6460  130.8724  151.3522 LP  0  0  0  0  0  0  0  0  0  0  0  0  # atno 17370 bound_to 10713
  157.7141  130.9476  150.1193 LP  0  0  0  0  0  0  0  0  0  0  0  0  # atno 17371 bound_to 10713
  140.2659  134.8430  157.3802 LP  0  0  0  0  0  0  0  0  0  0  0  0  # atno 17394 bound_to 11000
  140.1567  134.4781  155.7923 LP  0  0  0  0  0  0  0  0  0  0  0  0  # atno 17395 bound_to 11000

$$$$
