#       Name:                AV-unprocessed.smi:236
#       Creating user name   scv26
#       Creation time:       Thu Mar 26 20:40:13 2020


#       File generated by GOLD software.
#

@<TRIPOS>MOLECULE
AV-unprocessed.smi:236
    70    74     1
SMALL
NO_CHARGES


@<TRIPOS>ATOM
      1 ****        -3.9253  -0.1631  -3.5541 C.3            1 S1                 0.0000
      2 ****        -5.0341  -0.0726  -2.4932 C.3            1 S1                 0.0000
      3 ****        -6.2954   0.1563  -3.1050 O.3            1 S1                 0.0000
      4 ****        -7.2848  -0.1608  -2.1430 C.3            1 S1                 0.0000
      5 ****        -6.7694  -1.4664  -1.5502 C.3            1 S1                 0.0000
      6 ****        -5.2456  -1.3117  -1.5824 C.3            1 S1                 0.0000
      7 ****        -4.6955  -2.4866  -2.1556 O.3            1 S1                 0.0000
      8 ****        -4.6474  -1.1379  -0.1642 C.3            1 S1                 0.0000
      9 ****        -3.2178  -0.8637  -0.1652 N.pl3          1 S1                 0.0000
     10 ****        -2.2013  -1.7828  -0.3007 C.2            1 S1                 0.0000
     11 ****        -0.9942  -1.2872  -0.2774 N.2            1 S1                 0.0000
     12 ****        -1.1921   0.0772  -0.1044 C.ar           1 S1                 0.0000
     13 ****        -0.3278   1.2030   0.0050 C.ar           1 S1                 0.0000
     14 ****         1.0193   1.1500  -0.0458 N.3            1 S1                 0.0000
     15 ****         1.5487   0.7084  -1.3292 C.3            1 S1                 0.0000
     16 ****         3.0815   0.8258  -1.3273 C.3            1 S1                 0.0000
     17 ****         3.6116   0.0947  -0.2252 O.3            1 S1                 0.0000
     18 ****         3.1572   0.5963   1.0308 C.3            1 S1                 0.0000
     19 ****         3.8412  -0.2034   2.1469 C.3            1 S1                 0.0000
     20 ****         5.2003   0.1915   2.2291 O.3            1 S1                 0.0000
     21 ****         5.9173  -0.5072   3.2350 C.3            1 S1                 0.0000
     22 ****         7.3684  -0.0645   3.2901 C.3            1 S1                 0.0000
     23 ****         7.7569   1.3770   3.0323 C.3            1 S1                 0.0000
     24 ****         8.1157   0.3155   2.0279 C.3            1 S1                 0.0000
     25 ****         1.6235   0.4560   1.0840 C.3            1 S1                 0.0000
     26 ****        -0.8901   2.4238   0.1783 N.ar           1 S1                 0.0000
     27 ****        -2.2198   2.5429   0.2418 C.ar           1 S1                 0.0000
     28 ****        -3.1491   1.5885   0.1555 N.ar           1 S1                 0.0000
     29 ****        -2.5847   0.3591  -0.0222 C.ar           1 S1                 0.0000
     30 ****        -2.9553  -0.3537  -3.0945 H              1 S1                 0.0000
     31 ****        -3.8488   0.7708  -4.1109 H              1 S1                 0.0000
     32 ****        -4.1218  -0.9586  -4.2733 H              1 S1                 0.0000
     33 ****        -4.8445   0.8030  -1.8719 H              1 S1                 0.0000
     34 ****        -7.3296   0.6238  -1.3858 H              1 S1                 0.0000
     35 ****        -8.2714  -0.2626  -2.5955 H              1 S1                 0.0000
     36 ****        -7.1683  -1.6519  -0.5523 H              1 S1                 0.0000
     37 ****        -7.0938  -2.2909  -2.1877 H              1 S1                 0.0000
     38 ****        -4.9435  -3.2256  -1.6216 H              1 S1                 0.0000
     39 ****        -5.1514  -0.3216   0.3551 H              1 S1                 0.0000
     40 ****        -4.8229  -2.0319   0.4360 H              1 S1                 0.0000
     41 ****        -2.3846  -2.8401  -0.4253 H              1 S1                 0.0000
     42 ****         1.2602  -0.3265  -1.5157 H              1 S1                 0.0000
     43 ****         1.1265   1.3121  -2.1338 H              1 S1                 0.0000
     44 ****         3.4912   0.4217  -2.2530 H              1 S1                 0.0000
     45 ****         3.3928   1.8699  -1.2689 H              1 S1                 0.0000
     46 ****         3.4285   1.6492   1.1287 H              1 S1                 0.0000
     47 ****         3.3541   0.0030   3.1012 H              1 S1                 0.0000
     48 ****         3.7548  -1.2748   1.9587 H              1 S1                 0.0000
     49 ****         5.4615  -0.3346   4.2110 H              1 S1                 0.0000
     50 ****         5.8876  -1.5800   3.0397 H              1 S1                 0.0000
     51 ****         7.9516  -0.5824   4.0492 H              1 S1                 0.0000
     52 ****         6.9718   2.0798   2.7603 H              1 S1                 0.0000
     53 ****         8.5643   1.7928   3.6315 H              1 S1                 0.0000
     54 ****         9.1610   0.0223   1.9582 H              1 S1                 0.0000
     55 ****         7.5694   0.3116   1.0867 H              1 S1                 0.0000
     56 ****         1.2414   0.8718   2.0173 H              1 S1                 0.0000
     57 ****         1.3459  -0.5988   1.0622 H              1 S1                 0.0000
     58 ****        -2.5927   3.5467   0.3812 H              1 S1                 0.0000
     59 ****        -6.3983  -0.4288  -3.9094 LP             1 S1                 0.0000
     60 ****        -6.3761   1.1150  -3.3776 LP             1 S1                 0.0000
     61 ****        -3.6988  -2.4121  -2.1862 LP             1 S1                 0.0000
     62 ****        -5.0494  -2.6069  -3.0831 LP             1 S1                 0.0000
     63 ****        -0.1266  -1.7768  -0.3641 LP             1 S1                 0.0000
     64 ****         1.3037   2.1047   0.0418 LP             1 S1                 0.0000
     65 ****         4.6095   0.1526  -0.2518 LP             1 S1                 0.0000
     66 ****         3.3309  -0.8614  -0.3095 LP             1 S1                 0.0000
     67 ****         5.2368   1.1699   2.4323 LP             1 S1                 0.0000
     68 ****         5.6372   0.0178   1.3466 LP             1 S1                 0.0000
     69 ****        -0.3106   3.2348   0.2586 LP             1 S1                 0.0000
     70 ****        -4.1337   1.7535   0.2137 LP             1 S1                 0.0000
@<TRIPOS>BOND
    1    1    2 1     
    2    1   30 1     
    3    1   31 1     
    4    1   32 1     
    5    2    6 1     
    6    2    3 1     
    7    2   33 1     
    8    3    4 1     
    9    4    5 1     
   10    4   34 1     
   11    4   35 1     
   12    5    6 1     
   13    5   36 1     
   14    5   37 1     
   15    6    7 1     
   16    6    8 1     
   17    7   38 1     
   18    8    9 1     
   19    8   39 1     
   20    8   40 1     
   21    9   29 1     
   22    9   10 1     
   23   10   11 2     
   24   10   41 1     
   25   11   12 1     
   26   12   29 ar    
   27   12   13 ar    
   28   13   14 1     
   29   13   26 ar    
   30   14   25 1     
   31   14   15 1     
   32   15   16 1     
   33   15   42 1     
   34   15   43 1     
   35   16   17 1     
   36   16   44 1     
   37   16   45 1     
   38   17   18 1     
   39   18   19 1     
   40   18   25 1     
   41   18   46 1     
   42   19   20 1     
   43   19   47 1     
   44   19   48 1     
   45   20   21 1     
   46   21   22 1     
   47   21   49 1     
   48   21   50 1     
   49   22   24 1     
   50   22   23 1     
   51   22   51 1     
   52   23   24 1     
   53   23   52 1     
   54   23   53 1     
   55   24   54 1     
   56   24   55 1     
   57   25   56 1     
   58   25   57 1     
   59   26   27 ar    
   60   27   28 ar    
   61   27   58 1     
   62   28   29 ar    
   63    3   59 1     
   64    3   60 1     
   65    7   61 1     
   66    7   62 1     
   67   11   63 1     
   68   14   64 1     
   69   17   65 1     
   70   17   66 1     
   71   20   67 1     
   72   20   68 1     
   73   26   69 1     
   74   28   70 1     
@<TRIPOS>SUBSTRUCTURE
      1 S1             1
@<TRIPOS>SET
LONE_PAIRS      STATIC     ATOMS    <user>   **** ""
12 59 60 61 62 63 64 65 66 67 68 69 70
DONOR_HYDROGENS      STATIC     ATOMS    <user>   **** ""
1 38
ATOM$BLUE        STATIC     ATOMS    COLORGROUP SYSTEM
12 59 60 61 62 63 64 65 66 67 68 69 70
ATOM$RED        STATIC     ATOMS    COLORGROUP SYSTEM
1 38
