AV-unprocessed.smi:3344|AV-procd|sdf|12897|dock3
  -GOLD-   2272019303D 1   1.00000     0.00000
 Structure written by MMmdl.
 43 44  0  0  0  0  0  0  0  0  2 V2000
  149.1406  140.9285  154.3920 C   0  0  0  0  0  0  0  0  0  0  0  0
  149.1925  139.4614  153.9186 C   0  0  2  0  0  0  0  0  0  0  0  0
  147.9617  138.6454  154.3507 C   0  0  0  0  0  0  0  0  0  0  0  0
  147.6197  138.5938  155.5328 O   0  0  0  0  0  0  0  0  0  0  0  0
  147.2919  138.0150  153.3735 N   0  0  0  0  0  0  0  0  0  0  0  0
  146.1009  137.2035  153.5832 C   0  0  0  0  0  0  0  0  0  0  0  0
  146.4829  135.7268  153.7831 C   0  0  0  0  0  0  0  0  0  0  0  0
  146.5194  134.9588  152.5089 N   0  3  0  0  0  0  0  0  0  0  0  0
  145.4853  135.4191  151.5398 C   0  0  0  0  0  0  0  0  0  0  0  0
  144.1062  134.7527  151.7065 C   0  0  0  0  0  0  0  0  0  0  0  0
  143.9567  133.4827  150.8540 C   0  0  0  0  0  0  0  0  0  0  0  0
  144.8017  132.2984  151.3404 C   0  0  0  0  0  0  0  0  0  0  0  0
  146.2996  132.6118  151.4934 C   0  0  0  0  0  0  0  0  0  0  0  0
  146.6079  133.4852  152.7254 C   0  0  0  0  0  0  0  0  0  0  0  0
  150.4216  138.7981  154.3373 N   0  0  0  0  0  0  0  0  0  0  0  0
  150.7193  137.4981  154.3937 C   0  0  0  0  0  0  0  0  0  0  0  0
  151.9313  137.2427  154.8658 N   0  0  0  0  0  0  0  0  0  0  0  0
  152.3575  138.5189  155.1024 C   0  0  0  0  0  0  0  0  0  0  0  0
  151.4876  139.4872  154.8157 N   0  0  0  0  0  0  0  0  0  0  0  0
  148.2477  141.4321  154.0199 H   0  0  0  0  0  0  0  0  0  0  0  0
  150.0036  141.4849  154.0251 H   0  0  0  0  0  0  0  0  0  0  0  0
  149.1363  141.0079  155.4800 H   0  0  0  0  0  0  0  0  0  0  0  0
  149.1937  139.4763  152.8275 H   0  0  0  0  0  0  0  0  0  0  0  0
  147.6305  138.1058  152.4265 H   0  0  0  0  0  0  0  0  0  0  0  0
  145.5550  137.5678  154.4552 H   0  0  0  0  0  0  0  0  0  0  0  0
  145.4516  137.3282  152.7161 H   0  0  0  0  0  0  0  0  0  0  0  0
  147.4473  135.6465  154.2872 H   0  0  0  0  0  0  0  0  0  0  0  0
  145.7461  135.2814  154.4534 H   0  0  0  0  0  0  0  0  0  0  0  0
  145.3732  136.5012  151.6171 H   0  0  0  0  0  0  0  0  0  0  0  0
  145.8568  135.2576  150.5273 H   0  0  0  0  0  0  0  0  0  0  0  0
  143.8799  134.5554  152.7549 H   0  0  0  0  0  0  0  0  0  0  0  0
  143.3484  135.4614  151.3701 H   0  0  0  0  0  0  0  0  0  0  0  0
  142.9088  133.1809  150.8478 H   0  0  0  0  0  0  0  0  0  0  0  0
  144.2056  133.7072  149.8159 H   0  0  0  0  0  0  0  0  0  0  0  0
  144.4050  131.9283  152.2865 H   0  0  0  0  0  0  0  0  0  0  0  0
  144.6836  131.4787  150.6310 H   0  0  0  0  0  0  0  0  0  0  0  0
  146.8132  131.6594  151.6295 H   0  0  0  0  0  0  0  0  0  0  0  0
  146.7171  133.0377  150.5803 H   0  0  0  0  0  0  0  0  0  0  0  0
  147.6271  133.2661  153.0439 H   0  0  0  0  0  0  0  0  0  0  0  0
  145.9639  133.1884  153.5546 H   0  0  0  0  0  0  0  0  0  0  0  0
  150.0340  136.7215  154.0870 H   0  0  0  0  0  0  0  0  0  0  0  0
  153.3347  138.7406  155.5055 H   0  0  0  0  0  0  0  0  0  0  0  0
  147.3927  135.2188  152.0729 H   0  0  0  0  0  0  0  0  0  0  0  0
  1  2  1  0  0  0  0
  1 20  1  0  0  0  0
  1 21  1  0  0  0  0
  1 22  1  0  0  0  0
  2  3  1  0  0  0  0
  2 15  1  0  0  0  0
  2 23  1  0  0  0  0
  3  4  2  0  0  0  0
  3  5  1  0  0  0  0
  5  6  1  0  0  0  0
  5 24  1  0  0  0  0
  6  7  1  0  0  0  0
  6 25  1  0  0  0  0
  6 26  1  0  0  0  0
  7  8  1  0  0  0  0
  7 27  1  0  0  0  0
  7 28  1  0  0  0  0
  8 14  1  0  0  0  0
  8  9  1  0  0  0  0
  8 43  1  0  0  0  0
  9 10  1  0  0  0  0
  9 29  1  0  0  0  0
  9 30  1  0  0  0  0
 10 11  1  0  0  0  0
 10 31  1  0  0  0  0
 10 32  1  0  0  0  0
 11 12  1  0  0  0  0
 11 33  1  0  0  0  0
 11 34  1  0  0  0  0
 12 13  1  0  0  0  0
 12 35  1  0  0  0  0
 12 36  1  0  0  0  0
 13 14  1  0  0  0  0
 13 37  1  0  0  0  0
 13 38  1  0  0  0  0
 14 39  1  0  0  0  0
 14 40  1  0  0  0  0
 15 19  1  0  0  0  0
 15 16  1  0  0  0  0
 16 17  2  0  0  0  0
 16 41  1  0  0  0  0
 17 18  1  0  0  0  0
 18 19  2  0  0  0  0
 18 42  1  0  0  0  0
M  CHG  1   8   1
M  END
> <s_m_source_file>
AV-unprocessed.smi

> <i_m_source_file_index>
3344

> <i_lp_mmshare_version>
43012

> <i_f3d_flags>
0

> <s_epik_input>
bjFbY0hdbltjSF1uMVtDQEhdKFtDSDNdKUMoPU8pW05IXVtDSDJdW0NIMl1OMltDSDJdW0NIMl1bQ0gyXVtDSDJdW0NIMl1bQ0gyXTI=

> <s_epik_cmdline>
J2VwaWtfcHl0aG9uJywgJy1waCcsICc3LjAnLCAnLXRuJywgJzgnLCAnLW1hJywgJzIwMCcsICctbWV0YWxfYmluZGluZycsICctaW1hZScsICc8aW5maWxlLm1hZT4nLCAnLW9tYWUnLCAnPG91dGZpbGUubWFlPic=

> <r_lp_tautomer_probability>
1

> <r_epik_Ionization_Penalty>
0.00266407

> <r_epik_Ionization_Penalty_Charging>
0.00265606

> <r_epik_Ionization_Penalty_Neutral>
8.01095e-06

> <r_epik_State_Penalty>
0.00184955

> <r_epik_Charging_Adjusted_Penalty>
0.00450561

> <i_epik_Tot_Q>
1

> <i_epik_Tot_abs_Q>
1

> <r_epik_Metal_State_Penalty>
-0

> <b_epik_Metal_Only>
0

> <s_lp_Force_Field>
OPLS_2005

> <r_lp_Energy>
29.261

> <b_lp_Chiralities_Consistent>
1

> <s_lp_Variant>
AV-unprocessed.smi:3344-1

> <Gold.Version>
5.8.1

> <Gold.Id.Protein>
6NUR|6NUR_protein|mol2

> <Gold.PLP.Fitness>
46.1903

> <Gold.PLP.PLP>
-33.5657

> <Gold.PLP.part.hbond>
-4.0000

> <Gold.PLP.part.metal>
0.0000

> <Gold.PLP.part.buried>
-2.6635

> <Gold.PLP.part.nonpolar>
-27.6830

> <Gold.PLP.part.repulsive>
0.1991

> <Gold.PLP.ligand.clash>
0.0000

> <Gold.PLP.ligand.torsion>
1.2244

> <Gold.PLP.Chemscore.Hbond>
3.9619

> <Gold.PLP.Chemscore.CHOScore>
1.0050

> <Gold.PLP.Chemscore.Metal>
0.0000

> <Gold.Chemscore.Hbonds>
donor molecule, donor type, donor heavy atom, donor atom, acceptor molecule, acceptor atom, score
      L1  H     5    24       P1  7948  0.05
      L1  H     8    43       P1  7948  2.00
      P1  H  7989  7998       L1    19  1.00
      P1  H 10752 10765       L1    17  0.94
      L1  C    16    41       P1  7948  1.00

> <Gold.PLP.Chemscore.Internal.Correction>
0.1727

> <Gold.Rescore>
     Score         DG    S(hbond)    S(metal)    S(lipo)     H(rot)  DE(clash)    DE(int)     intcor
     11.58     -12.51       2.12        0.00      55.19       2.54       0.00       0.93       ----

> <Gold.Chemscore.Fitness>
11.5820

> <Gold.Chemscore.DG>
-12.5114

> <Gold.Chemscore.ZeroCoef>
-5.4800

> <Gold.Chemscore.Hbond>
2.1171

> <Gold.Chemscore.Metal>
0.0000

> <Gold.Chemscore.Lipo>
55.1860

> <Gold.Chemscore.Internal_Hbond>
0.0000

> <Gold.Chemscore.DEClash>
0.0038

> <Gold.Chemscore.DEInternal>
0.9256

> <Gold.Chemscore.Rot>
2.5377

> <Gold.Chemscore.Internal.Correction>
   9.000000E+99

> <Gold.Chemscore.Hbonds>
donor molecule, donor type, donor heavy atom, donor atom, acceptor molecule, acceptor atom, score
      L1  H     5    24       P1  7948  0.05
      L1  H     8    43       P1  7948  0.98
      P1  H  7989  7998       L1    19  0.30
      P1  H 10752 10765       L1    17  0.91

> <Gold.Chemscore.Hbond.Weighted>
-7.0712

> <Gold.Chemscore.Metal.Weighted>
-0.0000

> <Gold.Chemscore.Lipo.Weighted>
-6.4568

> <Gold.Chemscore.Internal_Hbond.Weighted>
0.0000

> <Gold.Chemscore.DEClash.Weighted>
0.0038

> <Gold.Chemscore.DEInternal.Weighted>
0.9256

> <Gold.Chemscore.Rot.Weighted>
6.4966

> <Gold.Chemscore.Internal.Correction.Weighted>
   9.000000E+99

> <Gold.Protein.RotatedTorsions>
[ 6907 6896 6895 6894 ] final  -53.08 input  -60.11 | X-H torsion
[ 7974 7965 7964 7962 ] final  -99.49 input  175.53 | X-H torsion
[ 8008 7997 7996 7995 ] final -135.15 input   59.86 | X-H torsion
[ 10167 10162 10161 10158 ] final  -40.28 input  -65.29 | X-H torsion
[ 10718 10713 10712 10709 ] final  138.32 input   66.30 | X-H torsion
[ 10763 10752 10751 10750 ] final  173.40 input  -60.55 | X-H torsion
[ 11005 11000 10999 10996 ] final  -52.56 input  -57.11 | X-H torsion

> <Gold.Protein.ActiveResidues>
 VAL166  LYS551  ARG553  GLY616  TRP617  ASP618  TYR619  PRO620  LYS621  CYS622 
 ASP623  PHE694  ASN695  SER759  ASP760  ASP761  ALA762  ILE779  LEU786  VAL792 
 PHE793  MET794  SER795  GLU796  ALA797  LYS798  CYS799  TRP800  GLU811  SER814 

> <Gold.Protein.RotatedAtoms>
  150.8459  134.7767  159.6969 H   0  0  0  0  0  0  0  0  0  0  0  0  # atno 6907 bound_to 6896
  152.4536  134.5338  159.9828 H   0  0  0  0  0  0  0  0  0  0  0  0  # atno 6908 bound_to 6896
  151.5468  133.3386  159.2981 H   0  0  0  0  0  0  0  0  0  0  0  0  # atno 6909 bound_to 6896
  145.3069  140.9391  143.2792 H   0  0  0  0  0  0  0  0  0  0  0  0  # atno 7974 bound_to 7965
  155.3739  140.0490  157.3045 H   0  0  0  0  0  0  0  0  0  0  0  0  # atno 8008 bound_to 7997
  154.5116  140.2193  155.9108 H   0  0  0  0  0  0  0  0  0  0  0  0  # atno 8009 bound_to 7997
  156.1589  140.3120  155.8779 H   0  0  0  0  0  0  0  0  0  0  0  0  # atno 8010 bound_to 7997
  140.7039  143.3163  151.2902 H   0  0  0  0  0  0  0  0  0  0  0  0  # atno 10167 bound_to 10162
  157.4266  131.1044  151.0296 H   0  0  0  0  0  0  0  0  0  0  0  0  # atno 10718 bound_to 10713
  154.4396  135.2762  155.1857 H   0  0  0  0  0  0  0  0  0  0  0  0  # atno 10763 bound_to 10752
  154.3729  135.6104  153.5753 H   0  0  0  0  0  0  0  0  0  0  0  0  # atno 10764 bound_to 10752
  152.9840  135.5861  154.4721 H   0  0  0  0  0  0  0  0  0  0  0  0  # atno 10765 bound_to 10752
  141.0931  133.6629  156.4042 H   0  0  0  0  0  0  0  0  0  0  0  0  # atno 11005 bound_to 11000
  144.9048  139.4603  143.6615 LP  0  0  0  0  0  0  0  0  0  0  0  0  # atno 17320 bound_to 7965
  146.3132  139.7822  142.9004 LP  0  0  0  0  0  0  0  0  0  0  0  0  # atno 17321 bound_to 7965
  139.6603  144.0202  152.2687 LP  0  0  0  0  0  0  0  0  0  0  0  0  # atno 17342 bound_to 10162
  139.9767  144.6456  150.7938 LP  0  0  0  0  0  0  0  0  0  0  0  0  # atno 17343 bound_to 10162
  157.1207  130.6060  149.5504 LP  0  0  0  0  0  0  0  0  0  0  0  0  # atno 17370 bound_to 10713
  155.9898  130.4947  150.7232 LP  0  0  0  0  0  0  0  0  0  0  0  0  # atno 17371 bound_to 10713
  140.5206  134.6308  157.5316 LP  0  0  0  0  0  0  0  0  0  0  0  0  # atno 17394 bound_to 11000
  139.9761  134.7214  155.9948 LP  0  0  0  0  0  0  0  0  0  0  0  0  # atno 17395 bound_to 11000

$$$$
