AV-unprocessed.smi:1641|AV-procd|sdf|6569|dock2
  -GOLD-   22720 7253D 1   1.00000     0.00000
 Structure written by MMmdl.
 41 42  0  0  0  0  0  0  0  0  3 V2000
  146.7379  136.4202  163.3360 C   0  0  0  0  0  0  0  0  0  0  0  0
  147.4198  136.1340  162.0420 C   0  0  0  0  0  0  0  0  0  0  0  0
  147.7638  137.0899  161.1754 N   0  0  0  0  0  0  0  0  0  0  0  0
  148.3805  136.5733  160.0452 N   0  0  0  0  0  0  0  0  0  0  0  0
  148.5004  135.2383  160.0751 C   0  0  0  0  0  0  0  0  0  0  0  0
  149.0621  134.5440  159.0715 N   0  5  0  0  0  0  0  0  0  0  0  0
  148.7932  134.8714  157.7878 C   0  0  0  0  0  0  0  0  0  0  0  0
  147.6868  134.8597  157.2435 O   0  0  0  0  0  0  0  0  0  0  0  0
  149.8761  135.2343  157.0883 N   0  0  0  0  0  0  0  0  0  0  0  0
  149.8779  135.6157  155.6833 C   0  0  0  0  0  0  0  0  0  0  0  0
  149.1738  136.9685  155.4971 C   0  0  0  0  0  0  0  0  0  0  0  0
  149.5997  137.6549  154.2489 N   0  3  1  0  0  0  0  0  0  0  0  0
  148.8428  138.8991  153.9648 C   0  0  0  0  0  0  0  0  0  0  0  0
  149.3343  140.0677  154.8434 C   0  0  2  0  0  0  0  0  0  0  0  0
  148.6275  141.3845  154.5027 C   0  0  0  0  0  0  0  0  0  0  0  0
  150.7299  140.2496  154.6293 O   0  0  0  0  0  0  0  0  0  0  0  0
  151.4987  139.1099  154.9993 C   0  0  2  0  0  0  0  0  0  0  0  0
  152.9792  139.4513  154.7993 C   0  0  0  0  0  0  0  0  0  0  0  0
  151.0607  137.9017  154.1430 C   0  0  0  0  0  0  0  0  0  0  0  0
  147.8275  134.5048  161.5305 S   0  0  0  0  0  0  0  0  0  0  0  0
  146.8092  137.4804  163.5813 H   0  0  0  0  0  0  0  0  0  0  0  0
  147.2013  135.8453  164.1378 H   0  0  0  0  0  0  0  0  0  0  0  0
  145.6851  136.1456  163.2693 H   0  0  0  0  0  0  0  0  0  0  0  0
  150.7629  135.2337  157.5709 H   0  0  0  0  0  0  0  0  0  0  0  0
  150.9108  135.6593  155.3372 H   0  0  0  0  0  0  0  0  0  0  0  0
  149.3720  134.8458  155.0986 H   0  0  0  0  0  0  0  0  0  0  0  0
  148.0997  136.7821  155.4528 H   0  0  0  0  0  0  0  0  0  0  0  0
  149.3356  137.6076  156.3651 H   0  0  0  0  0  0  0  0  0  0  0  0
  148.9846  139.1499  152.9126 H   0  0  0  0  0  0  0  0  0  0  0  0
  147.7726  138.7344  154.0962 H   0  0  0  0  0  0  0  0  0  0  0  0
  149.1565  139.8455  155.8968 H   0  0  0  0  0  0  0  0  0  0  0  0
  147.5515  141.3051  154.6597 H   0  0  0  0  0  0  0  0  0  0  0  0
  148.7950  141.6663  153.4627 H   0  0  0  0  0  0  0  0  0  0  0  0
  148.9949  142.1967  155.1304 H   0  0  0  0  0  0  0  0  0  0  0  0
  151.3411  138.9014  156.0583 H   0  0  0  0  0  0  0  0  0  0  0  0
  153.6166  138.6131  155.0816 H   0  0  0  0  0  0  0  0  0  0  0  0
  153.2673  140.3070  155.4107 H   0  0  0  0  0  0  0  0  0  0  0  0
  153.1923  139.6992  153.7590 H   0  0  0  0  0  0  0  0  0  0  0  0
  151.6293  137.0126  154.4130 H   0  0  0  0  0  0  0  0  0  0  0  0
  151.2908  138.1000  153.0952 H   0  0  0  0  0  0  0  0  0  0  0  0
  149.3605  137.0130  153.5066 H   0  0  0  0  0  0  0  0  0  0  0  0
  1  2  1  0  0  0  0
  1 21  1  0  0  0  0
  1 22  1  0  0  0  0
  1 23  1  0  0  0  0
  2 20  1  0  0  0  0
  2  3  2  0  0  0  0
  3  4  1  0  0  0  0
  4  5  2  0  0  0  0
  5  6  1  0  0  0  0
  5 20  1  0  0  0  0
  6  7  1  0  0  0  0
  7  8  2  0  0  0  0
  7  9  1  0  0  0  0
  9 10  1  0  0  0  0
  9 24  1  0  0  0  0
 10 11  1  0  0  0  0
 10 25  1  0  0  0  0
 10 26  1  0  0  0  0
 11 12  1  0  0  0  0
 11 27  1  0  0  0  0
 11 28  1  0  0  0  0
 12 19  1  0  0  0  0
 12 13  1  0  0  0  0
 12 41  1  0  0  0  0
 13 14  1  0  0  0  0
 13 29  1  0  0  0  0
 13 30  1  0  0  0  0
 14 15  1  0  0  0  0
 14 16  1  0  0  0  0
 14 31  1  0  0  0  0
 15 32  1  0  0  0  0
 15 33  1  0  0  0  0
 15 34  1  0  0  0  0
 16 17  1  0  0  0  0
 17 18  1  0  0  0  0
 17 19  1  0  0  0  0
 17 35  1  0  0  0  0
 18 36  1  0  0  0  0
 18 37  1  0  0  0  0
 18 38  1  0  0  0  0
 19 39  1  0  0  0  0
 19 40  1  0  0  0  0
M  CHG  1   6  -1
M  CHG  1  12   1
M  END
> <s_m_source_file>
AV-unprocessed.smi

> <i_m_source_file_index>
1641

> <i_lp_mmshare_version>
43012

> <i_f3d_flags>
0

> <s_epik_input>
W0NIM11jMW5uYyhzMSlbTkhdQyg9TylbTkhdW0NIMl1bQ0gyXU4yW0NIMl1bQ0BASF0oW0NIM10pT1tDQEBIXShbQ0gzXSlbQ0gyXTI=

> <s_epik_cmdline>
J2VwaWtfcHl0aG9uJywgJy1waCcsICc3LjAnLCAnLXRuJywgJzgnLCAnLW1hJywgJzIwMCcsICctbWV0YWxfYmluZGluZycsICctaW1hZScsICc8aW5maWxlLm1hZT4nLCAnLW9tYWUnLCAnPG91dGZpbGUubWFlPic=

> <r_lp_tautomer_probability>
1

> <r_epik_Ionization_Penalty>
3.5343

> <r_epik_Ionization_Penalty_Charging>
3.42778

> <r_epik_Ionization_Penalty_Neutral>
0.106519

> <r_epik_State_Penalty>
3.62118

> <r_epik_Charging_Adjusted_Penalty>
7.04896

> <i_epik_Tot_Q>
0

> <i_epik_Tot_abs_Q>
2

> <r_epik_Metal_State_Penalty>
1.13984

> <b_epik_Metal_Only>
1

> <s_lp_Force_Field>
OPLS_2005

> <r_lp_Energy>
10.5073

> <b_lp_Chiralities_Consistent>
1

> <s_lp_Variant>
AV-unprocessed.smi:1641-14

> <Gold.Version>
5.8.1

> <Gold.Id.Protein>
6NUR|6NUR_protein|mol2

> <Gold.PLP.Fitness>
50.0844

> <Gold.PLP.PLP>
-32.4146

> <Gold.PLP.part.hbond>
-5.0000

> <Gold.PLP.part.metal>
0.0000

> <Gold.PLP.part.buried>
-2.1024

> <Gold.PLP.part.nonpolar>
-26.4197

> <Gold.PLP.part.repulsive>
0.1595

> <Gold.PLP.ligand.clash>
0.0000

> <Gold.PLP.ligand.torsion>
1.0771

> <Gold.PLP.Chemscore.Hbond>
6.5761

> <Gold.PLP.Chemscore.CHOScore>
0.0000

> <Gold.PLP.Chemscore.Metal>
0.0000

> <Gold.Chemscore.Hbonds>
donor molecule, donor type, donor heavy atom, donor atom, acceptor molecule, acceptor atom, score
      L1  H    12    41       P1  7948  2.00
      P1  H  6896  6909       L1     6  1.73
      P1  H  6931  6943       L1     3  1.00
      P1  H  6934  6947       L1     3  0.85
      P1  H  7989  7998       L1    16  1.00

> <Gold.PLP.Chemscore.Internal.Correction>
0.0956

> <Gold.Rescore>
     Score         DG    S(hbond)    S(metal)    S(lipo)     H(rot)  DE(clash)    DE(int)     intcor
     19.52     -21.90       3.31        0.00      81.00       1.61       1.16       1.21       ----

> <Gold.Chemscore.Fitness>
19.5227

> <Gold.Chemscore.DG>
-21.8966

> <Gold.Chemscore.ZeroCoef>
-5.4800

> <Gold.Chemscore.Hbond>
3.3094

> <Gold.Chemscore.Metal>
0.0000

> <Gold.Chemscore.Lipo>
80.9998

> <Gold.Chemscore.Internal_Hbond>
0.0000

> <Gold.Chemscore.DEClash>
1.1614

> <Gold.Chemscore.DEInternal>
1.2126

> <Gold.Chemscore.Rot>
1.6070

> <Gold.Chemscore.Internal.Correction>
   9.000000E+99

> <Gold.Chemscore.Hbonds>
donor molecule, donor type, donor heavy atom, donor atom, acceptor molecule, acceptor atom, score
      L1  H    12    41       P1  7948  0.96
      P1  H  6896  6909       L1     6  0.71
      P1  H  6931  6943       L1     3  0.35
      P1  H  6934  6947       L1     3  0.66
      P1  H  7989  7998       L1    16  0.29

> <Gold.Chemscore.Hbond.Weighted>
-11.0535

> <Gold.Chemscore.Metal.Weighted>
-0.0000

> <Gold.Chemscore.Lipo.Weighted>
-9.4770

> <Gold.Chemscore.Internal_Hbond.Weighted>
0.0000

> <Gold.Chemscore.DEClash.Weighted>
1.1614

> <Gold.Chemscore.DEInternal.Weighted>
1.2126

> <Gold.Chemscore.Rot.Weighted>
4.1139

> <Gold.Chemscore.Internal.Correction.Weighted>
   9.000000E+99

> <Gold.Protein.RotatedTorsions>
[ 6907 6896 6895 6894 ] final   12.12 input  -60.11 | X-H torsion
[ 7974 7965 7964 7962 ] final -156.23 input  175.53 | X-H torsion
[ 8008 7997 7996 7995 ] final   -8.17 input   59.86 | X-H torsion
[ 10167 10162 10161 10158 ] final  108.78 input  -65.29 | X-H torsion
[ 10718 10713 10712 10709 ] final   91.75 input   66.30 | X-H torsion
[ 10763 10752 10751 10750 ] final  106.99 input  -60.55 | X-H torsion
[ 11005 11000 10999 10996 ] final  166.71 input  -57.11 | X-H torsion

> <Gold.Protein.ActiveResidues>
 VAL166  LYS551  ARG553  GLY616  TRP617  ASP618  TYR619  PRO620  LYS621  CYS622 
 ASP623  PHE694  ASN695  SER759  ASP760  ASP761  ALA762  ILE779  LEU786  VAL792 
 PHE793  MET794  SER795  GLU796  ALA797  LYS798  CYS799  TRP800  GLU811  SER814 

> <Gold.Protein.RotatedAtoms>
  151.7653  135.0800  160.0351 H   0  0  0  0  0  0  0  0  0  0  0  0  # atno 6907 bound_to 6896
  152.3326  133.5971  159.5828 H   0  0  0  0  0  0  0  0  0  0  0  0  # atno 6908 bound_to 6896
  150.7431  133.9761  159.3603 H   0  0  0  0  0  0  0  0  0  0  0  0  # atno 6909 bound_to 6896
  144.7603  140.4139  143.5982 H   0  0  0  0  0  0  0  0  0  0  0  0  # atno 7974 bound_to 7965
  154.5767  140.2388  155.8112 H   0  0  0  0  0  0  0  0  0  0  0  0  # atno 8008 bound_to 7997
  156.2149  140.3015  155.9773 H   0  0  0  0  0  0  0  0  0  0  0  0  # atno 8009 bound_to 7997
  155.2614  140.0414  157.2988 H   0  0  0  0  0  0  0  0  0  0  0  0  # atno 8010 bound_to 7997
  139.6819  144.7117  151.1501 H   0  0  0  0  0  0  0  0  0  0  0  0  # atno 10167 bound_to 10162
  157.6960  131.0418  150.3777 H   0  0  0  0  0  0  0  0  0  0  0  0  # atno 10718 bound_to 10713
  153.4005  135.3859  155.1984 H   0  0  0  0  0  0  0  0  0  0  0  0  # atno 10763 bound_to 10752
  154.8729  135.3770  154.4625 H   0  0  0  0  0  0  0  0  0  0  0  0  # atno 10764 bound_to 10752
  153.5121  135.7087  153.5837 H   0  0  0  0  0  0  0  0  0  0  0  0  # atno 10765 bound_to 10752
  140.2692  134.7840  157.3660 H   0  0  0  0  0  0  0  0  0  0  0  0  # atno 11005 bound_to 11000
  145.6642  139.1587  143.2791 LP  0  0  0  0  0  0  0  0  0  0  0  0  # atno 17320 bound_to 7965
  146.1658  140.6720  142.9256 LP  0  0  0  0  0  0  0  0  0  0  0  0  # atno 17321 bound_to 7965
  140.7655  143.5687  150.9019 LP  0  0  0  0  0  0  0  0  0  0  0  0  # atno 17342 bound_to 10162
  139.9359  143.6438  152.3065 LP  0  0  0  0  0  0  0  0  0  0  0  0  # atno 17343 bound_to 10162
  156.4194  130.3950  149.6835 LP  0  0  0  0  0  0  0  0  0  0  0  0  # atno 17370 bound_to 10713
  156.4092  130.7713  151.2725 LP  0  0  0  0  0  0  0  0  0  0  0  0  # atno 17371 bound_to 10713
  140.1389  134.4997  155.8047 LP  0  0  0  0  0  0  0  0  0  0  0  0  # atno 17394 bound_to 11000
  141.2180  133.6818  156.7175 LP  0  0  0  0  0  0  0  0  0  0  0  0  # atno 17395 bound_to 11000

$$$$
