AV-unprocessed.smi:2226|AV-procd|sdf|9001|dock1
  -GOLD-   2272012213D 1   1.00000     0.00000
 Structure written by MMmdl.
 40 42  0  0  0  0  0  0  0  0  2 V2000
  142.5734  133.0758  151.6745 C   0  0  0  0  0  0  0  0  0  0  0  0
  143.6198  133.6272  152.5682 N   0  3  2  0  0  0  0  0  0  0  0  0
  143.4968  135.0775  152.8492 C   0  0  2  0  0  0  0  0  0  0  0  0
  143.8334  135.9277  151.5984 C   0  0  0  0  0  0  0  0  0  0  0  0
  145.1756  135.5697  150.9346 C   0  0  0  0  0  0  0  0  0  0  0  0
  145.4255  134.0521  150.8840 C   0  0  0  0  0  0  0  0  0  0  0  0
  145.0111  133.3013  152.1737 C   0  0  1  0  0  0  0  0  0  0  0  0
  145.9450  133.5173  153.3871 C   0  0  0  0  0  0  0  0  0  0  0  0
  145.7604  134.8566  154.1547 C   0  0  1  0  0  0  0  0  0  0  0  0
  146.7397  135.8757  153.7835 N   0  0  0  0  0  0  0  0  0  0  0  0
  146.7670  137.1383  154.2358 C   0  0  0  0  0  0  0  0  0  0  0  0
  145.9550  137.5874  155.0451 O   0  0  0  0  0  0  0  0  0  0  0  0
  147.7838  137.8282  153.6932 N   0  0  0  0  0  0  0  0  0  0  0  0
  148.1434  139.1757  153.9464 C   0  0  0  0  0  0  0  0  0  0  0  0
  149.1618  139.5986  154.6968 N   0  0  0  0  0  0  0  0  0  0  0  0
  149.0945  140.9826  154.6284 C   0  0  0  0  0  0  0  0  0  0  0  0
  148.0301  141.3203  153.8327 C   0  0  0  0  0  0  0  0  0  0  0  0
  147.4155  140.1798  153.3904 O   0  0  0  0  0  0  0  0  0  0  0  0
  144.3154  135.4162  154.1169 C   0  0  0  0  0  0  0  0  0  0  0  0
  142.6171  133.5018  150.6726 H   0  0  0  0  0  0  0  0  0  0  0  0
  141.5825  133.2753  152.0830 H   0  0  0  0  0  0  0  0  0  0  0  0
  142.6804  131.9943  151.5863 H   0  0  0  0  0  0  0  0  0  0  0  0
  142.4541  135.2797  153.0984 H   0  0  0  0  0  0  0  0  0  0  0  0
  143.0413  135.7931  150.8615 H   0  0  0  0  0  0  0  0  0  0  0  0
  143.8164  136.9888  151.8491 H   0  0  0  0  0  0  0  0  0  0  0  0
  145.1997  135.9754  149.9227 H   0  0  0  0  0  0  0  0  0  0  0  0
  145.9941  136.0675  151.4429 H   0  0  0  0  0  0  0  0  0  0  0  0
  144.8671  133.6395  150.0433 H   0  0  0  0  0  0  0  0  0  0  0  0
  146.4743  133.8579  150.6569 H   0  0  0  0  0  0  0  0  0  0  0  0
  145.0499  132.2349  151.9461 H   0  0  0  0  0  0  0  0  0  0  0  0
  145.7325  132.7150  154.0952 H   0  0  0  0  0  0  0  0  0  0  0  0
  146.9847  133.3626  153.0966 H   0  0  0  0  0  0  0  0  0  0  0  0
  145.9706  134.6472  155.2057 H   0  0  0  0  0  0  0  0  0  0  0  0
  147.4485  135.5998  153.1197 H   0  0  0  0  0  0  0  0  0  0  0  0
  148.3666  137.3388  153.0304 H   0  0  0  0  0  0  0  0  0  0  0  0
  149.8025  141.6131  155.1458 H   0  0  0  0  0  0  0  0  0  0  0  0
  147.6067  142.2583  153.5057 H   0  0  0  0  0  0  0  0  0  0  0  0
  144.3077  136.4914  154.3025 H   0  0  0  0  0  0  0  0  0  0  0  0
  143.7814  134.9811  154.9633 H   0  0  0  0  0  0  0  0  0  0  0  0
  143.4706  133.1628  153.4526 H   0  0  0  0  0  0  0  0  0  0  0  0
  1  2  1  0  0  0  0
  1 20  1  0  0  0  0
  1 21  1  0  0  0  0
  1 22  1  0  0  0  0
  2  7  1  0  0  0  0
  2  3  1  0  0  0  0
  2 40  1  0  0  0  0
  3 19  1  0  0  0  0
  3  4  1  0  0  0  0
  3 23  1  0  0  0  0
  4  5  1  0  0  0  0
  4 24  1  0  0  0  0
  4 25  1  0  0  0  0
  5  6  1  0  0  0  0
  5 26  1  0  0  0  0
  5 27  1  0  0  0  0
  6  7  1  0  0  0  0
  6 28  1  0  0  0  0
  6 29  1  0  0  0  0
  7  8  1  0  0  0  0
  7 30  1  0  0  0  0
  8  9  1  0  0  0  0
  8 31  1  0  0  0  0
  8 32  1  0  0  0  0
  9 10  1  0  0  0  0
  9 19  1  0  0  0  0
  9 33  1  0  0  0  0
 10 11  1  0  0  0  0
 10 34  1  0  0  0  0
 11 12  2  0  0  0  0
 11 13  1  0  0  0  0
 13 14  1  0  0  0  0
 13 35  1  0  0  0  0
 14 18  1  0  0  0  0
 14 15  2  0  0  0  0
 15 16  1  0  0  0  0
 16 17  2  0  0  0  0
 16 36  1  0  0  0  0
 17 18  1  0  0  0  0
 17 37  1  0  0  0  0
 19 38  1  0  0  0  0
 19 39  1  0  0  0  0
M  CHG  1   2   1
M  END
> <s_m_source_file>
AV-unprocessed.smi

> <i_m_source_file_index>
2226

> <i_lp_mmshare_version>
43012

> <i_f3d_flags>
0

> <s_epik_input>
W0NIMl0xW0NIMl1bQ0gyXVtDQEhdKE4oW0NIM10pW0NIXTEyKVtDSDJdW0NASF0oW0NIMl0yKVtOSF1DKD1PKVtOSF1jM25bY0hdW2NIXW8z

> <s_epik_cmdline>
J2VwaWtfcHl0aG9uJywgJy1waCcsICc3LjAnLCAnLXRuJywgJzgnLCAnLW1hJywgJzIwMCcsICctbWV0YWxfYmluZGluZycsICctaW1hZScsICc8aW5maWxlLm1hZT4nLCAnLW9tYWUnLCAnPG91dGZpbGUubWFlPic=

> <r_lp_tautomer_probability>
0.785861

> <r_epik_Ionization_Penalty>
0.000929358

> <r_epik_Ionization_Penalty_Charging>
0.000890041

> <r_epik_Ionization_Penalty_Neutral>
3.93161e-05

> <r_epik_State_Penalty>
0.0312137

> <r_epik_Charging_Adjusted_Penalty>
0.0321037

> <i_epik_Tot_Q>
1

> <i_epik_Tot_abs_Q>
1

> <r_epik_Metal_State_Penalty>
0.0605703

> <b_epik_Metal_Only>
0

> <s_lp_Force_Field>
OPLS_2005

> <r_lp_Energy>
36.0435

> <b_lp_Chiralities_Consistent>
1

> <s_lp_Variant>
AV-unprocessed.smi:2226-1

> <Gold.Version>
5.8.1

> <Gold.Id.Protein>
6NUR|6NUR_protein|mol2

> <Gold.PLP.Fitness>
33.1941

> <Gold.PLP.PLP>
-23.0629

> <Gold.PLP.part.hbond>
-3.0000

> <Gold.PLP.part.metal>
0.0000

> <Gold.PLP.part.buried>
-3.5678

> <Gold.PLP.part.nonpolar>
-19.4480

> <Gold.PLP.part.repulsive>
0.3387

> <Gold.PLP.ligand.clash>
0.0000

> <Gold.PLP.ligand.torsion>
0.8031

> <Gold.PLP.Chemscore.Hbond>
3.8940

> <Gold.PLP.Chemscore.CHOScore>
0.0000

> <Gold.PLP.Chemscore.Metal>
0.0000

> <Gold.Chemscore.Hbonds>
donor molecule, donor type, donor heavy atom, donor atom, acceptor molecule, acceptor atom, score
      L1  H     2    40       P1 10957  1.72
      L1  H    10    34       P1  7948  0.91
      L1  H    13    35       P1  7948  1.00

> <Gold.PLP.Chemscore.Internal.Correction>
0.0553

> <Gold.Rescore>
     Score         DG    S(hbond)    S(metal)    S(lipo)     H(rot)  DE(clash)    DE(int)     intcor
     16.15     -17.91       2.73        0.00      50.28       1.00       0.01       1.74       ----

> <Gold.Chemscore.Fitness>
16.1520

> <Gold.Chemscore.DG>
-17.9064

> <Gold.Chemscore.ZeroCoef>
-5.4800

> <Gold.Chemscore.Hbond>
2.7255

> <Gold.Chemscore.Metal>
0.0000

> <Gold.Chemscore.Lipo>
50.2845

> <Gold.Chemscore.Internal_Hbond>
0.0000

> <Gold.Chemscore.DEClash>
0.0108

> <Gold.Chemscore.DEInternal>
1.7435

> <Gold.Chemscore.Rot>
1.0000

> <Gold.Chemscore.Internal.Correction>
   9.000000E+99

> <Gold.Chemscore.Hbonds>
donor molecule, donor type, donor heavy atom, donor atom, acceptor molecule, acceptor atom, score
      L1  H     2    40       P1 10957  0.77
      L1  H    10    34       P1  7948  0.82
      L1  H    13    35       P1  7948  1.00

> <Gold.Chemscore.Hbond.Weighted>
-9.1031

> <Gold.Chemscore.Metal.Weighted>
-0.0000

> <Gold.Chemscore.Lipo.Weighted>
-5.8833

> <Gold.Chemscore.Internal_Hbond.Weighted>
0.0000

> <Gold.Chemscore.DEClash.Weighted>
0.0108

> <Gold.Chemscore.DEInternal.Weighted>
1.7435

> <Gold.Chemscore.Rot.Weighted>
2.5600

> <Gold.Chemscore.Internal.Correction.Weighted>
   9.000000E+99

> <Gold.Protein.RotatedTorsions>
[ 6907 6896 6895 6894 ] final  122.65 input  -60.11 | X-H torsion
[ 7974 7965 7964 7962 ] final   42.64 input  175.53 | X-H torsion
[ 8008 7997 7996 7995 ] final -117.16 input   59.86 | X-H torsion
[ 10167 10162 10161 10158 ] final -144.11 input  -65.29 | X-H torsion
[ 10718 10713 10712 10709 ] final -144.88 input   66.30 | X-H torsion
[ 10763 10752 10751 10750 ] final  108.27 input  -60.55 | X-H torsion
[ 11005 11000 10999 10996 ] final  143.14 input  -57.11 | X-H torsion

> <Gold.Protein.ActiveResidues>
 VAL166  LYS551  ARG553  GLY616  TRP617  ASP618  TYR619  PRO620  LYS621  CYS622 
 ASP623  PHE694  ASN695  SER759  ASP760  ASP761  ALA762  ILE779  LEU786  VAL792 
 PHE793  MET794  SER795  GLU796  ALA797  LYS798  CYS799  TRP800  GLU811  SER814 

> <Gold.Protein.RotatedAtoms>
  152.4226  133.7141  159.6495 H   0  0  0  0  0  0  0  0  0  0  0  0  # atno 6907 bound_to 6896
  150.8102  133.8425  159.3192 H   0  0  0  0  0  0  0  0  0  0  0  0  # atno 6908 bound_to 6896
  151.6138  135.1040  160.0138 H   0  0  0  0  0  0  0  0  0  0  0  0  # atno 6909 bound_to 6896
  146.0723  139.5277  142.9590 H   0  0  0  0  0  0  0  0  0  0  0  0  # atno 7974 bound_to 7965
  155.0794  140.0394  157.2634 H   0  0  0  0  0  0  0  0  0  0  0  0  # atno 8008 bound_to 7997
  154.6919  140.2655  155.6779 H   0  0  0  0  0  0  0  0  0  0  0  0  # atno 8009 bound_to 7997
  156.2731  140.2758  156.1500 H   0  0  0  0  0  0  0  0  0  0  0  0  # atno 8010 bound_to 7997
  139.7930  143.7940  152.2651 H   0  0  0  0  0  0  0  0  0  0  0  0  # atno 10167 bound_to 10162
  156.3756  130.7810  151.1996 H   0  0  0  0  0  0  0  0  0  0  0  0  # atno 10718 bound_to 10713
  153.4183  135.3817  155.2095 H   0  0  0  0  0  0  0  0  0  0  0  0  # atno 10763 bound_to 10752
  154.8743  135.3811  154.4415 H   0  0  0  0  0  0  0  0  0  0  0  0  # atno 10764 bound_to 10752
  153.4932  135.7088  153.5935 H   0  0  0  0  0  0  0  0  0  0  0  0  # atno 10765 bound_to 10752
  140.0531  134.9245  157.1051 H   0  0  0  0  0  0  0  0  0  0  0  0  # atno 11005 bound_to 11000
  145.6369  141.0292  143.1832 LP  0  0  0  0  0  0  0  0  0  0  0  0  # atno 17320 bound_to 7965
  144.7239  139.7938  143.7372 LP  0  0  0  0  0  0  0  0  0  0  0  0  # atno 17321 bound_to 7965
  139.8037  144.7364  150.9791 LP  0  0  0  0  0  0  0  0  0  0  0  0  # atno 17342 bound_to 10162
  140.7820  143.4320  151.0681 LP  0  0  0  0  0  0  0  0  0  0  0  0  # atno 17343 bound_to 10162
  157.7488  131.0359  150.4386 LP  0  0  0  0  0  0  0  0  0  0  0  0  # atno 17370 bound_to 10713
  156.4620  130.4034  149.6570 LP  0  0  0  0  0  0  0  0  0  0  0  0  # atno 17371 bound_to 10713
  140.3887  134.2208  155.7167 LP  0  0  0  0  0  0  0  0  0  0  0  0  # atno 17394 bound_to 11000
  141.1939  133.8140  157.0778 LP  0  0  0  0  0  0  0  0  0  0  0  0  # atno 17395 bound_to 11000

$$$$
