#       Name:                AV-unprocessed.smi:3156
#       Creating user name   scv26
#       Creation time:       Fri Mar 27 17:44:53 2020


#       File generated by GOLD software.
#

@<TRIPOS>MOLECULE
AV-unprocessed.smi:3156
    44    45     1
SMALL
NO_CHARGES


@<TRIPOS>ATOM
      1 ****        -1.9632  -1.1800   1.9359 C.3            1 S1                 0.0000
      2 ****        -1.4192  -0.4602   0.6885 C.3            1 S1                 0.0000
      3 ****         0.0588  -0.4375   0.7595 N.4            1 S1                 1.0000
      4 ****         0.6670   0.9044   0.6480 C.3            1 S1                 0.0000
      5 ****         2.1983   0.8120   0.6192 C.3            1 S1                 0.0000
      6 ****         2.8609   2.2023   0.6762 C.3            1 S1                 0.0000
      7 ****         4.3831   2.0788   0.5438 C.3            1 S1                 0.0000
      8 ****         4.7269   1.2722  -0.7128 C.3            1 S1                 0.0000
      9 ****         3.9718  -0.0660  -0.7108 C.3            1 S1                 0.0000
     10 ****         2.5713   0.1684  -0.5979 O.3            1 S1                 0.0000
     11 ****        -1.8853  -1.1077  -0.6424 C.3            1 S1                 0.0000
     12 ****        -1.4576  -0.3073  -1.8865 C.3            1 S1                 0.0000
     13 ****        -3.3271  -1.3204  -0.6630 N.pl3          1 S1                 0.0000
     14 ****        -4.3394  -0.3810  -0.6838 C.2            1 S1                 0.0000
     15 ****        -5.5249  -1.0581  -0.6827 C.2            1 S1                 0.0000
     16 ****        -5.1330  -2.4254  -0.6553 C.2            1 S1                 0.0000
     17 ****        -3.8188  -2.5788  -0.6425 N.2            1 S1                 0.0000
     18 ****        -3.0506  -1.1301   1.9924 H              1 S1                 0.0000
     19 ****        -1.5769  -0.7261   2.8493 H              1 S1                 0.0000
     20 ****        -1.6773  -2.2325   1.9416 H              1 S1                 0.0000
     21 ****        -1.7943   0.5644   0.7253 H              1 S1                 0.0000
     22 ****         0.3413  -0.8380   1.6427 H              1 S1                 0.0000
     23 ****         0.3058   1.4069  -0.2503 H              1 S1                 0.0000
     24 ****         0.3444   1.5017   1.5019 H              1 S1                 0.0000
     25 ****         2.5374   0.2144   1.4676 H              1 S1                 0.0000
     26 ****         2.4754   2.8286  -0.1295 H              1 S1                 0.0000
     27 ****         2.6089   2.7050   1.6104 H              1 S1                 0.0000
     28 ****         4.8442   3.0659   0.5010 H              1 S1                 0.0000
     29 ****         4.7900   1.5800   1.4245 H              1 S1                 0.0000
     30 ****         4.4530   1.8427  -1.6011 H              1 S1                 0.0000
     31 ****         5.8021   1.1010  -0.7702 H              1 S1                 0.0000
     32 ****         4.1645  -0.6059  -1.6380 H              1 S1                 0.0000
     33 ****         4.3115  -0.7046   0.1061 H              1 S1                 0.0000
     34 ****        -1.4136  -2.0900  -0.7155 H              1 S1                 0.0000
     35 ****        -0.3726  -0.2583  -1.9769 H              1 S1                 0.0000
     36 ****        -1.8355   0.7151  -1.8557 H              1 S1                 0.0000
     37 ****        -1.8334  -0.7728  -2.7983 H              1 S1                 0.0000
     38 ****        -4.1352   0.6796  -0.6960 H              1 S1                 0.0000
     39 ****        -6.5209  -0.6407  -0.6973 H              1 S1                 0.0000
     40 ****        -5.7601  -3.3047  -0.6428 H              1 S1                 0.0000
     41 ****         0.4208  -1.0187   0.0164 H              1 S1                 0.0000
     42 ****         2.2845   0.7460  -1.3622 LP             1 S1                 0.0000
     43 ****         2.0981  -0.7110  -0.6488 LP             1 S1                 0.0000
     44 ****        -3.3038  -3.4357  -0.6222 LP             1 S1                 0.0000
@<TRIPOS>BOND
    1    1    2 1     
    2    1   18 1     
    3    1   19 1     
    4    1   20 1     
    5    2    3 1     
    6    2   11 1     
    7    2   21 1     
    8    3    4 1     
    9    3   22 1     
   10    3   41 1     
   11    4    5 1     
   12    4   23 1     
   13    4   24 1     
   14    5   10 1     
   15    5    6 1     
   16    5   25 1     
   17    6    7 1     
   18    6   26 1     
   19    6   27 1     
   20    7    8 1     
   21    7   28 1     
   22    7   29 1     
   23    8    9 1     
   24    8   30 1     
   25    8   31 1     
   26    9   10 1     
   27    9   32 1     
   28    9   33 1     
   29   11   12 1     
   30   11   13 1     
   31   11   34 1     
   32   12   35 1     
   33   12   36 1     
   34   12   37 1     
   35   13   17 1     
   36   13   14 1     
   37   14   15 2     
   38   14   38 1     
   39   15   16 1     
   40   15   39 1     
   41   16   17 2     
   42   16   40 1     
   43   10   42 1     
   44   10   43 1     
   45   17   44 1     
@<TRIPOS>SUBSTRUCTURE
      1 S1             1
@<TRIPOS>SET
LONE_PAIRS      STATIC     ATOMS    <user>   **** ""
3 42 43 44
DONOR_HYDROGENS      STATIC     ATOMS    <user>   **** ""
2 22 41
ATOM$BLUE        STATIC     ATOMS    COLORGROUP SYSTEM
3 42 43 44
ATOM$RED        STATIC     ATOMS    COLORGROUP SYSTEM
2 22 41
