AV-unprocessed.smi:2002|AV-procd|sdf|8116|dock3
  -GOLD-   2272010343D 1   1.00000     0.00000
 Structure written by MMmdl.
 39 40  0  0  0  0  0  0  0  0  2 V2000
  143.8377  131.8268  150.5652 C   0  0  0  0  0  0  0  0  0  0  0  0
  144.2839  132.6767  149.3679 C   0  0  0  0  0  0  0  0  0  0  0  0
  144.9932  133.9089  149.7873 N   0  3  2  0  0  0  0  0  0  0  0  0
  146.1485  133.6698  150.6849 C   0  0  0  0  0  0  0  0  0  0  0  0
  146.0088  134.6468  151.8568 C   0  0  0  0  0  0  0  0  0  0  0  0
  145.0763  135.7373  151.3294 C   0  0  2  0  0  0  0  0  0  0  0  0
  144.3460  136.5572  152.4103 C   0  0  0  0  0  0  0  0  0  0  0  0
  144.9087  137.8969  152.5531 N   0  0  0  0  0  0  0  0  0  0  0  0
  146.0911  138.1889  153.1152 C   0  0  0  0  0  0  0  0  0  0  0  0
  146.8506  137.3371  153.5764 O   0  0  0  0  0  0  0  0  0  0  0  0
  146.3265  139.5115  153.0928 N   0  0  0  0  0  0  0  0  0  0  0  0
  147.4479  140.2162  153.6020 C   0  0  0  0  0  0  0  0  0  0  0  0
  148.4725  139.6825  154.4371 C   0  0  0  0  0  0  0  0  0  0  0  0
  149.2882  140.7584  154.6466 C   0  0  0  0  0  0  0  0  0  0  0  0
  150.5465  140.9404  155.4238 C   0  0  0  0  0  0  0  0  0  0  0  0
  148.8071  141.8518  153.9960 O   0  0  0  0  0  0  0  0  0  0  0  0
  147.6273  141.4961  153.3317 N   0  0  0  0  0  0  0  0  0  0  0  0
  144.1396  134.9362  150.4247 C   0  0  0  0  0  0  0  0  0  0  0  0
  143.2769  130.9542  150.2293 H   0  0  0  0  0  0  0  0  0  0  0  0
  143.1927  132.3964  151.2349 H   0  0  0  0  0  0  0  0  0  0  0  0
  144.6885  131.4654  151.1431 H   0  0  0  0  0  0  0  0  0  0  0  0
  144.9167  132.0915  148.6990 H   0  0  0  0  0  0  0  0  0  0  0  0
  143.4002  132.9608  148.7946 H   0  0  0  0  0  0  0  0  0  0  0  0
  146.1958  132.6402  151.0427 H   0  0  0  0  0  0  0  0  0  0  0  0
  147.0637  133.8672  150.1264 H   0  0  0  0  0  0  0  0  0  0  0  0
  145.5424  134.1356  152.7001 H   0  0  0  0  0  0  0  0  0  0  0  0
  146.9698  135.0362  152.1942 H   0  0  0  0  0  0  0  0  0  0  0  0
  145.6589  136.4148  150.7024 H   0  0  0  0  0  0  0  0  0  0  0  0
  143.2970  136.6688  152.1346 H   0  0  0  0  0  0  0  0  0  0  0  0
  144.3531  136.0297  153.3657 H   0  0  0  0  0  0  0  0  0  0  0  0
  144.3504  138.6621  152.2032 H   0  0  0  0  0  0  0  0  0  0  0  0
  145.6194  140.0864  152.6590 H   0  0  0  0  0  0  0  0  0  0  0  0
  148.6015  138.6852  154.8294 H   0  0  0  0  0  0  0  0  0  0  0  0
  150.7496  140.0674  156.0445 H   0  0  0  0  0  0  0  0  0  0  0  0
  150.4757  141.8097  156.0776 H   0  0  0  0  0  0  0  0  0  0  0  0
  151.3955  141.0859  154.7560 H   0  0  0  0  0  0  0  0  0  0  0  0
  143.6450  135.5625  149.6816 H   0  0  0  0  0  0  0  0  0  0  0  0
  143.3669  134.4530  151.0256 H   0  0  0  0  0  0  0  0  0  0  0  0
  145.3770  134.3305  148.9532 H   0  0  0  0  0  0  0  0  0  0  0  0
  1  2  1  0  0  0  0
  1 19  1  0  0  0  0
  1 20  1  0  0  0  0
  1 21  1  0  0  0  0
  2  3  1  0  0  0  0
  2 22  1  0  0  0  0
  2 23  1  0  0  0  0
  3 18  1  0  0  0  0
  3  4  1  0  0  0  0
  3 39  1  0  0  0  0
  4  5  1  0  0  0  0
  4 24  1  0  0  0  0
  4 25  1  0  0  0  0
  5  6  1  0  0  0  0
  5 26  1  0  0  0  0
  5 27  1  0  0  0  0
  6  7  1  0  0  0  0
  6 18  1  0  0  0  0
  6 28  1  0  0  0  0
  7  8  1  0  0  0  0
  7 29  1  0  0  0  0
  7 30  1  0  0  0  0
  8  9  1  0  0  0  0
  8 31  1  0  0  0  0
  9 10  2  0  0  0  0
  9 11  1  0  0  0  0
 11 12  1  0  0  0  0
 11 32  1  0  0  0  0
 12 17  2  0  0  0  0
 12 13  1  0  0  0  0
 13 14  2  0  0  0  0
 13 33  1  0  0  0  0
 14 15  1  0  0  0  0
 14 16  1  0  0  0  0
 15 34  1  0  0  0  0
 15 35  1  0  0  0  0
 15 36  1  0  0  0  0
 16 17  1  0  0  0  0
 18 37  1  0  0  0  0
 18 38  1  0  0  0  0
M  CHG  1   3   1
M  END
> <s_m_source_file>
AV-unprocessed.smi

> <i_m_source_file_index>
2002

> <i_lp_mmshare_version>
43012

> <i_f3d_flags>
0

> <s_epik_input>
W0NIM11bQ0gyXU4xW0NIMl1bQ0gyXVtDQEhdKFtDSDJdMSlbQ0gyXVtOSF1DKD1PKVtOSF1jMltjSF1jKFtDSDNdKW9uMg==

> <s_epik_cmdline>
J2VwaWtfcHl0aG9uJywgJy1waCcsICc3LjAnLCAnLXRuJywgJzgnLCAnLW1hJywgJzIwMCcsICctbWV0YWxfYmluZGluZycsICctaW1hZScsICc8aW5maWxlLm1hZT4nLCAnLW9tYWUnLCAnPG91dGZpbGUubWFlPic=

> <r_epik_Ionization_Penalty>
0.000632871

> <r_epik_Ionization_Penalty_Charging>
0.000610951

> <r_epik_Ionization_Penalty_Neutral>
2.19198e-05

> <r_epik_State_Penalty>
0.000385263

> <r_epik_Charging_Adjusted_Penalty>
0.000996214

> <i_epik_Tot_Q>
1

> <i_epik_Tot_abs_Q>
1

> <r_epik_Metal_State_Penalty>
-0

> <b_epik_Metal_Only>
0

> <s_lp_Force_Field>
OPLS_2005

> <r_lp_Energy>
28.1542

> <b_lp_Chiralities_Consistent>
1

> <s_lp_Variant>
AV-unprocessed.smi:2002-4

> <Gold.Version>
5.8.1

> <Gold.Id.Protein>
6NUR|6NUR_protein|mol2

> <Gold.PLP.Fitness>
40.9100

> <Gold.PLP.PLP>
-32.6576

> <Gold.PLP.part.hbond>
-5.0000

> <Gold.PLP.part.metal>
0.0000

> <Gold.PLP.part.buried>
-4.1020

> <Gold.PLP.part.nonpolar>
-25.6738

> <Gold.PLP.part.repulsive>
1.6395

> <Gold.PLP.ligand.clash>
0.0000

> <Gold.PLP.ligand.torsion>
0.7592

> <Gold.PLP.Chemscore.Hbond>
3.2468

> <Gold.PLP.Chemscore.CHOScore>
0.0000

> <Gold.PLP.Chemscore.Metal>
0.0000

> <Gold.Chemscore.Hbonds>
donor molecule, donor type, donor heavy atom, donor atom, acceptor molecule, acceptor atom, score
      L1  H     3    39       P1  7921  1.00
      L1  H     8    31       P1 10175  0.99
      L1  H    11    32       P1 10175  0.94
      P1  H  8011  8017       L1    16  0.37

> <Gold.PLP.Chemscore.Internal.Correction>
0.0304

> <Gold.Rescore>
     Score         DG    S(hbond)    S(metal)    S(lipo)     H(rot)  DE(clash)    DE(int)     intcor
     17.04     -19.14       2.88        0.00      67.79       1.52       0.23       1.87       ----

> <Gold.Chemscore.Fitness>
17.0447

> <Gold.Chemscore.DG>
-19.1427

> <Gold.Chemscore.ZeroCoef>
-5.4800

> <Gold.Chemscore.Hbond>
2.8828

> <Gold.Chemscore.Metal>
0.0000

> <Gold.Chemscore.Lipo>
67.7895

> <Gold.Chemscore.Internal_Hbond>
0.0000

> <Gold.Chemscore.DEClash>
0.2250

> <Gold.Chemscore.DEInternal>
1.8729

> <Gold.Chemscore.Rot>
1.5223

> <Gold.Chemscore.Internal.Correction>
   9.000000E+99

> <Gold.Chemscore.Hbonds>
donor molecule, donor type, donor heavy atom, donor atom, acceptor molecule, acceptor atom, score
      L1  H     3    39       P1  7921  0.96
      L1  H     8    31       P1 10175  0.93
      L1  H    11    32       P1 10175  0.84
      P1  H  8011  8017       L1    16  0.04

> <Gold.Chemscore.Hbond.Weighted>
-9.6284

> <Gold.Chemscore.Metal.Weighted>
-0.0000

> <Gold.Chemscore.Lipo.Weighted>
-7.9314

> <Gold.Chemscore.Internal_Hbond.Weighted>
0.0000

> <Gold.Chemscore.DEClash.Weighted>
0.2250

> <Gold.Chemscore.DEInternal.Weighted>
1.8729

> <Gold.Chemscore.Rot.Weighted>
3.8971

> <Gold.Chemscore.Internal.Correction.Weighted>
   9.000000E+99

> <Gold.Protein.RotatedTorsions>
[ 6907 6896 6895 6894 ] final  -11.52 input  -60.11 | X-H torsion
[ 7974 7965 7964 7962 ] final -152.20 input  175.53 | X-H torsion
[ 8008 7997 7996 7995 ] final  -69.13 input   59.86 | X-H torsion
[ 10167 10162 10161 10158 ] final -145.84 input  -65.29 | X-H torsion
[ 10718 10713 10712 10709 ] final -120.05 input   66.30 | X-H torsion
[ 10763 10752 10751 10750 ] final -150.51 input  -60.55 | X-H torsion
[ 11005 11000 10999 10996 ] final  152.79 input  -57.11 | X-H torsion

> <Gold.Protein.ActiveResidues>
 VAL166  LYS551  ARG553  GLY616  TRP617  ASP618  TYR619  PRO620  LYS621  CYS622 
 ASP623  PHE694  ASN695  SER759  ASP760  ASP761  ALA762  ILE779  LEU786  VAL792 
 PHE793  MET794  SER795  GLU796  ALA797  LYS798  CYS799  TRP800  GLU811  SER814 

> <Gold.Protein.RotatedAtoms>
  151.3848  135.0946  159.9507 H   0  0  0  0  0  0  0  0  0  0  0  0  # atno 6907 bound_to 6896
  152.5097  133.9036  159.7464 H   0  0  0  0  0  0  0  0  0  0  0  0  # atno 6908 bound_to 6896
  150.9478  133.6528  159.2807 H   0  0  0  0  0  0  0  0  0  0  0  0  # atno 6909 bound_to 6896
  144.7807  140.4694  143.5841 H   0  0  0  0  0  0  0  0  0  0  0  0  # atno 7974 bound_to 7965
  154.4917  140.0859  156.7608 H   0  0  0  0  0  0  0  0  0  0  0  0  # atno 8008 bound_to 7997
  155.4215  140.3446  155.4253 H   0  0  0  0  0  0  0  0  0  0  0  0  # atno 8009 bound_to 7997
  156.1338  140.1509  156.9013 H   0  0  0  0  0  0  0  0  0  0  0  0  # atno 8010 bound_to 7997
  139.7769  143.8157  152.2633 H   0  0  0  0  0  0  0  0  0  0  0  0  # atno 10167 bound_to 10162
  156.1228  130.6336  150.9492 H   0  0  0  0  0  0  0  0  0  0  0  0  # atno 10718 bound_to 10713
  154.8114  135.3282  154.7294 H   0  0  0  0  0  0  0  0  0  0  0  0  # atno 10763 bound_to 10752
  153.7943  135.6908  153.4870 H   0  0  0  0  0  0  0  0  0  0  0  0  # atno 10764 bound_to 10752
  153.1896  135.4556  155.0079 H   0  0  0  0  0  0  0  0  0  0  0  0  # atno 10765 bound_to 10752
  140.1339  134.8784  157.2241 H   0  0  0  0  0  0  0  0  0  0  0  0  # atno 11005 bound_to 11000
  145.6058  139.1508  143.3103 LP  0  0  0  0  0  0  0  0  0  0  0  0  # atno 17320 bound_to 7965
  146.2013  140.6177  142.9101 LP  0  0  0  0  0  0  0  0  0  0  0  0  # atno 17321 bound_to 7965
  139.8208  144.7296  150.9575 LP  0  0  0  0  0  0  0  0  0  0  0  0  # atno 17342 bound_to 10162
  140.7817  143.4161  151.0916 LP  0  0  0  0  0  0  0  0  0  0  0  0  # atno 17343 bound_to 10162
  157.6411  131.0910  150.8249 LP  0  0  0  0  0  0  0  0  0  0  0  0  # atno 17370 bound_to 10713
  156.8344  130.5026  149.5328 LP  0  0  0  0  0  0  0  0  0  0  0  0  # atno 17371 bound_to 10713
  140.2807  134.3353  155.7344 LP  0  0  0  0  0  0  0  0  0  0  0  0  # atno 17394 bound_to 11000
  141.2175  133.7477  156.9359 LP  0  0  0  0  0  0  0  0  0  0  0  0  # atno 17395 bound_to 11000

$$$$
