AV-unprocessed.smi:1419|AV-procd|sdf|5776|dock1
  -GOLD-   22720 5423D 1   1.00000     0.00000
 Structure written by MMmdl.
 42 43  0  0  0  0  0  0  0  0  2 V2000
  148.0298  140.8065  156.8923 C   0  0  0  0  0  0  0  0  0  0  0  0
  149.3877  141.1121  156.2465 C   0  0  2  0  0  0  0  0  0  0  0  0
  149.3071  141.0309  154.7072 C   0  0  0  0  0  0  0  0  0  0  0  0
  147.9767  141.3657  154.1866 N   0  0  0  0  0  0  0  0  0  0  0  0
  147.5097  142.6075  153.8397 C   0  0  0  0  0  0  0  0  0  0  0  0
  146.2246  142.4317  153.3951 C   0  0  0  0  0  0  0  0  0  0  0  0
  145.9587  141.0925  153.4973 N   0  3  0  0  0  0  0  0  0  0  0  0
  147.0239  140.4462  153.9827 C   0  0  0  0  0  0  0  0  0  0  0  0
  150.3804  140.1731  156.7667 N   0  0  0  0  0  0  0  0  0  0  0  0
  151.4466  140.4871  157.5234 C   0  0  0  0  0  0  0  0  0  0  0  0
  151.6760  141.6405  157.8896 O   0  0  0  0  0  0  0  0  0  0  0  0
  152.2381  139.4356  157.8488 N   0  0  0  0  0  0  0  0  0  0  0  0
  153.0195  139.2708  159.0812 C   0  0  0  0  0  0  0  0  0  0  0  0
  152.3140  138.2167  159.9560 C   0  0  2  0  0  0  0  0  0  0  0  0
  153.0874  137.9268  161.2467 C   0  0  0  0  0  0  0  0  0  0  0  0
  152.1990  136.9920  159.2264 O   0  0  0  0  0  0  0  0  0  0  0  0
  151.5513  137.0823  157.9531 C   0  0  1  0  0  0  0  0  0  0  0  0
  150.0302  137.2569  158.1116 C   0  0  0  0  0  0  0  0  0  0  0  0
  152.2257  138.1775  157.0984 C   0  0  0  0  0  0  0  0  0  0  0  0
  147.2662  141.5053  156.5497 H   0  0  0  0  0  0  0  0  0  0  0  0
  148.0843  140.8877  157.9784 H   0  0  0  0  0  0  0  0  0  0  0  0
  147.6906  139.7985  156.6501 H   0  0  0  0  0  0  0  0  0  0  0  0
  149.6560  142.1309  156.5320 H   0  0  0  0  0  0  0  0  0  0  0  0
  150.0420  141.6914  154.2433 H   0  0  0  0  0  0  0  0  0  0  0  0
  149.5357  140.0190  154.3700 H   0  0  0  0  0  0  0  0  0  0  0  0
  148.1140  143.4992  153.9244 H   0  0  0  0  0  0  0  0  0  0  0  0
  145.4990  143.1407  153.0235 H   0  0  0  0  0  0  0  0  0  0  0  0
  147.1016  139.3887  154.1629 H   0  0  0  0  0  0  0  0  0  0  0  0
  150.2522  139.2013  156.5243 H   0  0  0  0  0  0  0  0  0  0  0  0
  154.0261  138.9356  158.8262 H   0  0  0  0  0  0  0  0  0  0  0  0
  153.1548  140.1937  159.6450 H   0  0  0  0  0  0  0  0  0  0  0  0
  151.3202  138.5736  160.2287 H   0  0  0  0  0  0  0  0  0  0  0  0
  153.1931  138.8270  161.8527 H   0  0  0  0  0  0  0  0  0  0  0  0
  154.0871  137.5486  161.0312 H   0  0  0  0  0  0  0  0  0  0  0  0
  152.5710  137.1794  161.8497 H   0  0  0  0  0  0  0  0  0  0  0  0
  151.7132  136.1247  157.4574 H   0  0  0  0  0  0  0  0  0  0  0  0
  149.5364  137.2446  157.1399 H   0  0  0  0  0  0  0  0  0  0  0  0
  149.7692  138.1958  158.5967 H   0  0  0  0  0  0  0  0  0  0  0  0
  149.6075  136.4478  158.7071 H   0  0  0  0  0  0  0  0  0  0  0  0
  151.7280  138.2638  156.1312 H   0  0  0  0  0  0  0  0  0  0  0  0
  153.2538  137.8897  156.8739 H   0  0  0  0  0  0  0  0  0  0  0  0
  145.0834  140.6523  153.2419 H   0  0  0  0  0  0  0  0  0  0  0  0
  1  2  1  0  0  0  0
  1 20  1  0  0  0  0
  1 21  1  0  0  0  0
  1 22  1  0  0  0  0
  2  3  1  0  0  0  0
  2  9  1  0  0  0  0
  2 23  1  0  0  0  0
  3  4  1  0  0  0  0
  3 24  1  0  0  0  0
  3 25  1  0  0  0  0
  4  8  1  0  0  0  0
  4  5  1  0  0  0  0
  5  6  2  0  0  0  0
  5 26  1  0  0  0  0
  6  7  1  0  0  0  0
  6 27  1  0  0  0  0
  7  8  2  0  0  0  0
  7 42  1  0  0  0  0
  8 28  1  0  0  0  0
  9 10  1  0  0  0  0
  9 29  1  0  0  0  0
 10 11  2  0  0  0  0
 10 12  1  0  0  0  0
 12 19  1  0  0  0  0
 12 13  1  0  0  0  0
 13 14  1  0  0  0  0
 13 30  1  0  0  0  0
 13 31  1  0  0  0  0
 14 15  1  0  0  0  0
 14 16  1  0  0  0  0
 14 32  1  0  0  0  0
 15 33  1  0  0  0  0
 15 34  1  0  0  0  0
 15 35  1  0  0  0  0
 16 17  1  0  0  0  0
 17 18  1  0  0  0  0
 17 19  1  0  0  0  0
 17 36  1  0  0  0  0
 18 37  1  0  0  0  0
 18 38  1  0  0  0  0
 18 39  1  0  0  0  0
 19 40  1  0  0  0  0
 19 41  1  0  0  0  0
M  CHG  1   7   1
M  END
> <s_m_source_file>
AV-unprocessed.smi

> <i_m_source_file_index>
1419

> <i_lp_mmshare_version>
43012

> <i_f3d_flags>
0

> <s_epik_input>
W2NIXTFuW2NIXVtjSF1uMVtDSDJdW0NAQEhdKFtDSDNdKVtOSF1DKD1PKU4yW0NIMl1bQ0BASF0oW0NIM10pT1tDQEBIXShbQ0gzXSlbQ0gyXTI=

> <s_epik_cmdline>
J2VwaWtfcHl0aG9uJywgJy1waCcsICc3LjAnLCAnLXRuJywgJzgnLCAnLW1hJywgJzIwMCcsICctbWV0YWxfYmluZGluZycsICctaW1hZScsICc8aW5maWxlLm1hZT4nLCAnLW9tYWUnLCAnPG91dGZpbGUubWFlPic=

> <r_lp_tautomer_probability>
1

> <r_epik_Ionization_Penalty>
0.253607

> <r_epik_Ionization_Penalty_Charging>
0

> <r_epik_Ionization_Penalty_Neutral>
0.253607

> <r_epik_State_Penalty>
0.245018

> <r_epik_Charging_Adjusted_Penalty>
0.245018

> <i_epik_Tot_Q>
1

> <i_epik_Tot_abs_Q>
1

> <r_epik_Metal_State_Penalty>
0.535379

> <b_epik_Metal_Only>
0

> <s_lp_Force_Field>
OPLS_2005

> <r_lp_Energy>
31.3779

> <b_lp_Chiralities_Consistent>
1

> <s_lp_Variant>
AV-unprocessed.smi:1419-3

> <Gold.Version>
5.8.1

> <Gold.Id.Protein>
6NUR|6NUR_protein|mol2

> <Gold.PLP.Fitness>
35.5221

> <Gold.PLP.PLP>
-26.5643

> <Gold.PLP.part.hbond>
-2.0000

> <Gold.PLP.part.metal>
0.0000

> <Gold.PLP.part.buried>
-2.9828

> <Gold.PLP.part.nonpolar>
-22.0752

> <Gold.PLP.part.repulsive>
0.0368

> <Gold.PLP.ligand.clash>
0.4301

> <Gold.PLP.ligand.torsion>
1.0630

> <Gold.PLP.Chemscore.Hbond>
2.8000

> <Gold.PLP.Chemscore.CHOScore>
1.0000

> <Gold.PLP.Chemscore.Metal>
0.0000

> <Gold.Chemscore.Hbonds>
donor molecule, donor type, donor heavy atom, donor atom, acceptor molecule, acceptor atom, score
      L1  H     7    42       P1 10175  2.00
      P1  H  6896  6908       L1    16  0.57
      L1  C     5    26       P1  8028  1.00

> <Gold.PLP.Chemscore.Internal.Correction>
0.1139

> <Gold.Rescore>
     Score         DG    S(hbond)    S(metal)    S(lipo)     H(rot)  DE(clash)    DE(int)     intcor
     12.33     -13.59       1.67        0.00      57.29       1.63       0.25       1.00       ----

> <Gold.Chemscore.Fitness>
12.3339

> <Gold.Chemscore.DG>
-13.5884

> <Gold.Chemscore.ZeroCoef>
-5.4800

> <Gold.Chemscore.Hbond>
1.6679

> <Gold.Chemscore.Metal>
0.0000

> <Gold.Chemscore.Lipo>
57.2943

> <Gold.Chemscore.Internal_Hbond>
0.0000

> <Gold.Chemscore.DEClash>
0.2496

> <Gold.Chemscore.DEInternal>
1.0049

> <Gold.Chemscore.Rot>
1.6273

> <Gold.Chemscore.Internal.Correction>
   9.000000E+99

> <Gold.Chemscore.Hbonds>
donor molecule, donor type, donor heavy atom, donor atom, acceptor molecule, acceptor atom, score
      L1  H     7    42       P1 10175  0.88
      P1  H  6896  6908       L1    16  0.46

> <Gold.Chemscore.Hbond.Weighted>
-5.5708

> <Gold.Chemscore.Metal.Weighted>
-0.0000

> <Gold.Chemscore.Lipo.Weighted>
-6.7034

> <Gold.Chemscore.Internal_Hbond.Weighted>
0.0000

> <Gold.Chemscore.DEClash.Weighted>
0.2496

> <Gold.Chemscore.DEInternal.Weighted>
1.0049

> <Gold.Chemscore.Rot.Weighted>
4.1658

> <Gold.Chemscore.Internal.Correction.Weighted>
   9.000000E+99

> <Gold.Protein.RotatedTorsions>
[ 6907 6896 6895 6894 ] final  -86.78 input  -60.11 | X-H torsion
[ 7974 7965 7964 7962 ] final  -35.61 input  175.53 | X-H torsion
[ 8008 7997 7996 7995 ] final -151.01 input   59.86 | X-H torsion
[ 10167 10162 10161 10158 ] final -101.63 input  -65.29 | X-H torsion
[ 10718 10713 10712 10709 ] final   81.64 input   66.30 | X-H torsion
[ 10763 10752 10751 10750 ] final  163.31 input  -60.55 | X-H torsion
[ 11005 11000 10999 10996 ] final  142.72 input  -57.11 | X-H torsion

> <Gold.Protein.ActiveResidues>
 VAL166  LYS551  ARG553  GLY616  TRP617  ASP618  TYR619  PRO620  LYS621  CYS622 
 ASP623  PHE694  ASN695  SER759  ASP760  ASP761  ALA762  ILE779  LEU786  VAL792 
 PHE793  MET794  SER795  GLU796  ALA797  LYS798  CYS799  TRP800  GLU811  SER814 

> <Gold.Protein.RotatedAtoms>
  150.6866  134.2998  159.4701 H   0  0  0  0  0  0  0  0  0  0  0  0  # atno 6907 bound_to 6896
  152.0895  134.9414  160.0581 H   0  0  0  0  0  0  0  0  0  0  0  0  # atno 6908 bound_to 6896
  152.0736  133.4083  159.4507 H   0  0  0  0  0  0  0  0  0  0  0  0  # atno 6909 bound_to 6896
  146.0732  140.6179  142.8943 H   0  0  0  0  0  0  0  0  0  0  0  0  # atno 7974 bound_to 7965
  155.6327  140.0693  157.2644 H   0  0  0  0  0  0  0  0  0  0  0  0  # atno 8008 bound_to 7997
  154.4202  140.1764  156.1538 H   0  0  0  0  0  0  0  0  0  0  0  0  # atno 8009 bound_to 7997
  155.9920  140.3344  155.6765 H   0  0  0  0  0  0  0  0  0  0  0  0  # atno 8010 bound_to 7997
  140.2392  143.3551  152.0817 H   0  0  0  0  0  0  0  0  0  0  0  0  # atno 10167 bound_to 10162
  157.6838  131.0013  150.2256 H   0  0  0  0  0  0  0  0  0  0  0  0  # atno 10718 bound_to 10713
  154.2918  135.2761  155.2651 H   0  0  0  0  0  0  0  0  0  0  0  0  # atno 10763 bound_to 10752
  154.5127  135.5778  153.6621 H   0  0  0  0  0  0  0  0  0  0  0  0  # atno 10764 bound_to 10752
  152.9913  135.6185  154.3083 H   0  0  0  0  0  0  0  0  0  0  0  0  # atno 10765 bound_to 10752
  140.0498  134.9261  157.0997 H   0  0  0  0  0  0  0  0  0  0  0  0  # atno 11005 bound_to 11000
  144.7245  140.4480  143.6983 LP  0  0  0  0  0  0  0  0  0  0  0  0  # atno 17320 bound_to 7965
  145.6353  139.1542  143.2946 LP  0  0  0  0  0  0  0  0  0  0  0  0  # atno 17321 bound_to 7965
  139.5083  144.6847  151.5918 LP  0  0  0  0  0  0  0  0  0  0  0  0  # atno 17342 bound_to 10162
  140.6126  143.9408  150.6464 LP  0  0  0  0  0  0  0  0  0  0  0  0  # atno 17343 bound_to 10162
  156.2899  130.3744  149.7852 LP  0  0  0  0  0  0  0  0  0  0  0  0  # atno 17370 bound_to 10713
  156.5515  130.8344  151.3301 LP  0  0  0  0  0  0  0  0  0  0  0  0  # atno 17371 bound_to 10713
  140.3935  134.2159  155.7165 LP  0  0  0  0  0  0  0  0  0  0  0  0  # atno 17394 bound_to 11000
  141.1925  133.8172  157.0837 LP  0  0  0  0  0  0  0  0  0  0  0  0  # atno 17395 bound_to 11000

$$$$
