AV-unprocessed.smi:2571|AV-procd|sdf|10109|dock5
  -GOLD-   2272014123D 1   1.00000     0.00000
 Structure written by MMmdl.
 38 40  0  0  0  0  0  0  0  0  1 V2000
  155.2553  142.9413  166.2293 C   0  0  0  0  0  0  0  0  0  0  0  0
  154.3430  143.1758  165.1669 O   0  0  0  0  0  0  0  0  0  0  0  0
  154.4137  142.3582  164.0599 C   0  0  0  0  0  0  0  0  0  0  0  0
  155.2371  141.2082  163.9691 C   0  0  0  0  0  0  0  0  0  0  0  0
  155.2353  140.4228  162.8006 C   0  0  0  0  0  0  0  0  0  0  0  0
  154.4107  140.7698  161.7149 C   0  0  0  0  0  0  0  0  0  0  0  0
  153.5841  141.9108  161.7909 C   0  0  0  0  0  0  0  0  0  0  0  0
  152.6400  142.2726  160.6511 C   0  0  1  0  0  0  0  0  0  0  0  0
  152.8429  143.5883  160.1754 O   0  0  0  0  0  0  0  0  0  0  0  0
  152.7616  141.2983  159.4604 C   0  0  0  0  0  0  0  0  0  0  0  0
  151.8159  141.6088  158.3977 N   0  0  0  0  0  0  0  0  0  0  0  0
  150.9617  142.6536  158.5492 N   0  0  0  0  0  0  0  0  0  0  0  0
  150.1986  142.6606  157.4583 C   0  0  0  0  0  0  0  0  0  0  0  0
  150.5371  141.6079  156.5648 C   0  0  0  0  0  0  0  0  0  0  0  0
  150.0307  141.1417  155.2777 C   0  0  0  0  0  0  0  0  0  0  0  0
  150.5816  140.0968  154.7437 N   0  0  0  0  0  0  0  0  0  0  0  0
  151.6385  139.4304  155.3737 N   0  0  0  0  0  0  0  0  0  0  0  0
  152.1420  138.2626  154.6544 C   0  0  0  0  0  0  0  0  0  0  0  0
  152.2022  139.8004  156.5624 C   0  0  0  0  0  0  0  0  0  0  0  0
  153.1518  139.2163  157.0836 O   0  0  0  0  0  0  0  0  0  0  0  0
  151.5649  140.9831  157.1912 C   0  0  0  0  0  0  0  0  0  0  0  0
  153.6012  142.7004  162.9603 C   0  0  0  0  0  0  0  0  0  0  0  0
  155.0617  143.6514  167.0330 H   0  0  0  0  0  0  0  0  0  0  0  0
  156.2880  143.0820  165.9069 H   0  0  0  0  0  0  0  0  0  0  0  0
  155.1376  141.9378  166.6409 H   0  0  0  0  0  0  0  0  0  0  0  0
  155.8773  140.9052  164.7836 H   0  0  0  0  0  0  0  0  0  0  0  0
  155.8612  139.5445  162.7412 H   0  0  0  0  0  0  0  0  0  0  0  0
  154.4025  140.1455  160.8334 H   0  0  0  0  0  0  0  0  0  0  0  0
  151.6174  142.2404  161.0301 H   0  0  0  0  0  0  0  0  0  0  0  0
  153.6632  143.9069  160.5197 H   0  0  0  0  0  0  0  0  0  0  0  0
  153.7669  141.3516  159.0390 H   0  0  0  0  0  0  0  0  0  0  0  0
  152.6247  140.2666  159.7824 H   0  0  0  0  0  0  0  0  0  0  0  0
  149.4292  143.4119  157.3598 H   0  0  0  0  0  0  0  0  0  0  0  0
  149.2090  141.6609  154.7846 H   0  0  0  0  0  0  0  0  0  0  0  0
  153.1874  138.4047  154.3762 H   0  0  0  0  0  0  0  0  0  0  0  0
  151.5790  138.0716  153.7393 H   0  0  0  0  0  0  0  0  0  0  0  0
  152.0716  137.3690  155.2766 H   0  0  0  0  0  0  0  0  0  0  0  0
  152.9612  143.5682  163.0278 H   0  0  0  0  0  0  0  0  0  0  0  0
  1  2  1  0  0  0  0
  1 23  1  0  0  0  0
  1 24  1  0  0  0  0
  1 25  1  0  0  0  0
  2  3  1  0  0  0  0
  3 22  1  0  0  0  0
  3  4  2  0  0  0  0
  4  5  1  0  0  0  0
  4 26  1  0  0  0  0
  5  6  2  0  0  0  0
  5 27  1  0  0  0  0
  6  7  1  0  0  0  0
  6 28  1  0  0  0  0
  7  8  1  0  0  0  0
  7 22  2  0  0  0  0
  8  9  1  0  0  0  0
  8 10  1  0  0  0  0
  8 29  1  0  0  0  0
  9 30  1  0  0  0  0
 10 11  1  0  0  0  0
 10 31  1  0  0  0  0
 10 32  1  0  0  0  0
 11 21  1  0  0  0  0
 11 12  1  0  0  0  0
 12 13  2  0  0  0  0
 13 14  1  0  0  0  0
 13 33  1  0  0  0  0
 14 21  2  0  0  0  0
 14 15  1  0  0  0  0
 15 16  2  0  0  0  0
 15 34  1  0  0  0  0
 16 17  1  0  0  0  0
 17 18  1  0  0  0  0
 17 19  1  0  0  0  0
 18 35  1  0  0  0  0
 18 36  1  0  0  0  0
 18 37  1  0  0  0  0
 19 20  2  0  0  0  0
 19 21  1  0  0  0  0
 22 38  1  0  0  0  0
M  END
> <s_m_source_file>
AV-unprocessed.smi

> <i_m_source_file_index>
2571

> <i_lp_mmshare_version>
43012

> <i_f3d_flags>
0

> <s_epik_input>
W0NIM11PYzFbY0hdW2NIXVtjSF1jKFtjSF0xKVtDQEhdKFtPSF0pW0NIMl1uKG5bY0hdMiljKGMyMyljKD1PKW4oW0NIM10pbltjSF0z

> <s_epik_cmdline>
J2VwaWtfcHl0aG9uJywgJy1waCcsICc3LjAnLCAnLXRuJywgJzgnLCAnLW1hJywgJzIwMCcsICctbWV0YWxfYmluZGluZycsICctaW1hZScsICc8aW5maWxlLm1hZT4nLCAnLW9tYWUnLCAnPG91dGZpbGUubWFlPic=

> <r_lp_tautomer_probability>
1

> <r_epik_Ionization_Penalty>
1.38887e-06

> <r_epik_Ionization_Penalty_Charging>
1.65421e-10

> <r_epik_Ionization_Penalty_Neutral>
1.38871e-06

> <r_epik_State_Penalty>
-0

> <r_epik_Charging_Adjusted_Penalty>
1.65421e-10

> <i_epik_Tot_Q>
0

> <i_epik_Tot_abs_Q>
0

> <r_epik_Metal_State_Penalty>
-0

> <b_epik_Metal_Only>
0

> <s_lp_Force_Field>
OPLS_2005

> <r_lp_Energy>
30.2232

> <b_lp_Chiralities_Consistent>
1

> <s_lp_Variant>
AV-unprocessed.smi:2571-2

> <Gold.Version>
5.8.1

> <Gold.Id.Protein>
6NUR|6NUR_protein|mol2

> <Gold.PLP.Fitness>
56.2812

> <Gold.PLP.PLP>
-48.1504

> <Gold.PLP.part.hbond>
-3.0000

> <Gold.PLP.part.metal>
0.0000

> <Gold.PLP.part.buried>
0.1416

> <Gold.PLP.part.nonpolar>
-44.0983

> <Gold.PLP.part.repulsive>
0.1717

> <Gold.PLP.ligand.clash>
0.0000

> <Gold.PLP.ligand.torsion>
0.0717

> <Gold.PLP.Chemscore.Hbond>
1.7500

> <Gold.PLP.Chemscore.CHOScore>
1.0000

> <Gold.PLP.Chemscore.Metal>
0.0000

> <Gold.Chemscore.Hbonds>
donor molecule, donor type, donor heavy atom, donor atom, acceptor molecule, acceptor atom, score
      P1  H  7989  7998       L1    16  0.75
      P1  H  7997  8010       L1    20  1.00
      L1  C    13    33       P1  8028  1.00

> <Gold.PLP.Chemscore.Internal.Correction>
0.0242

> <Gold.Rescore>
     Score         DG    S(hbond)    S(metal)    S(lipo)     H(rot)  DE(clash)    DE(int)     intcor
     14.83     -16.49       0.98        0.00     114.55       2.21       0.13       1.53       ----

> <Gold.Chemscore.Fitness>
14.8265

> <Gold.Chemscore.DG>
-16.4927

> <Gold.Chemscore.ZeroCoef>
-5.4800

> <Gold.Chemscore.Hbond>
0.9818

> <Gold.Chemscore.Metal>
0.0000

> <Gold.Chemscore.Lipo>
114.5527

> <Gold.Chemscore.Internal_Hbond>
0.0000

> <Gold.Chemscore.DEClash>
0.1312

> <Gold.Chemscore.DEInternal>
1.5349

> <Gold.Chemscore.Rot>
2.2146

> <Gold.Chemscore.Internal.Correction>
   9.000000E+99

> <Gold.Chemscore.Hbonds>
donor molecule, donor type, donor heavy atom, donor atom, acceptor molecule, acceptor atom, score
      P1  H  7989  7998       L1    16  0.03
      P1  H  7997  8010       L1    20  0.25

> <Gold.Chemscore.Hbond.Weighted>
-3.2793

> <Gold.Chemscore.Metal.Weighted>
-0.0000

> <Gold.Chemscore.Lipo.Weighted>
-13.4027

> <Gold.Chemscore.Internal_Hbond.Weighted>
0.0000

> <Gold.Chemscore.DEClash.Weighted>
0.1312

> <Gold.Chemscore.DEInternal.Weighted>
1.5349

> <Gold.Chemscore.Rot.Weighted>
5.6693

> <Gold.Chemscore.Internal.Correction.Weighted>
   9.000000E+99

> <Gold.Protein.RotatedTorsions>
[ 6907 6896 6895 6894 ] final  126.65 input  -60.11 | X-H torsion
[ 7974 7965 7964 7962 ] final  141.57 input  175.53 | X-H torsion
[ 8008 7997 7996 7995 ] final   67.86 input   59.86 | X-H torsion
[ 10167 10162 10161 10158 ] final   55.95 input  -65.29 | X-H torsion
[ 10718 10713 10712 10709 ] final -129.90 input   66.30 | X-H torsion
[ 10763 10752 10751 10750 ] final  168.47 input  -60.55 | X-H torsion
[ 11005 11000 10999 10996 ] final -162.63 input  -57.11 | X-H torsion

> <Gold.Protein.ActiveResidues>
 VAL166  LYS551  ARG553  GLY616  TRP617  ASP618  TYR619  PRO620  LYS621  CYS622 
 ASP623  PHE694  ASN695  SER759  ASP760  ASP761  ALA762  ILE779  LEU786  VAL792 
 PHE793  MET794  SER795  GLU796  ALA797  LYS798  CYS799  TRP800  GLU811  SER814 

> <Gold.Protein.RotatedAtoms>
  152.3884  133.6644  159.6217 H   0  0  0  0  0  0  0  0  0  0  0  0  # atno 6907 bound_to 6896
  150.7798  133.8996  159.3346 H   0  0  0  0  0  0  0  0  0  0  0  0  # atno 6908 bound_to 6896
  151.6788  135.0966  160.0263 H   0  0  0  0  0  0  0  0  0  0  0  0  # atno 6909 bound_to 6896
  144.9084  139.5326  143.5720 H   0  0  0  0  0  0  0  0  0  0  0  0  # atno 7974 bound_to 7965
  155.6994  140.3495  155.4926 H   0  0  0  0  0  0  0  0  0  0  0  0  # atno 8008 bound_to 7997
  155.9454  140.1109  157.1043 H   0  0  0  0  0  0  0  0  0  0  0  0  # atno 8009 bound_to 7997
  154.4111  140.1204  156.4969 H   0  0  0  0  0  0  0  0  0  0  0  0  # atno 8010 bound_to 7997
  140.2139  144.3860  150.6477 H   0  0  0  0  0  0  0  0  0  0  0  0  # atno 10167 bound_to 10162
  156.2092  130.6907  151.0630 H   0  0  0  0  0  0  0  0  0  0  0  0  # atno 10718 bound_to 10713
  154.3690  135.2753  155.2277 H   0  0  0  0  0  0  0  0  0  0  0  0  # atno 10763 bound_to 10752
  154.4432  135.5949  153.6146 H   0  0  0  0  0  0  0  0  0  0  0  0  # atno 10764 bound_to 10752
  152.9839  135.6024  154.3919 H   0  0  0  0  0  0  0  0  0  0  0  0  # atno 10765 bound_to 10752
  140.6071  134.4888  157.5211 H   0  0  0  0  0  0  0  0  0  0  0  0  # atno 11005 bound_to 11000
  146.3146  139.7871  142.8993 LP  0  0  0  0  0  0  0  0  0  0  0  0  # atno 17320 bound_to 7965
  145.3496  141.0304  143.3346 LP  0  0  0  0  0  0  0  0  0  0  0  0  # atno 17321 bound_to 7965
  140.6303  143.2186  151.6509 LP  0  0  0  0  0  0  0  0  0  0  0  0  # atno 17342 bound_to 10162
  139.5169  144.3331  152.0808 LP  0  0  0  0  0  0  0  0  0  0  0  0  # atno 17343 bound_to 10162
  157.7029  131.0768  150.6762 LP  0  0  0  0  0  0  0  0  0  0  0  0  # atno 17370 bound_to 10713
  156.6821  130.4570  149.5624 LP  0  0  0  0  0  0  0  0  0  0  0  0  # atno 17371 bound_to 10713
  139.9208  134.8153  156.1218 LP  0  0  0  0  0  0  0  0  0  0  0  0  # atno 17394 bound_to 11000
  141.0833  133.6745  156.2383 LP  0  0  0  0  0  0  0  0  0  0  0  0  # atno 17395 bound_to 11000

$$$$
