#       Name:                AV-unprocessed.smi:2009
#       Creating user name   scv26
#       Creation time:       Fri Mar 27 10:38:38 2020


#       File generated by GOLD software.
#

@<TRIPOS>MOLECULE
AV-unprocessed.smi:2009
    41    42     1
SMALL
NO_CHARGES


@<TRIPOS>ATOM
      1 ****        -2.4143  -1.7234  -1.8196 C.3            1 S1                 0.0000
      2 ****        -2.3808  -0.4876  -0.9076 C.3            1 S1                 0.0000
      3 ****        -2.9818  -0.7408   0.4943 C.3            1 S1                 0.0000
      4 ****        -2.3254  -1.8085   1.2318 N.pl3          1 S1                 0.0000
      5 ****        -2.6793  -3.1393   1.3125 C.2            1 S1                 0.0000
      6 ****        -1.7700  -3.7539   2.1248 C.2            1 S1                 0.0000
      7 ****        -0.8886  -2.7025   2.5016 C.2            1 S1                 0.0000
      8 ****        -1.2253  -1.5395   1.9689 N.2            1 S1                 0.0000
      9 ****        -1.0007  -0.0062  -0.8065 N.3            1 S1                 0.0000
     10 ****        -0.6770   1.6614  -0.5066 S.o2           1 S1                 0.0000
     11 ****        -1.1350   2.4282  -1.6755 O.2            1 S1                 0.0000
     12 ****        -1.1365   2.0033   0.8480 O.2            1 S1                 0.0000
     13 ****         1.0544   1.6149  -0.5037 N.3            1 S1                 0.0000
     14 ****         1.7540   2.8891  -0.7612 C.3            1 S1                 0.0000
     15 ****         3.2342   2.6587  -1.1101 C.3            1 S1                 0.0000
     16 ****         3.9396   1.8366  -0.0276 C.3            1 S1                 0.0000
     17 ****         3.1868   0.5191   0.1778 C.3            1 S1                 0.0000
     18 ****         1.7090   0.7708   0.5192 C.3            1 S1                 0.0000
     19 ****        -3.4292  -2.1098  -1.9162 H              1 S1                 0.0000
     20 ****        -1.7859  -2.5274  -1.4351 H              1 S1                 0.0000
     21 ****        -2.0594  -1.4794  -2.8214 H              1 S1                 0.0000
     22 ****        -2.9704   0.2925  -1.3906 H              1 S1                 0.0000
     23 ****        -2.9603   0.1665   1.0983 H              1 S1                 0.0000
     24 ****        -4.0355  -1.0038   0.3935 H              1 S1                 0.0000
     25 ****        -3.5378  -3.5333   0.7888 H              1 S1                 0.0000
     26 ****        -1.7400  -4.7952   2.4084 H              1 S1                 0.0000
     27 ****        -0.0215  -2.7487   3.1439 H              1 S1                 0.0000
     28 ****        -0.3714  -0.4135  -1.4977 H              1 S1                 0.0000
     29 ****         1.2680   3.4160  -1.5823 H              1 S1                 0.0000
     30 ****         1.6645   3.5258   0.1199 H              1 S1                 0.0000
     31 ****         3.3059   2.1419  -2.0679 H              1 S1                 0.0000
     32 ****         3.7387   3.6167  -1.2375 H              1 S1                 0.0000
     33 ****         4.9730   1.6407  -0.3141 H              1 S1                 0.0000
     34 ****         3.9704   2.3985   0.9066 H              1 S1                 0.0000
     35 ****         3.2540  -0.0874  -0.7265 H              1 S1                 0.0000
     36 ****         3.6581  -0.0588   0.9729 H              1 S1                 0.0000
     37 ****         1.6225   1.2612   1.4896 H              1 S1                 0.0000
     38 ****         1.1923  -0.1844   0.6061 H              1 S1                 0.0000
     39 ****        -0.7678  -0.6579   2.0856 LP             1 S1                 0.0000
     40 ****        -0.7850  -0.3816   0.0949 LP             1 S1                 0.0000
     41 ****         1.1902   1.0933  -1.3460 LP             1 S1                 0.0000
@<TRIPOS>BOND
    1    1    2 1     
    2    1   19 1     
    3    1   20 1     
    4    1   21 1     
    5    2    3 1     
    6    2    9 1     
    7    2   22 1     
    8    3    4 1     
    9    3   23 1     
   10    3   24 1     
   11    4    8 1     
   12    4    5 1     
   13    5    6 2     
   14    5   25 1     
   15    6    7 1     
   16    6   26 1     
   17    7    8 2     
   18    7   27 1     
   19    9   10 1     
   20    9   28 1     
   21   10   11 2     
   22   10   12 2     
   23   10   13 1     
   24   13   18 1     
   25   13   14 1     
   26   14   15 1     
   27   14   29 1     
   28   14   30 1     
   29   15   16 1     
   30   15   31 1     
   31   15   32 1     
   32   16   17 1     
   33   16   33 1     
   34   16   34 1     
   35   17   18 1     
   36   17   35 1     
   37   17   36 1     
   38   18   37 1     
   39   18   38 1     
   40    8   39 1     
   41    9   40 1     
   42   13   41 1     
@<TRIPOS>SUBSTRUCTURE
      1 S1             1
@<TRIPOS>SET
LONE_PAIRS      STATIC     ATOMS    <user>   **** ""
5 39 40 11 12 41
DONOR_HYDROGENS      STATIC     ATOMS    <user>   **** ""
1 28
ATOM$BLUE        STATIC     ATOMS    COLORGROUP SYSTEM
5 39 40 11 12 41
ATOM$RED        STATIC     ATOMS    COLORGROUP SYSTEM
1 28
