AV-unprocessed.smi:837|AV-procd|sdf|3899|dock7
  -GOLD-   22720 1353D 1   1.00000     0.00000
 Structure written by MMmdl.
 50 52  0  0  0  0  0  0  0  0  2 V2000
  151.2525  142.4975  157.5774 C   0  0  0  0  0  0  0  0  0  0  0  0
  151.5728  140.9986  157.7647 C   0  0  1  0  0  0  0  0  0  0  0  0
  151.7450  140.6749  159.2648 C   0  0  0  0  0  0  0  0  0  0  0  0
  152.1339  139.2063  159.4965 C   0  0  0  0  0  0  0  0  0  0  0  0
  151.1188  138.2496  158.8564 C   0  0  0  0  0  0  0  0  0  0  0  0
  150.9475  138.5508  157.3588 C   0  0  0  0  0  0  0  0  0  0  0  0
  150.5469  140.0243  157.1066 C   0  0  1  0  0  0  0  0  0  0  0  0
  149.1855  140.2745  157.5509 N   0  0  0  0  0  0  0  0  0  0  0  0
  148.3615  140.6012  156.5479 C   0  0  0  0  0  0  0  0  0  0  0  0
  147.1660  140.8649  156.6695 O   0  0  0  0  0  0  0  0  0  0  0  0
  149.0671  140.6004  155.4022 N   0  0  0  0  0  0  0  0  0  0  0  0
  148.5110  140.9629  154.0926 C   0  0  0  0  0  0  0  0  0  0  0  0
  147.3673  140.0370  153.6562 C   0  0  0  0  0  0  0  0  0  0  0  0
  146.3774  139.8754  154.3711 O   0  0  0  0  0  0  0  0  0  0  0  0
  147.5219  139.4301  152.4703 N   0  0  0  0  0  0  0  0  0  0  0  0
  146.5840  138.4774  151.8833 C   0  0  0  0  0  0  0  0  0  0  0  0
  146.0871  137.4197  152.8910 C   0  0  0  0  0  0  0  0  0  0  0  0
  145.5545  136.1566  152.2354 C   0  0  0  0  0  0  0  0  0  0  0  0
  144.8028  135.2209  152.9809 C   0  0  0  0  0  0  0  0  0  0  0  0
  144.3339  134.0501  152.3502 C   0  0  0  0  0  0  0  0  0  0  0  0
  144.6260  133.8412  150.9870 C   0  0  0  0  0  0  0  0  0  0  0  0
  145.3461  134.7592  150.3053 N   0  3  0  0  0  0  0  0  0  0  0  0
  145.8126  135.8934  150.8728 C   0  0  0  0  0  0  0  0  0  0  0  0
  150.3508  140.2813  155.6175 C   0  0  0  0  0  0  0  0  0  0  0  0
  151.2509  140.2111  154.7804 O   0  0  0  0  0  0  0  0  0  0  0  0
  150.2958  142.7654  158.0261 H   0  0  0  0  0  0  0  0  0  0  0  0
  151.2171  142.7777  156.5247 H   0  0  0  0  0  0  0  0  0  0  0  0
  152.0172  143.1183  158.0444 H   0  0  0  0  0  0  0  0  0  0  0  0
  152.5396  140.8237  157.2894 H   0  0  0  0  0  0  0  0  0  0  0  0
  152.5100  141.3201  159.6981 H   0  0  0  0  0  0  0  0  0  0  0  0
  150.8211  140.8954  159.8011 H   0  0  0  0  0  0  0  0  0  0  0  0
  153.1240  139.0213  159.0781 H   0  0  0  0  0  0  0  0  0  0  0  0
  152.2081  139.0062  160.5657 H   0  0  0  0  0  0  0  0  0  0  0  0
  151.4455  137.2183  158.9916 H   0  0  0  0  0  0  0  0  0  0  0  0
  150.1583  138.3368  159.3656 H   0  0  0  0  0  0  0  0  0  0  0  0
  151.8859  138.3325  156.8463 H   0  0  0  0  0  0  0  0  0  0  0  0
  150.2059  137.8724  156.9339 H   0  0  0  0  0  0  0  0  0  0  0  0
  148.9068  140.2061  158.5190 H   0  0  0  0  0  0  0  0  0  0  0  0
  148.1402  141.9889  154.1023 H   0  0  0  0  0  0  0  0  0  0  0  0
  149.3058  140.9407  153.3447 H   0  0  0  0  0  0  0  0  0  0  0  0
  148.3589  139.6309  151.9422 H   0  0  0  0  0  0  0  0  0  0  0  0
  145.7401  139.0045  151.4353 H   0  0  0  0  0  0  0  0  0  0  0  0
  147.1041  137.9793  151.0648 H   0  0  0  0  0  0  0  0  0  0  0  0
  146.8972  137.1507  153.5703 H   0  0  0  0  0  0  0  0  0  0  0  0
  145.3043  137.8484  153.5178 H   0  0  0  0  0  0  0  0  0  0  0  0
  144.5949  135.3915  154.0276 H   0  0  0  0  0  0  0  0  0  0  0  0
  143.7626  133.3217  152.9073 H   0  0  0  0  0  0  0  0  0  0  0  0
  144.3086  132.9742  150.4260 H   0  0  0  0  0  0  0  0  0  0  0  0
  146.3781  136.5481  150.2256 H   0  0  0  0  0  0  0  0  0  0  0  0
  145.5473  134.5881  149.3197 H   0  0  0  0  0  0  0  0  0  0  0  0
  1  2  1  0  0  0  0
  1 26  1  0  0  0  0
  1 27  1  0  0  0  0
  1 28  1  0  0  0  0
  2  7  1  0  0  0  0
  2  3  1  0  0  0  0
  2 29  1  0  0  0  0
  3  4  1  0  0  0  0
  3 30  1  0  0  0  0
  3 31  1  0  0  0  0
  4  5  1  0  0  0  0
  4 32  1  0  0  0  0
  4 33  1  0  0  0  0
  5  6  1  0  0  0  0
  5 34  1  0  0  0  0
  5 35  1  0  0  0  0
  6  7  1  0  0  0  0
  6 36  1  0  0  0  0
  6 37  1  0  0  0  0
  7 24  1  0  0  0  0
  7  8  1  0  0  0  0
  8  9  1  0  0  0  0
  8 38  1  0  0  0  0
  9 10  2  0  0  0  0
  9 11  1  0  0  0  0
 11 12  1  0  0  0  0
 11 24  1  0  0  0  0
 12 13  1  0  0  0  0
 12 39  1  0  0  0  0
 12 40  1  0  0  0  0
 13 14  2  0  0  0  0
 13 15  1  0  0  0  0
 15 16  1  0  0  0  0
 15 41  1  0  0  0  0
 16 17  1  0  0  0  0
 16 42  1  0  0  0  0
 16 43  1  0  0  0  0
 17 18  1  0  0  0  0
 17 44  1  0  0  0  0
 17 45  1  0  0  0  0
 18 23  1  0  0  0  0
 18 19  2  0  0  0  0
 19 20  1  0  0  0  0
 19 46  1  0  0  0  0
 20 21  2  0  0  0  0
 20 47  1  0  0  0  0
 21 22  1  0  0  0  0
 21 48  1  0  0  0  0
 22 23  2  0  0  0  0
 22 50  1  0  0  0  0
 23 49  1  0  0  0  0
 24 25  2  0  0  0  0
M  CHG  1  22   1
M  END
> <s_m_source_file>
AV-unprocessed.smi

> <i_m_source_file_index>
837

> <i_lp_mmshare_version>
43012

> <i_f3d_flags>
0

> <s_epik_input>
W0NIMl0xW0NIMl1bQ0gyXVtDSDJdW0NAQEhdKFtDSDNdKVtDQEBdMTJbTkhdQyg9TylOKEMyPU8pW0NIMl1DKD1PKVtOSF1bQ0gyXVtDSDJdYzNbY0hdW2NIXVtjSF1uW2NIXTM=

> <s_epik_cmdline>
J2VwaWtfcHl0aG9uJywgJy1waCcsICc3LjAnLCAnLXRuJywgJzgnLCAnLW1hJywgJzIwMCcsICctbWV0YWxfYmluZGluZycsICctaW1hZScsICc8aW5maWxlLm1hZT4nLCAnLW9tYWUnLCAnPG91dGZpbGUubWFlPic=

> <r_lp_tautomer_probability>
1

> <r_epik_Ionization_Penalty>
2.28139

> <r_epik_Ionization_Penalty_Charging>
2.28135

> <r_epik_Ionization_Penalty_Neutral>
4.65525e-05

> <r_epik_State_Penalty>
2.43066

> <r_epik_Charging_Adjusted_Penalty>
4.71201

> <i_epik_Tot_Q>
1

> <i_epik_Tot_abs_Q>
1

> <r_epik_Metal_State_Penalty>
2.4646

> <b_epik_Metal_Only>
0

> <s_lp_Force_Field>
OPLS_2005

> <r_lp_Energy>
30.2127

> <b_lp_Chiralities_Consistent>
1

> <s_lp_Variant>
AV-unprocessed.smi:837-8

> <Gold.Version>
5.8.1

> <Gold.Id.Protein>
6NUR|6NUR_protein|mol2

> <Gold.PLP.Fitness>
46.5004

> <Gold.PLP.PLP>
-38.2861

> <Gold.PLP.part.hbond>
-2.9313

> <Gold.PLP.part.metal>
0.0000

> <Gold.PLP.part.buried>
-8.1584

> <Gold.PLP.part.nonpolar>
-29.9576

> <Gold.PLP.part.repulsive>
0.4558

> <Gold.PLP.ligand.clash>
0.0000

> <Gold.PLP.ligand.torsion>
0.3870

> <Gold.PLP.Chemscore.Hbond>
2.9825

> <Gold.PLP.Chemscore.CHOScore>
0.0000

> <Gold.PLP.Chemscore.Metal>
0.0000

> <Gold.Chemscore.Hbonds>
donor molecule, donor type, donor heavy atom, donor atom, acceptor molecule, acceptor atom, score
      L1  H    15    41       P1  7957  0.94
      L1  H    22    50       P1  7921  1.00
      P1  H  7989  7998       L1    25  0.89

> <Gold.PLP.Chemscore.Internal.Correction>
0.0408

> <Gold.Rescore>
     Score         DG    S(hbond)    S(metal)    S(lipo)     H(rot)  DE(clash)    DE(int)     intcor
     17.05     -19.97       2.99        0.00      81.33       1.96       0.00       2.92       ----

> <Gold.Chemscore.Fitness>
17.0459

> <Gold.Chemscore.DG>
-19.9669

> <Gold.Chemscore.ZeroCoef>
-5.4800

> <Gold.Chemscore.Hbond>
2.9937

> <Gold.Chemscore.Metal>
0.0000

> <Gold.Chemscore.Lipo>
81.3267

> <Gold.Chemscore.Internal_Hbond>
0.0000

> <Gold.Chemscore.DEClash>
0.0000

> <Gold.Chemscore.DEInternal>
2.9209

> <Gold.Chemscore.Rot>
1.9638

> <Gold.Chemscore.Internal.Correction>
   9.000000E+99

> <Gold.Chemscore.Hbonds>
donor molecule, donor type, donor heavy atom, donor atom, acceptor molecule, acceptor atom, score
      L1  H    15    41       P1  7957  0.90
      L1  H    22    50       P1  7921  0.97
      P1  H  7989  7998       L1    25  0.87

> <Gold.Chemscore.Hbond.Weighted>
-9.9990

> <Gold.Chemscore.Metal.Weighted>
-0.0000

> <Gold.Chemscore.Lipo.Weighted>
-9.5152

> <Gold.Chemscore.Internal_Hbond.Weighted>
0.0000

> <Gold.Chemscore.DEClash.Weighted>
0.0000

> <Gold.Chemscore.DEInternal.Weighted>
2.9209

> <Gold.Chemscore.Rot.Weighted>
5.0274

> <Gold.Chemscore.Internal.Correction.Weighted>
   9.000000E+99

> <Gold.Protein.RotatedTorsions>
[ 6907 6896 6895 6894 ] final  117.81 input  -60.11 | X-H torsion
[ 7974 7965 7964 7962 ] final  134.79 input  175.53 | X-H torsion
[ 8008 7997 7996 7995 ] final    1.33 input   59.86 | X-H torsion
[ 10167 10162 10161 10158 ] final  -97.44 input  -65.29 | X-H torsion
[ 10718 10713 10712 10709 ] final -115.80 input   66.30 | X-H torsion
[ 10763 10752 10751 10750 ] final   94.61 input  -60.55 | X-H torsion
[ 11005 11000 10999 10996 ] final   10.77 input  -57.11 | X-H torsion

> <Gold.Protein.ActiveResidues>
 VAL166  LYS551  ARG553  GLY616  TRP617  ASP618  TYR619  PRO620  LYS621  CYS622 
 ASP623  PHE694  ASN695  SER759  ASP760  ASP761  ALA762  ILE779  LEU786  VAL792 
 PHE793  MET794  SER795  GLU796  ALA797  LYS798  CYS799  TRP800  GLU811  SER814 

> <Gold.Protein.RotatedAtoms>
  152.4586  133.7775  159.6832 H   0  0  0  0  0  0  0  0  0  0  0  0  # atno 6907 bound_to 6896
  150.8521  133.7760  159.3028 H   0  0  0  0  0  0  0  0  0  0  0  0  # atno 6908 bound_to 6896
  151.5352  135.1071  159.9964 H   0  0  0  0  0  0  0  0  0  0  0  0  # atno 6909 bound_to 6896
  144.9728  139.4587  143.5424 H   0  0  0  0  0  0  0  0  0  0  0  0  # atno 7974 bound_to 7965
  154.6785  140.2627  155.6933 H   0  0  0  0  0  0  0  0  0  0  0  0  # atno 8008 bound_to 7997
  156.2687  140.2815  156.1242 H   0  0  0  0  0  0  0  0  0  0  0  0  # atno 8009 bound_to 7997
  155.1066  140.0375  157.2702 H   0  0  0  0  0  0  0  0  0  0  0  0  # atno 8010 bound_to 7997
  140.2834  143.3267  152.0418 H   0  0  0  0  0  0  0  0  0  0  0  0  # atno 10167 bound_to 10162
  156.0920  130.6101  150.8954 H   0  0  0  0  0  0  0  0  0  0  0  0  # atno 10718 bound_to 10713
  153.2436  135.4283  155.0724 H   0  0  0  0  0  0  0  0  0  0  0  0  # atno 10763 bound_to 10752
  154.8351  135.3409  154.6613 H   0  0  0  0  0  0  0  0  0  0  0  0  # atno 10764 bound_to 10752
  153.7036  135.7027  153.5113 H   0  0  0  0  0  0  0  0  0  0  0  0  # atno 10765 bound_to 10752
  140.5107  134.0655  155.7817 H   0  0  0  0  0  0  0  0  0  0  0  0  # atno 11005 bound_to 11000
  146.3387  139.8951  142.8803 LP  0  0  0  0  0  0  0  0  0  0  0  0  # atno 17320 bound_to 7965
  145.2534  141.0052  143.3868 LP  0  0  0  0  0  0  0  0  0  0  0  0  # atno 17321 bound_to 7965
  139.4956  144.6576  151.6538 LP  0  0  0  0  0  0  0  0  0  0  0  0  # atno 17342 bound_to 10162
  140.5793  143.9974  150.6259 LP  0  0  0  0  0  0  0  0  0  0  0  0  # atno 17343 bound_to 10162
  157.6072  131.0938  150.8858 LP  0  0  0  0  0  0  0  0  0  0  0  0  # atno 17370 bound_to 10713
  156.9005  130.5245  149.5283 LP  0  0  0  0  0  0  0  0  0  0  0  0  # atno 17371 bound_to 10713
  141.1387  133.9176  157.2375 LP  0  0  0  0  0  0  0  0  0  0  0  0  # atno 17394 bound_to 11000
  139.9660  135.0141  156.9389 LP  0  0  0  0  0  0  0  0  0  0  0  0  # atno 17395 bound_to 11000

$$$$
