AV-unprocessed.smi:83|AV-procd|sdf|801|dock7
  -GOLD-   2262017183D 1   1.00000     0.00000
 Structure written by MMmdl.
 56 59  0  0  0  0  0  0  0  0  1 V2000
  151.4201  145.5312  159.9502 C   0  0  0  0  0  0  0  0  0  0  0  0
  152.1299  144.2608  159.4791 C   0  0  0  0  0  0  0  0  0  0  0  0
  152.2658  144.0652  158.2714 O   0  0  0  0  0  0  0  0  0  0  0  0
  152.5811  143.3961  160.4099 N   0  0  0  0  0  0  0  0  0  0  0  0
  152.4636  143.5630  161.8575 C   0  0  0  0  0  0  0  0  0  0  0  0
  153.2898  142.4295  162.4686 C   0  0  0  0  0  0  0  0  0  0  0  0
  153.2784  141.3426  161.3992 C   0  0  2  0  0  0  0  0  0  0  0  0
  154.4333  140.3297  161.5257 C   0  0  0  0  0  0  0  0  0  0  0  0
  154.1222  139.0382  160.9098 N   0  0  0  0  0  0  0  0  0  0  0  0
  153.3508  139.0319  159.6735 C   0  0  0  0  0  0  0  0  0  0  0  0
  154.8706  137.9504  161.2415 C   0  0  0  0  0  0  0  0  0  0  0  0
  155.8301  137.5471  160.3669 N   0  0  0  0  0  0  0  0  0  0  0  0
  156.5940  136.4845  160.6322 C   0  0  0  0  0  0  0  0  0  0  0  0
  156.5687  135.6859  161.6990 N   0  0  0  0  0  0  0  0  0  0  0  0
  155.6071  136.0756  162.5827 C   0  0  0  0  0  0  0  0  0  0  0  0
  154.7239  137.1858  162.4397 C   0  0  0  0  0  0  0  0  0  0  0  0
  153.8807  137.2491  163.5454 N   0  0  0  0  0  0  0  0  0  0  0  0
  154.2473  136.2468  164.2950 C   0  0  0  0  0  0  0  0  0  0  0  0
  155.2793  135.4900  163.7926 N   0  0  0  0  0  0  0  0  0  0  0  0
  155.8788  134.3234  164.4163 C   0  0  0  0  0  0  0  0  0  0  0  0
  154.9103  133.6117  165.3801 C   0  0  2  0  0  0  0  0  0  0  0  0
  155.6248  132.8275  166.3167 O   0  0  0  0  0  0  0  0  0  0  0  0
  153.8542  132.7614  164.6447 C   0  0  2  0  0  0  0  0  0  0  0  0
  152.9487  131.8889  165.5175 C   0  0  0  0  0  0  0  0  0  0  0  0
  152.4877  130.8543  164.5152 C   0  0  0  0  0  0  0  0  0  0  0  0
  153.7507  130.6384  163.6840 C   0  0  0  0  0  0  0  0  0  0  0  0
  154.4399  131.8864  163.6836 O   0  0  0  0  0  0  0  0  0  0  0  0
  153.2607  142.1434  160.0921 C   0  0  0  0  0  0  0  0  0  0  0  0
  150.5628  145.2862  160.5776 H   0  0  0  0  0  0  0  0  0  0  0  0
  151.0582  146.1082  159.0986 H   0  0  0  0  0  0  0  0  0  0  0  0
  152.1013  146.1641  160.5191 H   0  0  0  0  0  0  0  0  0  0  0  0
  152.8251  144.5361  162.1923 H   0  0  0  0  0  0  0  0  0  0  0  0
  151.4153  143.4688  162.1446 H   0  0  0  0  0  0  0  0  0  0  0  0
  154.3107  142.7748  162.6381 H   0  0  0  0  0  0  0  0  0  0  0  0
  152.8910  142.0863  163.4236 H   0  0  0  0  0  0  0  0  0  0  0  0
  152.3277  140.8136  161.4847 H   0  0  0  0  0  0  0  0  0  0  0  0
  155.3537  140.7560  161.1268 H   0  0  0  0  0  0  0  0  0  0  0  0
  154.6345  140.1531  162.5828 H   0  0  0  0  0  0  0  0  0  0  0  0
  152.8238  138.0857  159.5462 H   0  0  0  0  0  0  0  0  0  0  0  0
  153.9994  139.1937  158.8122 H   0  0  0  0  0  0  0  0  0  0  0  0
  152.6038  139.8258  159.6852 H   0  0  0  0  0  0  0  0  0  0  0  0
  157.3299  136.2385  159.8809 H   0  0  0  0  0  0  0  0  0  0  0  0
  153.7716  136.0295  165.2405 H   0  0  0  0  0  0  0  0  0  0  0  0
  156.1911  133.6402  163.6256 H   0  0  0  0  0  0  0  0  0  0  0  0
  156.7864  134.6303  164.9379 H   0  0  0  0  0  0  0  0  0  0  0  0
  154.3792  134.3705  165.9564 H   0  0  0  0  0  0  0  0  0  0  0  0
  155.1940  131.9904  166.3977 H   0  0  0  0  0  0  0  0  0  0  0  0
  153.2123  133.4364  164.0757 H   0  0  0  0  0  0  0  0  0  0  0  0
  153.5077  131.3989  166.3157 H   0  0  0  0  0  0  0  0  0  0  0  0
  152.1270  132.4462  165.9680 H   0  0  0  0  0  0  0  0  0  0  0  0
  152.1209  129.9387  164.9797 H   0  0  0  0  0  0  0  0  0  0  0  0
  151.6923  131.2649  163.8914 H   0  0  0  0  0  0  0  0  0  0  0  0
  154.3909  129.8911  164.1544 H   0  0  0  0  0  0  0  0  0  0  0  0
  153.5298  130.3044  162.6699 H   0  0  0  0  0  0  0  0  0  0  0  0
  152.7554  141.5920  159.2972 H   0  0  0  0  0  0  0  0  0  0  0  0
  154.2731  142.3714  159.7559 H   0  0  0  0  0  0  0  0  0  0  0  0
  1  2  1  0  0  0  0
  1 29  1  0  0  0  0
  1 30  1  0  0  0  0
  1 31  1  0  0  0  0
  2  3  2  0  0  0  0
  2  4  1  0  0  0  0
  4 28  1  0  0  0  0
  4  5  1  0  0  0  0
  5  6  1  0  0  0  0
  5 32  1  0  0  0  0
  5 33  1  0  0  0  0
  6  7  1  0  0  0  0
  6 34  1  0  0  0  0
  6 35  1  0  0  0  0
  7  8  1  0  0  0  0
  7 28  1  0  0  0  0
  7 36  1  0  0  0  0
  8  9  1  0  0  0  0
  8 37  1  0  0  0  0
  8 38  1  0  0  0  0
  9 10  1  0  0  0  0
  9 11  1  0  0  0  0
 10 39  1  0  0  0  0
 10 40  1  0  0  0  0
 10 41  1  0  0  0  0
 11 16  1  0  0  0  0
 11 12  2  0  0  0  0
 12 13  1  0  0  0  0
 13 14  2  0  0  0  0
 13 42  1  0  0  0  0
 14 15  1  0  0  0  0
 15 19  1  0  0  0  0
 15 16  2  0  0  0  0
 16 17  1  0  0  0  0
 17 18  2  0  0  0  0
 18 19  1  0  0  0  0
 18 43  1  0  0  0  0
 19 20  1  0  0  0  0
 20 21  1  0  0  0  0
 20 44  1  0  0  0  0
 20 45  1  0  0  0  0
 21 22  1  0  0  0  0
 21 23  1  0  0  0  0
 21 46  1  0  0  0  0
 22 47  1  0  0  0  0
 23 27  1  0  0  0  0
 23 24  1  0  0  0  0
 23 48  1  0  0  0  0
 24 25  1  0  0  0  0
 24 49  1  0  0  0  0
 24 50  1  0  0  0  0
 25 26  1  0  0  0  0
 25 51  1  0  0  0  0
 25 52  1  0  0  0  0
 26 27  1  0  0  0  0
 26 53  1  0  0  0  0
 26 54  1  0  0  0  0
 28 55  1  0  0  0  0
 28 56  1  0  0  0  0
M  END
> <s_m_source_file>
AV-unprocessed.smi

> <i_m_source_file_index>
83

> <i_lp_mmshare_version>
43012

> <i_f3d_flags>
0

> <s_epik_input>
W0NIM11DKD1PKU4xW0NIMl1bQ0gyXVtDQEhdKFtDSDJdMSlbQ0gyXU4oW0NIM10pYyhuW2NIXW4yKWMoYzIzKW5bY0hdbjNbQ0gyXVtDQEhdKFtPSF0pW0NAQEhdNFtDSDJdW0NIMl1bQ0gyXU80

> <s_epik_cmdline>
J2VwaWtfcHl0aG9uJywgJy1waCcsICc3LjAnLCAnLXRuJywgJzgnLCAnLW1hJywgJzIwMCcsICctbWV0YWxfYmluZGluZycsICctaW1hZScsICc8aW5maWxlLm1hZT4nLCAnLW9tYWUnLCAnPG91dGZpbGUubWFlPic=

> <r_lp_tautomer_probability>
1

> <r_epik_Ionization_Penalty>
0.00109752

> <r_epik_Ionization_Penalty_Charging>
0

> <r_epik_Ionization_Penalty_Neutral>
0.00109752

> <r_epik_State_Penalty>
0.000634803

> <r_epik_Charging_Adjusted_Penalty>
0.000634803

> <i_epik_Tot_Q>
0

> <i_epik_Tot_abs_Q>
0

> <r_epik_Metal_State_Penalty>
-0

> <b_epik_Metal_Only>
0

> <s_lp_Force_Field>
OPLS_2005

> <r_lp_Energy>
56.4298

> <b_lp_Chiralities_Consistent>
1

> <s_lp_Variant>
AV-unprocessed.smi:83-2

> <Gold.Version>
5.8.1

> <Gold.Id.Protein>
6NUR|6NUR_protein|mol2

> <Gold.PLP.Fitness>
52.9773

> <Gold.PLP.PLP>
-57.5164

> <Gold.PLP.part.hbond>
0.0000

> <Gold.PLP.part.metal>
0.0000

> <Gold.PLP.part.buried>
-7.1346

> <Gold.PLP.part.nonpolar>
-50.5610

> <Gold.PLP.part.repulsive>
0.0494

> <Gold.PLP.ligand.clash>
0.0000

> <Gold.PLP.ligand.torsion>
2.4697

> <Gold.PLP.Chemscore.Hbond>
0.0000

> <Gold.PLP.Chemscore.CHOScore>
0.0000

> <Gold.PLP.Chemscore.Metal>
0.0000

> <Gold.PLP.Chemscore.Internal.Correction>
0.4003

> <Gold.Rescore>
     Score         DG    S(hbond)    S(metal)    S(lipo)     H(rot)  DE(clash)    DE(int)     intcor
     10.90     -13.12       0.00        0.00     122.55       2.62       0.10       2.13       ----

> <Gold.Chemscore.Fitness>
10.8970

> <Gold.Chemscore.DG>
-13.1230

> <Gold.Chemscore.ZeroCoef>
-5.4800

> <Gold.Chemscore.Hbond>
0.0000

> <Gold.Chemscore.Metal>
0.0000

> <Gold.Chemscore.Lipo>
122.5461

> <Gold.Chemscore.Internal_Hbond>
0.0000

> <Gold.Chemscore.DEClash>
0.0982

> <Gold.Chemscore.DEInternal>
2.1278

> <Gold.Chemscore.Rot>
2.6152

> <Gold.Chemscore.Internal.Correction>
   9.000000E+99

> <Gold.Chemscore.Hbond.Weighted>
-0.0000

> <Gold.Chemscore.Metal.Weighted>
-0.0000

> <Gold.Chemscore.Lipo.Weighted>
-14.3379

> <Gold.Chemscore.Internal_Hbond.Weighted>
0.0000

> <Gold.Chemscore.DEClash.Weighted>
0.0982

> <Gold.Chemscore.DEInternal.Weighted>
2.1278

> <Gold.Chemscore.Rot.Weighted>
6.6949

> <Gold.Chemscore.Internal.Correction.Weighted>
   9.000000E+99

> <Gold.Protein.RotatedTorsions>
[ 6907 6896 6895 6894 ] final -173.04 input  -60.11 | X-H torsion
[ 7974 7965 7964 7962 ] final  -80.73 input  175.53 | X-H torsion
[ 8008 7997 7996 7995 ] final  120.73 input   59.86 | X-H torsion
[ 10167 10162 10161 10158 ] final -141.78 input  -65.29 | X-H torsion
[ 10718 10713 10712 10709 ] final   95.00 input   66.30 | X-H torsion
[ 10763 10752 10751 10750 ] final  147.88 input  -60.55 | X-H torsion
[ 11005 11000 10999 10996 ] final  -72.03 input  -57.11 | X-H torsion

> <Gold.Protein.ActiveResidues>
 VAL166  LYS551  ARG553  GLY616  TRP617  ASP618  TYR619  PRO620  LYS621  CYS622 
 ASP623  PHE694  ASN695  SER759  ASP760  ASP761  ALA762  ILE779  LEU786  VAL792 
 PHE793  MET794  SER795  GLU796  ALA797  LYS798  CYS799  TRP800  GLU811  SER814 

> <Gold.Protein.RotatedAtoms>
  151.5498  133.3419  159.2950 H   0  0  0  0  0  0  0  0  0  0  0  0  # atno 6907 bound_to 6896
  150.8486  134.7805  159.7001 H   0  0  0  0  0  0  0  0  0  0  0  0  # atno 6908 bound_to 6896
  152.4537  134.5345  159.9872 H   0  0  0  0  0  0  0  0  0  0  0  0  # atno 6909 bound_to 6896
  145.5560  140.9489  143.1473 H   0  0  0  0  0  0  0  0  0  0  0  0  # atno 7974 bound_to 7965
  156.2655  140.2824  156.1196 H   0  0  0  0  0  0  0  0  0  0  0  0  # atno 8008 bound_to 7997
  155.1170  140.0391  157.2757 H   0  0  0  0  0  0  0  0  0  0  0  0  # atno 8009 bound_to 7997
  154.6699  140.2585  155.7024 H   0  0  0  0  0  0  0  0  0  0  0  0  # atno 8010 bound_to 7997
  139.8152  143.7648  152.2665 H   0  0  0  0  0  0  0  0  0  0  0  0  # atno 10167 bound_to 10162
  157.6943  131.0531  150.4273 H   0  0  0  0  0  0  0  0  0  0  0  0  # atno 10718 bound_to 10713
  154.0457  135.2886  155.3348 H   0  0  0  0  0  0  0  0  0  0  0  0  # atno 10763 bound_to 10752
  154.6901  135.5230  153.8384 H   0  0  0  0  0  0  0  0  0  0  0  0  # atno 10764 bound_to 10752
  153.0581  135.6603  154.0657 H   0  0  0  0  0  0  0  0  0  0  0  0  # atno 10765 bound_to 10752
  141.1602  133.6835  156.6996 H   0  0  0  0  0  0  0  0  0  0  0  0  # atno 11005 bound_to 11000
  144.7506  139.7204  143.7274 LP  0  0  0  0  0  0  0  0  0  0  0  0  # atno 17320 bound_to 7965
  146.1884  139.5111  142.9821 LP  0  0  0  0  0  0  0  0  0  0  0  0  # atno 17321 bound_to 7965
  139.7810  144.7444  151.0089 LP  0  0  0  0  0  0  0  0  0  0  0  0  # atno 17342 bound_to 10162
  140.7816  143.4542  151.0369 LP  0  0  0  0  0  0  0  0  0  0  0  0  # atno 17343 bound_to 10162
  156.4642  130.4038  149.6557 LP  0  0  0  0  0  0  0  0  0  0  0  0  # atno 17370 bound_to 10713
  156.3661  130.7506  151.2484 LP  0  0  0  0  0  0  0  0  0  0  0  0  # atno 17371 bound_to 10713
  140.2968  134.8196  157.4064 LP  0  0  0  0  0  0  0  0  0  0  0  0  # atno 17394 bound_to 11000
  140.1297  134.5111  155.8116 LP  0  0  0  0  0  0  0  0  0  0  0  0  # atno 17395 bound_to 11000

$$$$
