#       Name:                AV-unprocessed.smi:1824
#       Creating user name   scv26
#       Creation time:       Fri Mar 27 09:07:32 2020


#       File generated by GOLD software.
#

@<TRIPOS>MOLECULE
AV-unprocessed.smi:1824
    50    52     1
SMALL
NO_CHARGES


@<TRIPOS>ATOM
      1 ****        -2.0449   2.2146  -2.9847 C.3            1 S1                 0.0000
      2 ****        -2.2538   1.4155  -1.6940 C.3            1 S1                 0.0000
      3 ****        -1.2643   1.8376  -0.5865 C.3            1 S1                 0.0000
      4 ****        -1.5560   1.1563   0.7009 N.4            1 S1                 1.0000
      5 ****        -1.0783  -0.2506   0.7886 C.3            1 S1                 0.0000
      6 ****         0.4405  -0.3405   1.0368 C.3            1 S1                 0.0000
      7 ****         0.7324   0.2334   2.2971 O.3            1 S1                 0.0000
      8 ****         0.9440  -1.7966   1.0127 C.3            1 S1                 0.0000
      9 ****         2.3808  -1.8870   1.2014 N.pl3          1 S1                 0.0000
     10 ****         3.0375  -2.1647   2.3444 C.2            1 S1                 0.0000
     11 ****         4.3661  -2.1906   2.2930 N.2            1 S1                 0.0000
     12 ****         4.6005  -1.8993   0.9602 C.ar           1 S1                 0.0000
     13 ****         5.8144  -1.7744   0.2477 C.ar           1 S1                 0.0000
     14 ****         5.8073  -1.4690  -1.1293 C.ar           1 S1                 0.0000
     15 ****         6.9796  -1.3555  -1.7973 F              1 S1                 0.0000
     16 ****         4.5874  -1.2824  -1.8133 C.ar           1 S1                 0.0000
     17 ****         4.5891  -0.9899  -3.1354 F              1 S1                 0.0000
     18 ****         3.3652  -1.3991  -1.1240 C.ar           1 S1                 0.0000
     19 ****         3.3777  -1.7054   0.2492 C.ar           1 S1                 0.0000
     20 ****        -2.9828   1.3280   1.0681 C.3            1 S1                 0.0000
     21 ****        -3.9139   0.8930  -0.0815 C.3            1 S1                 0.0000
     22 ****        -5.3902   1.1442   0.2452 C.3            1 S1                 0.0000
     23 ****        -3.5860   1.6424  -1.2462 O.3            1 S1                 0.0000
     24 ****        -1.0385   2.0699  -3.3782 H              1 S1                 0.0000
     25 ****        -2.1888   3.2823  -2.8163 H              1 S1                 0.0000
     26 ****        -2.7508   1.9018  -3.7546 H              1 S1                 0.0000
     27 ****        -2.1312   0.3573  -1.9278 H              1 S1                 0.0000
     28 ****        -0.2369   1.6603  -0.9018 H              1 S1                 0.0000
     29 ****        -1.3476   2.9127  -0.4202 H              1 S1                 0.0000
     30 ****        -1.5898  -0.7621   1.6054 H              1 S1                 0.0000
     31 ****        -1.3461  -0.7935  -0.1179 H              1 S1                 0.0000
     32 ****         0.9803   0.2232   0.2764 H              1 S1                 0.0000
     33 ****         0.3340  -0.2952   2.9720 H              1 S1                 0.0000
     34 ****         0.4513  -2.3880   1.7860 H              1 S1                 0.0000
     35 ****         0.6982  -2.2650   0.0588 H              1 S1                 0.0000
     36 ****         2.5103  -2.3539   3.2681 H              1 S1                 0.0000
     37 ****         6.7542  -1.9145   0.7610 H              1 S1                 0.0000
     38 ****         2.4307  -1.2564  -1.6456 H              1 S1                 0.0000
     39 ****        -3.2109   0.7828   1.9847 H              1 S1                 0.0000
     40 ****        -3.1506   2.3823   1.2927 H              1 S1                 0.0000
     41 ****        -3.7834  -0.1707  -0.2874 H              1 S1                 0.0000
     42 ****        -5.6974   0.5843   1.1289 H              1 S1                 0.0000
     43 ****        -6.0304   0.8358  -0.5817 H              1 S1                 0.0000
     44 ****        -5.5798   2.2010   0.4355 H              1 S1                 0.0000
     45 ****        -1.0309   1.6476   1.4110 H              1 S1                 0.0000
     46 ****         0.3645   1.1624   2.3367 LP             1 S1                 0.0000
     47 ****         1.7228   0.2610   2.4325 LP             1 S1                 0.0000
     48 ****         5.0230  -2.3727   3.0246 LP             1 S1                 0.0000
     49 ****        -4.2168   1.3861  -1.9786 LP             1 S1                 0.0000
     50 ****        -3.6920   2.6151  -1.0401 LP             1 S1                 0.0000
@<TRIPOS>BOND
    1    1    2 1     
    2    1   24 1     
    3    1   25 1     
    4    1   26 1     
    5    2   23 1     
    6    2    3 1     
    7    2   27 1     
    8    3    4 1     
    9    3   28 1     
   10    3   29 1     
   11    4    5 1     
   12    4   20 1     
   13    4   45 1     
   14    5    6 1     
   15    5   30 1     
   16    5   31 1     
   17    6    7 1     
   18    6    8 1     
   19    6   32 1     
   20    7   33 1     
   21    8    9 1     
   22    8   34 1     
   23    8   35 1     
   24    9   19 1     
   25    9   10 1     
   26   10   11 2     
   27   10   36 1     
   28   11   12 1     
   29   12   19 ar    
   30   12   13 ar    
   31   13   14 ar    
   32   13   37 1     
   33   14   15 1     
   34   14   16 ar    
   35   16   17 1     
   36   16   18 ar    
   37   18   19 ar    
   38   18   38 1     
   39   20   21 1     
   40   20   39 1     
   41   20   40 1     
   42   21   22 1     
   43   21   23 1     
   44   21   41 1     
   45   22   42 1     
   46   22   43 1     
   47   22   44 1     
   48    7   46 1     
   49    7   47 1     
   50   11   48 1     
   51   23   49 1     
   52   23   50 1     
@<TRIPOS>SUBSTRUCTURE
      1 S1             1
@<TRIPOS>SET
LONE_PAIRS      STATIC     ATOMS    <user>   **** ""
5 46 47 48 49 50
DONOR_HYDROGENS      STATIC     ATOMS    <user>   **** ""
2 45 33
ATOM$BLUE        STATIC     ATOMS    COLORGROUP SYSTEM
5 46 47 48 49 50
ATOM$RED        STATIC     ATOMS    COLORGROUP SYSTEM
2 45 33
