AV-unprocessed.smi:276|AV-procd|sdf|2078|dock3
  -GOLD-   2262021343D 1   1.00000     0.00000
 Structure written by MMmdl.
 57 61  0  0  0  0  0  0  0  0  1 V2000
  152.9932  139.8532  158.0129 C   0  0  0  0  0  0  0  0  0  0  0  0
  152.7398  139.7477  156.6225 O   0  0  0  0  0  0  0  0  0  0  0  0
  151.3550  139.6683  156.3226 C   0  0  2  0  0  0  0  0  0  0  0  0
  151.0579  139.6774  154.8145 C   0  0  0  0  0  0  0  0  0  0  0  0
  150.1515  140.9023  155.0061 C   0  0  1  0  0  0  0  0  0  0  0  0
  148.7186  140.6189  154.8201 N   0  0  0  0  0  0  0  0  0  0  0  0
  147.7919  141.6107  154.2743 C   0  0  0  0  0  0  0  0  0  0  0  0
  148.3243  139.3170  154.7477 C   0  0  0  0  0  0  0  0  0  0  0  0
  148.7625  138.4364  155.6880 N   0  0  0  0  0  0  0  0  0  0  0  0
  148.4070  137.1502  155.6383 C   0  0  0  0  0  0  0  0  0  0  0  0
  147.6255  136.5356  154.7500 N   0  0  0  0  0  0  0  0  0  0  0  0
  147.1693  137.4099  153.8085 C   0  0  0  0  0  0  0  0  0  0  0  0
  147.4648  138.8017  153.7312 C   0  0  0  0  0  0  0  0  0  0  0  0
  146.8041  139.3574  152.6396 N   0  0  0  0  0  0  0  0  0  0  0  0
  146.1639  138.3551  152.1030 C   0  0  0  0  0  0  0  0  0  0  0  0
  146.3273  137.1487  152.7425 N   0  0  0  0  0  0  0  0  0  0  0  0
  145.7292  135.8794  152.3672 C   0  0  0  0  0  0  0  0  0  0  0  0
  146.0139  135.5020  150.8996 C   0  0  2  0  0  0  0  0  0  0  0  0
  145.2795  136.3562  150.0431 O   0  0  0  0  0  0  0  0  0  0  0  0
  145.6354  134.0413  150.5915 C   0  0  1  0  0  0  0  0  0  0  0  0
  146.3679  133.0035  151.4438 C   0  0  0  0  0  0  0  0  0  0  0  0
  145.4257  131.8248  151.3666 C   0  0  0  0  0  0  0  0  0  0  0  0
  144.0636  132.5103  151.4173 C   0  0  0  0  0  0  0  0  0  0  0  0
  144.2558  133.8138  150.8725 O   0  0  0  0  0  0  0  0  0  0  0  0
  150.6159  141.0151  156.4722 C   0  0  0  0  0  0  0  0  0  0  0  0
  151.3651  142.2775  156.9366 C   0  0  0  0  0  0  0  0  0  0  0  0
  150.7530  142.0743  158.3240 C   0  0  0  0  0  0  0  0  0  0  0  0
  149.6522  141.2519  157.6506 C   0  0  0  0  0  0  0  0  0  0  0  0
  154.0681  139.9074  158.1858 H   0  0  0  0  0  0  0  0  0  0  0  0
  152.6090  138.9884  158.5551 H   0  0  0  0  0  0  0  0  0  0  0  0
  152.5401  140.7548  158.4272 H   0  0  0  0  0  0  0  0  0  0  0  0
  150.8465  138.8622  156.8537 H   0  0  0  0  0  0  0  0  0  0  0  0
  151.9362  139.9082  154.2104 H   0  0  0  0  0  0  0  0  0  0  0  0
  150.5630  138.7759  154.4518 H   0  0  0  0  0  0  0  0  0  0  0  0
  150.5164  141.7304  154.3965 H   0  0  0  0  0  0  0  0  0  0  0  0
  147.1945  141.1915  153.4636 H   0  0  0  0  0  0  0  0  0  0  0  0
  148.3095  142.4783  153.8706 H   0  0  0  0  0  0  0  0  0  0  0  0
  147.1165  141.9615  155.0547 H   0  0  0  0  0  0  0  0  0  0  0  0
  148.8064  136.5242  156.4224 H   0  0  0  0  0  0  0  0  0  0  0  0
  145.5482  138.4694  151.2225 H   0  0  0  0  0  0  0  0  0  0  0  0
  146.1179  135.1116  153.0372 H   0  0  0  0  0  0  0  0  0  0  0  0
  144.6547  135.9316  152.5475 H   0  0  0  0  0  0  0  0  0  0  0  0
  147.0742  135.6504  150.6900 H   0  0  0  0  0  0  0  0  0  0  0  0
  145.4261  136.0842  149.1500 H   0  0  0  0  0  0  0  0  0  0  0  0
  145.8014  133.8200  149.5356 H   0  0  0  0  0  0  0  0  0  0  0  0
  147.3670  132.7747  151.0717 H   0  0  0  0  0  0  0  0  0  0  0  0
  146.4564  133.3441  152.4765 H   0  0  0  0  0  0  0  0  0  0  0  0
  145.5518  131.3081  150.4141 H   0  0  0  0  0  0  0  0  0  0  0  0
  145.5713  131.1026  152.1703 H   0  0  0  0  0  0  0  0  0  0  0  0
  143.3028  131.9572  150.8663 H   0  0  0  0  0  0  0  0  0  0  0  0
  143.7262  132.6142  152.4491 H   0  0  0  0  0  0  0  0  0  0  0  0
  152.4534  142.2268  156.9049 H   0  0  0  0  0  0  0  0  0  0  0  0
  150.9979  143.1832  156.4507 H   0  0  0  0  0  0  0  0  0  0  0  0
  151.3860  141.4758  158.9811 H   0  0  0  0  0  0  0  0  0  0  0  0
  150.4096  142.9877  158.8103 H   0  0  0  0  0  0  0  0  0  0  0  0
  148.7863  141.8603  157.3868 H   0  0  0  0  0  0  0  0  0  0  0  0
  149.3594  140.3539  158.1951 H   0  0  0  0  0  0  0  0  0  0  0  0
  1  2  1  0  0  0  0
  1 29  1  0  0  0  0
  1 30  1  0  0  0  0
  1 31  1  0  0  0  0
  2  3  1  0  0  0  0
  3 25  1  0  0  0  0
  3  4  1  0  0  0  0
  3 32  1  0  0  0  0
  4  5  1  0  0  0  0
  4 33  1  0  0  0  0
  4 34  1  0  0  0  0
  5  6  1  0  0  0  0
  5 25  1  0  0  0  0
  5 35  1  0  0  0  0
  6  7  1  0  0  0  0
  6  8  1  0  0  0  0
  7 36  1  0  0  0  0
  7 37  1  0  0  0  0
  7 38  1  0  0  0  0
  8 13  1  0  0  0  0
  8  9  2  0  0  0  0
  9 10  1  0  0  0  0
 10 11  2  0  0  0  0
 10 39  1  0  0  0  0
 11 12  1  0  0  0  0
 12 16  1  0  0  0  0
 12 13  2  0  0  0  0
 13 14  1  0  0  0  0
 14 15  2  0  0  0  0
 15 16  1  0  0  0  0
 15 40  1  0  0  0  0
 16 17  1  0  0  0  0
 17 18  1  0  0  0  0
 17 41  1  0  0  0  0
 17 42  1  0  0  0  0
 18 19  1  0  0  0  0
 18 20  1  0  0  0  0
 18 43  1  0  0  0  0
 19 44  1  0  0  0  0
 20 24  1  0  0  0  0
 20 21  1  0  0  0  0
 20 45  1  0  0  0  0
 21 22  1  0  0  0  0
 21 46  1  0  0  0  0
 21 47  1  0  0  0  0
 22 23  1  0  0  0  0
 22 48  1  0  0  0  0
 22 49  1  0  0  0  0
 23 24  1  0  0  0  0
 23 50  1  0  0  0  0
 23 51  1  0  0  0  0
 25 28  1  0  0  0  0
 25 26  1  0  0  0  0
 26 27  1  0  0  0  0
 26 52  1  0  0  0  0
 26 53  1  0  0  0  0
 27 28  1  0  0  0  0
 27 54  1  0  0  0  0
 27 55  1  0  0  0  0
 28 56  1  0  0  0  0
 28 57  1  0  0  0  0
M  END
> <s_m_source_file>
AV-unprocessed.smi

> <i_m_source_file_index>
276

> <i_lp_mmshare_version>
43012

> <i_f3d_flags>
0

> <s_epik_input>
W0NIMl0xW0NIMl1bQ0gyXUMxMltDQEhdKE9bQ0gzXSlbQ0gyXVtDQEhdMk4oW0NIM10pYyhuW2NIXW4zKWMoYzM0KW5bY0hdbjRbQ0gyXVtDQEhdKFtPSF0pW0NAQEhdNVtDSDJdW0NIMl1bQ0gyXU81

> <s_epik_cmdline>
J2VwaWtfcHl0aG9uJywgJy1waCcsICc3LjAnLCAnLXRuJywgJzgnLCAnLW1hJywgJzIwMCcsICctbWV0YWxfYmluZGluZycsICctaW1hZScsICc8aW5maWxlLm1hZT4nLCAnLW9tYWUnLCAnPG91dGZpbGUubWFlPic=

> <r_lp_tautomer_probability>
1

> <r_epik_Ionization_Penalty>
0.00204117

> <r_epik_Ionization_Penalty_Charging>
0

> <r_epik_Ionization_Penalty_Neutral>
0.00204117

> <r_epik_State_Penalty>
0.00127401

> <r_epik_Charging_Adjusted_Penalty>
0.00127401

> <i_epik_Tot_Q>
0

> <i_epik_Tot_abs_Q>
0

> <r_epik_Metal_State_Penalty>
-0

> <b_epik_Metal_Only>
0

> <s_lp_Force_Field>
OPLS_2005

> <r_lp_Energy>
56.66

> <b_lp_Chiralities_Consistent>
1

> <s_lp_Variant>
AV-unprocessed.smi:276-9

> <Gold.Version>
5.8.1

> <Gold.Id.Protein>
6NUR|6NUR_protein|mol2

> <Gold.PLP.Fitness>
48.6618

> <Gold.PLP.PLP>
-41.2239

> <Gold.PLP.part.hbond>
-3.0000

> <Gold.PLP.part.metal>
0.0000

> <Gold.PLP.part.buried>
0.3476

> <Gold.PLP.part.nonpolar>
-37.9596

> <Gold.PLP.part.repulsive>
0.9140

> <Gold.PLP.ligand.clash>
0.0000

> <Gold.PLP.ligand.torsion>
1.2422

> <Gold.PLP.Chemscore.Hbond>
1.9913

> <Gold.PLP.Chemscore.CHOScore>
1.0000

> <Gold.PLP.Chemscore.Metal>
0.0000

> <Gold.Chemscore.Hbonds>
donor molecule, donor type, donor heavy atom, donor atom, acceptor molecule, acceptor atom, score
      L1  H    19    44       P1  7921  0.88
      P1  H  7997  8010       L1     2  0.60
      L1  C    15    40       P1 10171  1.00

> <Gold.PLP.Chemscore.Internal.Correction>
0.9485

> <Gold.Rescore>
     Score         DG    S(hbond)    S(metal)    S(lipo)     H(rot)  DE(clash)    DE(int)     intcor
      8.82     -14.62       1.39        0.00      92.26       2.46       0.33       5.47       ----

> <Gold.Chemscore.Fitness>
8.8151

> <Gold.Chemscore.DG>
-14.6154

> <Gold.Chemscore.ZeroCoef>
-5.4800

> <Gold.Chemscore.Hbond>
1.3872

> <Gold.Chemscore.Metal>
0.0000

> <Gold.Chemscore.Lipo>
92.2636

> <Gold.Chemscore.Internal_Hbond>
0.0000

> <Gold.Chemscore.DEClash>
0.3325

> <Gold.Chemscore.DEInternal>
5.4679

> <Gold.Chemscore.Rot>
2.4581

> <Gold.Chemscore.Internal.Correction>
   9.000000E+99

> <Gold.Chemscore.Hbonds>
donor molecule, donor type, donor heavy atom, donor atom, acceptor molecule, acceptor atom, score
      L1  H    19    44       P1  7921  0.84
      P1  H  7997  8010       L1     2  0.04

> <Gold.Chemscore.Hbond.Weighted>
-4.6332

> <Gold.Chemscore.Metal.Weighted>
-0.0000

> <Gold.Chemscore.Lipo.Weighted>
-10.7948

> <Gold.Chemscore.Internal_Hbond.Weighted>
0.0000

> <Gold.Chemscore.DEClash.Weighted>
0.3325

> <Gold.Chemscore.DEInternal.Weighted>
5.4679

> <Gold.Chemscore.Rot.Weighted>
6.2927

> <Gold.Chemscore.Internal.Correction.Weighted>
   9.000000E+99

> <Gold.Protein.RotatedTorsions>
[ 6907 6896 6895 6894 ] final  102.38 input  -60.11 | X-H torsion
[ 7974 7965 7964 7962 ] final   68.67 input  175.53 | X-H torsion
[ 8008 7997 7996 7995 ] final   83.89 input   59.86 | X-H torsion
[ 10167 10162 10161 10158 ] final  137.86 input  -65.29 | X-H torsion
[ 10718 10713 10712 10709 ] final  -16.40 input   66.30 | X-H torsion
[ 10763 10752 10751 10750 ] final   21.37 input  -60.55 | X-H torsion
[ 11005 11000 10999 10996 ] final  -47.11 input  -57.11 | X-H torsion

> <Gold.Protein.ActiveResidues>
 VAL166  LYS551  ARG553  GLY616  TRP617  ASP618  TYR619  PRO620  LYS621  CYS622 
 ASP623  PHE694  ASN695  SER759  ASP760  ASP761  ALA762  ILE779  LEU786  VAL792 
 PHE793  MET794  SER795  GLU796  ALA797  LYS798  CYS799  TRP800  GLU811  SER814 

> <Gold.Protein.RotatedAtoms>
  152.5325  133.9985  159.7883 H   0  0  0  0  0  0  0  0  0  0  0  0  # atno 6907 bound_to 6896
  151.0208  133.5871  159.2678 H   0  0  0  0  0  0  0  0  0  0  0  0  # atno 6908 bound_to 6896
  151.2911  135.0749  159.9258 H   0  0  0  0  0  0  0  0  0  0  0  0  # atno 6909 bound_to 6896
  145.7998  139.2976  143.1161 H   0  0  0  0  0  0  0  0  0  0  0  0  # atno 7974 bound_to 7965
  155.9299  140.3415  155.6240 H   0  0  0  0  0  0  0  0  0  0  0  0  # atno 8008 bound_to 7997
  155.7171  140.0779  157.2365 H   0  0  0  0  0  0  0  0  0  0  0  0  # atno 8009 bound_to 7997
  154.4083  140.1612  156.2348 H   0  0  0  0  0  0  0  0  0  0  0  0  # atno 8010 bound_to 7997
  139.5130  144.6386  151.5629 H   0  0  0  0  0  0  0  0  0  0  0  0  # atno 10167 bound_to 10162
  156.5881  130.4792  149.6291 H   0  0  0  0  0  0  0  0  0  0  0  0  # atno 10718 bound_to 10713
  153.1001  135.6670  153.9689 H   0  0  0  0  0  0  0  0  0  0  0  0  # atno 10763 bound_to 10752
  153.9262  135.3009  155.3448 H   0  0  0  0  0  0  0  0  0  0  0  0  # atno 10764 bound_to 10752
  154.7421  135.5074  153.9216 H   0  0  0  0  0  0  0  0  0  0  0  0  # atno 10765 bound_to 10752
  141.0620  133.6706  156.3251 H   0  0  0  0  0  0  0  0  0  0  0  0  # atno 11005 bound_to 11000
  145.9890  140.8619  143.0076 LP  0  0  0  0  0  0  0  0  0  0  0  0  # atno 17320 bound_to 7965
  144.6770  140.2188  143.7369 LP  0  0  0  0  0  0  0  0  0  0  0  0  # atno 17321 bound_to 7965
  140.6144  143.9375  150.6478 LP  0  0  0  0  0  0  0  0  0  0  0  0  # atno 17342 bound_to 10162
  140.2629  143.3511  152.1307 LP  0  0  0  0  0  0  0  0  0  0  0  0  # atno 17343 bound_to 10162
  156.2573  130.6942  151.1699 LP  0  0  0  0  0  0  0  0  0  0  0  0  # atno 17370 bound_to 10713
  157.7310  131.0611  150.5698 LP  0  0  0  0  0  0  0  0  0  0  0  0  # atno 17371 bound_to 10713
  140.5849  134.5709  157.5487 LP  0  0  0  0  0  0  0  0  0  0  0  0  # atno 17394 bound_to 11000
  139.9442  134.7732  156.0604 LP  0  0  0  0  0  0  0  0  0  0  0  0  # atno 17395 bound_to 11000

$$$$
