AV-unprocessed.smi:1605|AV-procd|sdf|6451|dock1
  -GOLD-   22720 7103D 1   1.00000     0.00000
 Structure written by MMmdl.
 51 53  0  0  0  0  0  0  0  0  2 V2000
  146.4716  134.2113  151.2762 C   0  0  0  0  0  0  0  0  0  0  0  0
  145.2809  134.8818  151.6611 O   0  0  0  0  0  0  0  0  0  0  0  0
  145.4791  136.2148  152.1124 C   0  0  2  0  0  0  0  0  0  0  0  0
  146.2493  137.0495  151.0729 C   0  0  0  0  0  0  0  0  0  0  0  0
  146.5931  138.4413  151.6285 C   0  0  0  0  0  0  0  0  0  0  0  0
  147.3714  138.3412  152.8922 N   0  3  1  0  0  0  0  0  0  0  0  0
  147.8258  139.6600  153.4014 C   0  0  0  0  0  0  0  0  0  0  0  0
  148.8131  139.5271  154.5823 C   0  0  2  0  0  0  0  0  0  0  0  0
  148.0754  139.4271  155.7835 O   0  0  0  0  0  0  0  0  0  0  0  0
  149.7766  140.7221  154.7166 C   0  0  0  0  0  0  0  0  0  0  0  0
  150.7834  140.5078  155.7400 N   0  0  0  0  0  0  0  0  0  0  0  0
  151.7296  139.5493  155.7536 C   0  0  0  0  0  0  0  0  0  0  0  0
  152.5659  139.5344  156.7870 N   0  0  0  0  0  0  0  0  0  0  0  0
  152.1040  140.6029  157.5362 C   0  0  0  0  0  0  0  0  0  0  0  0
  152.5616  141.1272  158.7647 C   0  0  0  0  0  0  0  0  0  0  0  0
  151.9315  142.2458  159.3550 C   0  0  0  0  0  0  0  0  0  0  0  0
  152.4546  142.7739  160.6792 C   0  0  0  0  0  0  0  0  0  0  0  0
  150.8265  142.8601  158.7126 C   0  0  0  0  0  0  0  0  0  0  0  0
  150.1357  144.0645  159.3272 C   0  0  0  0  0  0  0  0  0  0  0  0
  150.3555  142.3483  157.4852 C   0  0  0  0  0  0  0  0  0  0  0  0
  150.9893  141.2329  156.9092 C   0  0  0  0  0  0  0  0  0  0  0  0
  146.6380  137.5614  153.9224 C   0  0  0  0  0  0  0  0  0  0  0  0
  146.2942  136.1521  153.4124 C   0  0  0  0  0  0  0  0  0  0  0  0
  146.2234  133.2158  150.9086 H   0  0  0  0  0  0  0  0  0  0  0  0
  147.1597  134.0908  152.1126 H   0  0  0  0  0  0  0  0  0  0  0  0
  146.9837  134.7441  150.4742 H   0  0  0  0  0  0  0  0  0  0  0  0
  144.5164  136.6823  152.3287 H   0  0  0  0  0  0  0  0  0  0  0  0
  147.1672  136.5319  150.7906 H   0  0  0  0  0  0  0  0  0  0  0  0
  145.6646  137.1637  150.1604 H   0  0  0  0  0  0  0  0  0  0  0  0
  147.1564  138.9917  150.8759 H   0  0  0  0  0  0  0  0  0  0  0  0
  145.6770  139.0062  151.8085 H   0  0  0  0  0  0  0  0  0  0  0  0
  148.2690  140.2129  152.5727 H   0  0  0  0  0  0  0  0  0  0  0  0
  146.9705  140.2518  153.7317 H   0  0  0  0  0  0  0  0  0  0  0  0
  149.4081  138.6196  154.4824 H   0  0  0  0  0  0  0  0  0  0  0  0
  148.5433  139.8827  156.4672 H   0  0  0  0  0  0  0  0  0  0  0  0
  150.2775  140.9216  153.7685 H   0  0  0  0  0  0  0  0  0  0  0  0
  149.2232  141.6273  154.9721 H   0  0  0  0  0  0  0  0  0  0  0  0
  151.8126  138.8247  154.9565 H   0  0  0  0  0  0  0  0  0  0  0  0
  153.4043  140.6602  159.2531 H   0  0  0  0  0  0  0  0  0  0  0  0
  151.6624  142.7839  161.4281 H   0  0  0  0  0  0  0  0  0  0  0  0
  152.8351  143.7890  160.5624 H   0  0  0  0  0  0  0  0  0  0  0  0
  153.2657  142.1539  161.0621 H   0  0  0  0  0  0  0  0  0  0  0  0
  149.3392  144.4382  158.6837 H   0  0  0  0  0  0  0  0  0  0  0  0
  150.8465  144.8762  159.4835 H   0  0  0  0  0  0  0  0  0  0  0  0
  149.6941  143.8012  160.2884 H   0  0  0  0  0  0  0  0  0  0  0  0
  149.5141  142.8067  156.9873 H   0  0  0  0  0  0  0  0  0  0  0  0
  147.2483  137.4743  154.8222 H   0  0  0  0  0  0  0  0  0  0  0  0
  145.7284  138.0939  154.2051 H   0  0  0  0  0  0  0  0  0  0  0  0
  145.7361  135.6083  154.1753 H   0  0  0  0  0  0  0  0  0  0  0  0
  147.2148  135.5911  153.2442 H   0  0  0  0  0  0  0  0  0  0  0  0
  148.2093  137.8155  152.6849 H   0  0  0  0  0  0  0  0  0  0  0  0
  1  2  1  0  0  0  0
  1 24  1  0  0  0  0
  1 25  1  0  0  0  0
  1 26  1  0  0  0  0
  2  3  1  0  0  0  0
  3 23  1  0  0  0  0
  3  4  1  0  0  0  0
  3 27  1  0  0  0  0
  4  5  1  0  0  0  0
  4 28  1  0  0  0  0
  4 29  1  0  0  0  0
  5  6  1  0  0  0  0
  5 30  1  0  0  0  0
  5 31  1  0  0  0  0
  6  7  1  0  0  0  0
  6 22  1  0  0  0  0
  6 51  1  0  0  0  0
  7  8  1  0  0  0  0
  7 32  1  0  0  0  0
  7 33  1  0  0  0  0
  8  9  1  0  0  0  0
  8 10  1  0  0  0  0
  8 34  1  0  0  0  0
  9 35  1  0  0  0  0
 10 11  1  0  0  0  0
 10 36  1  0  0  0  0
 10 37  1  0  0  0  0
 11 21  1  0  0  0  0
 11 12  1  0  0  0  0
 12 13  2  0  0  0  0
 12 38  1  0  0  0  0
 13 14  1  0  0  0  0
 14 21  2  0  0  0  0
 14 15  1  0  0  0  0
 15 16  2  0  0  0  0
 15 39  1  0  0  0  0
 16 17  1  0  0  0  0
 16 18  1  0  0  0  0
 17 40  1  0  0  0  0
 17 41  1  0  0  0  0
 17 42  1  0  0  0  0
 18 19  1  0  0  0  0
 18 20  2  0  0  0  0
 19 43  1  0  0  0  0
 19 44  1  0  0  0  0
 19 45  1  0  0  0  0
 20 21  1  0  0  0  0
 20 46  1  0  0  0  0
 22 23  1  0  0  0  0
 22 47  1  0  0  0  0
 22 48  1  0  0  0  0
 23 49  1  0  0  0  0
 23 50  1  0  0  0  0
M  CHG  1   6   1
M  END
> <s_m_source_file>
AV-unprocessed.smi

> <i_m_source_file_index>
1605

> <i_lp_mmshare_version>
43012

> <i_f3d_flags>
0

> <s_epik_input>
W0NIM11PW0NIXTFbQ0gyXVtDSDJdTihbQ0gyXVtDSDJdMSlbQ0gyXVtDQEhdKFtPSF0pW0NIMl1uKFtjSF1uMiljKGMyMylbY0hdYyhbQ0gzXSljKFtjSF0zKVtDSDNd

> <s_epik_cmdline>
J2VwaWtfcHl0aG9uJywgJy1waCcsICc3LjAnLCAnLXRuJywgJzgnLCAnLW1hJywgJzIwMCcsICctbWV0YWxfYmluZGluZycsICctaW1hZScsICc8aW5maWxlLm1hZT4nLCAnLW9tYWUnLCAnPG91dGZpbGUubWFlPic=

> <r_epik_Ionization_Penalty>
0.110943

> <r_epik_Ionization_Penalty_Charging>
0.0229283

> <r_epik_Ionization_Penalty_Neutral>
0.0880146

> <r_epik_State_Penalty>
0.0947554

> <r_epik_Charging_Adjusted_Penalty>
0.117684

> <i_epik_Tot_Q>
1

> <i_epik_Tot_abs_Q>
1

> <r_epik_Metal_State_Penalty>
0.0192456

> <b_epik_Metal_Only>
0

> <s_lp_Force_Field>
OPLS_2005

> <r_lp_Energy>
22.9289

> <b_lp_Chiralities_Consistent>
1

> <s_lp_Variant>
AV-unprocessed.smi:1605-1

> <Gold.Version>
5.8.1

> <Gold.Id.Protein>
6NUR|6NUR_protein|mol2

> <Gold.PLP.Fitness>
48.1018

> <Gold.PLP.PLP>
-39.6865

> <Gold.PLP.part.hbond>
-2.0000

> <Gold.PLP.part.metal>
0.0000

> <Gold.PLP.part.buried>
1.4679

> <Gold.PLP.part.nonpolar>
-40.4962

> <Gold.PLP.part.repulsive>
0.1728

> <Gold.PLP.ligand.clash>
0.0000

> <Gold.PLP.ligand.torsion>
0.3672

> <Gold.PLP.Chemscore.Hbond>
3.0000

> <Gold.PLP.Chemscore.CHOScore>
0.0000

> <Gold.PLP.Chemscore.Metal>
0.0000

> <Gold.Chemscore.Hbonds>
donor molecule, donor type, donor heavy atom, donor atom, acceptor molecule, acceptor atom, score
      L1  H     6    51       P1  7948  1.89
      P1  H  7997  8008       L1    13  1.00

> <Gold.PLP.Chemscore.Internal.Correction>
0.1497

> <Gold.Rescore>
     Score         DG    S(hbond)    S(metal)    S(lipo)     H(rot)  DE(clash)    DE(int)     intcor
     15.35     -16.80       0.97        0.00     117.63       2.22       0.92       0.53       ----

> <Gold.Chemscore.Fitness>
15.3484

> <Gold.Chemscore.DG>
-16.7962

> <Gold.Chemscore.ZeroCoef>
-5.4800

> <Gold.Chemscore.Hbond>
0.9668

> <Gold.Chemscore.Metal>
0.0000

> <Gold.Chemscore.Lipo>
117.6265

> <Gold.Chemscore.Internal_Hbond>
0.0000

> <Gold.Chemscore.DEClash>
0.9199

> <Gold.Chemscore.DEInternal>
0.5279

> <Gold.Chemscore.Rot>
2.2169

> <Gold.Chemscore.Internal.Correction>
   9.000000E+99

> <Gold.Chemscore.Hbonds>
donor molecule, donor type, donor heavy atom, donor atom, acceptor molecule, acceptor atom, score
      L1  H     6    51       P1  7948  0.91
      P1  H  7997  8008       L1    13  0.26

> <Gold.Chemscore.Hbond.Weighted>
-3.2292

> <Gold.Chemscore.Metal.Weighted>
-0.0000

> <Gold.Chemscore.Lipo.Weighted>
-13.7623

> <Gold.Chemscore.Internal_Hbond.Weighted>
0.0000

> <Gold.Chemscore.DEClash.Weighted>
0.9199

> <Gold.Chemscore.DEInternal.Weighted>
0.5279

> <Gold.Chemscore.Rot.Weighted>
5.6753

> <Gold.Chemscore.Internal.Correction.Weighted>
   9.000000E+99

> <Gold.Protein.RotatedTorsions>
[ 6907 6896 6895 6894 ] final  -90.23 input  -60.11 | X-H torsion
[ 7974 7965 7964 7962 ] final -101.56 input  175.53 | X-H torsion
[ 8008 7997 7996 7995 ] final  -35.71 input   59.86 | X-H torsion
[ 10167 10162 10161 10158 ] final  112.10 input  -65.29 | X-H torsion
[ 10718 10713 10712 10709 ] final  177.45 input   66.30 | X-H torsion
[ 10763 10752 10751 10750 ] final  -35.90 input  -60.55 | X-H torsion
[ 11005 11000 10999 10996 ] final  172.34 input  -57.11 | X-H torsion

> <Gold.Protein.ActiveResidues>
 VAL166  LYS551  ARG553  GLY616  TRP617  ASP618  TYR619  PRO620  LYS621  CYS622 
 ASP623  PHE694  ASN695  SER759  ASP760  ASP761  ALA762  ILE779  LEU786  VAL792 
 PHE793  MET794  SER795  GLU796  ALA797  LYS798  CYS799  TRP800  GLU811  SER814 

> <Gold.Protein.RotatedAtoms>
  150.6880  134.2463  159.4492 H   0  0  0  0  0  0  0  0  0  0  0  0  # atno 6907 bound_to 6896
  152.0404  134.9712  160.0583 H   0  0  0  0  0  0  0  0  0  0  0  0  # atno 6908 bound_to 6896
  152.1216  133.4322  159.4715 H   0  0  0  0  0  0  0  0  0  0  0  0  # atno 6909 bound_to 6896
  145.2800  140.9323  143.2937 H   0  0  0  0  0  0  0  0  0  0  0  0  # atno 7974 bound_to 7965
  154.4089  140.1650  156.2256 H   0  0  0  0  0  0  0  0  0  0  0  0  # atno 8008 bound_to 7997
  155.9326  140.3413  155.6239 H   0  0  0  0  0  0  0  0  0  0  0  0  # atno 8009 bound_to 7997
  155.7087  140.0754  157.2371 H   0  0  0  0  0  0  0  0  0  0  0  0  # atno 8010 bound_to 7997
  139.6561  144.7129  151.1954 H   0  0  0  0  0  0  0  0  0  0  0  0  # atno 10167 bound_to 10162
  156.9051  130.9891  151.3029 H   0  0  0  0  0  0  0  0  0  0  0  0  # atno 10718 bound_to 10713
  153.8709  135.6831  153.4774 H   0  0  0  0  0  0  0  0  0  0  0  0  # atno 10763 bound_to 10752
  153.1288  135.4707  154.9313 H   0  0  0  0  0  0  0  0  0  0  0  0  # atno 10764 bound_to 10752
  154.7714  135.3240  154.8131 H   0  0  0  0  0  0  0  0  0  0  0  0  # atno 10765 bound_to 10752
  140.3287  134.7376  157.4118 H   0  0  0  0  0  0  0  0  0  0  0  0  # atno 11005 bound_to 11000
  144.9262  139.4353  143.6517 LP  0  0  0  0  0  0  0  0  0  0  0  0  # atno 17320 bound_to 7965
  146.3219  139.8148  142.8938 LP  0  0  0  0  0  0  0  0  0  0  0  0  # atno 17321 bound_to 7965
  140.7560  143.6070  150.8643 LP  0  0  0  0  0  0  0  0  0  0  0  0  # atno 17342 bound_to 10162
  139.9723  143.6043  152.2969 LP  0  0  0  0  0  0  0  0  0  0  0  0  # atno 17343 bound_to 10162
  157.6002  130.8507  149.8790 LP  0  0  0  0  0  0  0  0  0  0  0  0  # atno 17370 bound_to 10713
  156.0563  130.3708  150.1084 LP  0  0  0  0  0  0  0  0  0  0  0  0  # atno 17371 bound_to 10713
  140.0880  134.5640  155.8473 LP  0  0  0  0  0  0  0  0  0  0  0  0  # atno 17394 bound_to 11000
  141.2069  133.6659  156.6270 LP  0  0  0  0  0  0  0  0  0  0  0  0  # atno 17395 bound_to 11000

$$$$
