#       Name:                AV-unprocessed.smi:1
#       Creating user name   scv26
#       Creation time:       Thu Mar 26 15:09:57 2020


#       File generated by GOLD software.
#

@<TRIPOS>MOLECULE
AV-unprocessed.smi:1
    66    71     1
SMALL
NO_CHARGES


@<TRIPOS>ATOM
      1 ****        -3.3931   2.7219  -1.8596 O.2            1 S1                 0.0000
      2 ****        -3.4863   1.6346  -1.2836 C.2            1 S1                 0.0000
      3 ****        -2.5093   0.6687  -1.0834 N.2            1 S1                 0.0000
      4 ****        -1.3134   0.8429  -1.5582 C.2            1 S1                 0.0000
      5 ****        -0.7316   1.8742  -2.3065 N.pl3          1 S1                 0.0000
      6 ****         0.5990   1.9195  -2.7502 C.2            1 S1                 0.0000
      7 ****         1.4949   0.9970  -2.5203 N.2            1 S1                 0.0000
      8 ****         0.9724  -0.0437  -1.7655 C.2            1 S1                 0.0000
      9 ****        -0.3073  -0.2037  -1.2807 C.2            1 S1                 0.0000
     10 ****        -0.4136  -1.3797  -0.5495 N.2            1 S1                 0.0000
     11 ****         0.8175  -1.8774  -0.6196 C.2            1 S1                 0.0000
     12 ****         1.7032  -1.1455  -1.3301 N.pl3          1 S1                 0.0000
     13 ****         3.1568  -1.4060  -1.6165 C.3            1 S1                 0.0000
     14 ****         3.8872  -0.4149  -0.9552 O.3            1 S1                 0.0000
     15 ****         4.4860  -0.9265   0.2353 C.3            1 S1                 0.0000
     16 ****         4.2487  -0.0187   1.4532 C.3            1 S1                 0.0000
     17 ****         2.8676   0.1119   1.7681 O.3            1 S1                 0.0000
     18 ****         2.1627   1.1876   1.3492 C.2            1 S1                 0.0000
     19 ****         2.6376   2.0941   0.6625 O.2            1 S1                 0.0000
     20 ****         0.7419   1.1636   1.7986 C.ar           1 S1                 0.0000
     21 ****        -0.0939   2.2669   1.5080 C.ar           1 S1                 0.0000
     22 ****        -1.4447   2.2678   1.9057 C.ar           1 S1                 0.0000
     23 ****        -1.9769   1.1628   2.5951 C.ar           1 S1                 0.0000
     24 ****        -1.1555   0.0595   2.8904 C.ar           1 S1                 0.0000
     25 ****         0.1973   0.0593   2.4986 C.ar           1 S1                 0.0000
     26 ****         4.0260  -2.3825   0.3893 C.3            1 S1                 0.0000
     27 ****         5.0877  -3.2406   0.7765 O.3            1 S1                 0.0000
     28 ****         5.8416  -3.8157  -0.6026 S.o2           1 S1                 0.0000
     29 ****         7.1359  -3.1317  -0.7454 O.2            1 S1                 0.0000
     30 ****         5.7132  -5.2808  -0.6181 O.2            1 S1                 0.0000
     31 ****         4.7872  -3.1842  -1.7334 O.3            1 S1                 0.0000
     32 ****         3.6307  -2.7454  -1.0460 C.3            1 S1                 0.0000
     33 ****        -4.8046   1.2715  -0.6826 C.ar           1 S1                 0.0000
     34 ****        -5.7138   0.4688  -1.4036 C.ar           1 S1                 0.0000
     35 ****        -6.9525   0.1178  -0.8320 C.ar           1 S1                 0.0000
     36 ****        -7.2836   0.5639   0.4624 C.ar           1 S1                 0.0000
     37 ****        -6.3769   1.3636   1.1851 C.ar           1 S1                 0.0000
     38 ****        -5.1392   1.7178   0.6135 C.ar           1 S1                 0.0000
     39 ****         0.8443   2.8135  -3.3250 H              1 S1                 0.0000
     40 ****         1.0661  -2.8040  -0.1259 H              1 S1                 0.0000
     41 ****         3.2345  -1.3299  -2.7016 H              1 S1                 0.0000
     42 ****         5.5576  -0.9259   0.0337 H              1 S1                 0.0000
     43 ****         4.7469  -0.4518   2.3205 H              1 S1                 0.0000
     44 ****         4.7154   0.9547   1.2960 H              1 S1                 0.0000
     45 ****         0.2901   3.1222   0.9711 H              1 S1                 0.0000
     46 ****        -2.0749   3.1136   1.6735 H              1 S1                 0.0000
     47 ****        -3.0145   1.1600   2.8949 H              1 S1                 0.0000
     48 ****        -1.5643  -0.7907   3.4166 H              1 S1                 0.0000
     49 ****         0.7983  -0.8065   2.7341 H              1 S1                 0.0000
     50 ****         3.1752  -2.4705   1.0653 H              1 S1                 0.0000
     51 ****         2.8765  -3.5282  -1.1219 H              1 S1                 0.0000
     52 ****        -5.4652   0.1195  -2.3955 H              1 S1                 0.0000
     53 ****        -7.6480  -0.4953  -1.3859 H              1 S1                 0.0000
     54 ****        -8.2328   0.2926   0.9004 H              1 S1                 0.0000
     55 ****        -6.6306   1.7052   2.1778 H              1 S1                 0.0000
     56 ****        -4.4489   2.3309   1.1743 H              1 S1                 0.0000
     57 ****        -1.3249   2.6541  -2.5500 H              1 S1                 0.0000
     58 ****        -2.5202   3.0033  -2.2582 LP             1 S1                 0.0000
     59 ****        -4.1904   3.3215  -1.9278 LP             1 S1                 0.0000
     60 ****        -2.7271  -0.1629  -0.5725 LP             1 S1                 0.0000
     61 ****         2.4391   1.0359  -2.8473 LP             1 S1                 0.0000
     62 ****        -1.2152  -1.7576  -0.0863 LP             1 S1                 0.0000
     63 ****         3.2739   0.3375  -0.7151 LP             1 S1                 0.0000
     64 ****         4.6058  -0.0780  -1.5636 LP             1 S1                 0.0000
     65 ****         3.5972   2.0596   0.3834 LP             1 S1                 0.0000
     66 ****         2.0633   2.8640   0.3844 LP             1 S1                 0.0000
@<TRIPOS>BOND
    1    1    2 2     
    2    2    3 1     
    3    2   33 1     
    4    3    4 2     
    5    4    9 1     
    6    4    5 1     
    7    5    6 1     
    8    5   57 1     
    9    6    7 2     
   10    6   39 1     
   11    7    8 1     
   12    8   12 1     
   13    8    9 2     
   14    9   10 1     
   15   10   11 2     
   16   11   12 1     
   17   11   40 1     
   18   12   13 1     
   19   13   32 1     
   20   13   14 1     
   21   13   41 1     
   22   14   15 1     
   23   15   16 1     
   24   15   26 1     
   25   15   42 1     
   26   16   17 1     
   27   16   43 1     
   28   16   44 1     
   29   17   18 1     
   30   18   19 2     
   31   18   20 1     
   32   20   25 ar    
   33   20   21 ar    
   34   21   22 ar    
   35   21   45 1     
   36   22   23 ar    
   37   22   46 1     
   38   23   24 ar    
   39   23   47 1     
   40   24   25 ar    
   41   24   48 1     
   42   25   49 1     
   43   26   32 1     
   44   26   27 1     
   45   26   50 1     
   46   27   28 1     
   47   28   29 2     
   48   28   30 2     
   49   28   31 1     
   50   31   32 1     
   51   32   51 1     
   52   33   38 ar    
   53   33   34 ar    
   54   34   35 ar    
   55   34   52 1     
   56   35   36 ar    
   57   35   53 1     
   58   36   37 ar    
   59   36   54 1     
   60   37   38 ar    
   61   37   55 1     
   62   38   56 1     
   63    1   58 1     
   64    1   59 1     
   65    3   60 1     
   66    7   61 1     
   67   10   62 1     
   68   14   63 1     
   69   14   64 1     
   70   19   65 1     
   71   19   66 1     
@<TRIPOS>SUBSTRUCTURE
      1 S1             1
@<TRIPOS>SET
LONE_PAIRS      STATIC     ATOMS    <user>   **** ""
11 58 59 60 61 62 63 64 65 66 29 30
DONOR_HYDROGENS      STATIC     ATOMS    <user>   **** ""
1 57
ATOM$BLUE        STATIC     ATOMS    COLORGROUP SYSTEM
11 58 59 60 61 62 63 64 65 66 29 30
ATOM$RED        STATIC     ATOMS    COLORGROUP SYSTEM
1 57
