AV-unprocessed.smi:284|AV-procd|sdf|2163|dock6
  -GOLD-   2262021523D 1   1.00000     0.00000
 Structure written by MMmdl.
 60 62  0  0  0  0  0  0  0  0  1 V2000
  145.2404  132.3768  149.9506 C   0  0  0  0  0  0  0  0  0  0  0  0
  146.0498  132.1027  151.2082 C   0  0  0  0  0  0  0  0  0  0  0  0
  146.3004  130.8465  151.6429 C   0  0  0  0  0  0  0  0  0  0  0  0
  147.0295  130.5634  152.7818 N   0  0  0  0  0  0  0  0  0  0  0  0
  147.2617  129.1345  153.2091 C   0  0  2  0  0  0  0  0  0  0  0  0
  148.7405  128.8647  153.4679 C   0  0  0  0  0  0  0  0  0  0  0  0
  148.7814  127.3661  153.2533 C   0  0  2  0  0  0  0  0  0  0  0  0
  150.0849  126.8984  152.9674 O   0  0  0  0  0  0  0  0  0  0  0  0
  147.7386  127.1520  152.1363 C   0  0  2  0  0  0  0  0  0  0  0  0
  148.2482  126.9787  150.6886 C   0  0  0  0  0  0  0  0  0  0  0  0
  149.4080  126.1753  150.6080 O   0  0  0  0  0  0  0  0  0  0  0  0
  146.8635  128.2802  152.1802 O   0  0  0  0  0  0  0  0  0  0  0  0
  147.5731  131.6165  153.5442 C   0  0  0  0  0  0  0  0  0  0  0  0
  148.2413  131.3896  154.5556 O   0  0  0  0  0  0  0  0  0  0  0  0
  147.3349  132.9415  153.1142 N   0  0  0  0  0  0  0  0  0  0  0  0
  147.8862  134.0535  153.9204 C   0  0  0  0  0  0  0  0  0  0  0  0
  147.4640  134.0102  155.3976 C   0  0  0  0  0  0  0  0  0  0  0  0
  146.4333  133.4265  155.7336 O   0  0  0  0  0  0  0  0  0  0  0  0
  148.2771  134.6742  156.2397 N   0  0  0  0  0  0  0  0  0  0  0  0
  148.1824  134.8271  157.6502 C   0  0  0  0  0  0  0  0  0  0  0  0
  148.8409  135.8410  158.3840 C   0  0  0  0  0  0  0  0  0  0  0  0
  148.6799  135.9301  159.7804 C   0  0  0  0  0  0  0  0  0  0  0  0
  147.8517  135.0173  160.4791 C   0  0  0  0  0  0  0  0  0  0  0  0
  147.6492  135.0863  162.0050 C   0  0  0  0  0  0  0  0  0  0  0  0
  148.4460  136.2774  162.5751 C   0  0  0  0  0  0  0  0  0  0  0  0
  148.1244  133.8097  162.7347 C   0  0  0  0  0  0  0  0  0  0  0  0
  146.1512  135.2742  162.3264 C   0  0  0  0  0  0  0  0  0  0  0  0
  147.1843  134.0192  159.7318 C   0  0  0  0  0  0  0  0  0  0  0  0
  147.3454  133.9268  158.3369 C   0  0  0  0  0  0  0  0  0  0  0  0
  146.5709  133.2466  151.9605 C   0  0  0  0  0  0  0  0  0  0  0  0
  146.3677  134.4174  151.6328 O   0  0  0  0  0  0  0  0  0  0  0  0
  144.8920  131.4552  149.4835 H   0  0  0  0  0  0  0  0  0  0  0  0
  145.8440  132.9148  149.2187 H   0  0  0  0  0  0  0  0  0  0  0  0
  144.3645  132.9828  150.1850 H   0  0  0  0  0  0  0  0  0  0  0  0
  145.9098  130.0207  151.0673 H   0  0  0  0  0  0  0  0  0  0  0  0
  146.6318  128.9289  154.0755 H   0  0  0  0  0  0  0  0  0  0  0  0
  149.3474  129.3881  152.7275 H   0  0  0  0  0  0  0  0  0  0  0  0
  149.0354  129.1819  154.4685 H   0  0  0  0  0  0  0  0  0  0  0  0
  148.4332  126.8742  154.1628 H   0  0  0  0  0  0  0  0  0  0  0  0
  150.4638  127.4499  152.3001 H   0  0  0  0  0  0  0  0  0  0  0  0
  147.1446  126.2710  152.3827 H   0  0  0  0  0  0  0  0  0  0  0  0
  147.4748  126.5084  150.0809 H   0  0  0  0  0  0  0  0  0  0  0  0
  148.4528  127.9507  150.2394 H   0  0  0  0  0  0  0  0  0  0  0  0
  150.1564  126.7034  150.8395 H   0  0  0  0  0  0  0  0  0  0  0  0
  148.9762  134.0640  153.8636 H   0  0  0  0  0  0  0  0  0  0  0  0
  147.5952  135.0227  153.5128 H   0  0  0  0  0  0  0  0  0  0  0  0
  149.0389  135.1743  155.8050 H   0  0  0  0  0  0  0  0  0  0  0  0
  149.4667  136.5742  157.9002 H   0  0  0  0  0  0  0  0  0  0  0  0
  149.2066  136.7206  160.2912 H   0  0  0  0  0  0  0  0  0  0  0  0
  148.3331  136.3484  163.6574 H   0  0  0  0  0  0  0  0  0  0  0  0
  148.1171  137.2284  162.1560 H   0  0  0  0  0  0  0  0  0  0  0  0
  149.5110  136.1765  162.3634 H   0  0  0  0  0  0  0  0  0  0  0  0
  149.1925  133.6381  162.5961 H   0  0  0  0  0  0  0  0  0  0  0  0
  147.5900  132.9245  162.3873 H   0  0  0  0  0  0  0  0  0  0  0  0
  147.9538  133.8835  163.8094 H   0  0  0  0  0  0  0  0  0  0  0  0
  145.9767  135.2982  163.4027 H   0  0  0  0  0  0  0  0  0  0  0  0
  145.5550  134.4579  161.9169 H   0  0  0  0  0  0  0  0  0  0  0  0
  145.7551  136.2054  161.9218 H   0  0  0  0  0  0  0  0  0  0  0  0
  146.5356  133.3105  160.2244 H   0  0  0  0  0  0  0  0  0  0  0  0
  146.8215  133.1534  157.7945 H   0  0  0  0  0  0  0  0  0  0  0  0
  1  2  1  0  0  0  0
  1 32  1  0  0  0  0
  1 33  1  0  0  0  0
  1 34  1  0  0  0  0
  2 30  1  0  0  0  0
  2  3  2  0  0  0  0
  3  4  1  0  0  0  0
  3 35  1  0  0  0  0
  4  5  1  0  0  0  0
  4 13  1  0  0  0  0
  5 12  1  0  0  0  0
  5  6  1  0  0  0  0
  5 36  1  0  0  0  0
  6  7  1  0  0  0  0
  6 37  1  0  0  0  0
  6 38  1  0  0  0  0
  7  8  1  0  0  0  0
  7  9  1  0  0  0  0
  7 39  1  0  0  0  0
  8 40  1  0  0  0  0
  9 10  1  0  0  0  0
  9 12  1  0  0  0  0
  9 41  1  0  0  0  0
 10 11  1  0  0  0  0
 10 42  1  0  0  0  0
 10 43  1  0  0  0  0
 11 44  1  0  0  0  0
 13 14  2  0  0  0  0
 13 15  1  0  0  0  0
 15 16  1  0  0  0  0
 15 30  1  0  0  0  0
 16 17  1  0  0  0  0
 16 45  1  0  0  0  0
 16 46  1  0  0  0  0
 17 18  2  0  0  0  0
 17 19  1  0  0  0  0
 19 20  1  0  0  0  0
 19 47  1  0  0  0  0
 20 29  1  0  0  0  0
 20 21  2  0  0  0  0
 21 22  1  0  0  0  0
 21 48  1  0  0  0  0
 22 23  2  0  0  0  0
 22 49  1  0  0  0  0
 23 24  1  0  0  0  0
 23 28  1  0  0  0  0
 24 25  1  0  0  0  0
 24 26  1  0  0  0  0
 24 27  1  0  0  0  0
 25 50  1  0  0  0  0
 25 51  1  0  0  0  0
 25 52  1  0  0  0  0
 26 53  1  0  0  0  0
 26 54  1  0  0  0  0
 26 55  1  0  0  0  0
 27 56  1  0  0  0  0
 27 57  1  0  0  0  0
 27 58  1  0  0  0  0
 28 29  2  0  0  0  0
 28 59  1  0  0  0  0
 29 60  1  0  0  0  0
 30 31  2  0  0  0  0
M  END
> <s_m_source_file>
AV-unprocessed.smi

> <i_m_source_file_index>
284

> <i_lp_mmshare_version>
43012

> <i_f3d_flags>
0

> <s_epik_input>
W09IXVtDSDJdW0NAQEhdKE8xKVtDQEhdKFtPSF0pW0NIMl1bQ0BIXTFuKFtjSF1jMltDSDNdKWMoPU8pbihjMj1PKVtDSDJdQyg9TylbTkhdYzNbY0hdW2NIXWMoQyhbQ0gzXSkoW0NIM10pW0NIM10pW2NIXVtjSF0z

> <s_epik_cmdline>
J2VwaWtfcHl0aG9uJywgJy1waCcsICc3LjAnLCAnLXRuJywgJzgnLCAnLW1hJywgJzIwMCcsICctbWV0YWxfYmluZGluZycsICctaW1hZScsICc8aW5maWxlLm1hZT4nLCAnLW9tYWUnLCAnPG91dGZpbGUubWFlPic=

> <r_lp_tautomer_probability>
1

> <r_epik_Ionization_Penalty>
4.92358e-06

> <r_epik_Ionization_Penalty_Charging>
1.29777e-07

> <r_epik_Ionization_Penalty_Neutral>
4.79381e-06

> <r_epik_State_Penalty>
-0

> <r_epik_Charging_Adjusted_Penalty>
1.29777e-07

> <i_epik_Tot_Q>
0

> <i_epik_Tot_abs_Q>
0

> <r_epik_Metal_State_Penalty>
-0

> <b_epik_Metal_Only>
0

> <s_epik_Chemistry_Notes>
This compound contains an acetal/aminal-like group ( X-CH(R)-Y where X, Y are N, S, or O) that may be acid/base labile, releasing an aldehyde.

> <s_lp_Force_Field>
OPLS_2005

> <r_lp_Energy>
44.8012

> <b_lp_Chiralities_Consistent>
1

> <s_lp_Variant>
AV-unprocessed.smi:284-7

> <Gold.Version>
5.8.1

> <Gold.Id.Protein>
6NUR|6NUR_protein|mol2

> <Gold.PLP.Fitness>
50.9662

> <Gold.PLP.PLP>
-47.6641

> <Gold.PLP.part.hbond>
-1.5852

> <Gold.PLP.part.metal>
0.0000

> <Gold.PLP.part.buried>
-7.1790

> <Gold.PLP.part.nonpolar>
-39.8279

> <Gold.PLP.part.repulsive>
0.3185

> <Gold.PLP.ligand.clash>
0.0000

> <Gold.PLP.ligand.torsion>
0.7896

> <Gold.PLP.Chemscore.Hbond>
1.6080

> <Gold.PLP.Chemscore.CHOScore>
0.0000

> <Gold.PLP.Chemscore.Metal>
0.0000

> <Gold.Chemscore.Hbonds>
donor molecule, donor type, donor heavy atom, donor atom, acceptor molecule, acceptor atom, score
      L1  H     8    40       P1 10737  0.70
      L1  H    11    44       P1 10737  0.39

> <Gold.PLP.Chemscore.Internal.Correction>
0.0574

> <Gold.Rescore>
     Score         DG    S(hbond)    S(metal)    S(lipo)     H(rot)  DE(clash)    DE(int)     intcor
      8.81     -14.65       1.35        0.00     111.48       3.27       1.17       4.66       ----

> <Gold.Chemscore.Fitness>
8.8090

> <Gold.Chemscore.DG>
-14.6453

> <Gold.Chemscore.ZeroCoef>
-5.4800

> <Gold.Chemscore.Hbond>
1.3481

> <Gold.Chemscore.Metal>
0.0000

> <Gold.Chemscore.Lipo>
111.4763

> <Gold.Chemscore.Internal_Hbond>
0.0000

> <Gold.Chemscore.DEClash>
1.1747

> <Gold.Chemscore.DEInternal>
4.6616

> <Gold.Chemscore.Rot>
3.2735

> <Gold.Chemscore.Internal.Correction>
   9.000000E+99

> <Gold.Chemscore.Hbonds>
donor molecule, donor type, donor heavy atom, donor atom, acceptor molecule, acceptor atom, score
      L1  H     8    40       P1 10737  0.70
      L1  H    11    44       P1 10737  0.38

> <Gold.Chemscore.Hbond.Weighted>
-4.5026

> <Gold.Chemscore.Metal.Weighted>
-0.0000

> <Gold.Chemscore.Lipo.Weighted>
-13.0427

> <Gold.Chemscore.Internal_Hbond.Weighted>
0.0000

> <Gold.Chemscore.DEClash.Weighted>
1.1747

> <Gold.Chemscore.DEInternal.Weighted>
4.6616

> <Gold.Chemscore.Rot.Weighted>
8.3801

> <Gold.Chemscore.Internal.Correction.Weighted>
   9.000000E+99

> <Gold.Protein.RotatedTorsions>
[ 6907 6896 6895 6894 ] final  -31.79 input  -60.11 | X-H torsion
[ 7974 7965 7964 7962 ] final    8.20 input  175.53 | X-H torsion
[ 8008 7997 7996 7995 ] final -127.73 input   59.86 | X-H torsion
[ 10167 10162 10161 10158 ] final   63.23 input  -65.29 | X-H torsion
[ 10718 10713 10712 10709 ] final -122.54 input   66.30 | X-H torsion
[ 10763 10752 10751 10750 ] final -168.66 input  -60.55 | X-H torsion
[ 11005 11000 10999 10996 ] final  101.37 input  -57.11 | X-H torsion

> <Gold.Protein.ActiveResidues>
 VAL166  LYS551  ARG553  GLY616  TRP617  ASP618  TYR619  PRO620  LYS621  CYS622 
 ASP623  PHE694  ASN695  SER759  ASP760  ASP761  ALA762  ILE779  LEU786  VAL792 
 PHE793  MET794  SER795  GLU796  ALA797  LYS798  CYS799  TRP800  GLU811  SER814 

> <Gold.Protein.RotatedAtoms>
  151.0874  134.9895  159.8385 H   0  0  0  0  0  0  0  0  0  0  0  0  # atno 6907 bound_to 6896
  152.5426  134.2107  159.8759 H   0  0  0  0  0  0  0  0  0  0  0  0  # atno 6908 bound_to 6896
  151.2141  133.4495  159.2632 H   0  0  0  0  0  0  0  0  0  0  0  0  # atno 6909 bound_to 6896
  146.2419  139.9969  142.8420 H   0  0  0  0  0  0  0  0  0  0  0  0  # atno 7974 bound_to 7965
  155.2510  140.0432  157.2986 H   0  0  0  0  0  0  0  0  0  0  0  0  # atno 8008 bound_to 7997
  154.5769  140.2389  155.8080 H   0  0  0  0  0  0  0  0  0  0  0  0  # atno 8009 bound_to 7997
  156.2164  140.2983  155.9858 H   0  0  0  0  0  0  0  0  0  0  0  0  # atno 8010 bound_to 7997
  140.1353  144.4604  150.6841 H   0  0  0  0  0  0  0  0  0  0  0  0  # atno 10167 bound_to 10162
  156.1427  130.6478  150.9795 H   0  0  0  0  0  0  0  0  0  0  0  0  # atno 10718 bound_to 10713
  154.6605  135.2924  154.9873 H   0  0  0  0  0  0  0  0  0  0  0  0  # atno 10763 bound_to 10752
  154.0934  135.6587  153.4860 H   0  0  0  0  0  0  0  0  0  0  0  0  # atno 10764 bound_to 10752
  153.0427  135.5225  154.7553 H   0  0  0  0  0  0  0  0  0  0  0  0  # atno 10765 bound_to 10752
  139.8773  134.9180  156.4897 H   0  0  0  0  0  0  0  0  0  0  0  0  # atno 11005 bound_to 11000
  145.1451  140.9593  143.4465 LP  0  0  0  0  0  0  0  0  0  0  0  0  # atno 17320 bound_to 7965
  145.0258  139.3384  143.6049 LP  0  0  0  0  0  0  0  0  0  0  0  0  # atno 17321 bound_to 7965
  140.6793  143.2319  151.5427 LP  0  0  0  0  0  0  0  0  0  0  0  0  # atno 17342 bound_to 10162
  139.5499  144.2423  152.1511 LP  0  0  0  0  0  0  0  0  0  0  0  0  # atno 17343 bound_to 10162
  157.6590  131.0884  150.7882 LP  0  0  0  0  0  0  0  0  0  0  0  0  # atno 17370 bound_to 10713
  156.7956  130.4904  149.5378 LP  0  0  0  0  0  0  0  0  0  0  0  0  # atno 17371 bound_to 10713
  140.8668  133.8018  155.9322 LP  0  0  0  0  0  0  0  0  0  0  0  0  # atno 17394 bound_to 11000
  140.8994  134.2397  157.5050 LP  0  0  0  0  0  0  0  0  0  0  0  0  # atno 17395 bound_to 11000

$$$$
