AV-unprocessed.smi:99|AV-procd|sdf|892|dock2
  -GOLD-   2262017383D 1   1.00000     0.00000
 Structure written by MMmdl.
 52 55  0  0  0  0  0  0  0  0  2 V2000
  153.9658  139.7089  158.9074 O   0  0  0  0  0  0  0  0  0  0  0  0
  152.7883  140.0012  158.6898 C   0  0  0  0  0  0  0  0  0  0  0  0
  151.8504  139.1029  158.3349 O   0  0  0  0  0  0  0  0  0  0  0  0
  152.2316  137.8706  157.7421 C   0  0  0  0  0  0  0  0  0  0  0  0
  151.0727  136.8667  157.8115 C   0  0  1  0  0  0  0  0  0  0  0  0
  150.5469  136.8466  159.1319 O   0  0  0  0  0  0  0  0  0  0  0  0
  149.2073  137.2300  159.1564 C   0  0  2  0  0  0  0  0  0  0  0  0
  148.4223  136.1590  159.8877 N   0  0  0  0  0  0  0  0  0  0  0  0
  147.8904  136.4556  161.1304 C   0  0  0  0  0  0  0  0  0  0  0  0
  147.2077  135.5371  161.8444 C   0  0  0  0  0  0  0  0  0  0  0  0
  147.0317  134.1939  161.3012 C   0  0  0  0  0  0  0  0  0  0  0  0
  146.3941  133.3671  161.9503 O   0  0  0  0  0  0  0  0  0  0  0  0
  147.5893  133.9148  160.0882 N   0  5  0  0  0  0  0  0  0  0  0  0
  148.2889  134.8393  159.3675 C   0  0  0  0  0  0  0  0  0  0  0  0
  148.8127  134.5792  158.2861 O   0  0  0  0  0  0  0  0  0  0  0  0
  148.7107  137.4556  157.7157 C   0  0  1  0  0  0  0  0  0  0  0  0
  148.2885  138.7873  157.5045 O   0  0  0  0  0  0  0  0  0  0  0  0
  149.9274  137.1722  156.8367 C   0  0  2  0  0  0  0  0  0  0  0  0
  149.6975  136.0478  155.9963 O   0  0  0  0  0  0  0  0  0  0  0  0
  148.6204  135.9933  155.1860 C   0  0  0  0  0  0  0  0  0  0  0  0
  147.8306  136.9277  155.0342 O   0  0  0  0  0  0  0  0  0  0  0  0
  148.4854  134.6795  154.4944 C   0  0  0  0  0  0  0  0  0  0  0  0
  149.4323  133.6602  154.7495 C   0  0  0  0  0  0  0  0  0  0  0  0
  149.3304  132.4100  154.1087 C   0  0  0  0  0  0  0  0  0  0  0  0
  148.2816  132.1650  153.2031 C   0  0  0  0  0  0  0  0  0  0  0  0
  147.3349  133.1720  152.9389 C   0  0  0  0  0  0  0  0  0  0  0  0
  147.4343  134.4222  153.5797 C   0  0  0  0  0  0  0  0  0  0  0  0
  152.2532  141.3898  158.7874 C   0  0  0  0  0  0  0  0  0  0  0  0
  150.9823  141.6832  158.2401 C   0  0  0  0  0  0  0  0  0  0  0  0
  150.4502  142.9849  158.3196 C   0  0  0  0  0  0  0  0  0  0  0  0
  151.1835  144.0095  158.9450 C   0  0  0  0  0  0  0  0  0  0  0  0
  152.4497  143.7308  159.4919 C   0  0  0  0  0  0  0  0  0  0  0  0
  152.9828  142.4294  159.4149 C   0  0  0  0  0  0  0  0  0  0  0  0
  152.5071  138.0360  156.6993 H   0  0  0  0  0  0  0  0  0  0  0  0
  153.1090  137.4710  158.2521 H   0  0  0  0  0  0  0  0  0  0  0  0
  151.4769  135.8725  157.6158 H   0  0  0  0  0  0  0  0  0  0  0  0
  149.1191  138.1287  159.7686 H   0  0  0  0  0  0  0  0  0  0  0  0
  148.0162  137.4445  161.5457 H   0  0  0  0  0  0  0  0  0  0  0  0
  146.7976  135.7906  162.8109 H   0  0  0  0  0  0  0  0  0  0  0  0
  147.8723  136.7954  157.4893 H   0  0  0  0  0  0  0  0  0  0  0  0
  148.4489  139.0096  156.5999 H   0  0  0  0  0  0  0  0  0  0  0  0
  150.1865  138.0378  156.2239 H   0  0  0  0  0  0  0  0  0  0  0  0
  150.2466  133.8260  155.4401 H   0  0  0  0  0  0  0  0  0  0  0  0
  150.0586  131.6387  154.3120 H   0  0  0  0  0  0  0  0  0  0  0  0
  148.2044  131.2068  152.7107 H   0  0  0  0  0  0  0  0  0  0  0  0
  146.5309  132.9874  152.2417 H   0  0  0  0  0  0  0  0  0  0  0  0
  146.6933  135.1747  153.3507 H   0  0  0  0  0  0  0  0  0  0  0  0
  150.4008  140.9128  157.7546 H   0  0  0  0  0  0  0  0  0  0  0  0
  149.4777  143.1965  157.9001 H   0  0  0  0  0  0  0  0  0  0  0  0
  150.7752  145.0077  159.0051 H   0  0  0  0  0  0  0  0  0  0  0  0
  153.0140  144.5161  159.9727 H   0  0  0  0  0  0  0  0  0  0  0  0
  153.9580  142.2498  159.8434 H   0  0  0  0  0  0  0  0  0  0  0  0
  1  2  2  0  0  0  0
  2  3  1  0  0  0  0
  2 28  1  0  0  0  0
  3  4  1  0  0  0  0
  4  5  1  0  0  0  0
  4 34  1  0  0  0  0
  4 35  1  0  0  0  0
  5 18  1  0  0  0  0
  5  6  1  0  0  0  0
  5 36  1  0  0  0  0
  6  7  1  0  0  0  0
  7  8  1  0  0  0  0
  7 16  1  0  0  0  0
  7 37  1  0  0  0  0
  8 14  1  0  0  0  0
  8  9  1  0  0  0  0
  9 10  2  0  0  0  0
  9 38  1  0  0  0  0
 10 11  1  0  0  0  0
 10 39  1  0  0  0  0
 11 12  2  0  0  0  0
 11 13  1  0  0  0  0
 13 14  1  0  0  0  0
 14 15  2  0  0  0  0
 16 17  1  0  0  0  0
 16 18  1  0  0  0  0
 16 40  1  0  0  0  0
 17 41  1  0  0  0  0
 18 19  1  0  0  0  0
 18 42  1  0  0  0  0
 19 20  1  0  0  0  0
 20 21  2  0  0  0  0
 20 22  1  0  0  0  0
 22 27  1  0  0  0  0
 22 23  2  0  0  0  0
 23 24  1  0  0  0  0
 23 43  1  0  0  0  0
 24 25  2  0  0  0  0
 24 44  1  0  0  0  0
 25 26  1  0  0  0  0
 25 45  1  0  0  0  0
 26 27  2  0  0  0  0
 26 46  1  0  0  0  0
 27 47  1  0  0  0  0
 28 33  1  0  0  0  0
 28 29  2  0  0  0  0
 29 30  1  0  0  0  0
 29 48  1  0  0  0  0
 30 31  2  0  0  0  0
 30 49  1  0  0  0  0
 31 32  1  0  0  0  0
 31 50  1  0  0  0  0
 32 33  2  0  0  0  0
 32 51  1  0  0  0  0
 33 52  1  0  0  0  0
M  CHG  1  13  -1
M  END
> <s_m_source_file>
AV-unprocessed.smi

> <i_m_source_file_index>
99

> <i_lp_mmshare_version>
43012

> <i_f3d_flags>
0

> <s_epik_input>
W2NIXTFbY0hdW2NIXVtjSF1bY0hdYzFDKD1PKU9bQ0gyXVtDQEBIXTJPW0NAQEhdKG4zW2NIXVtjSF1jKD1PKVtuSF1jMz1PKVtDQEBIXShbT0hdKVtDQEhdMk9DKD1PKWM0W2NIXVtjSF1bY0hdW2NIXVtjSF00

> <s_epik_cmdline>
J2VwaWtfcHl0aG9uJywgJy1waCcsICc3LjAnLCAnLXRuJywgJzgnLCAnLW1hJywgJzIwMCcsICctbWV0YWxfYmluZGluZycsICctaW1hZScsICc8aW5maWxlLm1hZT4nLCAnLW9tYWUnLCAnPG91dGZpbGUubWFlPic=

> <r_lp_tautomer_probability>
1

> <r_epik_Ionization_Penalty>
2.89159

> <r_epik_Ionization_Penalty_Charging>
2.1077e-08

> <r_epik_Ionization_Penalty_Neutral>
2.89159

> <r_epik_State_Penalty>
2.88671

> <r_epik_Charging_Adjusted_Penalty>
2.88671

> <i_epik_Tot_Q>
-1

> <i_epik_Tot_abs_Q>
1

> <r_epik_Metal_State_Penalty>
0.0727308

> <b_epik_Metal_Only>
1

> <s_epik_Chemistry_Notes>
This compound has an ester and may undergo hydrolysis at high or low pH. This compound contains an acetal/aminal-like group ( X-CH(R)-Y where X, Y are N, S, or O) that may be acid/base labile, releasing an aldehyde.

> <s_lp_Force_Field>
OPLS_2005

> <r_lp_Energy>
36.8261

> <b_lp_Chiralities_Consistent>
1

> <s_lp_Variant>
AV-unprocessed.smi:99-28

> <Gold.Version>
5.8.1

> <Gold.Id.Protein>
6NUR|6NUR_protein|mol2

> <Gold.PLP.Fitness>
56.1380

> <Gold.PLP.PLP>
-49.5323

> <Gold.PLP.part.hbond>
-3.0000

> <Gold.PLP.part.metal>
0.0000

> <Gold.PLP.part.buried>
-4.5068

> <Gold.PLP.part.nonpolar>
-42.4218

> <Gold.PLP.part.repulsive>
0.1584

> <Gold.PLP.ligand.clash>
0.0000

> <Gold.PLP.ligand.torsion>
0.7137

> <Gold.PLP.Chemscore.Hbond>
2.5408

> <Gold.PLP.Chemscore.CHOScore>
0.0000

> <Gold.PLP.Chemscore.Metal>
0.0000

> <Gold.Chemscore.Hbonds>
donor molecule, donor type, donor heavy atom, donor atom, acceptor molecule, acceptor atom, score
      P1  H  6896  6907       L1    15  0.10
      P1  H  6896  6908       L1     6  0.68
      P1  H  7997  8009       L1     1  1.00

> <Gold.PLP.Chemscore.Internal.Correction>
0.4107

> <Gold.Rescore>
     Score         DG    S(hbond)    S(metal)    S(lipo)     H(rot)  DE(clash)    DE(int)     intcor
     11.60     -15.88       1.58        0.00     112.30       3.13       0.15       4.13       ----

> <Gold.Chemscore.Fitness>
11.5966

> <Gold.Chemscore.DG>
-15.8753

> <Gold.Chemscore.ZeroCoef>
-5.4800

> <Gold.Chemscore.Hbond>
1.5812

> <Gold.Chemscore.Metal>
0.0000

> <Gold.Chemscore.Lipo>
112.2953

> <Gold.Chemscore.Internal_Hbond>
0.0000

> <Gold.Chemscore.DEClash>
0.1497

> <Gold.Chemscore.DEInternal>
4.1290

> <Gold.Chemscore.Rot>
3.1346

> <Gold.Chemscore.Internal.Correction>
   9.000000E+99

> <Gold.Chemscore.Hbonds>
donor molecule, donor type, donor heavy atom, donor atom, acceptor molecule, acceptor atom, score
      P1  H  6896  6907       L1    15  0.01
      P1  H  6896  6908       L1     6  0.23
      P1  H  7997  8009       L1     1  0.72

> <Gold.Chemscore.Hbond.Weighted>
-5.2813

> <Gold.Chemscore.Metal.Weighted>
-0.0000

> <Gold.Chemscore.Lipo.Weighted>
-13.1386

> <Gold.Chemscore.Internal_Hbond.Weighted>
0.0000

> <Gold.Chemscore.DEClash.Weighted>
0.1497

> <Gold.Chemscore.DEInternal.Weighted>
4.1290

> <Gold.Chemscore.Rot.Weighted>
8.0246

> <Gold.Chemscore.Internal.Correction.Weighted>
   9.000000E+99

> <Gold.Protein.RotatedTorsions>
[ 6907 6896 6895 6894 ] final -122.16 input  -60.11 | X-H torsion
[ 7974 7965 7964 7962 ] final  149.20 input  175.53 | X-H torsion
[ 8008 7997 7996 7995 ] final  123.31 input   59.86 | X-H torsion
[ 10167 10162 10161 10158 ] final   -0.12 input  -65.29 | X-H torsion
[ 10718 10713 10712 10709 ] final  172.88 input   66.30 | X-H torsion
[ 10763 10752 10751 10750 ] final   49.70 input  -60.55 | X-H torsion
[ 11005 11000 10999 10996 ] final  -44.19 input  -57.11 | X-H torsion

> <Gold.Protein.ActiveResidues>
 VAL166  LYS551  ARG553  GLY616  TRP617  ASP618  TYR619  PRO620  LYS621  CYS622 
 ASP623  PHE694  ASN695  SER759  ASP760  ASP761  ALA762  ILE779  LEU786  VAL792 
 PHE793  MET794  SER795  GLU796  ALA797  LYS798  CYS799  TRP800  GLU811  SER814 

> <Gold.Protein.RotatedAtoms>
  150.8550  133.7729  159.3011 H   0  0  0  0  0  0  0  0  0  0  0  0  # atno 6907 bound_to 6896
  151.5389  135.1067  159.9931 H   0  0  0  0  0  0  0  0  0  0  0  0  # atno 6908 bound_to 6896
  152.4583  133.7725  159.6862 H   0  0  0  0  0  0  0  0  0  0  0  0  # atno 6909 bound_to 6896
  144.8456  139.6250  143.5997 H   0  0  0  0  0  0  0  0  0  0  0  0  # atno 7974 bound_to 7965
  156.2761  140.2766  156.1607 H   0  0  0  0  0  0  0  0  0  0  0  0  # atno 8008 bound_to 7997
  155.0757  140.0387  157.2641 H   0  0  0  0  0  0  0  0  0  0  0  0  # atno 8009 bound_to 7997
  154.7004  140.2648  155.6731 H   0  0  0  0  0  0  0  0  0  0  0  0  # atno 8010 bound_to 7997
  140.6753  143.6933  150.8010 H   0  0  0  0  0  0  0  0  0  0  0  0  # atno 10167 bound_to 10162
  156.9725  131.0094  151.2902 H   0  0  0  0  0  0  0  0  0  0  0  0  # atno 10718 bound_to 10713
  152.9786  135.5903  154.4132 H   0  0  0  0  0  0  0  0  0  0  0  0  # atno 10763 bound_to 10752
  154.3765  135.2767  155.2238 H   0  0  0  0  0  0  0  0  0  0  0  0  # atno 10764 bound_to 10752
  154.4171  135.6068  153.6042 H   0  0  0  0  0  0  0  0  0  0  0  0  # atno 10765 bound_to 10752
  141.0434  133.6771  156.2837 H   0  0  0  0  0  0  0  0  0  0  0  0  # atno 11005 bound_to 11000
  146.2741  139.6708  142.9275 LP  0  0  0  0  0  0  0  0  0  0  0  0  # atno 17320 bound_to 7965
  145.4604  141.0432  143.2754 LP  0  0  0  0  0  0  0  0  0  0  0  0  # atno 17321 bound_to 7965
  140.0625  143.5141  152.2621 LP  0  0  0  0  0  0  0  0  0  0  0  0  # atno 17342 bound_to 10162
  139.6043  144.7591  151.3099 LP  0  0  0  0  0  0  0  0  0  0  0  0  # atno 17343 bound_to 10162
  157.5583  130.8228  149.8232 LP  0  0  0  0  0  0  0  0  0  0  0  0  # atno 17370 bound_to 10713
  156.0277  130.3774  150.1776 LP  0  0  0  0  0  0  0  0  0  0  0  0  # atno 17371 bound_to 10713
  140.6192  134.5379  157.5545 LP  0  0  0  0  0  0  0  0  0  0  0  0  # atno 17394 bound_to 11000
  139.9293  134.7995  156.0977 LP  0  0  0  0  0  0  0  0  0  0  0  0  # atno 17395 bound_to 11000

$$$$
