AV-unprocessed.smi:3346|AV-procd|sdf|12908|dock1
  -GOLD-   2272019323D 1   1.00000     0.00000
 Structure written by MMmdl.
 48 49  0  0  0  0  0  0  0  0  2 V2000
  150.6711  144.4149  158.3657 C   0  0  0  0  0  0  0  0  0  0  0  0
  151.5981  144.4109  159.5909 C   0  0  0  0  0  0  0  0  0  0  0  0
  151.7223  145.8305  160.1697 C   0  0  0  0  0  0  0  0  0  0  0  0
  152.9681  143.7942  159.2281 C   0  0  0  0  0  0  0  0  0  0  0  0
  153.0596  142.2510  159.3095 C   0  0  1  0  0  0  0  0  0  0  0  0
  153.0711  141.7354  160.7572 C   0  0  0  0  0  0  0  0  0  0  0  0
  151.9330  141.6155  158.5903 N   0  3  0  0  0  0  0  0  0  0  0  0
  152.2255  140.3013  157.9796 C   0  0  0  0  0  0  0  0  0  0  0  0
  151.3749  140.0941  156.7361 C   0  0  0  0  0  0  0  0  0  0  0  0
  150.0379  140.5453  156.7168 C   0  0  0  0  0  0  0  0  0  0  0  0
  149.2586  140.3297  155.5657 C   0  0  0  0  0  0  0  0  0  0  0  0
  149.8487  139.6665  154.4738 C   0  0  0  0  0  0  0  0  0  0  0  0
  151.1248  139.2273  154.4789 N   0  0  0  0  0  0  0  0  0  0  0  0
  151.8794  139.4343  155.5846 C   0  0  0  0  0  0  0  0  0  0  0  0
  153.2054  138.9691  155.5644 N   0  0  0  0  0  0  0  0  0  0  0  0
  153.5157  137.8545  156.4521 C   0  0  0  0  0  0  0  0  0  0  0  0
  155.0352  137.6149  156.4686 C   0  0  0  0  0  0  0  0  0  0  0  0
  155.4991  137.3976  155.1385 O   0  0  0  0  0  0  0  0  0  0  0  0
  155.2462  138.5134  154.2886 C   0  0  0  0  0  0  0  0  0  0  0  0
  153.7322  138.7775  154.2199 C   0  0  0  0  0  0  0  0  0  0  0  0
  151.0802  145.0248  157.5595 H   0  0  0  0  0  0  0  0  0  0  0  0
  149.6878  144.8139  158.6171 H   0  0  0  0  0  0  0  0  0  0  0  0
  150.5239  143.4061  157.9787 H   0  0  0  0  0  0  0  0  0  0  0  0
  151.1176  143.7840  160.3415 H   0  0  0  0  0  0  0  0  0  0  0  0
  152.2390  146.4970  159.4785 H   0  0  0  0  0  0  0  0  0  0  0  0
  152.2680  145.8358  161.1128 H   0  0  0  0  0  0  0  0  0  0  0  0
  150.7394  146.2585  160.3699 H   0  0  0  0  0  0  0  0  0  0  0  0
  153.2385  144.1048  158.2177 H   0  0  0  0  0  0  0  0  0  0  0  0
  153.7172  144.2396  159.8828 H   0  0  0  0  0  0  0  0  0  0  0  0
  153.9782  141.9101  158.8316 H   0  0  0  0  0  0  0  0  0  0  0  0
  153.9583  142.0671  161.2962 H   0  0  0  0  0  0  0  0  0  0  0  0
  153.0745  140.6449  160.7832 H   0  0  0  0  0  0  0  0  0  0  0  0
  152.1951  142.0778  161.3093 H   0  0  0  0  0  0  0  0  0  0  0  0
  151.2012  141.4617  159.2694 H   0  0  0  0  0  0  0  0  0  0  0  0
  153.2826  140.2400  157.7205 H   0  0  0  0  0  0  0  0  0  0  0  0
  152.0307  139.4987  158.6910 H   0  0  0  0  0  0  0  0  0  0  0  0
  149.6109  141.0482  157.5720 H   0  0  0  0  0  0  0  0  0  0  0  0
  148.2323  140.6630  155.5204 H   0  0  0  0  0  0  0  0  0  0  0  0
  149.2813  139.4826  153.5735 H   0  0  0  0  0  0  0  0  0  0  0  0
  153.1573  138.0708  157.4592 H   0  0  0  0  0  0  0  0  0  0  0  0
  153.0036  136.9538  156.1104 H   0  0  0  0  0  0  0  0  0  0  0  0
  155.5577  138.4642  156.9122 H   0  0  0  0  0  0  0  0  0  0  0  0
  155.2725  136.7413  157.0755 H   0  0  0  0  0  0  0  0  0  0  0  0
  155.7771  139.3925  154.6581 H   0  0  0  0  0  0  0  0  0  0  0  0
  155.6367  138.2991  153.2937 H   0  0  0  0  0  0  0  0  0  0  0  0
  153.2263  137.9317  153.7518 H   0  0  0  0  0  0  0  0  0  0  0  0
  153.5308  139.6520  153.6007 H   0  0  0  0  0  0  0  0  0  0  0  0
  151.5837  142.2467  157.8837 H   0  0  0  0  0  0  0  0  0  0  0  0
  1  2  1  0  0  0  0
  1 21  1  0  0  0  0
  1 22  1  0  0  0  0
  1 23  1  0  0  0  0
  2  3  1  0  0  0  0
  2  4  1  0  0  0  0
  2 24  1  0  0  0  0
  3 25  1  0  0  0  0
  3 26  1  0  0  0  0
  3 27  1  0  0  0  0
  4  5  1  0  0  0  0
  4 28  1  0  0  0  0
  4 29  1  0  0  0  0
  5  6  1  0  0  0  0
  5  7  1  0  0  0  0
  5 30  1  0  0  0  0
  6 31  1  0  0  0  0
  6 32  1  0  0  0  0
  6 33  1  0  0  0  0
  7  8  1  0  0  0  0
  7 34  1  0  0  0  0
  7 48  1  0  0  0  0
  8  9  1  0  0  0  0
  8 35  1  0  0  0  0
  8 36  1  0  0  0  0
  9 14  1  0  0  0  0
  9 10  2  0  0  0  0
 10 11  1  0  0  0  0
 10 37  1  0  0  0  0
 11 12  2  0  0  0  0
 11 38  1  0  0  0  0
 12 13  1  0  0  0  0
 12 39  1  0  0  0  0
 13 14  2  0  0  0  0
 14 15  1  0  0  0  0
 15 20  1  0  0  0  0
 15 16  1  0  0  0  0
 16 17  1  0  0  0  0
 16 40  1  0  0  0  0
 16 41  1  0  0  0  0
 17 18  1  0  0  0  0
 17 42  1  0  0  0  0
 17 43  1  0  0  0  0
 18 19  1  0  0  0  0
 19 20  1  0  0  0  0
 19 44  1  0  0  0  0
 19 45  1  0  0  0  0
 20 46  1  0  0  0  0
 20 47  1  0  0  0  0
M  CHG  1   7   1
M  END
> <s_m_source_file>
AV-unprocessed.smi

> <i_m_source_file_index>
3346

> <i_lp_mmshare_version>
43012

> <i_f3d_flags>
0

> <s_epik_input>
W0NIM11bQ0hdKFtDSDNdKVtDSDJdW0NASF0oW0NIM10pW05IXVtDSDJdYzFbY0hdW2NIXVtjSF1uYzFOMltDSDJdW0NIMl1PW0NIMl1bQ0gyXTI=

> <s_epik_cmdline>
J2VwaWtfcHl0aG9uJywgJy1waCcsICc3LjAnLCAnLXRuJywgJzgnLCAnLW1hJywgJzIwMCcsICctbWV0YWxfYmluZGluZycsICctaW1hZScsICc8aW5maWxlLm1hZT4nLCAnLW9tYWUnLCAnPG91dGZpbGUubWFlPic=

> <r_lp_tautomer_probability>
1

> <r_epik_Ionization_Penalty>
0.0185938

> <r_epik_Ionization_Penalty_Charging>
0.0176519

> <r_epik_Ionization_Penalty_Neutral>
0.000941891

> <r_epik_State_Penalty>
0.0140027

> <r_epik_Charging_Adjusted_Penalty>
0.0316546

> <i_epik_Tot_Q>
1

> <i_epik_Tot_abs_Q>
1

> <r_epik_Metal_State_Penalty>
0.0141454

> <b_epik_Metal_Only>
0

> <s_lp_Force_Field>
OPLS_2005

> <r_lp_Energy>
23.7399

> <b_lp_Chiralities_Consistent>
1

> <s_lp_Variant>
AV-unprocessed.smi:3346-2

> <Gold.Version>
5.8.1

> <Gold.Id.Protein>
6NUR|6NUR_protein|mol2

> <Gold.PLP.Fitness>
44.9287

> <Gold.PLP.PLP>
-39.2706

> <Gold.PLP.part.hbond>
-3.0000

> <Gold.PLP.part.metal>
0.0000

> <Gold.PLP.part.buried>
1.5717

> <Gold.PLP.part.nonpolar>
-36.9846

> <Gold.PLP.part.repulsive>
0.2143

> <Gold.PLP.ligand.clash>
0.0000

> <Gold.PLP.ligand.torsion>
1.6092

> <Gold.PLP.Chemscore.Hbond>
1.7485

> <Gold.PLP.Chemscore.CHOScore>
1.0000

> <Gold.PLP.Chemscore.Metal>
0.0000

> <Gold.Chemscore.Hbonds>
donor molecule, donor type, donor heavy atom, donor atom, acceptor molecule, acceptor atom, score
      P1  H  7989  7998       L1    13  0.41
      P1  H  7997  8010       L1    15  0.90
      P1  H 10752 10763       L1    18  0.30
      L1  C    12    39       P1  7957  1.00

> <Gold.PLP.Chemscore.Internal.Correction>
0.6311

> <Gold.Rescore>
     Score         DG    S(hbond)    S(metal)    S(lipo)     H(rot)  DE(clash)    DE(int)     intcor
     15.53     -18.10       0.45        0.00     130.67       1.62       0.73       1.84       ----

> <Gold.Chemscore.Fitness>
15.5321

> <Gold.Chemscore.DG>
-18.1021

> <Gold.Chemscore.ZeroCoef>
-5.4800

> <Gold.Chemscore.Hbond>
0.4471

> <Gold.Chemscore.Metal>
0.0000

> <Gold.Chemscore.Lipo>
130.6701

> <Gold.Chemscore.Internal_Hbond>
0.0000

> <Gold.Chemscore.DEClash>
0.7311

> <Gold.Chemscore.DEInternal>
1.8388

> <Gold.Chemscore.Rot>
1.6248

> <Gold.Chemscore.Internal.Correction>
   9.000000E+99

> <Gold.Chemscore.Hbonds>
donor molecule, donor type, donor heavy atom, donor atom, acceptor molecule, acceptor atom, score
      P1  H  7997  8010       L1    15  0.05
      P1  H 10752 10763       L1    18  0.15

> <Gold.Chemscore.Hbond.Weighted>
-1.4933

> <Gold.Chemscore.Metal.Weighted>
-0.0000

> <Gold.Chemscore.Lipo.Weighted>
-15.2884

> <Gold.Chemscore.Internal_Hbond.Weighted>
0.0000

> <Gold.Chemscore.DEClash.Weighted>
0.7311

> <Gold.Chemscore.DEInternal.Weighted>
1.8388

> <Gold.Chemscore.Rot.Weighted>
4.1596

> <Gold.Chemscore.Internal.Correction.Weighted>
   9.000000E+99

> <Gold.Protein.RotatedTorsions>
[ 6907 6896 6895 6894 ] final  164.67 input  -60.11 | X-H torsion
[ 7974 7965 7964 7962 ] final -179.50 input  175.53 | X-H torsion
[ 8008 7997 7996 7995 ] final   83.13 input   59.86 | X-H torsion
[ 10167 10162 10161 10158 ] final -143.74 input  -65.29 | X-H torsion
[ 10718 10713 10712 10709 ] final    7.92 input   66.30 | X-H torsion
[ 10763 10752 10751 10750 ] final -143.71 input  -60.55 | X-H torsion
[ 11005 11000 10999 10996 ] final   -2.77 input  -57.11 | X-H torsion

> <Gold.Protein.ActiveResidues>
 VAL166  LYS551  ARG553  GLY616  TRP617  ASP618  TYR619  PRO620  LYS621  CYS622 
 ASP623  PHE694  ASN695  SER759  ASP760  ASP761  ALA762  ILE779  LEU786  VAL792 
 PHE793  MET794  SER795  GLU796  ALA797  LYS798  CYS799  TRP800  GLU811  SER814 

> <Gold.Protein.RotatedAtoms>
  151.9063  133.3550  159.3847 H   0  0  0  0  0  0  0  0  0  0  0  0  # atno 6907 bound_to 6896
  150.7068  134.4778  159.5465 H   0  0  0  0  0  0  0  0  0  0  0  0  # atno 6908 bound_to 6896
  152.2375  134.8261  160.0516 H   0  0  0  0  0  0  0  0  0  0  0  0  # atno 6909 bound_to 6896
  144.7137  140.0708  143.6429 H   0  0  0  0  0  0  0  0  0  0  0  0  # atno 7974 bound_to 7965
  155.9198  140.3422  155.6164 H   0  0  0  0  0  0  0  0  0  0  0  0  # atno 8008 bound_to 7997
  155.7287  140.0792  157.2317 H   0  0  0  0  0  0  0  0  0  0  0  0  # atno 8009 bound_to 7997
  154.4068  140.1592  156.2471 H   0  0  0  0  0  0  0  0  0  0  0  0  # atno 8010 bound_to 7997
  139.7964  143.7894  152.2654 H   0  0  0  0  0  0  0  0  0  0  0  0  # atno 10167 bound_to 10162
  156.9440  130.5872  149.5653 H   0  0  0  0  0  0  0  0  0  0  0  0  # atno 10718 bound_to 10713
  154.8459  135.3460  154.6230 H   0  0  0  0  0  0  0  0  0  0  0  0  # atno 10763 bound_to 10752
  153.6839  135.6978  153.5114 H   0  0  0  0  0  0  0  0  0  0  0  0  # atno 10764 bound_to 10752
  153.2647  135.4312  155.0884 H   0  0  0  0  0  0  0  0  0  0  0  0  # atno 10765 bound_to 10752
  140.6620  133.9312  155.8442 H   0  0  0  0  0  0  0  0  0  0  0  0  # atno 11005 bound_to 11000
  145.9785  139.2923  143.1056 LP  0  0  0  0  0  0  0  0  0  0  0  0  # atno 17320 bound_to 7965
  145.9037  140.9226  143.0489 LP  0  0  0  0  0  0  0  0  0  0  0  0  # atno 17321 bound_to 7965
  139.8001  144.7377  150.9837 LP  0  0  0  0  0  0  0  0  0  0  0  0  # atno 17342 bound_to 10162
  140.7820  143.4354  151.0631 LP  0  0  0  0  0  0  0  0  0  0  0  0  # atno 17343 bound_to 10162
  156.0392  130.5476  150.8728 LP  0  0  0  0  0  0  0  0  0  0  0  0  # atno 17370 bound_to 10713
  157.5766  131.0946  150.9336 LP  0  0  0  0  0  0  0  0  0  0  0  0  # atno 17371 bound_to 10713
  141.0458  134.0556  157.3846 LP  0  0  0  0  0  0  0  0  0  0  0  0  # atno 17394 bound_to 11000
  139.9010  135.0164  156.7266 LP  0  0  0  0  0  0  0  0  0  0  0  0  # atno 17395 bound_to 11000

$$$$
