AV-unprocessed.smi:234|AV-procd|sdf|1786|dock3
  -GOLD-   2262020343D 1   1.00000     0.00000
 Structure written by MMmdl.
 59 62  0  0  0  0  0  0  0  0  1 V2000
  151.8780  144.3357  158.0468 C   0  0  0  0  0  0  0  0  0  0  0  0
  152.1995  142.8810  158.4146 C   0  0  0  0  0  0  0  0  0  0  0  0
  151.0539  142.0477  158.3038 O   0  0  0  0  0  0  0  0  0  0  0  0
  150.5497  141.9155  156.9812 C   0  0  1  0  0  0  0  0  0  0  0  0
  151.2721  140.8692  156.1285 C   0  0  0  0  0  0  0  0  0  0  0  0
  149.8881  140.5443  155.5601 C   0  0  1  0  0  0  0  0  0  0  0  0
  149.6917  139.1222  155.2684 N   0  0  0  0  0  0  0  0  0  0  0  0
  150.7814  138.4471  154.5754 C   0  0  0  0  0  0  0  0  0  0  0  0
  148.5030  138.7981  154.7082 C   0  0  0  0  0  0  0  0  0  0  0  0
  147.7092  139.7646  154.1751 N   0  0  0  0  0  0  0  0  0  0  0  0
  146.5369  139.4368  153.6232 C   0  0  0  0  0  0  0  0  0  0  0  0
  145.9801  138.2297  153.5004 N   0  0  0  0  0  0  0  0  0  0  0  0
  146.7777  137.2585  154.0310 C   0  0  0  0  0  0  0  0  0  0  0  0
  148.0482  137.4548  154.6402 C   0  0  0  0  0  0  0  0  0  0  0  0
  148.5708  136.2385  155.0595 N   0  0  0  0  0  0  0  0  0  0  0  0
  147.6573  135.3700  154.7211 C   0  0  0  0  0  0  0  0  0  0  0  0
  146.5409  135.8970  154.1099 N   0  0  0  0  0  0  0  0  0  0  0  0
  145.3750  135.1590  153.6470 C   0  0  0  0  0  0  0  0  0  0  0  0
  145.5051  134.6562  152.1847 C   0  0  1  0  0  0  0  0  0  0  0  0
  146.1792  135.6558  151.4372 O   0  0  0  0  0  0  0  0  0  0  0  0
  146.2993  133.3597  152.0504 C   0  0  0  0  0  0  0  0  0  0  0  0
  145.7140  132.7263  150.7980 C   0  0  0  0  0  0  0  0  0  0  0  0
  144.3321  133.0055  150.9368 O   0  0  0  0  0  0  0  0  0  0  0  0
  144.1770  134.3289  151.4441 C   0  0  1  0  0  0  0  0  0  0  0  0
  142.8904  134.3567  152.2840 C   0  0  0  0  0  0  0  0  0  0  0  0
  149.2711  141.0443  156.8997 C   0  0  0  0  0  0  0  0  0  0  0  0
  149.0977  140.0190  158.0358 C   0  0  0  0  0  0  0  0  0  0  0  0
  147.9589  141.8216  156.7946 C   0  0  0  0  0  0  0  0  0  0  0  0
  152.7406  144.9778  158.2265 H   0  0  0  0  0  0  0  0  0  0  0  0
  151.0510  144.7154  158.6470 H   0  0  0  0  0  0  0  0  0  0  0  0
  151.6073  144.4396  156.9966 H   0  0  0  0  0  0  0  0  0  0  0  0
  153.0263  142.4980  157.8150 H   0  0  0  0  0  0  0  0  0  0  0  0
  152.5301  142.8471  159.4529 H   0  0  0  0  0  0  0  0  0  0  0  0
  150.4273  142.8675  156.4608 H   0  0  0  0  0  0  0  0  0  0  0  0
  151.9773  141.2794  155.4055 H   0  0  0  0  0  0  0  0  0  0  0  0
  151.7148  140.0624  156.7153 H   0  0  0  0  0  0  0  0  0  0  0  0
  149.6457  141.2025  154.7229 H   0  0  0  0  0  0  0  0  0  0  0  0
  150.5674  137.3861  154.4362 H   0  0  0  0  0  0  0  0  0  0  0  0
  151.7052  138.5232  155.1490 H   0  0  0  0  0  0  0  0  0  0  0  0
  150.9511  138.8955  153.5953 H   0  0  0  0  0  0  0  0  0  0  0  0
  145.9621  140.2596  153.2247 H   0  0  0  0  0  0  0  0  0  0  0  0
  147.7686  134.3135  154.9182 H   0  0  0  0  0  0  0  0  0  0  0  0
  145.2168  134.3230  154.3288 H   0  0  0  0  0  0  0  0  0  0  0  0
  144.5049  135.8091  153.7476 H   0  0  0  0  0  0  0  0  0  0  0  0
  147.1025  135.6023  151.6316 H   0  0  0  0  0  0  0  0  0  0  0  0
  147.3794  133.5041  151.9976 H   0  0  0  0  0  0  0  0  0  0  0  0
  146.0924  132.7035  152.8964 H   0  0  0  0  0  0  0  0  0  0  0  0
  146.1012  133.2022  149.8958 H   0  0  0  0  0  0  0  0  0  0  0  0
  145.9048  131.6547  150.7363 H   0  0  0  0  0  0  0  0  0  0  0  0
  144.0436  134.9956  150.5899 H   0  0  0  0  0  0  0  0  0  0  0  0
  142.7001  135.3503  152.6895 H   0  0  0  0  0  0  0  0  0  0  0  0
  142.9378  133.6508  153.1135 H   0  0  0  0  0  0  0  0  0  0  0  0
  142.0287  134.0852  151.6737 H   0  0  0  0  0  0  0  0  0  0  0  0
  148.2397  139.3684  157.8670 H   0  0  0  0  0  0  0  0  0  0  0  0
  148.9385  140.5128  158.9947 H   0  0  0  0  0  0  0  0  0  0  0  0
  149.9706  139.3760  158.1486 H   0  0  0  0  0  0  0  0  0  0  0  0
  147.1071  141.1572  156.6465 H   0  0  0  0  0  0  0  0  0  0  0  0
  147.9731  142.5190  155.9566 H   0  0  0  0  0  0  0  0  0  0  0  0
  147.7688  142.4033  157.6971 H   0  0  0  0  0  0  0  0  0  0  0  0
  1  2  1  0  0  0  0
  1 29  1  0  0  0  0
  1 30  1  0  0  0  0
  1 31  1  0  0  0  0
  2  3  1  0  0  0  0
  2 32  1  0  0  0  0
  2 33  1  0  0  0  0
  3  4  1  0  0  0  0
  4 26  1  0  0  0  0
  4  5  1  0  0  0  0
  4 34  1  0  0  0  0
  5  6  1  0  0  0  0
  5 35  1  0  0  0  0
  5 36  1  0  0  0  0
  6  7  1  0  0  0  0
  6 26  1  0  0  0  0
  6 37  1  0  0  0  0
  7  8  1  0  0  0  0
  7  9  1  0  0  0  0
  8 38  1  0  0  0  0
  8 39  1  0  0  0  0
  8 40  1  0  0  0  0
  9 14  1  0  0  0  0
  9 10  2  0  0  0  0
 10 11  1  0  0  0  0
 11 12  2  0  0  0  0
 11 41  1  0  0  0  0
 12 13  1  0  0  0  0
 13 17  1  0  0  0  0
 13 14  2  0  0  0  0
 14 15  1  0  0  0  0
 15 16  2  0  0  0  0
 16 17  1  0  0  0  0
 16 42  1  0  0  0  0
 17 18  1  0  0  0  0
 18 19  1  0  0  0  0
 18 43  1  0  0  0  0
 18 44  1  0  0  0  0
 19 24  1  0  0  0  0
 19 20  1  0  0  0  0
 19 21  1  0  0  0  0
 20 45  1  0  0  0  0
 21 22  1  0  0  0  0
 21 46  1  0  0  0  0
 21 47  1  0  0  0  0
 22 23  1  0  0  0  0
 22 48  1  0  0  0  0
 22 49  1  0  0  0  0
 23 24  1  0  0  0  0
 24 25  1  0  0  0  0
 24 50  1  0  0  0  0
 25 51  1  0  0  0  0
 25 52  1  0  0  0  0
 25 53  1  0  0  0  0
 26 27  1  0  0  0  0
 26 28  1  0  0  0  0
 27 54  1  0  0  0  0
 27 55  1  0  0  0  0
 27 56  1  0  0  0  0
 28 57  1  0  0  0  0
 28 58  1  0  0  0  0
 28 59  1  0  0  0  0
M  END
> <s_m_source_file>
AV-unprocessed.smi

> <i_m_source_file_index>
234

> <i_lp_mmshare_version>
43012

> <i_f3d_flags>
0

> <s_epik_input>
W0NIM11bQ0gyXU9bQ0BASF0oQzEoW0NIM10pW0NIM10pW0NIMl1bQ0BIXTFOKFtDSDNdKWMobltjSF1uMiljKGMyMyluW2NIXW4zW0NIMl1bQ0BAXTQoW09IXSlbQ0gyXVtDSDJdT1tDQEhdNFtDSDNd

> <s_epik_cmdline>
J2VwaWtfcHl0aG9uJywgJy1waCcsICc3LjAnLCAnLXRuJywgJzgnLCAnLW1hJywgJzIwMCcsICctbWV0YWxfYmluZGluZycsICctaW1hZScsICc8aW5maWxlLm1hZT4nLCAnLW9tYWUnLCAnPG91dGZpbGUubWFlPic=

> <r_lp_tautomer_probability>
1

> <r_epik_Ionization_Penalty>
0.00349132

> <r_epik_Ionization_Penalty_Charging>
0

> <r_epik_Ionization_Penalty_Neutral>
0.00349132

> <r_epik_State_Penalty>
0.00242418

> <r_epik_Charging_Adjusted_Penalty>
0.00242418

> <i_epik_Tot_Q>
0

> <i_epik_Tot_abs_Q>
0

> <r_epik_Metal_State_Penalty>
-0

> <b_epik_Metal_Only>
0

> <s_lp_Force_Field>
OPLS_2005

> <r_lp_Energy>
47.6345

> <b_lp_Chiralities_Consistent>
1

> <s_lp_Variant>
AV-unprocessed.smi:234-2

> <Gold.Version>
5.8.1

> <Gold.Id.Protein>
6NUR|6NUR_protein|mol2

> <Gold.PLP.Fitness>
39.0795

> <Gold.PLP.PLP>
-35.0622

> <Gold.PLP.part.hbond>
-1.0000

> <Gold.PLP.part.metal>
0.0000

> <Gold.PLP.part.buried>
-4.3819

> <Gold.PLP.part.nonpolar>
-30.1864

> <Gold.PLP.part.repulsive>
0.7072

> <Gold.PLP.ligand.clash>
0.0000

> <Gold.PLP.ligand.torsion>
1.4198

> <Gold.PLP.Chemscore.Hbond>
1.0000

> <Gold.PLP.Chemscore.CHOScore>
1.0000

> <Gold.PLP.Chemscore.Metal>
0.0000

> <Gold.Chemscore.Hbonds>
donor molecule, donor type, donor heavy atom, donor atom, acceptor molecule, acceptor atom, score
      L1  H    20    45       P1  7948  1.00
      L1  C    11    41       P1 10175  1.00

> <Gold.PLP.Chemscore.Internal.Correction>
0.8569

> <Gold.Rescore>
     Score         DG    S(hbond)    S(metal)    S(lipo)     H(rot)  DE(clash)    DE(int)     intcor
     11.66     -13.09       0.99        0.00      94.08       2.62       0.12       1.31       ----

> <Gold.Chemscore.Fitness>
11.6586

> <Gold.Chemscore.DG>
-13.0900

> <Gold.Chemscore.ZeroCoef>
-5.4800

> <Gold.Chemscore.Hbond>
0.9925

> <Gold.Chemscore.Metal>
0.0000

> <Gold.Chemscore.Lipo>
94.0784

> <Gold.Chemscore.Internal_Hbond>
0.0000

> <Gold.Chemscore.DEClash>
0.1167

> <Gold.Chemscore.DEInternal>
1.3148

> <Gold.Chemscore.Rot>
2.6219

> <Gold.Chemscore.Internal.Correction>
   9.000000E+99

> <Gold.Chemscore.Hbonds>
donor molecule, donor type, donor heavy atom, donor atom, acceptor molecule, acceptor atom, score
      L1  H    20    45       P1  7948  0.98

> <Gold.Chemscore.Hbond.Weighted>
-3.3150

> <Gold.Chemscore.Metal.Weighted>
-0.0000

> <Gold.Chemscore.Lipo.Weighted>
-11.0072

> <Gold.Chemscore.Internal_Hbond.Weighted>
0.0000

> <Gold.Chemscore.DEClash.Weighted>
0.1167

> <Gold.Chemscore.DEInternal.Weighted>
1.3148

> <Gold.Chemscore.Rot.Weighted>
6.7121

> <Gold.Chemscore.Internal.Correction.Weighted>
   9.000000E+99

> <Gold.Protein.RotatedTorsions>
[ 6907 6896 6895 6894 ] final -109.52 input  -60.11 | X-H torsion
[ 7974 7965 7964 7962 ] final  -76.20 input  175.53 | X-H torsion
[ 8008 7997 7996 7995 ] final    6.73 input   59.86 | X-H torsion
[ 10167 10162 10161 10158 ] final -169.18 input  -65.29 | X-H torsion
[ 10718 10713 10712 10709 ] final   45.98 input   66.30 | X-H torsion
[ 10763 10752 10751 10750 ] final  146.17 input  -60.55 | X-H torsion
[ 11005 11000 10999 10996 ] final   34.85 input  -57.11 | X-H torsion

> <Gold.Protein.ActiveResidues>
 VAL166  LYS551  ARG553  GLY616  TRP617  ASP618  TYR619  PRO620  LYS621  CYS622 
 ASP623  PHE694  ASN695  SER759  ASP760  ASP761  ALA762  ILE779  LEU786  VAL792 
 PHE793  MET794  SER795  GLU796  ALA797  LYS798  CYS799  TRP800  GLU811  SER814 

> <Gold.Protein.RotatedAtoms>
  150.7567  133.9518  159.3487 H   0  0  0  0  0  0  0  0  0  0  0  0  # atno 6907 bound_to 6896
  151.7436  135.0847  160.0329 H   0  0  0  0  0  0  0  0  0  0  0  0  # atno 6908 bound_to 6896
  152.3512  133.6145  159.5982 H   0  0  0  0  0  0  0  0  0  0  0  0  # atno 6909 bound_to 6896
  145.6160  140.9375  143.1164 H   0  0  0  0  0  0  0  0  0  0  0  0  # atno 7974 bound_to 7965
  154.7447  140.2755  155.6343 H   0  0  0  0  0  0  0  0  0  0  0  0  # atno 8008 bound_to 7997
  156.2882  140.2690  156.2110 H   0  0  0  0  0  0  0  0  0  0  0  0  # atno 8009 bound_to 7997
  155.0213  140.0371  157.2428 H   0  0  0  0  0  0  0  0  0  0  0  0  # atno 8010 bound_to 7997
  139.5939  144.1154  152.1666 H   0  0  0  0  0  0  0  0  0  0  0  0  # atno 10167 bound_to 10162
  157.4433  130.8094  149.7716 H   0  0  0  0  0  0  0  0  0  0  0  0  # atno 10718 bound_to 10713
  154.0174  135.2909  155.3385 H   0  0  0  0  0  0  0  0  0  0  0  0  # atno 10763 bound_to 10752
  154.7066  135.5166  153.8608 H   0  0  0  0  0  0  0  0  0  0  0  0  # atno 10764 bound_to 10752
  153.0696  135.6643  154.0400 H   0  0  0  0  0  0  0  0  0  0  0  0  # atno 10765 bound_to 10752
  140.2487  134.3329  155.7898 H   0  0  0  0  0  0  0  0  0  0  0  0  # atno 11005 bound_to 11000
  144.7250  139.7904  143.7368 LP  0  0  0  0  0  0  0  0  0  0  0  0  # atno 17320 bound_to 7965
  146.1468  139.4539  143.0074 LP  0  0  0  0  0  0  0  0  0  0  0  0  # atno 17321 bound_to 7965
  140.0735  144.5760  150.7174 LP  0  0  0  0  0  0  0  0  0  0  0  0  # atno 17342 bound_to 10162
  140.7196  143.2576  151.4323 LP  0  0  0  0  0  0  0  0  0  0  0  0  # atno 17343 bound_to 10162
  155.9957  130.3910  150.2807 LP  0  0  0  0  0  0  0  0  0  0  0  0  # atno 17370 bound_to 10713
  157.0973  131.0186  151.3099 LP  0  0  0  0  0  0  0  0  0  0  0  0  # atno 17371 bound_to 10713
  141.2203  133.7341  156.9002 LP  0  0  0  0  0  0  0  0  0  0  0  0  # atno 17394 bound_to 11000
  140.1580  134.9185  157.2678 LP  0  0  0  0  0  0  0  0  0  0  0  0  # atno 17395 bound_to 11000

$$$$
