AV-unprocessed.smi:2465|AV-procd|sdf|9723|dock9
  -GOLD-   2272013363D 1   1.00000     0.00000
 Structure written by MMmdl.
 41 42  0  0  0  0  0  0  0  0  2 V2000
  147.2948  133.3102  151.9489 C   0  0  0  0  0  0  0  0  0  0  0  0
  145.9536  133.6260  151.3090 C   0  0  0  0  0  0  0  0  0  0  0  0
  145.1278  132.5674  150.8694 C   0  0  0  0  0  0  0  0  0  0  0  0
  143.8861  132.8597  150.2735 C   0  0  0  0  0  0  0  0  0  0  0  0
  143.5014  134.1439  150.1248 N   0  3  0  0  0  0  0  0  0  0  0  0
  144.2557  135.1882  150.5293 C   0  0  0  0  0  0  0  0  0  0  0  0
  145.5126  134.9651  151.1478 C   0  0  0  0  0  0  0  0  0  0  0  0
  146.3657  136.0182  151.5888 N   0  0  0  0  0  0  0  0  0  0  0  0
  146.0448  137.1741  152.1961 C   0  0  0  0  0  0  0  0  0  0  0  0
  144.9048  137.5366  152.4848 O   0  0  0  0  0  0  0  0  0  0  0  0
  147.1405  137.8975  152.4674 N   0  0  0  0  0  0  0  0  0  0  0  0
  147.1446  139.2041  153.1157 C   0  0  0  0  0  0  0  0  0  0  0  0
  148.3505  139.3739  154.0538 C   0  0  0  0  0  0  0  0  0  0  0  0
  148.5657  140.8394  154.4659 C   0  0  0  0  0  0  0  0  0  0  0  0
  149.5107  140.9561  155.5734 N   0  0  0  0  0  0  0  0  0  0  0  0
  149.1580  141.6992  156.7716 C   0  0  0  0  0  0  0  0  0  0  0  0
  150.3058  141.4363  157.7572 C   0  0  0  0  0  0  0  0  0  0  0  0
  151.4350  140.8161  156.9271 C   0  0  0  0  0  0  0  0  0  0  0  0
  150.7582  140.4729  155.6109 C   0  0  0  0  0  0  0  0  0  0  0  0
  151.3169  139.8349  154.7197 O   0  0  0  0  0  0  0  0  0  0  0  0
  147.4767  132.2356  151.9839 H   0  0  0  0  0  0  0  0  0  0  0  0
  147.3288  133.6911  152.9701 H   0  0  0  0  0  0  0  0  0  0  0  0
  148.1049  133.7693  151.3816 H   0  0  0  0  0  0  0  0  0  0  0  0
  145.4403  131.5396  150.9848 H   0  0  0  0  0  0  0  0  0  0  0  0
  143.1966  132.1118  149.9096 H   0  0  0  0  0  0  0  0  0  0  0  0
  143.8204  136.1547  150.3278 H   0  0  0  0  0  0  0  0  0  0  0  0
  147.3535  135.8473  151.4698 H   0  0  0  0  0  0  0  0  0  0  0  0
  148.0391  137.5229  152.2003 H   0  0  0  0  0  0  0  0  0  0  0  0
  147.1717  139.9659  152.3360 H   0  0  0  0  0  0  0  0  0  0  0  0
  146.2115  139.3519  153.6622 H   0  0  0  0  0  0  0  0  0  0  0  0
  148.2077  138.7666  154.9487 H   0  0  0  0  0  0  0  0  0  0  0  0
  149.2477  138.9940  153.5629 H   0  0  0  0  0  0  0  0  0  0  0  0
  148.9300  141.4201  153.6170 H   0  0  0  0  0  0  0  0  0  0  0  0
  147.6143  141.2866  154.7573 H   0  0  0  0  0  0  0  0  0  0  0  0
  149.0851  142.7605  156.5298 H   0  0  0  0  0  0  0  0  0  0  0  0
  148.1977  141.3724  157.1729 H   0  0  0  0  0  0  0  0  0  0  0  0
  150.6229  142.3508  158.2594 H   0  0  0  0  0  0  0  0  0  0  0  0
  149.9839  140.7343  158.5276 H   0  0  0  0  0  0  0  0  0  0  0  0
  152.2375  141.5322  156.7472 H   0  0  0  0  0  0  0  0  0  0  0  0
  151.8556  139.9292  157.4018 H   0  0  0  0  0  0  0  0  0  0  0  0
  142.6011  134.3358  149.6845 H   0  0  0  0  0  0  0  0  0  0  0  0
  1  2  1  0  0  0  0
  1 21  1  0  0  0  0
  1 22  1  0  0  0  0
  1 23  1  0  0  0  0
  2  7  1  0  0  0  0
  2  3  2  0  0  0  0
  3  4  1  0  0  0  0
  3 24  1  0  0  0  0
  4  5  2  0  0  0  0
  4 25  1  0  0  0  0
  5  6  1  0  0  0  0
  5 41  1  0  0  0  0
  6  7  2  0  0  0  0
  6 26  1  0  0  0  0
  7  8  1  0  0  0  0
  8  9  1  0  0  0  0
  8 27  1  0  0  0  0
  9 10  2  0  0  0  0
  9 11  1  0  0  0  0
 11 12  1  0  0  0  0
 11 28  1  0  0  0  0
 12 13  1  0  0  0  0
 12 29  1  0  0  0  0
 12 30  1  0  0  0  0
 13 14  1  0  0  0  0
 13 31  1  0  0  0  0
 13 32  1  0  0  0  0
 14 15  1  0  0  0  0
 14 33  1  0  0  0  0
 14 34  1  0  0  0  0
 15 19  1  0  0  0  0
 15 16  1  0  0  0  0
 16 17  1  0  0  0  0
 16 35  1  0  0  0  0
 16 36  1  0  0  0  0
 17 18  1  0  0  0  0
 17 37  1  0  0  0  0
 17 38  1  0  0  0  0
 18 19  1  0  0  0  0
 18 39  1  0  0  0  0
 18 40  1  0  0  0  0
 19 20  2  0  0  0  0
M  CHG  1   5   1
M  END
> <s_m_source_file>
AV-unprocessed.smi

> <i_m_source_file_index>
2465

> <i_lp_mmshare_version>
43012

> <i_f3d_flags>
0

> <s_epik_input>
W0NIM11jMVtjSF1bY0hdbltjSF1jMVtOSF1DKD1PKVtOSF1bQ0gyXVtDSDJdW0NIMl1OMltDSDJdW0NIMl1bQ0gyXUMyPU8=

> <s_epik_cmdline>
J2VwaWtfcHl0aG9uJywgJy1waCcsICc3LjAnLCAnLXRuJywgJzgnLCAnLW1hJywgJzIwMCcsICctbWV0YWxfYmluZGluZycsICctaW1hZScsICc8aW5maWxlLm1hZT4nLCAnLW9tYWUnLCAnPG91dGZpbGUubWFlPic=

> <r_epik_Ionization_Penalty>
1.98477

> <r_epik_Ionization_Penalty_Charging>
1.98474

> <r_epik_Ionization_Penalty_Neutral>
2.19328e-05

> <r_epik_State_Penalty>
2.1123

> <r_epik_Charging_Adjusted_Penalty>
4.09705

> <i_epik_Tot_Q>
1

> <i_epik_Tot_abs_Q>
1

> <r_epik_Metal_State_Penalty>
2.13405

> <b_epik_Metal_Only>
0

> <s_lp_Force_Field>
OPLS_2005

> <r_lp_Energy>
26.0932

> <b_lp_Chiralities_Consistent>
1

> <s_lp_Variant>
AV-unprocessed.smi:2465-2

> <Gold.Version>
5.8.1

> <Gold.Id.Protein>
6NUR|6NUR_protein|mol2

> <Gold.PLP.Fitness>
52.1881

> <Gold.PLP.PLP>
-38.3396

> <Gold.PLP.part.hbond>
-4.0000

> <Gold.PLP.part.metal>
0.0000

> <Gold.PLP.part.buried>
-5.6574

> <Gold.PLP.part.nonpolar>
-29.7719

> <Gold.PLP.part.repulsive>
0.4637

> <Gold.PLP.ligand.clash>
0.0000

> <Gold.PLP.ligand.torsion>
0.5972

> <Gold.PLP.Chemscore.Hbond>
4.9920

> <Gold.PLP.Chemscore.CHOScore>
0.0000

> <Gold.PLP.Chemscore.Metal>
0.0000

> <Gold.Chemscore.Hbonds>
donor molecule, donor type, donor heavy atom, donor atom, acceptor molecule, acceptor atom, score
      L1  H     5    41       P1 10186  2.00
      L1  H     8    27       P1  7948  1.00
      L1  H    11    28       P1  7948  0.99
      P1  H  7989  7998       L1    20  1.00

> <Gold.PLP.Chemscore.Internal.Correction>
0.0668

> <Gold.Rescore>
     Score         DG    S(hbond)    S(metal)    S(lipo)     H(rot)  DE(clash)    DE(int)     intcor
     21.67     -22.32       3.90        0.00      71.77       1.78       0.08       0.57       ----

> <Gold.Chemscore.Fitness>
21.6677

> <Gold.Chemscore.DG>
-22.3218

> <Gold.Chemscore.ZeroCoef>
-5.4800

> <Gold.Chemscore.Hbond>
3.8960

> <Gold.Chemscore.Metal>
0.0000

> <Gold.Chemscore.Lipo>
71.7650

> <Gold.Chemscore.Internal_Hbond>
0.0000

> <Gold.Chemscore.DEClash>
0.0814

> <Gold.Chemscore.DEInternal>
0.5726

> <Gold.Chemscore.Rot>
1.7841

> <Gold.Chemscore.Internal.Correction>
   9.000000E+99

> <Gold.Chemscore.Hbonds>
donor molecule, donor type, donor heavy atom, donor atom, acceptor molecule, acceptor atom, score
      L1  H     5    41       P1 10186  0.96
      L1  H     8    27       P1  7948  0.95
      L1  H    11    28       P1  7948  0.93
      P1  H  7989  7998       L1    20  0.65

> <Gold.Chemscore.Hbond.Weighted>
-13.0125

> <Gold.Chemscore.Metal.Weighted>
-0.0000

> <Gold.Chemscore.Lipo.Weighted>
-8.3965

> <Gold.Chemscore.Internal_Hbond.Weighted>
0.0000

> <Gold.Chemscore.DEClash.Weighted>
0.0814

> <Gold.Chemscore.DEInternal.Weighted>
0.5726

> <Gold.Chemscore.Rot.Weighted>
4.5673

> <Gold.Chemscore.Internal.Correction.Weighted>
   9.000000E+99

> <Gold.Protein.RotatedTorsions>
[ 6907 6896 6895 6894 ] final  124.83 input  -60.11 | X-H torsion
[ 7974 7965 7964 7962 ] final  -35.38 input  175.53 | X-H torsion
[ 8008 7997 7996 7995 ] final  -15.76 input   59.86 | X-H torsion
[ 10167 10162 10161 10158 ] final  -33.84 input  -65.29 | X-H torsion
[ 10718 10713 10712 10709 ] final  -74.89 input   66.30 | X-H torsion
[ 10763 10752 10751 10750 ] final  -35.78 input  -60.55 | X-H torsion
[ 11005 11000 10999 10996 ] final  161.32 input  -57.11 | X-H torsion

> <Gold.Protein.ActiveResidues>
 VAL166  LYS551  ARG553  GLY616  TRP617  ASP618  TYR619  PRO620  LYS621  CYS622 
 ASP623  PHE694  ASN695  SER759  ASP760  ASP761  ALA762  ILE779  LEU786  VAL792 
 PHE793  MET794  SER795  GLU796  ALA797  LYS798  CYS799  TRP800  GLU811  SER814 

> <Gold.Protein.RotatedAtoms>
  152.4045  133.6867  159.6343 H   0  0  0  0  0  0  0  0  0  0  0  0  # atno 6907 bound_to 6896
  150.7931  133.8734  159.3274 H   0  0  0  0  0  0  0  0  0  0  0  0  # atno 6908 bound_to 6896
  151.6492  135.1005  160.0208 H   0  0  0  0  0  0  0  0  0  0  0  0  # atno 6909 bound_to 6896
  146.0751  140.6152  142.8934 H   0  0  0  0  0  0  0  0  0  0  0  0  # atno 7974 bound_to 7965
  154.5105  140.2188  155.9165 H   0  0  0  0  0  0  0  0  0  0  0  0  # atno 8008 bound_to 7997
  156.1547  140.3154  155.8672 H   0  0  0  0  0  0  0  0  0  0  0  0  # atno 8009 bound_to 7997
  155.3870  140.0476  157.3032 H   0  0  0  0  0  0  0  0  0  0  0  0  # atno 8010 bound_to 7997
  140.7197  143.3591  151.1999 H   0  0  0  0  0  0  0  0  0  0  0  0  # atno 10167 bound_to 10162
  156.0226  130.4427  150.2960 H   0  0  0  0  0  0  0  0  0  0  0  0  # atno 10718 bound_to 10713
  153.8689  135.6833  153.4776 H   0  0  0  0  0  0  0  0  0  0  0  0  # atno 10763 bound_to 10752
  153.1298  135.4703  154.9329 H   0  0  0  0  0  0  0  0  0  0  0  0  # atno 10764 bound_to 10752
  154.7723  135.3242  154.8114 H   0  0  0  0  0  0  0  0  0  0  0  0  # atno 10765 bound_to 10752
  140.2146  134.8242  157.3157 H   0  0  0  0  0  0  0  0  0  0  0  0  # atno 11005 bound_to 11000
  144.7256  140.4515  143.6975 LP  0  0  0  0  0  0  0  0  0  0  0  0  # atno 17320 bound_to 7965
  145.6320  139.1537  143.2964 LP  0  0  0  0  0  0  0  0  0  0  0  0  # atno 17321 bound_to 7965
  139.7139  143.9331  152.2959 LP  0  0  0  0  0  0  0  0  0  0  0  0  # atno 17342 bound_to 10162
  139.9066  144.6881  150.8607 LP  0  0  0  0  0  0  0  0  0  0  0  0  # atno 17343 bound_to 10162
  157.1064  131.0209  151.3065 LP  0  0  0  0  0  0  0  0  0  0  0  0  # atno 17370 bound_to 10713
  157.4739  130.7725  149.7350 LP  0  0  0  0  0  0  0  0  0  0  0  0  # atno 17371 bound_to 10713
  140.1914  134.4367  155.7713 LP  0  0  0  0  0  0  0  0  0  0  0  0  # atno 17394 bound_to 11000
  141.2225  133.7029  156.8034 LP  0  0  0  0  0  0  0  0  0  0  0  0  # atno 17395 bound_to 11000

$$$$
