AV-unprocessed.smi:1576|AV-procd|sdf|6345|dock6
  -GOLD-   22720 6563D 1   1.00000     0.00000
 Structure written by MMmdl.
 46 48  0  0  0  0  0  0  0  0  2 V2000
  150.7977  136.0062  156.5449 O   0  0  0  0  0  0  0  0  0  0  0  0
  150.3623  136.3397  155.4432 C   0  0  0  0  0  0  0  0  0  0  0  0
  150.2779  137.6029  154.9912 N   0  0  0  0  0  0  0  0  0  0  0  0
  150.6213  138.8073  155.6629 C   0  0  0  0  0  0  0  0  0  0  0  0
  150.2565  140.0996  155.2134 C   0  0  0  0  0  0  0  0  0  0  0  0
  150.6632  141.2332  155.9471 C   0  0  0  0  0  0  0  0  0  0  0  0
  151.4383  141.0769  157.1241 C   0  0  0  0  0  0  0  0  0  0  0  0
  151.8942  142.1540  157.9182 N   0  0  0  0  0  0  0  0  0  0  0  0
  152.2251  141.8385  159.3119 C   0  0  0  0  0  0  0  0  0  0  0  0
  153.0876  142.9401  159.9509 C   0  0  0  0  0  0  0  0  0  0  0  0
  152.4312  144.3181  159.7935 C   0  0  0  0  0  0  0  0  0  0  0  0
  152.1516  144.5932  158.3101 C   0  0  0  0  0  0  0  0  0  0  0  0
  151.3017  143.4732  157.6859 C   0  0  0  0  0  0  0  0  0  0  0  0
  151.7724  139.8185  157.5009 N   0  3  0  0  0  0  0  0  0  0  0  0
  151.4061  138.7064  156.8288 C   0  0  0  0  0  0  0  0  0  0  0  0
  149.9234  135.4651  154.5272 N   0  0  0  0  0  0  0  0  0  0  0  0
  149.8921  134.0158  154.7012 C   0  0  2  0  0  0  0  0  0  0  0  0
  149.2080  133.3272  153.5057 C   0  0  0  0  0  0  0  0  0  0  0  0
  148.8847  131.8791  153.8929 C   0  0  0  0  0  0  0  0  0  0  0  0
  148.5545  131.8978  155.6958 S   0  0  0  0  0  0  0  0  0  0  0  0
  147.1041  131.8401  155.9315 O   0  0  0  0  0  0  0  0  0  0  0  0
  149.4677  130.9543  156.3579 O   0  0  0  0  0  0  0  0  0  0  0  0
  149.1363  133.6124  155.9775 C   0  0  0  0  0  0  0  0  0  0  0  0
  149.9778  137.7115  154.0334 H   0  0  0  0  0  0  0  0  0  0  0  0
  149.6821  140.2491  154.3124 H   0  0  0  0  0  0  0  0  0  0  0  0
  150.3626  142.2062  155.5895 H   0  0  0  0  0  0  0  0  0  0  0  0
  151.2956  141.7238  159.8710 H   0  0  0  0  0  0  0  0  0  0  0  0
  152.7605  140.8932  159.3963 H   0  0  0  0  0  0  0  0  0  0  0  0
  153.2484  142.7210  161.0068 H   0  0  0  0  0  0  0  0  0  0  0  0
  154.0732  142.9495  159.4834 H   0  0  0  0  0  0  0  0  0  0  0  0
  151.4992  144.3521  160.3590 H   0  0  0  0  0  0  0  0  0  0  0  0
  153.0776  145.0935  160.2055 H   0  0  0  0  0  0  0  0  0  0  0  0
  151.6457  145.5522  158.1958 H   0  0  0  0  0  0  0  0  0  0  0  0
  153.0967  144.6767  157.7718 H   0  0  0  0  0  0  0  0  0  0  0  0
  151.2166  143.6670  156.6163 H   0  0  0  0  0  0  0  0  0  0  0  0
  150.2938  143.4901  158.1025 H   0  0  0  0  0  0  0  0  0  0  0  0
  151.7486  137.7717  157.2495 H   0  0  0  0  0  0  0  0  0  0  0  0
  149.5881  135.8241  153.6452 H   0  0  0  0  0  0  0  0  0  0  0  0
  150.9125  133.6326  154.7648 H   0  0  0  0  0  0  0  0  0  0  0  0
  148.2735  133.8430  153.2802 H   0  0  0  0  0  0  0  0  0  0  0  0
  149.8216  133.3723  152.6054 H   0  0  0  0  0  0  0  0  0  0  0  0
  148.0269  131.4746  153.3556 H   0  0  0  0  0  0  0  0  0  0  0  0
  149.7435  131.2313  153.7160 H   0  0  0  0  0  0  0  0  0  0  0  0
  149.7574  133.6555  156.8724 H   0  0  0  0  0  0  0  0  0  0  0  0
  148.2574  134.2390  156.1335 H   0  0  0  0  0  0  0  0  0  0  0  0
  152.3383  139.7043  158.3421 H   0  0  0  0  0  0  0  0  0  0  0  0
  1  2  2  0  0  0  0
  2  3  1  0  0  0  0
  2 16  1  0  0  0  0
  3  4  1  0  0  0  0
  3 24  1  0  0  0  0
  4 15  1  0  0  0  0
  4  5  2  0  0  0  0
  5  6  1  0  0  0  0
  5 25  1  0  0  0  0
  6  7  2  0  0  0  0
  6 26  1  0  0  0  0
  7  8  1  0  0  0  0
  7 14  1  0  0  0  0
  8 13  1  0  0  0  0
  8  9  1  0  0  0  0
  9 10  1  0  0  0  0
  9 27  1  0  0  0  0
  9 28  1  0  0  0  0
 10 11  1  0  0  0  0
 10 29  1  0  0  0  0
 10 30  1  0  0  0  0
 11 12  1  0  0  0  0
 11 31  1  0  0  0  0
 11 32  1  0  0  0  0
 12 13  1  0  0  0  0
 12 33  1  0  0  0  0
 12 34  1  0  0  0  0
 13 35  1  0  0  0  0
 13 36  1  0  0  0  0
 14 15  2  0  0  0  0
 14 46  1  0  0  0  0
 15 37  1  0  0  0  0
 16 17  1  0  0  0  0
 16 38  1  0  0  0  0
 17 23  1  0  0  0  0
 17 18  1  0  0  0  0
 17 39  1  0  0  0  0
 18 19  1  0  0  0  0
 18 40  1  0  0  0  0
 18 41  1  0  0  0  0
 19 20  1  0  0  0  0
 19 42  1  0  0  0  0
 19 43  1  0  0  0  0
 20 21  2  0  0  0  0
 20 22  2  0  0  0  0
 20 23  1  0  0  0  0
 23 44  1  0  0  0  0
 23 45  1  0  0  0  0
M  CHG  1  14   1
M  END
> <s_m_source_file>
AV-unprocessed.smi

> <i_m_source_file_index>
1576

> <i_lp_mmshare_version>
43012

> <i_f3d_flags>
0

> <s_epik_input>
Tz1TMSg9TylbQ0gyXVtDSDJdW0NASF0oW0NIMl0xKVtOSF1DKD1PKVtOSF1jMltjSF1bY0hdYyhuW2NIXTIpTjNbQ0gyXVtDSDJdW0NIMl1bQ0gyXVtDSDJdMw==

> <s_epik_cmdline>
J2VwaWtfcHl0aG9uJywgJy1waCcsICc3LjAnLCAnLXRuJywgJzgnLCAnLW1hJywgJzIwMCcsICctbWV0YWxfYmluZGluZycsICctaW1hZScsICc8aW5maWxlLm1hZT4nLCAnLW9tYWUnLCAnPG91dGZpbGUubWFlPic=

> <r_lp_tautomer_probability>
0.999994

> <r_epik_Ionization_Penalty>
1.19724

> <r_epik_Ionization_Penalty_Charging>
1.19722

> <r_epik_Ionization_Penalty_Neutral>
2.11505e-05

> <r_epik_State_Penalty>
1.26251

> <r_epik_Charging_Adjusted_Penalty>
2.45973

> <i_epik_Tot_Q>
1

> <i_epik_Tot_abs_Q>
1

> <r_epik_Metal_State_Penalty>
1.33857

> <b_epik_Metal_Only>
0

> <s_lp_Force_Field>
OPLS_2005

> <r_lp_Energy>
26.9885

> <b_lp_Chiralities_Consistent>
1

> <s_lp_Variant>
AV-unprocessed.smi:1576-3

> <Gold.Version>
5.8.1

> <Gold.Id.Protein>
6NUR|6NUR_protein|mol2

> <Gold.PLP.Fitness>
41.5426

> <Gold.PLP.PLP>
-39.1233

> <Gold.PLP.part.hbond>
-1.1385

> <Gold.PLP.part.metal>
0.0000

> <Gold.PLP.part.buried>
-4.0839

> <Gold.PLP.part.nonpolar>
-34.7650

> <Gold.PLP.part.repulsive>
0.2264

> <Gold.PLP.ligand.clash>
0.0000

> <Gold.PLP.ligand.torsion>
0.5518

> <Gold.PLP.Chemscore.Hbond>
1.0000

> <Gold.PLP.Chemscore.CHOScore>
0.0000

> <Gold.PLP.Chemscore.Metal>
0.0000

> <Gold.Chemscore.Hbonds>
donor molecule, donor type, donor heavy atom, donor atom, acceptor molecule, acceptor atom, score
      L1  H    16    38       P1  7948  1.00

> <Gold.PLP.Chemscore.Internal.Correction>
0.5229

> <Gold.Rescore>
     Score         DG    S(hbond)    S(metal)    S(lipo)     H(rot)  DE(clash)    DE(int)     intcor
     13.83     -15.92       0.42        0.00     104.49       1.25       0.15       1.95       ----

> <Gold.Chemscore.Fitness>
13.8323

> <Gold.Chemscore.DG>
-15.9239

> <Gold.Chemscore.ZeroCoef>
-5.4800

> <Gold.Chemscore.Hbond>
0.4228

> <Gold.Chemscore.Metal>
0.0000

> <Gold.Chemscore.Lipo>
104.4861

> <Gold.Chemscore.Internal_Hbond>
0.0000

> <Gold.Chemscore.DEClash>
0.1461

> <Gold.Chemscore.DEInternal>
1.9455

> <Gold.Chemscore.Rot>
1.2473

> <Gold.Chemscore.Internal.Correction>
   9.000000E+99

> <Gold.Chemscore.Hbonds>
donor molecule, donor type, donor heavy atom, donor atom, acceptor molecule, acceptor atom, score
      L1  H    16    38       P1  7948  0.26

> <Gold.Chemscore.Hbond.Weighted>
-1.4122

> <Gold.Chemscore.Metal.Weighted>
-0.0000

> <Gold.Chemscore.Lipo.Weighted>
-12.2249

> <Gold.Chemscore.Internal_Hbond.Weighted>
0.0000

> <Gold.Chemscore.DEClash.Weighted>
0.1461

> <Gold.Chemscore.DEInternal.Weighted>
1.9455

> <Gold.Chemscore.Rot.Weighted>
3.1931

> <Gold.Chemscore.Internal.Correction.Weighted>
   9.000000E+99

> <Gold.Protein.RotatedTorsions>
[ 6907 6896 6895 6894 ] final   -3.48 input  -60.11 | X-H torsion
[ 7974 7965 7964 7962 ] final  143.16 input  175.53 | X-H torsion
[ 8008 7997 7996 7995 ] final  144.03 input   59.86 | X-H torsion
[ 10167 10162 10161 10158 ] final    2.12 input  -65.29 | X-H torsion
[ 10718 10713 10712 10709 ] final  -33.59 input   66.30 | X-H torsion
[ 10763 10752 10751 10750 ] final -118.46 input  -60.55 | X-H torsion
[ 11005 11000 10999 10996 ] final -140.27 input  -57.11 | X-H torsion

> <Gold.Protein.ActiveResidues>
 VAL166  LYS551  ARG553  GLY616  TRP617  ASP618  TYR619  PRO620  LYS621  CYS622 
 ASP623  PHE694  ASN695  SER759  ASP760  ASP761  ALA762  ILE779  LEU786  VAL792 
 PHE793  MET794  SER795  GLU796  ALA797  LYS798  CYS799  TRP800  GLU811  SER814 

> <Gold.Protein.RotatedAtoms>
  151.5130  135.1065  159.9858 H   0  0  0  0  0  0  0  0  0  0  0  0  # atno 6907 bound_to 6896
  152.4653  133.7906  159.6910 H   0  0  0  0  0  0  0  0  0  0  0  0  # atno 6908 bound_to 6896
  150.8634  133.7546  159.3010 H   0  0  0  0  0  0  0  0  0  0  0  0  # atno 6909 bound_to 6896
  144.8945  139.5511  143.5783 H   0  0  0  0  0  0  0  0  0  0  0  0  # atno 7974 bound_to 7965
  156.2917  140.2246  156.4987 H   0  0  0  0  0  0  0  0  0  0  0  0  # atno 8008 bound_to 7997
  154.7708  140.0467  157.1071 H   0  0  0  0  0  0  0  0  0  0  0  0  # atno 8009 bound_to 7997
  154.9876  140.3086  155.4923 H   0  0  0  0  0  0  0  0  0  0  0  0  # atno 8010 bound_to 7997
  140.6650  143.7203  150.7810 H   0  0  0  0  0  0  0  0  0  0  0  0  # atno 10167 bound_to 10162
  156.3608  130.4323  149.7625 H   0  0  0  0  0  0  0  0  0  0  0  0  # atno 10718 bound_to 10713
  154.8588  135.4273  154.2143 H   0  0  0  0  0  0  0  0  0  0  0  0  # atno 10763 bound_to 10752
  153.3162  135.6979  153.7077 H   0  0  0  0  0  0  0  0  0  0  0  0  # atno 10764 bound_to 10752
  153.6150  135.3512  155.2965 H   0  0  0  0  0  0  0  0  0  0  0  0  # atno 10765 bound_to 10752
  140.8439  134.2368  157.4796 H   0  0  0  0  0  0  0  0  0  0  0  0  # atno 11005 bound_to 11000
  146.3073  139.7624  142.9046 LP  0  0  0  0  0  0  0  0  0  0  0  0  # atno 17320 bound_to 7965
  145.3725  141.0345  143.3223 LP  0  0  0  0  0  0  0  0  0  0  0  0  # atno 17321 bound_to 7965
  140.0878  143.4906  152.2495 LP  0  0  0  0  0  0  0  0  0  0  0  0  # atno 17342 bound_to 10162
  139.5896  144.7545  151.3433 LP  0  0  0  0  0  0  0  0  0  0  0  0  # atno 17343 bound_to 10162
  156.4790  130.8032  151.3047 LP  0  0  0  0  0  0  0  0  0  0  0  0  # atno 17370 bound_to 10713
  157.7473  131.0012  150.2953 LP  0  0  0  0  0  0  0  0  0  0  0  0  # atno 17371 bound_to 10713
  139.8703  134.9649  156.4512 LP  0  0  0  0  0  0  0  0  0  0  0  0  # atno 17394 bound_to 11000
  140.8865  133.7880  155.9524 LP  0  0  0  0  0  0  0  0  0  0  0  0  # atno 17395 bound_to 11000

$$$$
