AV-unprocessed.smi:2285|AV-procd|sdf|9203|dock2
  -GOLD-   2272012423D 1   1.00000     0.00000
 Structure written by MMmdl.
 36 37  0  0  0  0  0  0  0  0  1 V2000
  148.4158  140.5144  154.6306 C   0  0  0  0  0  0  0  0  0  0  0  0
  149.0980  139.2249  155.1078 C   0  0  0  0  0  0  0  0  0  0  0  0
  150.6201  139.3258  155.1821 C   0  0  0  0  0  0  0  0  0  0  0  0
  151.3163  138.6915  153.9784 C   0  0  0  0  0  0  0  0  0  0  0  0
  150.9669  137.3063  153.6814 N   0  0  0  0  0  0  0  0  0  0  0  0
  151.6560  136.2338  154.0959 C   0  0  0  0  0  0  0  0  0  0  0  0
  152.6644  136.3113  154.8000 O   0  0  0  0  0  0  0  0  0  0  0  0
  151.0969  135.0970  153.6354 N   0  0  0  0  0  0  0  0  0  0  0  0
  151.5221  133.7782  153.8423 C   0  0  0  0  0  0  0  0  0  0  0  0
  152.4070  133.4441  154.7399 N   0  0  0  0  0  0  0  0  0  0  0  0
  152.8064  132.1199  154.9201 C   0  0  0  0  0  0  0  0  0  0  0  0
  152.2875  131.1343  154.1662 C   0  0  0  0  0  0  0  0  0  0  0  0
  151.3315  131.4153  153.1800 N   0  0  0  0  0  0  0  0  0  0  0  0
  150.7984  130.3057  152.3890 C   0  0  0  0  0  0  0  0  0  0  0  0
  150.9026  132.6883  152.9625 C   0  0  0  0  0  0  0  0  0  0  0  0
  150.0617  132.9832  152.1108 O   0  0  0  0  0  0  0  0  0  0  0  0
  151.2450  140.5455  155.8274 C   0  0  0  0  0  0  0  0  0  0  0  0
  151.2861  139.2149  156.5370 C   0  0  0  0  0  0  0  0  0  0  0  0
  147.3414  140.3644  154.5242 H   0  0  0  0  0  0  0  0  0  0  0  0
  148.8039  140.8298  153.6617 H   0  0  0  0  0  0  0  0  0  0  0  0
  148.5627  141.3323  155.3358 H   0  0  0  0  0  0  0  0  0  0  0  0
  148.7013  138.9257  156.0782 H   0  0  0  0  0  0  0  0  0  0  0  0
  148.8354  138.4197  154.4208 H   0  0  0  0  0  0  0  0  0  0  0  0
  151.1364  139.3035  153.0927 H   0  0  0  0  0  0  0  0  0  0  0  0
  152.3931  138.7310  154.1422 H   0  0  0  0  0  0  0  0  0  0  0  0
  150.1497  137.1568  153.1078 H   0  0  0  0  0  0  0  0  0  0  0  0
  150.2731  135.2167  153.0645 H   0  0  0  0  0  0  0  0  0  0  0  0
  153.5439  131.9349  155.6874 H   0  0  0  0  0  0  0  0  0  0  0  0
  152.5646  130.0952  154.2696 H   0  0  0  0  0  0  0  0  0  0  0  0
  150.9559  130.4819  151.3237 H   0  0  0  0  0  0  0  0  0  0  0  0
  149.7268  130.1955  152.5613 H   0  0  0  0  0  0  0  0  0  0  0  0
  151.2706  129.3539  152.6347 H   0  0  0  0  0  0  0  0  0  0  0  0
  152.1786  140.9204  155.4127 H   0  0  0  0  0  0  0  0  0  0  0  0
  150.5782  141.3073  156.2264 H   0  0  0  0  0  0  0  0  0  0  0  0
  150.6467  139.0926  157.4092 H   0  0  0  0  0  0  0  0  0  0  0  0
  152.2461  138.7052  156.5908 H   0  0  0  0  0  0  0  0  0  0  0  0
  1  2  1  0  0  0  0
  1 19  1  0  0  0  0
  1 20  1  0  0  0  0
  1 21  1  0  0  0  0
  2  3  1  0  0  0  0
  2 22  1  0  0  0  0
  2 23  1  0  0  0  0
  3 18  1  0  0  0  0
  3  4  1  0  0  0  0
  3 17  1  0  0  0  0
  4  5  1  0  0  0  0
  4 24  1  0  0  0  0
  4 25  1  0  0  0  0
  5  6  1  0  0  0  0
  5 26  1  0  0  0  0
  6  7  2  0  0  0  0
  6  8  1  0  0  0  0
  8  9  1  0  0  0  0
  8 27  1  0  0  0  0
  9 15  1  0  0  0  0
  9 10  2  0  0  0  0
 10 11  1  0  0  0  0
 11 12  2  0  0  0  0
 11 28  1  0  0  0  0
 12 13  1  0  0  0  0
 12 29  1  0  0  0  0
 13 14  1  0  0  0  0
 13 15  1  0  0  0  0
 14 30  1  0  0  0  0
 14 31  1  0  0  0  0
 14 32  1  0  0  0  0
 15 16  2  0  0  0  0
 17 18  1  0  0  0  0
 17 33  1  0  0  0  0
 17 34  1  0  0  0  0
 18 35  1  0  0  0  0
 18 36  1  0  0  0  0
M  END
> <s_m_source_file>
AV-unprocessed.smi

> <i_m_source_file_index>
2285

> <i_lp_mmshare_version>
43012

> <i_f3d_flags>
0

> <s_epik_input>
W0NIM11bQ0gyXUMxKFtDSDJdW0NIMl0xKVtDSDJdW05IXUMoPU8pW05IXWMybltjSF1bY0hdbihbQ0gzXSljMj1P

> <s_epik_cmdline>
J2VwaWtfcHl0aG9uJywgJy1waCcsICc3LjAnLCAnLXRuJywgJzgnLCAnLW1hJywgJzIwMCcsICctbWV0YWxfYmluZGluZycsICctaW1hZScsICc8aW5maWxlLm1hZT4nLCAnLW9tYWUnLCAnPG91dGZpbGUubWFlPic=

> <r_lp_tautomer_probability>
1

> <r_epik_Ionization_Penalty>
0.000603256

> <r_epik_Ionization_Penalty_Charging>
1.64466e-07

> <r_epik_Ionization_Penalty_Neutral>
0.000603092

> <r_epik_State_Penalty>
-0

> <r_epik_Charging_Adjusted_Penalty>
1.64466e-07

> <i_epik_Tot_Q>
0

> <i_epik_Tot_abs_Q>
0

> <r_epik_Metal_State_Penalty>
-0

> <b_epik_Metal_Only>
0

> <s_lp_Force_Field>
OPLS_2005

> <r_lp_Energy>
32.2968

> <b_lp_Chiralities_Consistent>
1

> <s_lp_Variant>
AV-unprocessed.smi:2285-1

> <Gold.Version>
5.8.1

> <Gold.Id.Protein>
6NUR|6NUR_protein|mol2

> <Gold.PLP.Fitness>
40.1822

> <Gold.PLP.PLP>
-32.5697

> <Gold.PLP.part.hbond>
-4.4116

> <Gold.PLP.part.metal>
0.0000

> <Gold.PLP.part.buried>
-2.4138

> <Gold.PLP.part.nonpolar>
-26.1926

> <Gold.PLP.part.repulsive>
0.4128

> <Gold.PLP.ligand.clash>
0.0000

> <Gold.PLP.ligand.torsion>
1.2117

> <Gold.PLP.Chemscore.Hbond>
2.9520

> <Gold.PLP.Chemscore.CHOScore>
0.0000

> <Gold.PLP.Chemscore.Metal>
0.0000

> <Gold.Chemscore.Hbonds>
donor molecule, donor type, donor heavy atom, donor atom, acceptor molecule, acceptor atom, score
      L1  H     5    26       P1  7948  0.70

> <Gold.PLP.Chemscore.Internal.Correction>
1.1799

> <Gold.Rescore>
     Score         DG    S(hbond)    S(metal)    S(lipo)     H(rot)  DE(clash)    DE(int)     intcor
     12.70     -14.80       2.14        0.00      51.06       1.49       0.02       2.09       ----

> <Gold.Chemscore.Fitness>
12.7024

> <Gold.Chemscore.DG>
-14.8039

> <Gold.Chemscore.ZeroCoef>
-5.4800

> <Gold.Chemscore.Hbond>
2.1420

> <Gold.Chemscore.Metal>
0.0000

> <Gold.Chemscore.Lipo>
51.0609

> <Gold.Chemscore.Internal_Hbond>
0.0000

> <Gold.Chemscore.DEClash>
0.0154

> <Gold.Chemscore.DEInternal>
2.0862

> <Gold.Chemscore.Rot>
1.4861

> <Gold.Chemscore.Internal.Correction>
   9.000000E+99

> <Gold.Chemscore.Hbonds>
donor molecule, donor type, donor heavy atom, donor atom, acceptor molecule, acceptor atom, score
      L1  H     5    26       P1  7948  0.07

> <Gold.Chemscore.Hbond.Weighted>
-7.1542

> <Gold.Chemscore.Metal.Weighted>
-0.0000

> <Gold.Chemscore.Lipo.Weighted>
-5.9741

> <Gold.Chemscore.Internal_Hbond.Weighted>
0.0000

> <Gold.Chemscore.DEClash.Weighted>
0.0154

> <Gold.Chemscore.DEInternal.Weighted>
2.0862

> <Gold.Chemscore.Rot.Weighted>
3.8044

> <Gold.Chemscore.Internal.Correction.Weighted>
   9.000000E+99

> <Gold.Protein.RotatedTorsions>
[ 6907 6896 6895 6894 ] final -178.32 input  -60.11 | X-H torsion
[ 7974 7965 7964 7962 ] final -166.41 input  175.53 | X-H torsion
[ 8008 7997 7996 7995 ] final  104.07 input   59.86 | X-H torsion
[ 10167 10162 10161 10158 ] final  144.63 input  -65.29 | X-H torsion
[ 10718 10713 10712 10709 ] final   20.67 input   66.30 | X-H torsion
[ 10763 10752 10751 10750 ] final   91.14 input  -60.55 | X-H torsion
[ 11005 11000 10999 10996 ] final -149.15 input  -57.11 | X-H torsion

> <Gold.Protein.ActiveResidues>
 VAL166  LYS551  ARG553  GLY616  TRP617  ASP618  TYR619  PRO620  LYS621  CYS622 
 ASP623  PHE694  ASN695  SER759  ASP760  ASP761  ALA762  ILE779  LEU786  VAL792 
 PHE793  MET794  SER795  GLU796  ALA797  LYS798  CYS799  TRP800  GLU811  SER814 

> <Gold.Protein.RotatedAtoms>
  151.6354  133.3329  159.3117 H   0  0  0  0  0  0  0  0  0  0  0  0  # atno 6907 bound_to 6896
  150.8035  134.7148  159.6634 H   0  0  0  0  0  0  0  0  0  0  0  0  # atno 6908 bound_to 6896
  152.4129  134.6097  160.0074 H   0  0  0  0  0  0  0  0  0  0  0  0  # atno 6909 bound_to 6896
  144.7246  140.2671  143.6256 H   0  0  0  0  0  0  0  0  0  0  0  0  # atno 7974 bound_to 7965
  156.1540  140.3154  155.8696 H   0  0  0  0  0  0  0  0  0  0  0  0  # atno 8008 bound_to 7997
  155.3914  140.0494  157.3057 H   0  0  0  0  0  0  0  0  0  0  0  0  # atno 8009 bound_to 7997
  154.5084  140.2155  155.9215 H   0  0  0  0  0  0  0  0  0  0  0  0  # atno 8010 bound_to 7997
  139.4943  144.5958  151.6585 H   0  0  0  0  0  0  0  0  0  0  0  0  # atno 10167 bound_to 10162
  157.1277  130.6577  149.5942 H   0  0  0  0  0  0  0  0  0  0  0  0  # atno 10718 bound_to 10713
  153.2050  135.4408  155.0312 H   0  0  0  0  0  0  0  0  0  0  0  0  # atno 10763 bound_to 10752
  154.8168  135.3319  154.7154 H   0  0  0  0  0  0  0  0  0  0  0  0  # atno 10764 bound_to 10752
  153.7596  135.6992  153.4984 H   0  0  0  0  0  0  0  0  0  0  0  0  # atno 10765 bound_to 10752
  140.7538  134.3376  157.5119 H   0  0  0  0  0  0  0  0  0  0  0  0  # atno 11005 bound_to 11000
  145.8079  139.1991  143.2010 LP  0  0  0  0  0  0  0  0  0  0  0  0  # atno 17320 bound_to 7965
  146.0621  140.7960  142.9730 LP  0  0  0  0  0  0  0  0  0  0  0  0  # atno 17321 bound_to 7965
  140.5596  144.0291  150.6163 LP  0  0  0  0  0  0  0  0  0  0  0  0  # atno 17342 bound_to 10162
  140.3372  143.3041  152.0626 LP  0  0  0  0  0  0  0  0  0  0  0  0  # atno 17343 bound_to 10162
  155.9815  130.4822  150.6829 LP  0  0  0  0  0  0  0  0  0  0  0  0  # atno 17370 bound_to 10713
  157.4420  131.0862  151.0933 LP  0  0  0  0  0  0  0  0  0  0  0  0  # atno 17371 bound_to 10713
  139.8783  134.9159  156.3141 LP  0  0  0  0  0  0  0  0  0  0  0  0  # atno 17394 bound_to 11000
  140.9726  133.7317  156.0556 LP  0  0  0  0  0  0  0  0  0  0  0  0  # atno 17395 bound_to 11000

$$$$
