AV-unprocessed.smi:2152|AV-procd|sdf|8762|dock7
  -GOLD-   2272011543D 1   1.00000     0.00000
 Structure written by MMmdl.
 41 42  0  0  0  0  0  0  0  0  1 V2000
  144.8586  135.9249  151.7079 C   0  0  0  0  0  0  0  0  0  0  0  0
  145.9058  135.0609  152.4338 C   0  0  2  0  0  0  0  0  0  0  0  0
  145.3455  133.6515  152.7131 C   0  0  0  0  0  0  0  0  0  0  0  0
  146.3689  132.7604  153.4328 C   0  0  0  0  0  0  0  0  0  0  0  0
  146.8469  133.4131  154.7368 C   0  0  0  0  0  0  0  0  0  0  0  0
  147.4228  134.8117  154.4732 C   0  0  0  0  0  0  0  0  0  0  0  0
  146.4090  135.7172  153.7436 C   0  0  1  0  0  0  0  0  0  0  0  0
  147.0251  137.0111  153.4590 N   0  0  0  0  0  0  0  0  0  0  0  0
  146.7108  138.1721  154.0528 C   0  0  0  0  0  0  0  0  0  0  0  0
  145.8693  138.2703  154.9470 O   0  0  0  0  0  0  0  0  0  0  0  0
  147.4874  139.4051  153.5731 C   0  0  0  0  0  0  0  0  0  0  0  0
  148.8034  139.5309  154.2118 N   0  0  0  0  0  0  0  0  0  0  0  0
  149.7039  138.4837  154.1409 C   0  0  0  0  0  0  0  0  0  0  0  0
  150.9265  138.5130  154.7149 C   0  0  0  0  0  0  0  0  0  0  0  0
  151.3778  139.6835  155.4580 C   0  0  0  0  0  0  0  0  0  0  0  0
  152.4766  139.7439  156.0106 O   0  0  0  0  0  0  0  0  0  0  0  0
  150.4425  140.7454  155.5033 N   0  0  0  0  0  0  0  0  0  0  0  0
  150.7887  141.9482  156.2322 C   0  0  0  0  0  0  0  0  0  0  0  0
  149.1591  140.7023  154.9146 C   0  0  0  0  0  0  0  0  0  0  0  0
  148.3670  141.6438  155.0090 O   0  0  0  0  0  0  0  0  0  0  0  0
  143.9873  136.1024  152.3392 H   0  0  0  0  0  0  0  0  0  0  0  0
  144.5131  135.4375  150.7958 H   0  0  0  0  0  0  0  0  0  0  0  0
  145.2635  136.8956  151.4210 H   0  0  0  0  0  0  0  0  0  0  0  0
  146.7585  134.9480  151.7623 H   0  0  0  0  0  0  0  0  0  0  0  0
  144.4424  133.7281  153.3204 H   0  0  0  0  0  0  0  0  0  0  0  0
  145.0466  133.1769  151.7778 H   0  0  0  0  0  0  0  0  0  0  0  0
  145.9287  131.7857  153.6449 H   0  0  0  0  0  0  0  0  0  0  0  0
  147.2225  132.5791  152.7783 H   0  0  0  0  0  0  0  0  0  0  0  0
  146.0145  133.4858  155.4379 H   0  0  0  0  0  0  0  0  0  0  0  0
  147.5999  132.7847  155.2132 H   0  0  0  0  0  0  0  0  0  0  0  0
  147.7198  135.2664  155.4191 H   0  0  0  0  0  0  0  0  0  0  0  0
  148.3316  134.7200  153.8767 H   0  0  0  0  0  0  0  0  0  0  0  0
  145.5455  135.8645  154.3960 H   0  0  0  0  0  0  0  0  0  0  0  0
  147.7342  137.0263  152.7402 H   0  0  0  0  0  0  0  0  0  0  0  0
  147.6032  139.3331  152.4908 H   0  0  0  0  0  0  0  0  0  0  0  0
  146.9002  140.3090  153.7472 H   0  0  0  0  0  0  0  0  0  0  0  0
  149.4150  137.5912  153.6049 H   0  0  0  0  0  0  0  0  0  0  0  0
  151.5792  137.6571  154.6259 H   0  0  0  0  0  0  0  0  0  0  0  0
  150.4800  142.8100  155.6378 H   0  0  0  0  0  0  0  0  0  0  0  0
  151.8656  142.0086  156.3890 H   0  0  0  0  0  0  0  0  0  0  0  0
  150.2556  141.9065  157.1832 H   0  0  0  0  0  0  0  0  0  0  0  0
  1  2  1  0  0  0  0
  1 21  1  0  0  0  0
  1 22  1  0  0  0  0
  1 23  1  0  0  0  0
  2  7  1  0  0  0  0
  2  3  1  0  0  0  0
  2 24  1  0  0  0  0
  3  4  1  0  0  0  0
  3 25  1  0  0  0  0
  3 26  1  0  0  0  0
  4  5  1  0  0  0  0
  4 27  1  0  0  0  0
  4 28  1  0  0  0  0
  5  6  1  0  0  0  0
  5 29  1  0  0  0  0
  5 30  1  0  0  0  0
  6  7  1  0  0  0  0
  6 31  1  0  0  0  0
  6 32  1  0  0  0  0
  7  8  1  0  0  0  0
  7 33  1  0  0  0  0
  8  9  1  0  0  0  0
  8 34  1  0  0  0  0
  9 10  2  0  0  0  0
  9 11  1  0  0  0  0
 11 12  1  0  0  0  0
 11 35  1  0  0  0  0
 11 36  1  0  0  0  0
 12 19  1  0  0  0  0
 12 13  1  0  0  0  0
 13 14  2  0  0  0  0
 13 37  1  0  0  0  0
 14 15  1  0  0  0  0
 14 38  1  0  0  0  0
 15 16  2  0  0  0  0
 15 17  1  0  0  0  0
 17 18  1  0  0  0  0
 17 19  1  0  0  0  0
 18 39  1  0  0  0  0
 18 40  1  0  0  0  0
 18 41  1  0  0  0  0
 19 20  2  0  0  0  0
M  END
> <s_m_source_file>
AV-unprocessed.smi

> <i_m_source_file_index>
2152

> <i_lp_mmshare_version>
43012

> <i_f3d_flags>
0

> <s_epik_input>
W0NIM11bQ0BASF0xW0NIMl1bQ0gyXVtDSDJdW0NIMl1bQ0BIXTFbTkhdQyg9TylbQ0gyXW4yW2NIXVtjSF1jKD1PKW4oW0NIM10pYzI9Tw==

> <s_epik_cmdline>
J2VwaWtfcHl0aG9uJywgJy1waCcsICc3LjAnLCAnLXRuJywgJzgnLCAnLW1hJywgJzIwMCcsICctbWV0YWxfYmluZGluZycsICctaW1hZScsICc8aW5maWxlLm1hZT4nLCAnLW9tYWUnLCAnPG91dGZpbGUubWFlPic=

> <r_lp_tautomer_probability>
1

> <r_epik_Ionization_Penalty>
3.20555e-08

> <r_epik_Ionization_Penalty_Charging>
1.30086e-08

> <r_epik_Ionization_Penalty_Neutral>
1.90469e-08

> <r_epik_State_Penalty>
-0

> <r_epik_Charging_Adjusted_Penalty>
1.30086e-08

> <i_epik_Tot_Q>
0

> <i_epik_Tot_abs_Q>
0

> <r_epik_Metal_State_Penalty>
-0

> <b_epik_Metal_Only>
0

> <s_lp_Force_Field>
OPLS_2005

> <r_lp_Energy>
17.5308

> <b_lp_Chiralities_Consistent>
1

> <s_lp_Variant>
AV-unprocessed.smi:2152-1

> <Gold.Version>
5.8.1

> <Gold.Id.Protein>
6NUR|6NUR_protein|mol2

> <Gold.PLP.Fitness>
37.1711

> <Gold.PLP.PLP>
-29.0713

> <Gold.PLP.part.hbond>
-2.0000

> <Gold.PLP.part.metal>
0.0000

> <Gold.PLP.part.buried>
-1.2846

> <Gold.PLP.part.nonpolar>
-25.7435

> <Gold.PLP.part.repulsive>
0.2032

> <Gold.PLP.ligand.clash>
0.0000

> <Gold.PLP.ligand.torsion>
0.4184

> <Gold.PLP.Chemscore.Hbond>
1.9760

> <Gold.PLP.Chemscore.CHOScore>
1.0000

> <Gold.PLP.Chemscore.Metal>
0.0000

> <Gold.Chemscore.Hbonds>
donor molecule, donor type, donor heavy atom, donor atom, acceptor molecule, acceptor atom, score
      L1  H     8    34       P1  7948  1.00
      P1  H  7997  8009       L1    16  1.00
      L1  C    13    37       P1  7948  1.00

> <Gold.PLP.Chemscore.Internal.Correction>
0.0085

> <Gold.Rescore>
     Score         DG    S(hbond)    S(metal)    S(lipo)     H(rot)  DE(clash)    DE(int)     intcor
     13.67     -14.07       1.95        0.00      51.15       1.52       0.01       0.40       ----

> <Gold.Chemscore.Fitness>
13.6703

> <Gold.Chemscore.DG>
-14.0744

> <Gold.Chemscore.ZeroCoef>
-5.4800

> <Gold.Chemscore.Hbond>
1.9496

> <Gold.Chemscore.Metal>
0.0000

> <Gold.Chemscore.Lipo>
51.1520

> <Gold.Chemscore.Internal_Hbond>
0.0000

> <Gold.Chemscore.DEClash>
0.0079

> <Gold.Chemscore.DEInternal>
0.3962

> <Gold.Chemscore.Rot>
1.5242

> <Gold.Chemscore.Internal.Correction>
   9.000000E+99

> <Gold.Chemscore.Hbonds>
donor molecule, donor type, donor heavy atom, donor atom, acceptor molecule, acceptor atom, score
      L1  H     8    34       P1  7948  0.95
      P1  H  7997  8009       L1    16  1.00

> <Gold.Chemscore.Hbond.Weighted>
-6.5115

> <Gold.Chemscore.Metal.Weighted>
-0.0000

> <Gold.Chemscore.Lipo.Weighted>
-5.9848

> <Gold.Chemscore.Internal_Hbond.Weighted>
0.0000

> <Gold.Chemscore.DEClash.Weighted>
0.0079

> <Gold.Chemscore.DEInternal.Weighted>
0.3962

> <Gold.Chemscore.Rot.Weighted>
3.9019

> <Gold.Chemscore.Internal.Correction.Weighted>
   9.000000E+99

> <Gold.Protein.RotatedTorsions>
[ 6907 6896 6895 6894 ] final    9.18 input  -60.11 | X-H torsion
[ 7974 7965 7964 7962 ] final  -86.80 input  175.53 | X-H torsion
[ 8008 7997 7996 7995 ] final -161.28 input   59.86 | X-H torsion
[ 10167 10162 10161 10158 ] final  -16.51 input  -65.29 | X-H torsion
[ 10718 10713 10712 10709 ] final  112.26 input   66.30 | X-H torsion
[ 10763 10752 10751 10750 ] final -178.17 input  -60.55 | X-H torsion
[ 11005 11000 10999 10996 ] final  174.48 input  -57.11 | X-H torsion

> <Gold.Protein.ActiveResidues>
 VAL166  LYS551  ARG553  GLY616  TRP617  ASP618  TYR619  PRO620  LYS621  CYS622 
 ASP623  PHE694  ASN695  SER759  ASP760  ASP761  ALA762  ILE779  LEU786  VAL792 
 PHE793  MET794  SER795  GLU796  ALA797  LYS798  CYS799  TRP800  GLU811  SER814 

> <Gold.Protein.RotatedAtoms>
  151.7179  135.0900  160.0278 H   0  0  0  0  0  0  0  0  0  0  0  0  # atno 6907 bound_to 6896
  152.3620  133.6305  159.6030 H   0  0  0  0  0  0  0  0  0  0  0  0  # atno 6908 bound_to 6896
  150.7611  133.9324  159.3472 H   0  0  0  0  0  0  0  0  0  0  0  0  # atno 6909 bound_to 6896
  145.4751  140.9558  143.1895 H   0  0  0  0  0  0  0  0  0  0  0  0  # atno 7974 bound_to 7965
  155.7898  140.0877  157.2015 H   0  0  0  0  0  0  0  0  0  0  0  0  # atno 8008 bound_to 7997
  154.3986  140.1492  156.3208 H   0  0  0  0  0  0  0  0  0  0  0  0  # atno 8009 bound_to 7997
  155.8570  140.3432  155.5733 H   0  0  0  0  0  0  0  0  0  0  0  0  # atno 8010 bound_to 7997
  140.7235  143.5108  150.9752 H   0  0  0  0  0  0  0  0  0  0  0  0  # atno 10167 bound_to 10162
  157.6402  131.0964  150.6869 H   0  0  0  0  0  0  0  0  0  0  0  0  # atno 10718 bound_to 10713
  154.5510  135.2813  155.1008 H   0  0  0  0  0  0  0  0  0  0  0  0  # atno 10763 bound_to 10752
  154.2454  135.6349  153.5225 H   0  0  0  0  0  0  0  0  0  0  0  0  # atno 10764 bound_to 10752
  153.0003  135.5570  154.6077 H   0  0  0  0  0  0  0  0  0  0  0  0  # atno 10765 bound_to 10752
  140.3518  134.7189  157.4272 H   0  0  0  0  0  0  0  0  0  0  0  0  # atno 11005 bound_to 11000
  144.7922  139.6305  143.7108 LP  0  0  0  0  0  0  0  0  0  0  0  0  # atno 17320 bound_to 7965
  146.2374  139.5933  142.9514 LP  0  0  0  0  0  0  0  0  0  0  0  0  # atno 17321 bound_to 7965
  139.8822  143.7058  152.3155 LP  0  0  0  0  0  0  0  0  0  0  0  0  # atno 17342 bound_to 10162
  139.7344  144.7575  151.0751 LP  0  0  0  0  0  0  0  0  0  0  0  0  # atno 17343 bound_to 10162
  156.7194  130.4676  149.5526 LP  0  0  0  0  0  0  0  0  0  0  0  0  # atno 17370 bound_to 10713
  156.1676  130.6415  151.0797 LP  0  0  0  0  0  0  0  0  0  0  0  0  # atno 17371 bound_to 10713
  140.0697  134.5879  155.8655 LP  0  0  0  0  0  0  0  0  0  0  0  0  # atno 17394 bound_to 11000
  141.2010  133.6616  156.5927 LP  0  0  0  0  0  0  0  0  0  0  0  0  # atno 17395 bound_to 11000

$$$$
