AV-unprocessed.smi:1007|AV-procd|sdf|4404|dock8
  -GOLD-   22720 2343D 1   1.00000     0.00000
 Structure written by MMmdl.
 57 59  0  0  0  0  0  0  0  0  3 V2000
  147.1251  133.8400  162.3435 C   0  0  0  0  0  0  0  0  0  0  0  0
  147.1026  134.7020  161.2191 O   0  0  0  0  0  0  0  0  0  0  0  0
  148.2770  135.4895  161.1143 C   0  0  0  0  0  0  0  0  0  0  0  0
  148.1026  136.4911  159.9626 C   0  0  0  0  0  0  0  0  0  0  0  0
  148.7227  136.0191  158.6991 N   0  3  0  0  0  0  0  0  0  0  0  0
  150.0240  136.6709  158.3917 C   0  0  0  0  0  0  0  0  0  0  0  0
  150.6212  136.0867  157.0954 C   0  0  0  0  0  0  0  0  0  0  0  0
  149.7283  136.2025  155.9392 N   0  0  0  0  0  0  0  0  0  0  0  0
  149.5522  137.5685  155.4318 C   0  0  0  0  0  0  0  0  0  0  0  0
  150.7547  138.1472  154.6612 C   0  0  2  0  0  0  0  0  0  0  0  0
  151.4695  137.0681  154.0933 O   0  0  0  0  0  0  0  0  0  0  0  0
  151.7063  138.9567  155.5654 C   0  0  0  0  0  0  0  0  0  0  0  0
  151.1058  140.2112  156.0351 N   0  0  0  0  0  0  0  0  0  0  0  0
  150.1187  140.9698  155.4864 C   0  0  0  0  0  0  0  0  0  0  0  0
  149.9120  142.0328  156.3125 N   0  3  0  0  0  0  0  0  0  0  0  0
  150.7801  141.9509  157.4038 C   0  0  0  0  0  0  0  0  0  0  0  0
  150.9452  142.7854  158.5030 C   0  0  0  0  0  0  0  0  0  0  0  0
  151.9252  142.4157  159.4521 C   0  0  0  0  0  0  0  0  0  0  0  0
  152.1278  143.3036  160.6681 C   0  0  0  0  0  0  0  0  0  0  0  0
  152.7043  141.2420  159.2788 C   0  0  0  0  0  0  0  0  0  0  0  0
  153.7563  140.8553  160.3044 C   0  0  0  0  0  0  0  0  0  0  0  0
  152.5216  140.4068  158.1535 C   0  0  0  0  0  0  0  0  0  0  0  0
  151.5501  140.7848  157.2304 C   0  0  0  0  0  0  0  0  0  0  0  0
  148.4589  135.5550  156.2691 C   0  0  0  0  0  0  0  0  0  0  0  0
  147.7975  136.1231  157.5416 C   0  0  0  0  0  0  0  0  0  0  0  0
  146.2043  133.2578  162.3775 H   0  0  0  0  0  0  0  0  0  0  0  0
  147.1996  134.4056  163.2732 H   0  0  0  0  0  0  0  0  0  0  0  0
  147.9622  133.1427  162.2894 H   0  0  0  0  0  0  0  0  0  0  0  0
  148.4309  136.0361  162.0459 H   0  0  0  0  0  0  0  0  0  0  0  0
  149.1540  134.8588  160.9677 H   0  0  0  0  0  0  0  0  0  0  0  0
  147.0339  136.6482  159.8095 H   0  0  0  0  0  0  0  0  0  0  0  0
  148.5194  137.4618  160.2350 H   0  0  0  0  0  0  0  0  0  0  0  0
  149.8925  137.7503  158.3081 H   0  0  0  0  0  0  0  0  0  0  0  0
  150.7279  136.5056  159.2062 H   0  0  0  0  0  0  0  0  0  0  0  0
  151.5842  136.5499  156.8866 H   0  0  0  0  0  0  0  0  0  0  0  0
  150.8425  135.0314  157.2617 H   0  0  0  0  0  0  0  0  0  0  0  0
  148.6896  137.5864  154.7639 H   0  0  0  0  0  0  0  0  0  0  0  0
  149.2996  138.2410  156.2513 H   0  0  0  0  0  0  0  0  0  0  0  0
  150.4113  138.7654  153.8324 H   0  0  0  0  0  0  0  0  0  0  0  0
  151.1015  136.8734  153.2446 H   0  0  0  0  0  0  0  0  0  0  0  0
  152.0131  138.3772  156.4368 H   0  0  0  0  0  0  0  0  0  0  0  0
  152.6206  139.2096  155.0265 H   0  0  0  0  0  0  0  0  0  0  0  0
  149.5908  140.7619  154.5668 H   0  0  0  0  0  0  0  0  0  0  0  0
  150.3491  143.6774  158.6281 H   0  0  0  0  0  0  0  0  0  0  0  0
  153.1462  143.6917  160.6937 H   0  0  0  0  0  0  0  0  0  0  0  0
  151.9468  142.7434  161.5857 H   0  0  0  0  0  0  0  0  0  0  0  0
  151.4469  144.1552  160.6587 H   0  0  0  0  0  0  0  0  0  0  0  0
  154.2752  139.9399  160.0181 H   0  0  0  0  0  0  0  0  0  0  0  0
  153.2975  140.6875  161.2790 H   0  0  0  0  0  0  0  0  0  0  0  0
  154.5032  141.6433  160.4035 H   0  0  0  0  0  0  0  0  0  0  0  0
  153.1132  139.5135  158.0198 H   0  0  0  0  0  0  0  0  0  0  0  0
  147.7710  135.6358  155.4265 H   0  0  0  0  0  0  0  0  0  0  0  0
  148.6311  134.4868  156.4084 H   0  0  0  0  0  0  0  0  0  0  0  0
  146.8875  135.5603  157.7525 H   0  0  0  0  0  0  0  0  0  0  0  0
  147.4974  137.1616  157.3960 H   0  0  0  0  0  0  0  0  0  0  0  0
  148.9075  135.0331  158.8204 H   0  0  0  0  0  0  0  0  0  0  0  0
  149.2258  142.7568  156.1430 H   0  0  0  0  0  0  0  0  0  0  0  0
  1  2  1  0  0  0  0
  1 26  1  0  0  0  0
  1 27  1  0  0  0  0
  1 28  1  0  0  0  0
  2  3  1  0  0  0  0
  3  4  1  0  0  0  0
  3 29  1  0  0  0  0
  3 30  1  0  0  0  0
  4  5  1  0  0  0  0
  4 31  1  0  0  0  0
  4 32  1  0  0  0  0
  5 25  1  0  0  0  0
  5  6  1  0  0  0  0
  5 56  1  0  0  0  0
  6  7  1  0  0  0  0
  6 33  1  0  0  0  0
  6 34  1  0  0  0  0
  7  8  1  0  0  0  0
  7 35  1  0  0  0  0
  7 36  1  0  0  0  0
  8  9  1  0  0  0  0
  8 24  1  0  0  0  0
  9 10  1  0  0  0  0
  9 37  1  0  0  0  0
  9 38  1  0  0  0  0
 10 11  1  0  0  0  0
 10 12  1  0  0  0  0
 10 39  1  0  0  0  0
 11 40  1  0  0  0  0
 12 13  1  0  0  0  0
 12 41  1  0  0  0  0
 12 42  1  0  0  0  0
 13 23  1  0  0  0  0
 13 14  1  0  0  0  0
 14 15  2  0  0  0  0
 14 43  1  0  0  0  0
 15 16  1  0  0  0  0
 15 57  1  0  0  0  0
 16 23  2  0  0  0  0
 16 17  1  0  0  0  0
 17 18  2  0  0  0  0
 17 44  1  0  0  0  0
 18 19  1  0  0  0  0
 18 20  1  0  0  0  0
 19 45  1  0  0  0  0
 19 46  1  0  0  0  0
 19 47  1  0  0  0  0
 20 21  1  0  0  0  0
 20 22  2  0  0  0  0
 21 48  1  0  0  0  0
 21 49  1  0  0  0  0
 21 50  1  0  0  0  0
 22 23  1  0  0  0  0
 22 51  1  0  0  0  0
 24 25  1  0  0  0  0
 24 52  1  0  0  0  0
 24 53  1  0  0  0  0
 25 54  1  0  0  0  0
 25 55  1  0  0  0  0
M  CHG  1   5   1
M  CHG  1  15   1
M  END
> <s_m_source_file>
AV-unprocessed.smi

> <i_m_source_file_index>
1007

> <i_lp_mmshare_version>
43012

> <i_f3d_flags>
0

> <s_epik_input>
W0NIM11PW0NIMl1bQ0gyXU4xW0NIMl1bQ0gyXU4oW0NIMl1bQ0gyXTEpW0NIMl1bQ0BIXShbT0hdKVtDSDJdbihbY0hdbjIpYyhjMjMpW2NIXWMoW0NIM10pYyhbY0hdMylbQ0gzXQ==

> <s_epik_cmdline>
J2VwaWtfcHl0aG9uJywgJy1waCcsICc3LjAnLCAnLXRuJywgJzgnLCAnLW1hJywgJzIwMCcsICctbWV0YWxfYmluZGluZycsICctaW1hZScsICc8aW5maWxlLm1hZT4nLCAnLW9tYWUnLCAnPG91dGZpbGUubWFlPic=

> <r_epik_Ionization_Penalty>
1.34507

> <r_epik_Ionization_Penalty_Charging>
1.29906

> <r_epik_Ionization_Penalty_Neutral>
0.0460038

> <r_epik_State_Penalty>
2.55679

> <r_epik_Charging_Adjusted_Penalty>
3.85586

> <i_epik_Tot_Q>
2

> <i_epik_Tot_abs_Q>
2

> <r_epik_Metal_State_Penalty>
6.56928

> <b_epik_Metal_Only>
0

> <s_lp_Force_Field>
OPLS_2005

> <r_lp_Energy>
40.0573

> <b_lp_Chiralities_Consistent>
1

> <s_lp_Variant>
AV-unprocessed.smi:1007-7

> <Gold.Version>
5.8.1

> <Gold.Id.Protein>
6NUR|6NUR_protein|mol2

> <Gold.PLP.Fitness>
53.2013

> <Gold.PLP.PLP>
-45.1169

> <Gold.PLP.part.hbond>
-3.0000

> <Gold.PLP.part.metal>
0.0000

> <Gold.PLP.part.buried>
-5.5233

> <Gold.PLP.part.nonpolar>
-36.9584

> <Gold.PLP.part.repulsive>
0.2759

> <Gold.PLP.ligand.clash>
0.0000

> <Gold.PLP.ligand.torsion>
1.8711

> <Gold.PLP.Chemscore.Hbond>
3.8921

> <Gold.PLP.Chemscore.CHOScore>
0.0000

> <Gold.PLP.Chemscore.Metal>
0.0000

> <Gold.Chemscore.Hbonds>
donor molecule, donor type, donor heavy atom, donor atom, acceptor molecule, acceptor atom, score
      L1  H    11    40       P1  7949  1.00
      L1  H    15    57       P1  8028  1.81
      P1  H 10752 10764       L1    11  0.91

> <Gold.PLP.Chemscore.Internal.Correction>
0.1503

> <Gold.Rescore>
     Score         DG    S(hbond)    S(metal)    S(lipo)     H(rot)  DE(clash)    DE(int)     intcor
     17.02     -19.13       1.99        0.00     117.59       2.64       0.30       1.80       ----

> <Gold.Chemscore.Fitness>
17.0226

> <Gold.Chemscore.DG>
-19.1251

> <Gold.Chemscore.ZeroCoef>
-5.4800

> <Gold.Chemscore.Hbond>
1.9922

> <Gold.Chemscore.Metal>
0.0000

> <Gold.Chemscore.Lipo>
117.5856

> <Gold.Chemscore.Internal_Hbond>
0.0000

> <Gold.Chemscore.DEClash>
0.3000

> <Gold.Chemscore.DEInternal>
1.8025

> <Gold.Chemscore.Rot>
2.6432

> <Gold.Chemscore.Internal.Correction>
   9.000000E+99

> <Gold.Chemscore.Hbonds>
donor molecule, donor type, donor heavy atom, donor atom, acceptor molecule, acceptor atom, score
      L1  H    11    40       P1  7949  0.37
      L1  H    15    57       P1  8028  0.82
      P1  H 10752 10764       L1    11  0.20

> <Gold.Chemscore.Hbond.Weighted>
-6.6541

> <Gold.Chemscore.Metal.Weighted>
-0.0000

> <Gold.Chemscore.Lipo.Weighted>
-13.7575

> <Gold.Chemscore.Internal_Hbond.Weighted>
0.0000

> <Gold.Chemscore.DEClash.Weighted>
0.3000

> <Gold.Chemscore.DEInternal.Weighted>
1.8025

> <Gold.Chemscore.Rot.Weighted>
6.7665

> <Gold.Chemscore.Internal.Correction.Weighted>
   9.000000E+99

> <Gold.Protein.RotatedTorsions>
[ 6907 6896 6895 6894 ] final   52.20 input  -60.11 | X-H torsion
[ 7974 7965 7964 7962 ] final -113.45 input  175.53 | X-H torsion
[ 8008 7997 7996 7995 ] final  -31.06 input   59.86 | X-H torsion
[ 10167 10162 10161 10158 ] final -158.26 input  -65.29 | X-H torsion
[ 10718 10713 10712 10709 ] final  -24.08 input   66.30 | X-H torsion
[ 10763 10752 10751 10750 ] final  -88.28 input  -60.55 | X-H torsion
[ 11005 11000 10999 10996 ] final    8.36 input  -57.11 | X-H torsion

> <Gold.Protein.ActiveResidues>
 VAL166  LYS551  ARG553  GLY616  TRP617  ASP618  TYR619  PRO620  LYS621  CYS622 
 ASP623  PHE694  ASN695  SER759  ASP760  ASP761  ALA762  ILE779  LEU786  VAL792 
 PHE793  MET794  SER795  GLU796  ALA797  LYS798  CYS799  TRP800  GLU811  SER814 

> <Gold.Protein.RotatedAtoms>
  152.3208  134.7383  160.0313 H   0  0  0  0  0  0  0  0  0  0  0  0  # atno 6907 bound_to 6896
  151.7832  133.3346  159.3485 H   0  0  0  0  0  0  0  0  0  0  0  0  # atno 6908 bound_to 6896
  150.7369  134.5843  159.5999 H   0  0  0  0  0  0  0  0  0  0  0  0  # atno 6909 bound_to 6896
  145.1319  140.8729  143.3753 H   0  0  0  0  0  0  0  0  0  0  0  0  # atno 7974 bound_to 7965
  154.4227  140.1774  156.1506 H   0  0  0  0  0  0  0  0  0  0  0  0  # atno 8008 bound_to 7997
  155.9918  140.3368  155.6736 H   0  0  0  0  0  0  0  0  0  0  0  0  # atno 8009 bound_to 7997
  155.6362  140.0675  157.2624 H   0  0  0  0  0  0  0  0  0  0  0  0  # atno 8010 bound_to 7997
  139.6706  143.9751  152.2281 H   0  0  0  0  0  0  0  0  0  0  0  0  # atno 10167 bound_to 10162
  156.4824  130.4548  149.6804 H   0  0  0  0  0  0  0  0  0  0  0  0  # atno 10718 bound_to 10713
  154.6428  135.5383  153.7810 H   0  0  0  0  0  0  0  0  0  0  0  0  # atno 10763 bound_to 10752
  153.0343  135.6463  154.1134 H   0  0  0  0  0  0  0  0  0  0  0  0  # atno 10764 bound_to 10752
  154.1057  135.2930  155.3222 H   0  0  0  0  0  0  0  0  0  0  0  0  # atno 10765 bound_to 10752
  140.5379  134.0403  155.7894 H   0  0  0  0  0  0  0  0  0  0  0  0  # atno 11005 bound_to 11000
  145.0626  139.3094  143.5873 LP  0  0  0  0  0  0  0  0  0  0  0  0  # atno 17320 bound_to 7965
  146.3513  140.0073  142.8670 LP  0  0  0  0  0  0  0  0  0  0  0  0  # atno 17321 bound_to 7965
  139.9515  144.6617  150.8167 LP  0  0  0  0  0  0  0  0  0  0  0  0  # atno 17342 bound_to 10162
  140.7616  143.3179  151.2689 LP  0  0  0  0  0  0  0  0  0  0  0  0  # atno 17343 bound_to 10162
  156.3508  130.7431  151.2390 LP  0  0  0  0  0  0  0  0  0  0  0  0  # atno 17370 bound_to 10713
  157.7482  131.0377  150.4470 LP  0  0  0  0  0  0  0  0  0  0  0  0  # atno 17371 bound_to 10713
  141.1244  133.9407  157.2665 LP  0  0  0  0  0  0  0  0  0  0  0  0  # atno 17394 bound_to 11000
  139.9519  135.0173  156.9019 LP  0  0  0  0  0  0  0  0  0  0  0  0  # atno 17395 bound_to 11000

$$$$
