AV-unprocessed.smi:2156|AV-procd|sdf|8781|dock5
  -GOLD-   2272011563D 1   1.00000     0.00000
 Structure written by MMmdl.
 33 33  0  0  0  0  0  0  0  0  2 V2000
  153.0978  142.4203  162.0215 C   0  0  0  0  0  0  0  0  0  0  0  0
  152.4304  143.4794  161.1371 C   0  0  0  0  0  0  0  0  0  0  0  0
  152.5826  143.1725  159.6372 C   0  0  0  0  0  0  0  0  0  0  0  0
  151.6614  142.0448  159.1334 C   0  0  2  0  0  0  0  0  0  0  0  0
  152.3434  140.6715  159.2505 C   0  0  0  0  0  0  0  0  0  0  0  0
  151.2646  142.2963  157.7498 N   0  0  0  0  0  0  0  0  0  0  0  0
  150.3739  141.5757  157.0515 C   0  0  0  0  0  0  0  0  0  0  0  0
  149.8013  140.5855  157.5090 O   0  0  0  0  0  0  0  0  0  0  0  0
  150.1206  142.0394  155.6099 C   0  0  0  0  0  0  0  0  0  0  0  0
  149.1765  141.1788  154.8784 N   0  0  0  0  0  0  0  0  0  0  0  0
  147.8718  141.6633  154.6790 C   0  0  0  0  0  0  0  0  0  0  0  0
  146.9418  140.9488  154.0172 C   0  0  0  0  0  0  0  0  0  0  0  0
  147.3172  139.6387  153.5000 C   0  0  0  0  0  0  0  0  0  0  0  0
  146.4795  138.9702  152.8973 O   0  0  0  0  0  0  0  0  0  0  0  0
  148.5969  139.2144  153.7149 N   0  5  0  0  0  0  0  0  0  0  0  0
  149.5327  139.9530  154.3887 C   0  0  0  0  0  0  0  0  0  0  0  0
  150.6829  139.5522  154.5703 O   0  0  0  0  0  0  0  0  0  0  0  0
  152.9732  142.6612  163.0774 H   0  0  0  0  0  0  0  0  0  0  0  0
  154.1672  142.3560  161.8191 H   0  0  0  0  0  0  0  0  0  0  0  0
  152.6641  141.4344  161.8521 H   0  0  0  0  0  0  0  0  0  0  0  0
  151.3718  143.5438  161.3914 H   0  0  0  0  0  0  0  0  0  0  0  0
  152.8615  144.4544  161.3669 H   0  0  0  0  0  0  0  0  0  0  0  0
  152.3987  144.0795  159.0597 H   0  0  0  0  0  0  0  0  0  0  0  0
  153.6192  142.8950  159.4415 H   0  0  0  0  0  0  0  0  0  0  0  0
  150.7674  142.0372  159.7599 H   0  0  0  0  0  0  0  0  0  0  0  0
  152.6385  140.4679  160.2800 H   0  0  0  0  0  0  0  0  0  0  0  0
  153.2392  140.6192  158.6307 H   0  0  0  0  0  0  0  0  0  0  0  0
  151.6753  139.8680  158.9391 H   0  0  0  0  0  0  0  0  0  0  0  0
  151.6882  143.0907  157.2928 H   0  0  0  0  0  0  0  0  0  0  0  0
  149.7595  143.0696  155.6164 H   0  0  0  0  0  0  0  0  0  0  0  0
  151.0801  142.0764  155.0924 H   0  0  0  0  0  0  0  0  0  0  0  0
  147.6779  142.6442  155.0879 H   0  0  0  0  0  0  0  0  0  0  0  0
  145.9444  141.3364  153.8703 H   0  0  0  0  0  0  0  0  0  0  0  0
  1  2  1  0  0  0  0
  1 18  1  0  0  0  0
  1 19  1  0  0  0  0
  1 20  1  0  0  0  0
  2  3  1  0  0  0  0
  2 21  1  0  0  0  0
  2 22  1  0  0  0  0
  3  4  1  0  0  0  0
  3 23  1  0  0  0  0
  3 24  1  0  0  0  0
  4  5  1  0  0  0  0
  4  6  1  0  0  0  0
  4 25  1  0  0  0  0
  5 26  1  0  0  0  0
  5 27  1  0  0  0  0
  5 28  1  0  0  0  0
  6  7  1  0  0  0  0
  6 29  1  0  0  0  0
  7  8  2  0  0  0  0
  7  9  1  0  0  0  0
  9 10  1  0  0  0  0
  9 30  1  0  0  0  0
  9 31  1  0  0  0  0
 10 16  1  0  0  0  0
 10 11  1  0  0  0  0
 11 12  2  0  0  0  0
 11 32  1  0  0  0  0
 12 13  1  0  0  0  0
 12 33  1  0  0  0  0
 13 14  2  0  0  0  0
 13 15  1  0  0  0  0
 15 16  1  0  0  0  0
 16 17  2  0  0  0  0
M  CHG  1  15  -1
M  END
> <s_m_source_file>
AV-unprocessed.smi

> <i_m_source_file_index>
2156

> <i_lp_mmshare_version>
43012

> <i_f3d_flags>
0

> <s_epik_input>
W0NIM11bQ0gyXVtDSDJdW0NASF0oW0NIM10pW05IXUMoPU8pW0NIMl1uMVtjSF1bY0hdYyg9TylbbkhdYzE9Tw==

> <s_epik_cmdline>
J2VwaWtfcHl0aG9uJywgJy1waCcsICc3LjAnLCAnLXRuJywgJzgnLCAnLW1hJywgJzIwMCcsICctbWV0YWxfYmluZGluZycsICctaW1hZScsICc8aW5maWxlLm1hZT4nLCAnLW9tYWUnLCAnPG91dGZpbGUubWFlPic=

> <r_lp_tautomer_probability>
0.999537

> <r_epik_Ionization_Penalty>
3.08607

> <r_epik_Ionization_Penalty_Charging>
2.78879e-08

> <r_epik_Ionization_Penalty_Neutral>
3.08607

> <r_epik_State_Penalty>
3.08511

> <r_epik_Charging_Adjusted_Penalty>
3.08511

> <i_epik_Tot_Q>
-1

> <i_epik_Tot_abs_Q>
1

> <r_epik_Metal_State_Penalty>
0.460479

> <b_epik_Metal_Only>
1

> <s_lp_Force_Field>
OPLS_2005

> <r_lp_Energy>
12.6721

> <b_lp_Chiralities_Consistent>
1

> <s_lp_Variant>
AV-unprocessed.smi:2156-3

> <Gold.Version>
5.8.1

> <Gold.Id.Protein>
6NUR|6NUR_protein|mol2

> <Gold.PLP.Fitness>
37.4967

> <Gold.PLP.PLP>
-33.0043

> <Gold.PLP.part.hbond>
-1.0000

> <Gold.PLP.part.metal>
0.0000

> <Gold.PLP.part.buried>
-4.2631

> <Gold.PLP.part.nonpolar>
-29.5026

> <Gold.PLP.part.repulsive>
2.2775

> <Gold.PLP.ligand.clash>
0.0000

> <Gold.PLP.ligand.torsion>
0.6881

> <Gold.PLP.Chemscore.Hbond>
0.9500

> <Gold.PLP.Chemscore.CHOScore>
1.0000

> <Gold.PLP.Chemscore.Metal>
0.0000

> <Gold.Chemscore.Hbonds>
donor molecule, donor type, donor heavy atom, donor atom, acceptor molecule, acceptor atom, score
      P1  H  7989  7998       L1    17  0.95
      L1  C    11    32       P1  8028  1.00

> <Gold.PLP.Chemscore.Internal.Correction>
0.0186

> <Gold.Rescore>
     Score         DG    S(hbond)    S(metal)    S(lipo)     H(rot)  DE(clash)    DE(int)     intcor
      8.43     -10.33       0.57        0.00      71.99       2.14       0.16       1.74       ----

> <Gold.Chemscore.Fitness>
8.4323

> <Gold.Chemscore.DG>
-10.3345

> <Gold.Chemscore.ZeroCoef>
-5.4800

> <Gold.Chemscore.Hbond>
0.5698

> <Gold.Chemscore.Metal>
0.0000

> <Gold.Chemscore.Lipo>
71.9893

> <Gold.Chemscore.Internal_Hbond>
0.0000

> <Gold.Chemscore.DEClash>
0.1633

> <Gold.Chemscore.DEInternal>
1.7389

> <Gold.Chemscore.Rot>
2.1372

> <Gold.Chemscore.Internal.Correction>
   9.000000E+99

> <Gold.Chemscore.Hbonds>
donor molecule, donor type, donor heavy atom, donor atom, acceptor molecule, acceptor atom, score
      P1  H  7989  7998       L1    17  0.21

> <Gold.Chemscore.Hbond.Weighted>
-1.9030

> <Gold.Chemscore.Metal.Weighted>
-0.0000

> <Gold.Chemscore.Lipo.Weighted>
-8.4227

> <Gold.Chemscore.Internal_Hbond.Weighted>
0.0000

> <Gold.Chemscore.DEClash.Weighted>
0.1633

> <Gold.Chemscore.DEInternal.Weighted>
1.7389

> <Gold.Chemscore.Rot.Weighted>
5.4713

> <Gold.Chemscore.Internal.Correction.Weighted>
   9.000000E+99

> <Gold.Protein.RotatedTorsions>
[ 6907 6896 6895 6894 ] final    5.28 input  -60.11 | X-H torsion
[ 7974 7965 7964 7962 ] final  -78.52 input  175.53 | X-H torsion
[ 8008 7997 7996 7995 ] final -127.73 input   59.86 | X-H torsion
[ 10167 10162 10161 10158 ] final  -91.49 input  -65.29 | X-H torsion
[ 10718 10713 10712 10709 ] final  149.20 input   66.30 | X-H torsion
[ 10763 10752 10751 10750 ] final   72.08 input  -60.55 | X-H torsion
[ 11005 11000 10999 10996 ] final  127.24 input  -57.11 | X-H torsion

> <Gold.Protein.ActiveResidues>
 VAL166  LYS551  ARG553  GLY616  TRP617  ASP618  TYR619  PRO620  LYS621  CYS622 
 ASP623  PHE694  ASN695  SER759  ASP760  ASP761  ALA762  ILE779  LEU786  VAL792 
 PHE793  MET794  SER795  GLU796  ALA797  LYS798  CYS799  TRP800  GLU811  SER814 

> <Gold.Protein.RotatedAtoms>
  151.6550  135.0996  160.0168 H   0  0  0  0  0  0  0  0  0  0  0  0  # atno 6907 bound_to 6896
  152.3979  133.6770  159.6300 H   0  0  0  0  0  0  0  0  0  0  0  0  # atno 6908 bound_to 6896
  150.7883  133.8759  159.3313 H   0  0  0  0  0  0  0  0  0  0  0  0  # atno 6909 bound_to 6896
  145.5854  140.9440  143.1321 H   0  0  0  0  0  0  0  0  0  0  0  0  # atno 7974 bound_to 7965
  155.2510  140.0432  157.2986 H   0  0  0  0  0  0  0  0  0  0  0  0  # atno 8008 bound_to 7997
  154.5769  140.2389  155.8079 H   0  0  0  0  0  0  0  0  0  0  0  0  # atno 8009 bound_to 7997
  156.2164  140.2983  155.9858 H   0  0  0  0  0  0  0  0  0  0  0  0  # atno 8010 bound_to 7997
  140.3443  143.2925  151.9799 H   0  0  0  0  0  0  0  0  0  0  0  0  # atno 10167 bound_to 10162
  157.2990  131.0867  151.1404 H   0  0  0  0  0  0  0  0  0  0  0  0  # atno 10718 bound_to 10713
  153.0437  135.5113  154.7690 H   0  0  0  0  0  0  0  0  0  0  0  0  # atno 10763 bound_to 10752
  154.6607  135.2938  154.9873 H   0  0  0  0  0  0  0  0  0  0  0  0  # atno 10764 bound_to 10752
  154.0725  135.6675  153.4879 H   0  0  0  0  0  0  0  0  0  0  0  0  # atno 10765 bound_to 10752
  139.9497  134.9624  156.8825 H   0  0  0  0  0  0  0  0  0  0  0  0  # atno 11005 bound_to 11000
  144.7375  139.7543  143.7323 LP  0  0  0  0  0  0  0  0  0  0  0  0  # atno 17320 bound_to 7965
  146.1686  139.4827  142.9942 LP  0  0  0  0  0  0  0  0  0  0  0  0  # atno 17321 bound_to 7965
  139.4835  144.6130  151.7398 LP  0  0  0  0  0  0  0  0  0  0  0  0  # atno 17342 bound_to 10162
  140.5279  144.0776  150.6044 LP  0  0  0  0  0  0  0  0  0  0  0  0  # atno 17343 bound_to 10162
  157.2771  130.6732  149.6047 LP  0  0  0  0  0  0  0  0  0  0  0  0  # atno 17370 bound_to 10713
  155.9670  130.4461  150.5528 LP  0  0  0  0  0  0  0  0  0  0  0  0  # atno 17371 bound_to 10713
  140.5749  134.0408  155.7443 LP  0  0  0  0  0  0  0  0  0  0  0  0  # atno 17394 bound_to 11000
  141.1157  133.9544  157.2827 LP  0  0  0  0  0  0  0  0  0  0  0  0  # atno 17395 bound_to 11000

$$$$
