AV-unprocessed.smi:3138|AV-procd|sdf|11955|dock1
  -GOLD-   2272017353D 1   1.00000     0.00000
 Structure written by MMmdl.
 37 38  0  0  0  0  0  0  0  0  1 V2000
  151.4500  140.6862  158.5618 O   0  0  0  0  0  0  0  0  0  0  0  0
  151.4420  141.9183  158.6019 C   0  0  0  0  0  0  0  0  0  0  0  0
  150.4451  142.6877  157.7174 C   0  0  0  0  0  0  0  0  0  0  0  0
  150.6152  142.4215  156.2830 N   0  0  0  0  0  0  0  0  0  0  0  0
  150.2012  141.0646  155.9602 C   0  0  0  0  0  0  0  0  0  0  0  0
  149.6398  141.0272  154.5318 C   0  0  0  0  0  0  0  0  0  0  0  0
  148.2867  141.5458  154.4768 N   0  0  0  0  0  0  0  0  0  0  0  0
  147.4614  141.6684  153.3791 C   0  0  0  0  0  0  0  0  0  0  0  0
  146.2865  142.2122  153.8132 C   0  0  0  0  0  0  0  0  0  0  0  0
  146.4932  142.3923  155.2095 C   0  0  0  0  0  0  0  0  0  0  0  0
  147.6921  141.9941  155.6035 N   0  0  0  0  0  0  0  0  0  0  0  0
  152.2911  142.6188  159.3936 N   0  0  0  0  0  0  0  0  0  0  0  0
  152.2440  144.0826  159.5067 C   0  0  0  0  0  0  0  0  0  0  0  0
  151.7216  144.4556  160.9066 C   0  0  0  0  0  0  0  0  0  0  0  0
  152.5854  143.8135  162.0089 C   0  0  0  0  0  0  0  0  0  0  0  0
  152.7853  142.3050  161.7690 C   0  0  0  0  0  0  0  0  0  0  0  0
  153.2628  142.0367  160.3302 C   0  0  0  0  0  0  0  0  0  0  0  0
  149.4315  142.4126  158.0125 H   0  0  0  0  0  0  0  0  0  0  0  0
  150.5697  143.7567  157.8972 H   0  0  0  0  0  0  0  0  0  0  0  0
  150.0856  143.0752  155.7239 H   0  0  0  0  0  0  0  0  0  0  0  0
  151.0510  140.3859  156.0493 H   0  0  0  0  0  0  0  0  0  0  0  0
  149.4392  140.7327  156.6672 H   0  0  0  0  0  0  0  0  0  0  0  0
  150.2621  141.6220  153.8615 H   0  0  0  0  0  0  0  0  0  0  0  0
  149.6420  140.0072  154.1437 H   0  0  0  0  0  0  0  0  0  0  0  0
  147.7758  141.3628  152.3919 H   0  0  0  0  0  0  0  0  0  0  0  0
  145.4129  142.4470  153.2235 H   0  0  0  0  0  0  0  0  0  0  0  0
  145.8123  142.7984  155.9430 H   0  0  0  0  0  0  0  0  0  0  0  0
  153.2451  144.4898  159.3580 H   0  0  0  0  0  0  0  0  0  0  0  0
  151.6190  144.5482  158.7437 H   0  0  0  0  0  0  0  0  0  0  0  0
  151.7074  145.5391  161.0266 H   0  0  0  0  0  0  0  0  0  0  0  0
  150.6891  144.1188  161.0097 H   0  0  0  0  0  0  0  0  0  0  0  0
  153.5598  144.3030  162.0274 H   0  0  0  0  0  0  0  0  0  0  0  0
  152.1366  143.9843  162.9878 H   0  0  0  0  0  0  0  0  0  0  0  0
  153.5041  141.9059  162.4849 H   0  0  0  0  0  0  0  0  0  0  0  0
  151.8465  141.7782  161.9452 H   0  0  0  0  0  0  0  0  0  0  0  0
  153.4276  140.9702  160.1876 H   0  0  0  0  0  0  0  0  0  0  0  0
  154.2365  142.5022  160.1694 H   0  0  0  0  0  0  0  0  0  0  0  0
  1  2  2  0  0  0  0
  2  3  1  0  0  0  0
  2 12  1  0  0  0  0
  3  4  1  0  0  0  0
  3 18  1  0  0  0  0
  3 19  1  0  0  0  0
  4  5  1  0  0  0  0
  4 20  1  0  0  0  0
  5  6  1  0  0  0  0
  5 21  1  0  0  0  0
  5 22  1  0  0  0  0
  6  7  1  0  0  0  0
  6 23  1  0  0  0  0
  6 24  1  0  0  0  0
  7 11  1  0  0  0  0
  7  8  1  0  0  0  0
  8  9  2  0  0  0  0
  8 25  1  0  0  0  0
  9 10  1  0  0  0  0
  9 26  1  0  0  0  0
 10 11  2  0  0  0  0
 10 27  1  0  0  0  0
 12 17  1  0  0  0  0
 12 13  1  0  0  0  0
 13 14  1  0  0  0  0
 13 28  1  0  0  0  0
 13 29  1  0  0  0  0
 14 15  1  0  0  0  0
 14 30  1  0  0  0  0
 14 31  1  0  0  0  0
 15 16  1  0  0  0  0
 15 32  1  0  0  0  0
 15 33  1  0  0  0  0
 16 17  1  0  0  0  0
 16 34  1  0  0  0  0
 16 35  1  0  0  0  0
 17 36  1  0  0  0  0
 17 37  1  0  0  0  0
M  END
> <s_m_source_file>
AV-unprocessed.smi

> <i_m_source_file_index>
3138

> <i_lp_mmshare_version>
43012

> <i_f3d_flags>
0

> <s_epik_input>
W0NIMl0xW0NIMl1bQ0gyXVtDSDJdW0NIMl1OMUMoPU8pW0NIMl1bTkhdW0NIMl1bQ0gyXW4yW2NIXVtjSF1bY0hdbjI=

> <s_epik_cmdline>
J2VwaWtfcHl0aG9uJywgJy1waCcsICc3LjAnLCAnLXRuJywgJzgnLCAnLW1hJywgJzIwMCcsICctbWV0YWxfYmluZGluZycsICctaW1hZScsICc8aW5maWxlLm1hZT4nLCAnLW9tYWUnLCAnPG91dGZpbGUubWFlPic=

> <r_lp_tautomer_probability>
1

> <r_epik_Ionization_Penalty>
0.737271

> <r_epik_Ionization_Penalty_Charging>
0

> <r_epik_Ionization_Penalty_Neutral>
0.737271

> <r_epik_State_Penalty>
0.761204

> <r_epik_Charging_Adjusted_Penalty>
0.761204

> <i_epik_Tot_Q>
0

> <i_epik_Tot_abs_Q>
0

> <r_epik_Metal_State_Penalty>
0.759956

> <b_epik_Metal_Only>
0

> <s_lp_Force_Field>
OPLS_2005

> <r_lp_Energy>
25.4177

> <b_lp_Chiralities_Consistent>
1

> <s_lp_Variant>
AV-unprocessed.smi:3138-2

> <Gold.Version>
5.8.1

> <Gold.Id.Protein>
6NUR|6NUR_protein|mol2

> <Gold.PLP.Fitness>
48.1600

> <Gold.PLP.PLP>
-42.8164

> <Gold.PLP.part.hbond>
-1.0000

> <Gold.PLP.part.metal>
0.0000

> <Gold.PLP.part.buried>
-4.4837

> <Gold.PLP.part.nonpolar>
-38.4041

> <Gold.PLP.part.repulsive>
1.2055

> <Gold.PLP.ligand.clash>
0.0000

> <Gold.PLP.ligand.torsion>
0.3096

> <Gold.PLP.Chemscore.Hbond>
0.9675

> <Gold.PLP.Chemscore.CHOScore>
0.9808

> <Gold.PLP.Chemscore.Metal>
0.0000

> <Gold.Chemscore.Hbonds>
donor molecule, donor type, donor heavy atom, donor atom, acceptor molecule, acceptor atom, score
      L1  H     4    20       P1  8028  0.97
      L1  C     8    25       P1  7957  0.96

> <Gold.PLP.Chemscore.Internal.Correction>
0.1180

> <Gold.Rescore>
     Score         DG    S(hbond)    S(metal)    S(lipo)     H(rot)  DE(clash)    DE(int)     intcor
     13.29     -15.48       0.91        0.00      98.26       1.77       0.04       2.15       ----

> <Gold.Chemscore.Fitness>
13.2885

> <Gold.Chemscore.DG>
-15.4770

> <Gold.Chemscore.ZeroCoef>
-5.4800

> <Gold.Chemscore.Hbond>
0.9082

> <Gold.Chemscore.Metal>
0.0000

> <Gold.Chemscore.Lipo>
98.2621

> <Gold.Chemscore.Internal_Hbond>
0.0000

> <Gold.Chemscore.DEClash>
0.0408

> <Gold.Chemscore.DEInternal>
2.1477

> <Gold.Chemscore.Rot>
1.7707

> <Gold.Chemscore.Internal.Correction>
   9.000000E+99

> <Gold.Chemscore.Hbonds>
donor molecule, donor type, donor heavy atom, donor atom, acceptor molecule, acceptor atom, score
      L1  H     4    20       P1  8028  0.85

> <Gold.Chemscore.Hbond.Weighted>
-3.0334

> <Gold.Chemscore.Metal.Weighted>
-0.0000

> <Gold.Chemscore.Lipo.Weighted>
-11.4967

> <Gold.Chemscore.Internal_Hbond.Weighted>
0.0000

> <Gold.Chemscore.DEClash.Weighted>
0.0408

> <Gold.Chemscore.DEInternal.Weighted>
2.1477

> <Gold.Chemscore.Rot.Weighted>
4.5331

> <Gold.Chemscore.Internal.Correction.Weighted>
   9.000000E+99

> <Gold.Protein.RotatedTorsions>
[ 6907 6896 6895 6894 ] final  -91.45 input  -60.11 | X-H torsion
[ 7974 7965 7964 7962 ] final   10.17 input  175.53 | X-H torsion
[ 8008 7997 7996 7995 ] final    9.64 input   59.86 | X-H torsion
[ 10167 10162 10161 10158 ] final  108.45 input  -65.29 | X-H torsion
[ 10718 10713 10712 10709 ] final  -89.11 input   66.30 | X-H torsion
[ 10763 10752 10751 10750 ] final  175.33 input  -60.55 | X-H torsion
[ 11005 11000 10999 10996 ] final  167.25 input  -57.11 | X-H torsion

> <Gold.Protein.ActiveResidues>
 VAL166  LYS551  ARG553  GLY616  TRP617  ASP618  TYR619  PRO620  LYS621  CYS622 
 ASP623  PHE694  ASN695  SER759  ASP760  ASP761  ALA762  ILE779  LEU786  VAL792 
 PHE793  MET794  SER795  GLU796  ALA797  LYS798  CYS799  TRP800  GLU811  SER814 

> <Gold.Protein.RotatedAtoms>
  150.6893  134.2275  159.4420 H   0  0  0  0  0  0  0  0  0  0  0  0  # atno 6907 bound_to 6896
  152.0228  134.9810  160.0580 H   0  0  0  0  0  0  0  0  0  0  0  0  # atno 6908 bound_to 6896
  152.1381  133.4412  159.4790 H   0  0  0  0  0  0  0  0  0  0  0  0  # atno 6909 bound_to 6896
  146.2392  139.9674  142.8451 H   0  0  0  0  0  0  0  0  0  0  0  0  # atno 7974 bound_to 7965
  154.7827  140.2822  155.6051 H   0  0  0  0  0  0  0  0  0  0  0  0  # atno 8008 bound_to 7997
  156.2952  140.2620  156.2584 H   0  0  0  0  0  0  0  0  0  0  0  0  # atno 8009 bound_to 7997
  154.9765  140.0375  157.2248 H   0  0  0  0  0  0  0  0  0  0  0  0  # atno 8010 bound_to 7997
  139.6845  144.7115  151.1456 H   0  0  0  0  0  0  0  0  0  0  0  0  # atno 10167 bound_to 10162
  155.9984  130.4860  150.5121 H   0  0  0  0  0  0  0  0  0  0  0  0  # atno 10718 bound_to 10713
  154.4661  135.2769  155.1677 H   0  0  0  0  0  0  0  0  0  0  0  0  # atno 10763 bound_to 10752
  154.3445  135.6163  153.5616 H   0  0  0  0  0  0  0  0  0  0  0  0  # atno 10764 bound_to 10752
  152.9859  135.5796  154.5033 H   0  0  0  0  0  0  0  0  0  0  0  0  # atno 10765 bound_to 10752
  140.2749  134.7797  157.3707 H   0  0  0  0  0  0  0  0  0  0  0  0  # atno 11005 bound_to 11000
  145.1713  140.9722  143.4320 LP  0  0  0  0  0  0  0  0  0  0  0  0  # atno 17320 bound_to 7965
  145.0026  139.3584  143.6160 LP  0  0  0  0  0  0  0  0  0  0  0  0  # atno 17321 bound_to 7965
  140.7663  143.5650  150.9058 LP  0  0  0  0  0  0  0  0  0  0  0  0  # atno 17342 bound_to 10162
  139.9324  143.6478  152.3073 LP  0  0  0  0  0  0  0  0  0  0  0  0  # atno 17343 bound_to 10162
  157.3093  131.0660  151.2012 LP  0  0  0  0  0  0  0  0  0  0  0  0  # atno 17370 bound_to 10713
  157.2964  130.6821  149.6141 LP  0  0  0  0  0  0  0  0  0  0  0  0  # atno 17371 bound_to 10713
  140.1338  134.5060  155.8084 LP  0  0  0  0  0  0  0  0  0  0  0  0  # atno 17394 bound_to 11000
  141.2172  133.6800  156.7088 LP  0  0  0  0  0  0  0  0  0  0  0  0  # atno 17395 bound_to 11000

$$$$
