AV-unprocessed.smi:349|AV-procd|sdf|2396|dock6
  -GOLD-   2262022323D 1   1.00000     0.00000
 Structure written by MMmdl.
 43 44  0  0  0  0  0  0  0  0  1 V2000
  151.7948  145.3197  159.4081 C   0  0  0  0  0  0  0  0  0  0  0  0
  151.1059  144.4375  158.3549 C   0  0  0  0  0  0  0  0  0  0  0  0
  150.6086  143.0760  158.8900 C   0  0  2  0  0  0  0  0  0  0  0  0
  151.4319  142.6310  160.1107 C   0  0  0  0  0  0  0  0  0  0  0  0
  150.6411  141.9889  157.8053 C   0  0  0  0  0  0  0  0  0  0  0  0
  151.0698  140.8645  158.0669 O   0  0  0  0  0  0  0  0  0  0  0  0
  150.1958  142.3420  156.5894 N   0  0  0  0  0  0  0  0  0  0  0  0
  150.1861  141.4699  155.4195 C   0  0  0  0  0  0  0  0  0  0  0  0
  148.7919  140.9858  155.0153 C   0  0  0  0  0  0  0  0  0  0  0  0
  147.8159  141.9200  154.5989 C   0  0  0  0  0  0  0  0  0  0  0  0
  146.5301  141.4704  154.2508 C   0  0  0  0  0  0  0  0  0  0  0  0
  146.2602  140.0940  154.3407 C   0  0  0  0  0  0  0  0  0  0  0  0
  147.1739  139.1887  154.7456 N   0  0  0  0  0  0  0  0  0  0  0  0
  148.4164  139.6160  155.0799 C   0  0  0  0  0  0  0  0  0  0  0  0
  149.3451  138.6367  155.4744 N   0  0  0  0  0  0  0  0  0  0  0  0
  150.5264  138.5996  154.6217 C   0  0  0  0  0  0  0  0  0  0  0  0
  151.5887  137.6732  155.2378 C   0  0  0  0  0  0  0  0  0  0  0  0
  151.0304  136.3799  155.4553 O   0  0  0  0  0  0  0  0  0  0  0  0
  149.9186  136.4176  156.3463 C   0  0  0  0  0  0  0  0  0  0  0  0
  148.8130  137.3069  155.7524 C   0  0  0  0  0  0  0  0  0  0  0  0
  152.1923  146.2261  158.9513 H   0  0  0  0  0  0  0  0  0  0  0  0
  152.6256  144.7944  159.8800 H   0  0  0  0  0  0  0  0  0  0  0  0
  151.1024  145.6278  160.1917 H   0  0  0  0  0  0  0  0  0  0  0  0
  150.2775  144.9898  157.9088 H   0  0  0  0  0  0  0  0  0  0  0  0
  151.8134  144.2594  157.5443 H   0  0  0  0  0  0  0  0  0  0  0  0
  149.5757  143.2005  159.2202 H   0  0  0  0  0  0  0  0  0  0  0  0
  151.0984  141.6619  160.4841 H   0  0  0  0  0  0  0  0  0  0  0  0
  151.3334  143.3457  160.9282 H   0  0  0  0  0  0  0  0  0  0  0  0
  152.4931  142.5489  159.8714 H   0  0  0  0  0  0  0  0  0  0  0  0
  149.8570  143.2845  156.4610 H   0  0  0  0  0  0  0  0  0  0  0  0
  150.6981  141.9790  154.6032 H   0  0  0  0  0  0  0  0  0  0  0  0
  150.7896  140.5922  155.6509 H   0  0  0  0  0  0  0  0  0  0  0  0
  148.0430  142.9746  154.5477 H   0  0  0  0  0  0  0  0  0  0  0  0
  145.7691  142.1643  153.9261 H   0  0  0  0  0  0  0  0  0  0  0  0
  145.2846  139.7089  154.0826 H   0  0  0  0  0  0  0  0  0  0  0  0
  150.2447  138.2388  153.6315 H   0  0  0  0  0  0  0  0  0  0  0  0
  150.9354  139.6017  154.4918 H   0  0  0  0  0  0  0  0  0  0  0  0
  152.4436  137.5835  154.5678 H   0  0  0  0  0  0  0  0  0  0  0  0
  151.9617  138.0827  156.1781 H   0  0  0  0  0  0  0  0  0  0  0  0
  149.5470  135.4038  156.4953 H   0  0  0  0  0  0  0  0  0  0  0  0
  150.2344  136.7887  157.3228 H   0  0  0  0  0  0  0  0  0  0  0  0
  147.9754  137.3816  156.4469 H   0  0  0  0  0  0  0  0  0  0  0  0
  148.4357  136.8571  154.8330 H   0  0  0  0  0  0  0  0  0  0  0  0
  1  2  1  0  0  0  0
  1 21  1  0  0  0  0
  1 22  1  0  0  0  0
  1 23  1  0  0  0  0
  2  3  1  0  0  0  0
  2 24  1  0  0  0  0
  2 25  1  0  0  0  0
  3  4  1  0  0  0  0
  3  5  1  0  0  0  0
  3 26  1  0  0  0  0
  4 27  1  0  0  0  0
  4 28  1  0  0  0  0
  4 29  1  0  0  0  0
  5  6  2  0  0  0  0
  5  7  1  0  0  0  0
  7  8  1  0  0  0  0
  7 30  1  0  0  0  0
  8  9  1  0  0  0  0
  8 31  1  0  0  0  0
  8 32  1  0  0  0  0
  9 14  1  0  0  0  0
  9 10  2  0  0  0  0
 10 11  1  0  0  0  0
 10 33  1  0  0  0  0
 11 12  2  0  0  0  0
 11 34  1  0  0  0  0
 12 13  1  0  0  0  0
 12 35  1  0  0  0  0
 13 14  2  0  0  0  0
 14 15  1  0  0  0  0
 15 20  1  0  0  0  0
 15 16  1  0  0  0  0
 16 17  1  0  0  0  0
 16 36  1  0  0  0  0
 16 37  1  0  0  0  0
 17 18  1  0  0  0  0
 17 38  1  0  0  0  0
 17 39  1  0  0  0  0
 18 19  1  0  0  0  0
 19 20  1  0  0  0  0
 19 40  1  0  0  0  0
 19 41  1  0  0  0  0
 20 42  1  0  0  0  0
 20 43  1  0  0  0  0
M  END
> <s_m_source_file>
AV-unprocessed.smi

> <i_m_source_file_index>
349

> <i_lp_mmshare_version>
43012

> <i_f3d_flags>
0

> <s_epik_input>
W0NIM11bQ0gyXVtDQEhdKFtDSDNdKUMoPU8pW05IXVtDSDJdYzFbY0hdW2NIXVtjSF1uYzFOMltDSDJdW0NIMl1PW0NIMl1bQ0gyXTI=

> <s_epik_cmdline>
J2VwaWtfcHl0aG9uJywgJy1waCcsICc3LjAnLCAnLXRuJywgJzgnLCAnLW1hJywgJzIwMCcsICctbWV0YWxfYmluZGluZycsICctaW1hZScsICc8aW5maWxlLm1hZT4nLCAnLW9tYWUnLCAnPG91dGZpbGUubWFlPic=

> <r_lp_tautomer_probability>
1

> <r_epik_Ionization_Penalty>
0.00513869

> <r_epik_Ionization_Penalty_Charging>
0

> <r_epik_Ionization_Penalty_Neutral>
0.00513869

> <r_epik_State_Penalty>
0.00374265

> <r_epik_Charging_Adjusted_Penalty>
0.00374265

> <i_epik_Tot_Q>
0

> <i_epik_Tot_abs_Q>
0

> <r_epik_Metal_State_Penalty>
-0

> <b_epik_Metal_Only>
0

> <s_lp_Force_Field>
OPLS_2005

> <r_lp_Energy>
18.1158

> <b_lp_Chiralities_Consistent>
1

> <s_lp_Variant>
AV-unprocessed.smi:349-1

> <Gold.Version>
5.8.1

> <Gold.Id.Protein>
6NUR|6NUR_protein|mol2

> <Gold.PLP.Fitness>
41.7562

> <Gold.PLP.PLP>
-34.7071

> <Gold.PLP.part.hbond>
-2.0000

> <Gold.PLP.part.metal>
0.0000

> <Gold.PLP.part.buried>
-2.6273

> <Gold.PLP.part.nonpolar>
-30.2552

> <Gold.PLP.part.repulsive>
0.4545

> <Gold.PLP.ligand.clash>
0.0517

> <Gold.PLP.ligand.torsion>
0.9942

> <Gold.PLP.Chemscore.Hbond>
2.0000

> <Gold.PLP.Chemscore.CHOScore>
0.9647

> <Gold.PLP.Chemscore.Metal>
0.0000

> <Gold.Chemscore.Hbonds>
donor molecule, donor type, donor heavy atom, donor atom, acceptor molecule, acceptor atom, score
      L1  H     7    30       P1  8028  1.00
      P1  H 10752 10765       L1    18  0.15
      L1  C    12    35       P1 10175  1.00

> <Gold.PLP.Chemscore.Internal.Correction>
0.1951

> <Gold.Rescore>
     Score         DG    S(hbond)    S(metal)    S(lipo)     H(rot)  DE(clash)    DE(int)     intcor
     15.67     -18.21       1.84        0.00      92.20       1.64       0.19       2.35       ----

> <Gold.Chemscore.Fitness>
15.6681

> <Gold.Chemscore.DG>
-18.2136

> <Gold.Chemscore.ZeroCoef>
-5.4800

> <Gold.Chemscore.Hbond>
1.8402

> <Gold.Chemscore.Metal>
0.0000

> <Gold.Chemscore.Lipo>
92.2007

> <Gold.Chemscore.Internal_Hbond>
0.0000

> <Gold.Chemscore.DEClash>
0.1926

> <Gold.Chemscore.DEInternal>
2.3529

> <Gold.Chemscore.Rot>
1.6407

> <Gold.Chemscore.Internal.Correction>
   9.000000E+99

> <Gold.Chemscore.Hbonds>
donor molecule, donor type, donor heavy atom, donor atom, acceptor molecule, acceptor atom, score
      L1  H     7    30       P1  8028  0.99

> <Gold.Chemscore.Hbond.Weighted>
-6.1462

> <Gold.Chemscore.Metal.Weighted>
-0.0000

> <Gold.Chemscore.Lipo.Weighted>
-10.7875

> <Gold.Chemscore.Internal_Hbond.Weighted>
0.0000

> <Gold.Chemscore.DEClash.Weighted>
0.1926

> <Gold.Chemscore.DEInternal.Weighted>
2.3529

> <Gold.Chemscore.Rot.Weighted>
4.2001

> <Gold.Chemscore.Internal.Correction.Weighted>
   9.000000E+99

> <Gold.Protein.RotatedTorsions>
[ 6907 6896 6895 6894 ] final -127.26 input  -60.11 | X-H torsion
[ 7974 7965 7964 7962 ] final -155.18 input  175.53 | X-H torsion
[ 8008 7997 7996 7995 ] final  -74.33 input   59.86 | X-H torsion
[ 10167 10162 10161 10158 ] final   44.19 input  -65.29 | X-H torsion
[ 10718 10713 10712 10709 ] final   44.69 input   66.30 | X-H torsion
[ 10763 10752 10751 10750 ] final -179.83 input  -60.55 | X-H torsion
[ 11005 11000 10999 10996 ] final -129.40 input  -57.11 | X-H torsion

> <Gold.Protein.ActiveResidues>
 VAL166  LYS551  ARG553  GLY616  TRP617  ASP618  TYR619  PRO620  LYS621  CYS622 
 ASP623  PHE694  ASN695  SER759  ASP760  ASP761  ALA762  ILE779  LEU786  VAL792 
 PHE793  MET794  SER795  GLU796  ALA797  LYS798  CYS799  TRP800  GLU811  SER814 

> <Gold.Protein.RotatedAtoms>
  150.9055  133.7064  159.2867 H   0  0  0  0  0  0  0  0  0  0  0  0  # atno 6907 bound_to 6896
  151.4569  135.1033  159.9723 H   0  0  0  0  0  0  0  0  0  0  0  0  # atno 6908 bound_to 6896
  152.4901  133.8427  159.7216 H   0  0  0  0  0  0  0  0  0  0  0  0  # atno 6909 bound_to 6896
  144.7653  140.4286  143.5947 H   0  0  0  0  0  0  0  0  0  0  0  0  # atno 7974 bound_to 7965
  154.5321  140.0763  156.8364 H   0  0  0  0  0  0  0  0  0  0  0  0  # atno 8008 bound_to 7997
  155.3353  140.3404  155.4221 H   0  0  0  0  0  0  0  0  0  0  0  0  # atno 8009 bound_to 7997
  156.1792  140.1646  156.8293 H   0  0  0  0  0  0  0  0  0  0  0  0  # atno 8010 bound_to 7997
  140.3368  144.2520  150.6160 H   0  0  0  0  0  0  0  0  0  0  0  0  # atno 10167 bound_to 10162
  157.4295  130.8016  149.7590 H   0  0  0  0  0  0  0  0  0  0  0  0  # atno 10718 bound_to 10713
  154.5301  135.2799  155.1188 H   0  0  0  0  0  0  0  0  0  0  0  0  # atno 10763 bound_to 10752
  154.2711  135.6303  153.5314 H   0  0  0  0  0  0  0  0  0  0  0  0  # atno 10764 bound_to 10752
  152.9955  135.5628  154.5812 H   0  0  0  0  0  0  0  0  0  0  0  0  # atno 10765 bound_to 10752
  140.9434  134.1162  157.4129 H   0  0  0  0  0  0  0  0  0  0  0  0  # atno 11005 bound_to 11000
  145.6490  139.1562  143.2872 LP  0  0  0  0  0  0  0  0  0  0  0  0  # atno 17320 bound_to 7965
  146.1754  140.6581  142.9214 LP  0  0  0  0  0  0  0  0  0  0  0  0  # atno 17321 bound_to 7965
  140.5346  143.2236  151.8183 LP  0  0  0  0  0  0  0  0  0  0  0  0  # atno 17342 bound_to 10162
  139.4847  144.4677  151.9464 LP  0  0  0  0  0  0  0  0  0  0  0  0  # atno 17343 bound_to 10162
  155.9908  130.3942  150.3012 LP  0  0  0  0  0  0  0  0  0  0  0  0  # atno 17370 bound_to 10713
  157.1167  131.0236  151.3026 LP  0  0  0  0  0  0  0  0  0  0  0  0  # atno 17371 bound_to 10713
  139.8826  135.0044  156.6245 LP  0  0  0  0  0  0  0  0  0  0  0  0  # atno 17394 bound_to 11000
  140.7702  133.8744  155.8486 LP  0  0  0  0  0  0  0  0  0  0  0  0  # atno 17395 bound_to 11000

$$$$
