#       Name:                AV-unprocessed.smi:1047
#       Creating user name   scv26
#       Creation time:       Fri Mar 27 03:04:51 2020


#       File generated by GOLD software.
#

@<TRIPOS>MOLECULE
AV-unprocessed.smi:1047
    62    64     1
SMALL
NO_CHARGES


@<TRIPOS>ATOM
      1 ****        -4.3392   4.7414  -1.9267 C.3            1 S1                 0.0000
      2 ****        -3.1229   5.1166  -1.0687 C.3            1 S1                 0.0000
      3 ****        -3.0331   4.3038   0.1736 N.4            1 S1                 1.0000
      4 ****        -2.2208   4.9387   1.2397 C.3            1 S1                 0.0000
      5 ****        -0.7158   4.7727   0.9648 C.3            1 S1                 0.0000
      6 ****        -0.4087   3.3893   0.8349 O.3            1 S1                 0.0000
      7 ****        -1.0845   2.7788  -0.2603 C.3            1 S1                 0.0000
      8 ****        -0.6321   1.3122  -0.3408 C.3            1 S1                 0.0000
      9 ****         0.7940   1.2071  -0.7110 N.4            1 S1                 1.0000
     10 ****         1.2838  -0.1808  -0.8352 C.3            1 S1                 0.0000
     11 ****         2.7739  -0.2159  -1.2244 C.3            1 S1                 0.0000
     12 ****         2.9225   0.3466  -2.5122 O.3            1 S1                 0.0000
     13 ****         3.3840  -1.6317  -1.2631 C.3            1 S1                 0.0000
     14 ****         3.3594  -2.3086   0.0414 N.pl3          1 S1                 0.0000
     15 ****         4.2220  -2.1992   1.0887 C.2            1 S1                 0.0000
     16 ****         3.7849  -3.0343   2.0711 N.pl3          1 S1                 1.0000
     17 ****         2.6294  -3.6916   1.6444 C.ar           1 S1                 0.0000
     18 ****         1.8277  -4.6285   2.2851 C.ar           1 S1                 0.0000
     19 ****         0.7068  -5.1126   1.5741 C.ar           1 S1                 0.0000
     20 ****        -0.1897  -6.1393   2.2456 C.3            1 S1                 0.0000
     21 ****         0.4219  -4.6552   0.2615 C.ar           1 S1                 0.0000
     22 ****        -0.7865  -5.1822  -0.4938 C.3            1 S1                 0.0000
     23 ****         1.2508  -3.7028  -0.3737 C.ar           1 S1                 0.0000
     24 ****         2.3515  -3.2343   0.3411 C.ar           1 S1                 0.0000
     25 ****        -2.6088   2.8943  -0.0305 C.3            1 S1                 0.0000
     26 ****        -4.4263   5.4136  -2.7805 H              1 S1                 0.0000
     27 ****        -5.2639   4.8165  -1.3535 H              1 S1                 0.0000
     28 ****        -4.2685   3.7282  -2.3210 H              1 S1                 0.0000
     29 ****        -2.2063   5.0412  -1.6534 H              1 S1                 0.0000
     30 ****        -3.2250   6.1683  -0.7981 H              1 S1                 0.0000
     31 ****        -2.4823   5.9918   1.3509 H              1 S1                 0.0000
     32 ****        -2.4675   4.4616   2.1891 H              1 S1                 0.0000
     33 ****        -0.4133   5.3147   0.0675 H              1 S1                 0.0000
     34 ****        -0.1380   5.1844   1.7923 H              1 S1                 0.0000
     35 ****        -0.8070   3.2819  -1.1879 H              1 S1                 0.0000
     36 ****        -0.8025   0.8096   0.6124 H              1 S1                 0.0000
     37 ****        -1.2238   0.7863  -1.0915 H              1 S1                 0.0000
     38 ****         0.9369   1.6712  -1.5971 H              1 S1                 0.0000
     39 ****         1.1338  -0.6735   0.1257 H              1 S1                 0.0000
     40 ****         0.6849  -0.7207  -1.5703 H              1 S1                 0.0000
     41 ****         3.3437   0.3953  -0.5228 H              1 S1                 0.0000
     42 ****         2.5287  -0.2335  -3.1466 H              1 S1                 0.0000
     43 ****         2.8887  -2.2575  -2.0055 H              1 S1                 0.0000
     44 ****         4.4304  -1.5746  -1.5672 H              1 S1                 0.0000
     45 ****         5.0974  -1.5668   1.1325 H              1 S1                 0.0000
     46 ****         2.0517  -4.9737   3.2842 H              1 S1                 0.0000
     47 ****        -0.1878  -7.0734   1.6831 H              1 S1                 0.0000
     48 ****        -1.2152  -5.7736   2.3074 H              1 S1                 0.0000
     49 ****         0.1462  -6.3601   3.2594 H              1 S1                 0.0000
     50 ****        -0.8564  -4.7464  -1.4909 H              1 S1                 0.0000
     51 ****        -1.7064  -4.9410   0.0394 H              1 S1                 0.0000
     52 ****        -0.7254  -6.2646  -0.6077 H              1 S1                 0.0000
     53 ****         1.0298  -3.3587  -1.3729 H              1 S1                 0.0000
     54 ****        -2.8813   2.3320   0.8640 H              1 S1                 0.0000
     55 ****        -3.1589   2.4361  -0.8514 H              1 S1                 0.0000
     56 ****         1.3455   1.6802  -0.0092 H              1 S1                 0.0000
     57 ****        -3.9775   4.2719   0.5317 H              1 S1                 0.0000
     58 ****         4.2466  -3.1495   2.9646 H              1 S1                 0.0000
     59 ****        -0.6761   2.9214   1.6772 LP             1 S1                 0.0000
     60 ****         0.5770   3.2915   0.6977 LP             1 S1                 0.0000
     61 ****         3.8943   0.4603  -2.7189 LP             1 S1                 0.0000
     62 ****         2.4685   1.2370  -2.5442 LP             1 S1                 0.0000
@<TRIPOS>BOND
    1    1    2 1     
    2    1   26 1     
    3    1   27 1     
    4    1   28 1     
    5    2    3 1     
    6    2   29 1     
    7    2   30 1     
    8    3   25 1     
    9    3    4 1     
   10    3   57 1     
   11    4    5 1     
   12    4   31 1     
   13    4   32 1     
   14    5    6 1     
   15    5   33 1     
   16    5   34 1     
   17    6    7 1     
   18    7    8 1     
   19    7   25 1     
   20    7   35 1     
   21    8    9 1     
   22    8   36 1     
   23    8   37 1     
   24    9   10 1     
   25    9   38 1     
   26    9   56 1     
   27   10   11 1     
   28   10   39 1     
   29   10   40 1     
   30   11   12 1     
   31   11   13 1     
   32   11   41 1     
   33   12   42 1     
   34   13   14 1     
   35   13   43 1     
   36   13   44 1     
   37   14   24 1     
   38   14   15 1     
   39   15   16 2     
   40   15   45 1     
   41   16   17 1     
   42   16   58 1     
   43   17   24 ar    
   44   17   18 ar    
   45   18   19 ar    
   46   18   46 1     
   47   19   20 1     
   48   19   21 ar    
   49   20   47 1     
   50   20   48 1     
   51   20   49 1     
   52   21   22 1     
   53   21   23 ar    
   54   22   50 1     
   55   22   51 1     
   56   22   52 1     
   57   23   24 ar    
   58   23   53 1     
   59   25   54 1     
   60   25   55 1     
   61    6   59 1     
   62    6   60 1     
   63   12   61 1     
   64   12   62 1     
@<TRIPOS>SUBSTRUCTURE
      1 S1             1
@<TRIPOS>SET
LONE_PAIRS      STATIC     ATOMS    <user>   **** ""
4 59 60 61 62
DONOR_HYDROGENS      STATIC     ATOMS    <user>   **** ""
5 57 38 56 42 58
ATOM$BLUE        STATIC     ATOMS    COLORGROUP SYSTEM
4 59 60 61 62
ATOM$RED        STATIC     ATOMS    COLORGROUP SYSTEM
5 57 38 56 42 58
