AV-unprocessed.smi:2748|AV-procd|sdf|10584|dock4
  -GOLD-   2272015 33D 1   1.00000     0.00000
 Structure written by MMmdl.
 29 31  0  0  0  0  0  0  0  0  2 V2000
  154.3235  135.1734  160.7214 O   0  0  0  0  0  0  0  0  0  0  0  0
  154.3240  136.4008  160.8039 C   0  0  0  0  0  0  0  0  0  0  0  0
  154.3020  137.2128  159.7063 N   0  5  0  0  0  0  0  0  0  0  0  0
  154.3000  138.5799  159.7780 C   0  0  0  0  0  0  0  0  0  0  0  0
  154.2891  139.2921  158.7735 O   0  0  0  0  0  0  0  0  0  0  0  0
  154.3116  139.1735  161.0081 N   0  0  0  0  0  0  0  0  0  0  0  0
  154.3119  140.6327  161.1783 C   0  0  0  0  0  0  0  0  0  0  0  0
  152.9155  141.2357  160.9354 C   0  0  1  0  0  0  0  0  0  0  0  0
  152.6704  142.5224  161.7681 C   0  0  0  0  0  0  0  0  0  0  0  0
  152.4118  143.5310  160.7045 C   0  0  0  0  0  0  0  0  0  0  0  0
  152.1230  144.8987  160.8495 C   0  0  0  0  0  0  0  0  0  0  0  0
  151.9187  145.6571  159.6757 C   0  0  0  0  0  0  0  0  0  0  0  0
  152.0067  145.0449  158.4021 C   0  0  0  0  0  0  0  0  0  0  0  0
  152.2996  143.6672  158.2863 C   0  0  0  0  0  0  0  0  0  0  0  0
  152.4995  142.9253  159.4639 C   0  0  0  0  0  0  0  0  0  0  0  0
  152.7851  141.5924  159.5450 O   0  0  0  0  0  0  0  0  0  0  0  0
  154.3422  138.3837  162.1698 C   0  0  0  0  0  0  0  0  0  0  0  0
  154.3495  137.0376  162.1191 C   0  0  0  0  0  0  0  0  0  0  0  0
  154.3904  136.0920  163.5646 Cl  0  0  0  0  0  0  0  0  0  0  0  0
  154.6587  140.8898  162.1806 H   0  0  0  0  0  0  0  0  0  0  0  0
  155.0343  141.0935  160.5027 H   0  0  0  0  0  0  0  0  0  0  0  0
  152.1422  140.5038  161.1720 H   0  0  0  0  0  0  0  0  0  0  0  0
  151.8041  142.4249  162.4230 H   0  0  0  0  0  0  0  0  0  0  0  0
  153.5358  142.8132  162.3647 H   0  0  0  0  0  0  0  0  0  0  0  0
  152.0601  145.3552  161.8263 H   0  0  0  0  0  0  0  0  0  0  0  0
  151.6941  146.7110  159.7500 H   0  0  0  0  0  0  0  0  0  0  0  0
  151.8487  145.6354  157.5118 H   0  0  0  0  0  0  0  0  0  0  0  0
  152.3675  143.1948  157.3175 H   0  0  0  0  0  0  0  0  0  0  0  0
  154.3657  138.9366  163.0974 H   0  0  0  0  0  0  0  0  0  0  0  0
  1  2  2  0  0  0  0
  2 18  1  0  0  0  0
  2  3  1  0  0  0  0
  3  4  1  0  0  0  0
  4  5  2  0  0  0  0
  4  6  1  0  0  0  0
  6  7  1  0  0  0  0
  6 17  1  0  0  0  0
  7  8  1  0  0  0  0
  7 20  1  0  0  0  0
  7 21  1  0  0  0  0
  8 16  1  0  0  0  0
  8  9  1  0  0  0  0
  8 22  1  0  0  0  0
  9 10  1  0  0  0  0
  9 23  1  0  0  0  0
  9 24  1  0  0  0  0
 10 15  2  0  0  0  0
 10 11  1  0  0  0  0
 11 12  2  0  0  0  0
 11 25  1  0  0  0  0
 12 13  1  0  0  0  0
 12 26  1  0  0  0  0
 13 14  2  0  0  0  0
 13 27  1  0  0  0  0
 14 15  1  0  0  0  0
 14 28  1  0  0  0  0
 15 16  1  0  0  0  0
 17 18  2  0  0  0  0
 17 29  1  0  0  0  0
 18 19  1  0  0  0  0
M  CHG  1   3  -1
M  END
> <s_m_source_file>
AV-unprocessed.smi

> <i_m_source_file_index>
2748

> <i_lp_mmshare_version>
43012

> <i_f3d_flags>
0

> <s_epik_input>
Tz1jMVtuSF1jKD1PKW4oW2NIXWMxQ2wpW0NIMl1bQ0BIXShbQ0gyXTIpT2MoYzIzKVtjSF1bY0hdW2NIXVtjSF0z

> <s_epik_cmdline>
J2VwaWtfcHl0aG9uJywgJy1waCcsICc3LjAnLCAnLXRuJywgJzgnLCAnLW1hJywgJzIwMCcsICctbWV0YWxfYmluZGluZycsICctaW1hZScsICc8aW5maWxlLm1hZT4nLCAnLW9tYWUnLCAnPG91dGZpbGUubWFlPic=

> <r_lp_tautomer_probability>
1

> <r_epik_Ionization_Penalty>
2.00749

> <r_epik_Ionization_Penalty_Charging>
2.26533e-08

> <r_epik_Ionization_Penalty_Neutral>
2.00749

> <r_epik_State_Penalty>
2.13675

> <r_epik_Charging_Adjusted_Penalty>
2.13675

> <i_epik_Tot_Q>
-1

> <i_epik_Tot_abs_Q>
1

> <r_epik_Metal_State_Penalty>
0.0208594

> <b_epik_Metal_Only>
0

> <s_lp_Force_Field>
OPLS_2005

> <r_lp_Energy>
29.9215

> <b_lp_Chiralities_Consistent>
1

> <s_lp_Variant>
AV-unprocessed.smi:2748-4

> <Gold.Version>
5.8.1

> <Gold.Id.Protein>
6NUR|6NUR_protein|mol2

> <Gold.PLP.Fitness>
49.8680

> <Gold.PLP.PLP>
-45.0657

> <Gold.PLP.part.hbond>
-2.0000

> <Gold.PLP.part.metal>
0.0000

> <Gold.PLP.part.buried>
-4.6035

> <Gold.PLP.part.nonpolar>
-39.0972

> <Gold.PLP.part.repulsive>
0.0000

> <Gold.PLP.ligand.clash>
0.0000

> <Gold.PLP.ligand.torsion>
0.5993

> <Gold.PLP.Chemscore.Hbond>
2.0000

> <Gold.PLP.Chemscore.CHOScore>
0.0000

> <Gold.PLP.Chemscore.Metal>
0.0000

> <Gold.Chemscore.Hbonds>
donor molecule, donor type, donor heavy atom, donor atom, acceptor molecule, acceptor atom, score
      P1  H  6896  6908       L1     1  0.98
      P1  H  7997  8008       L1     5  1.00

> <Gold.PLP.Chemscore.Internal.Correction>
0.0009

> <Gold.Rescore>
     Score         DG    S(hbond)    S(metal)    S(lipo)     H(rot)  DE(clash)    DE(int)     intcor
     20.90     -22.89       1.85        0.00     124.27       1.29       0.06       1.93       ----

> <Gold.Chemscore.Fitness>
20.9009

> <Gold.Chemscore.DG>
-22.8947

> <Gold.Chemscore.ZeroCoef>
-5.4800

> <Gold.Chemscore.Hbond>
1.8528

> <Gold.Chemscore.Metal>
0.0000

> <Gold.Chemscore.Lipo>
124.2682

> <Gold.Chemscore.Internal_Hbond>
0.0000

> <Gold.Chemscore.DEClash>
0.0621

> <Gold.Chemscore.DEInternal>
1.9316

> <Gold.Chemscore.Rot>
1.2942

> <Gold.Chemscore.Internal.Correction>
   9.000000E+99

> <Gold.Chemscore.Hbonds>
donor molecule, donor type, donor heavy atom, donor atom, acceptor molecule, acceptor atom, score
      P1  H  6896  6908       L1     1  0.59
      P1  H  7997  8008       L1     5  1.00

> <Gold.Chemscore.Hbond.Weighted>
-6.1884

> <Gold.Chemscore.Metal.Weighted>
-0.0000

> <Gold.Chemscore.Lipo.Weighted>
-14.5394

> <Gold.Chemscore.Internal_Hbond.Weighted>
0.0000

> <Gold.Chemscore.DEClash.Weighted>
0.0621

> <Gold.Chemscore.DEInternal.Weighted>
1.9316

> <Gold.Chemscore.Rot.Weighted>
3.3131

> <Gold.Chemscore.Internal.Correction.Weighted>
   9.000000E+99

> <Gold.Protein.RotatedTorsions>
[ 6907 6896 6895 6894 ] final  -55.70 input  -60.11 | X-H torsion
[ 7974 7965 7964 7962 ] final   -8.70 input  175.53 | X-H torsion
[ 8008 7997 7996 7995 ] final -105.12 input   59.86 | X-H torsion
[ 10167 10162 10161 10158 ] final    5.07 input  -65.29 | X-H torsion
[ 10718 10713 10712 10709 ] final   71.39 input   66.30 | X-H torsion
[ 10763 10752 10751 10750 ] final  114.12 input  -60.55 | X-H torsion
[ 11005 11000 10999 10996 ] final  -52.38 input  -57.11 | X-H torsion

> <Gold.Protein.ActiveResidues>
 VAL166  LYS551  ARG553  GLY616  TRP617  ASP618  TYR619  PRO620  LYS621  CYS622 
 ASP623  PHE694  ASN695  SER759  ASP760  ASP761  ALA762  ILE779  LEU786  VAL792 
 PHE793  MET794  SER795  GLU796  ALA797  LYS798  CYS799  TRP800  GLU811  SER814 

> <Gold.Protein.RotatedAtoms>
  150.8229  134.7446  159.6787 H   0  0  0  0  0  0  0  0  0  0  0  0  # atno 6907 bound_to 6896
  152.4343  134.5713  159.9932 H   0  0  0  0  0  0  0  0  0  0  0  0  # atno 6908 bound_to 6896
  151.5893  133.3331  159.3060 H   0  0  0  0  0  0  0  0  0  0  0  0  # atno 6909 bound_to 6896
  146.2273  140.2507  142.8347 H   0  0  0  0  0  0  0  0  0  0  0  0  # atno 7974 bound_to 7965
  154.8953  140.0414  157.1862 H   0  0  0  0  0  0  0  0  0  0  0  0  # atno 8008 bound_to 7997
  154.8499  140.2927  155.5584 H   0  0  0  0  0  0  0  0  0  0  0  0  # atno 8009 bound_to 7997
  156.2995  140.2467  156.3456 H   0  0  0  0  0  0  0  0  0  0  0  0  # atno 8010 bound_to 7997
  140.6501  143.7565  150.7562 H   0  0  0  0  0  0  0  0  0  0  0  0  # atno 10167 bound_to 10162
  157.6449  130.9526  150.0783 H   0  0  0  0  0  0  0  0  0  0  0  0  # atno 10718 bound_to 10713
  153.5025  135.3635  155.2547 H   0  0  0  0  0  0  0  0  0  0  0  0  # atno 10763 bound_to 10752
  154.8747  135.4003  154.3462 H   0  0  0  0  0  0  0  0  0  0  0  0  # atno 10764 bound_to 10752
  153.4100  135.7077  153.6432 H   0  0  0  0  0  0  0  0  0  0  0  0  # atno 10765 bound_to 10752
  141.0921  133.6631  156.4016 H   0  0  0  0  0  0  0  0  0  0  0  0  # atno 11005 bound_to 11000
  144.9414  140.8082  143.5628 LP  0  0  0  0  0  0  0  0  0  0  0  0  # atno 17320 bound_to 7965
  145.2459  139.2052  143.4968 LP  0  0  0  0  0  0  0  0  0  0  0  0  # atno 17321 bound_to 7965
  140.1214  143.4608  152.2311 LP  0  0  0  0  0  0  0  0  0  0  0  0  # atno 17342 bound_to 10162
  139.5716  144.7465  151.3877 LP  0  0  0  0  0  0  0  0  0  0  0  0  # atno 17343 bound_to 10162
  156.1766  130.3648  149.9091 LP  0  0  0  0  0  0  0  0  0  0  0  0  # atno 17370 bound_to 10713
  156.7054  130.8949  151.3604 LP  0  0  0  0  0  0  0  0  0  0  0  0  # atno 17371 bound_to 10713
  140.5227  134.6289  157.5323 LP  0  0  0  0  0  0  0  0  0  0  0  0  # atno 17394 bound_to 11000
  139.9749  134.7231  155.9969 LP  0  0  0  0  0  0  0  0  0  0  0  0  # atno 17395 bound_to 11000

$$$$
