AV-unprocessed.smi:1121|AV-procd|sdf|4826|dock3
  -GOLD-   22720 3383D 1   1.00000     0.00000
 Structure written by MMmdl.
 46 48  0  0  0  0  0  0  0  0  1 V2000
  145.1061  137.8040  153.0700 O   0  0  0  0  0  0  0  0  0  0  0  0
  146.2265  137.3944  152.7663 C   0  0  0  0  0  0  0  0  0  0  0  0
  147.3726  138.0742  152.9344 N   0  0  0  0  0  0  0  0  0  0  0  0
  147.5556  139.3547  153.5296 C   0  0  0  0  0  0  0  0  0  0  0  0
  146.5789  140.3760  153.4423 C   0  0  0  0  0  0  0  0  0  0  0  0
  146.8470  141.6328  154.0134 C   0  0  0  0  0  0  0  0  0  0  0  0
  148.0889  141.8290  154.6421 C   0  0  0  0  0  0  0  0  0  0  0  0
  149.0352  140.8715  154.7213 N   0  0  0  0  0  0  0  0  0  0  0  0
  148.7843  139.6555  154.1773 C   0  0  0  0  0  0  0  0  0  0  0  0
  149.7876  138.6726  154.2964 N   0  0  0  0  0  0  0  0  0  0  0  0
  151.1386  139.1293  154.6066 C   0  0  0  0  0  0  0  0  0  0  0  0
  152.1300  137.9612  154.4693 C   0  0  0  0  0  0  0  0  0  0  0  0
  151.7157  136.8828  155.3036 O   0  0  0  0  0  0  0  0  0  0  0  0
  150.4256  136.3938  154.9470 C   0  0  0  0  0  0  0  0  0  0  0  0
  149.3864  137.5184  155.0922 C   0  0  0  0  0  0  0  0  0  0  0  0
  146.4567  136.1840  152.2381 N   0  0  0  0  0  0  0  0  0  0  0  0
  145.4363  135.1810  151.9482 C   0  0  0  0  0  0  0  0  0  0  0  0
  145.9505  133.7661  152.2890 C   0  0  0  0  0  0  0  0  0  0  0  0
  144.9228  132.6867  151.9130 C   0  0  0  0  0  0  0  0  0  0  0  0
  144.5231  132.7872  150.4327 C   0  0  0  0  0  0  0  0  0  0  0  0
  144.0019  134.1925  150.0943 C   0  0  0  0  0  0  0  0  0  0  0  0
  145.0314  135.2723  150.4646 C   0  0  0  0  0  0  0  0  0  0  0  0
  148.2225  137.5736  152.7185 H   0  0  0  0  0  0  0  0  0  0  0  0
  145.6402  140.2235  152.9323 H   0  0  0  0  0  0  0  0  0  0  0  0
  146.1204  142.4301  153.9624 H   0  0  0  0  0  0  0  0  0  0  0  0
  148.3316  142.7817  155.0891 H   0  0  0  0  0  0  0  0  0  0  0  0
  151.4205  139.9407  153.9345 H   0  0  0  0  0  0  0  0  0  0  0  0
  151.1713  139.5214  155.6241 H   0  0  0  0  0  0  0  0  0  0  0  0
  152.1972  137.6272  153.4326 H   0  0  0  0  0  0  0  0  0  0  0  0
  153.1291  138.2782  154.7678 H   0  0  0  0  0  0  0  0  0  0  0  0
  150.4402  136.0094  153.9259 H   0  0  0  0  0  0  0  0  0  0  0  0
  150.1692  135.5581  155.5980 H   0  0  0  0  0  0  0  0  0  0  0  0
  149.3043  137.8179  156.1378 H   0  0  0  0  0  0  0  0  0  0  0  0
  148.4042  137.1557  154.7887 H   0  0  0  0  0  0  0  0  0  0  0  0
  147.4109  135.9342  152.0234 H   0  0  0  0  0  0  0  0  0  0  0  0
  144.5523  135.3909  152.5539 H   0  0  0  0  0  0  0  0  0  0  0  0
  146.8849  133.5751  151.7593 H   0  0  0  0  0  0  0  0  0  0  0  0
  146.1798  133.6932  153.3527 H   0  0  0  0  0  0  0  0  0  0  0  0
  145.3299  131.6969  152.1216 H   0  0  0  0  0  0  0  0  0  0  0  0
  144.0358  132.7941  152.5385 H   0  0  0  0  0  0  0  0  0  0  0  0
  145.3841  132.5550  149.8044 H   0  0  0  0  0  0  0  0  0  0  0  0
  143.7613  132.0420  150.2021 H   0  0  0  0  0  0  0  0  0  0  0  0
  143.7638  134.2549  149.0321 H   0  0  0  0  0  0  0  0  0  0  0  0
  143.0706  134.3763  150.6315 H   0  0  0  0  0  0  0  0  0  0  0  0
  144.6209  136.2594  150.2482 H   0  0  0  0  0  0  0  0  0  0  0  0
  145.9135  135.1596  149.8325 H   0  0  0  0  0  0  0  0  0  0  0  0
  1  2  2  0  0  0  0
  2  3  1  0  0  0  0
  2 16  1  0  0  0  0
  3  4  1  0  0  0  0
  3 23  1  0  0  0  0
  4  9  1  0  0  0  0
  4  5  2  0  0  0  0
  5  6  1  0  0  0  0
  5 24  1  0  0  0  0
  6  7  2  0  0  0  0
  6 25  1  0  0  0  0
  7  8  1  0  0  0  0
  7 26  1  0  0  0  0
  8  9  2  0  0  0  0
  9 10  1  0  0  0  0
 10 15  1  0  0  0  0
 10 11  1  0  0  0  0
 11 12  1  0  0  0  0
 11 27  1  0  0  0  0
 11 28  1  0  0  0  0
 12 13  1  0  0  0  0
 12 29  1  0  0  0  0
 12 30  1  0  0  0  0
 13 14  1  0  0  0  0
 14 15  1  0  0  0  0
 14 31  1  0  0  0  0
 14 32  1  0  0  0  0
 15 33  1  0  0  0  0
 15 34  1  0  0  0  0
 16 17  1  0  0  0  0
 16 35  1  0  0  0  0
 17 22  1  0  0  0  0
 17 18  1  0  0  0  0
 17 36  1  0  0  0  0
 18 19  1  0  0  0  0
 18 37  1  0  0  0  0
 18 38  1  0  0  0  0
 19 20  1  0  0  0  0
 19 39  1  0  0  0  0
 19 40  1  0  0  0  0
 20 21  1  0  0  0  0
 20 41  1  0  0  0  0
 20 42  1  0  0  0  0
 21 22  1  0  0  0  0
 21 43  1  0  0  0  0
 21 44  1  0  0  0  0
 22 45  1  0  0  0  0
 22 46  1  0  0  0  0
M  END
> <s_m_source_file>
AV-unprocessed.smi

> <i_m_source_file_index>
1121

> <i_lp_mmshare_version>
43012

> <i_f3d_flags>
0

> <s_epik_input>
W0NIMl0xW0NIMl1bQ0gyXVtDSDJdW0NIMl1bQ0hdMVtOSF1DKD1PKVtOSF1jMltjSF1bY0hdW2NIXW5jMk4zW0NIMl1bQ0gyXU9bQ0gyXVtDSDJdMw==

> <s_epik_cmdline>
J2VwaWtfcHl0aG9uJywgJy1waCcsICc3LjAnLCAnLXRuJywgJzgnLCAnLW1hJywgJzIwMCcsICctbWV0YWxfYmluZGluZycsICctaW1hZScsICc8aW5maWxlLm1hZT4nLCAnLW9tYWUnLCAnPG91dGZpbGUubWFlPic=

> <r_lp_tautomer_probability>
1

> <r_epik_Ionization_Penalty>
0.00218153

> <r_epik_Ionization_Penalty_Charging>
0

> <r_epik_Ionization_Penalty_Neutral>
0.00218153

> <r_epik_State_Penalty>
0.00146907

> <r_epik_Charging_Adjusted_Penalty>
0.00146907

> <i_epik_Tot_Q>
0

> <i_epik_Tot_abs_Q>
0

> <r_epik_Metal_State_Penalty>
-0

> <b_epik_Metal_Only>
0

> <s_lp_Force_Field>
OPLS_2005

> <r_lp_Energy>
26.2081

> <b_lp_Chiralities_Consistent>
1

> <s_lp_Variant>
AV-unprocessed.smi:1121-1

> <Gold.Version>
5.8.1

> <Gold.Id.Protein>
6NUR|6NUR_protein|mol2

> <Gold.PLP.Fitness>
43.4090

> <Gold.PLP.PLP>
-32.9756

> <Gold.PLP.part.hbond>
-2.7925

> <Gold.PLP.part.metal>
0.0000

> <Gold.PLP.part.buried>
1.1452

> <Gold.PLP.part.nonpolar>
-32.3571

> <Gold.PLP.part.repulsive>
0.7066

> <Gold.PLP.ligand.clash>
0.0000

> <Gold.PLP.ligand.torsion>
0.7691

> <Gold.PLP.Chemscore.Hbond>
2.9193

> <Gold.PLP.Chemscore.CHOScore>
1.0000

> <Gold.PLP.Chemscore.Metal>
0.0000

> <Gold.Chemscore.Hbonds>
donor molecule, donor type, donor heavy atom, donor atom, acceptor molecule, acceptor atom, score
      L1  H     3    23       P1  7948  0.94
      L1  H    16    35       P1  7948  1.00
      P1  H 10752 10763       L1    13  0.95
      L1  C     7    26       P1  8028  1.00

> <Gold.PLP.Chemscore.Internal.Correction>
0.2138

> <Gold.Rescore>
     Score         DG    S(hbond)    S(metal)    S(lipo)     H(rot)  DE(clash)    DE(int)     intcor
     15.90     -19.47       1.95        0.00      89.83       1.18       0.57       3.00       ----

> <Gold.Chemscore.Fitness>
15.9039

> <Gold.Chemscore.DG>
-19.4731

> <Gold.Chemscore.ZeroCoef>
-5.4800

> <Gold.Chemscore.Hbond>
1.9505

> <Gold.Chemscore.Metal>
0.0000

> <Gold.Chemscore.Lipo>
89.8349

> <Gold.Chemscore.Internal_Hbond>
0.0000

> <Gold.Chemscore.DEClash>
0.5732

> <Gold.Chemscore.DEInternal>
2.9959

> <Gold.Chemscore.Rot>
1.1844

> <Gold.Chemscore.Internal.Correction>
   9.000000E+99

> <Gold.Chemscore.Hbonds>
donor molecule, donor type, donor heavy atom, donor atom, acceptor molecule, acceptor atom, score
      L1  H     3    23       P1  7948  0.91
      L1  H    16    35       P1  7948  0.93
      P1  H 10752 10763       L1    13  0.13

> <Gold.Chemscore.Hbond.Weighted>
-6.5146

> <Gold.Chemscore.Metal.Weighted>
-0.0000

> <Gold.Chemscore.Lipo.Weighted>
-10.5107

> <Gold.Chemscore.Internal_Hbond.Weighted>
0.0000

> <Gold.Chemscore.DEClash.Weighted>
0.5732

> <Gold.Chemscore.DEInternal.Weighted>
2.9959

> <Gold.Chemscore.Rot.Weighted>
3.0321

> <Gold.Chemscore.Internal.Correction.Weighted>
   9.000000E+99

> <Gold.Protein.RotatedTorsions>
[ 6907 6896 6895 6894 ] final -139.97 input  -60.11 | X-H torsion
[ 7974 7965 7964 7962 ] final -165.71 input  175.53 | X-H torsion
[ 8008 7997 7996 7995 ] final  -51.31 input   59.86 | X-H torsion
[ 10167 10162 10161 10158 ] final   94.07 input  -65.29 | X-H torsion
[ 10718 10713 10712 10709 ] final   36.69 input   66.30 | X-H torsion
[ 10763 10752 10751 10750 ] final   68.82 input  -60.55 | X-H torsion
[ 11005 11000 10999 10996 ] final  132.77 input  -57.11 | X-H torsion

> <Gold.Protein.ActiveResidues>
 VAL166  LYS551  ARG553  GLY616  TRP617  ASP618  TYR619  PRO620  LYS621  CYS622 
 ASP623  PHE694  ASN695  SER759  ASP760  ASP761  ALA762  ILE779  LEU786  VAL792 
 PHE793  MET794  SER795  GLU796  ALA797  LYS798  CYS799  TRP800  GLU811  SER814 

> <Gold.Protein.RotatedAtoms>
  151.0547  133.5594  159.2639 H   0  0  0  0  0  0  0  0  0  0  0  0  # atno 6907 bound_to 6896
  151.2592  135.0647  159.9101 H   0  0  0  0  0  0  0  0  0  0  0  0  # atno 6908 bound_to 6896
  152.5388  134.0295  159.8072 H   0  0  0  0  0  0  0  0  0  0  0  0  # atno 6909 bound_to 6896
  144.7263  140.2774  143.6241 H   0  0  0  0  0  0  0  0  0  0  0  0  # atno 7974 bound_to 7965
  154.4080  140.1251  156.4809 H   0  0  0  0  0  0  0  0  0  0  0  0  # atno 8008 bound_to 7997
  155.7086  140.3494  155.4944 H   0  0  0  0  0  0  0  0  0  0  0  0  # atno 8009 bound_to 7997
  155.9321  140.1071  157.1114 H   0  0  0  0  0  0  0  0  0  0  0  0  # atno 8010 bound_to 7997
  139.8119  144.6770  150.9630 H   0  0  0  0  0  0  0  0  0  0  0  0  # atno 10167 bound_to 10162
  157.3379  130.7532  149.6892 H   0  0  0  0  0  0  0  0  0  0  0  0  # atno 10718 bound_to 10713
  153.0255  135.5233  154.7194 H   0  0  0  0  0  0  0  0  0  0  0  0  # atno 10763 bound_to 10752
  154.6253  135.2894  155.0281 H   0  0  0  0  0  0  0  0  0  0  0  0  # atno 10764 bound_to 10752
  154.1253  135.6601  153.4963 H   0  0  0  0  0  0  0  0  0  0  0  0  # atno 10765 bound_to 10752
  139.9811  134.9548  156.9630 H   0  0  0  0  0  0  0  0  0  0  0  0  # atno 11005 bound_to 11000
  145.7983  139.1954  143.2063 LP  0  0  0  0  0  0  0  0  0  0  0  0  # atno 17320 bound_to 7965
  146.0698  140.7881  142.9694 LP  0  0  0  0  0  0  0  0  0  0  0  0  # atno 17321 bound_to 7965
  140.7817  143.4177  151.0891 LP  0  0  0  0  0  0  0  0  0  0  0  0  # atno 17342 bound_to 10162
  139.7843  143.8310  152.3142 LP  0  0  0  0  0  0  0  0  0  0  0  0  # atno 17343 bound_to 10162
  155.9704  130.4176  150.4287 LP  0  0  0  0  0  0  0  0  0  0  0  0  # atno 17370 bound_to 10713
  157.2330  131.0508  151.2481 LP  0  0  0  0  0  0  0  0  0  0  0  0  # atno 17371 bound_to 10713
  140.5095  134.1016  155.7267 LP  0  0  0  0  0  0  0  0  0  0  0  0  # atno 17394 bound_to 11000
  141.1482  133.9016  157.2162 LP  0  0  0  0  0  0  0  0  0  0  0  0  # atno 17395 bound_to 11000

$$$$
