AV-unprocessed.smi:97|AV-procd|sdf|861|dock7
  -GOLD-   2262017303D 1   1.00000     0.00000
 Structure written by MMmdl.
 46 49  0  0  0  0  0  0  0  0  1 V2000
  150.8894  136.6050  156.4093 O   0  0  0  0  0  0  0  0  0  0  0  0
  150.5291  136.7606  155.2413 C   0  0  0  0  0  0  0  0  0  0  0  0
  151.1034  137.8939  154.3778 C   0  0  0  0  0  0  0  0  0  0  0  0
  150.6512  139.2385  154.7975 N   0  0  0  0  0  0  0  0  0  0  0  0
  149.3490  139.6586  154.4279 C   0  0  0  0  0  0  0  0  0  0  0  0
  148.6125  138.9367  153.7538 O   0  0  0  0  0  0  0  0  0  0  0  0
  148.9530  140.9774  154.9082 C   0  0  0  0  0  0  0  0  0  0  0  0
  147.7292  141.4519  154.6201 F   0  0  0  0  0  0  0  0  0  0  0  0
  149.7967  141.7301  155.6436 C   0  0  0  0  0  0  0  0  0  0  0  0
  151.0720  141.3187  155.9781 N   0  0  0  0  0  0  0  0  0  0  0  0
  151.9298  142.2081  156.8481 C   0  0  2  0  0  0  0  0  0  0  0  0
  152.2489  141.5998  158.2269 C   0  0  0  0  0  0  0  0  0  0  0  0
  151.6909  142.6329  159.1921 C   0  0  0  0  0  0  0  0  0  0  0  0
  151.6280  143.8951  158.3393 C   0  0  0  0  0  0  0  0  0  0  0  0
  151.2532  143.4087  157.0599 O   0  0  0  0  0  0  0  0  0  0  0  0
  151.5172  140.0357  155.5838 C   0  0  0  0  0  0  0  0  0  0  0  0
  152.6258  139.6174  155.9212 O   0  0  0  0  0  0  0  0  0  0  0  0
  149.6250  135.9711  154.6429 N   0  0  0  0  0  0  0  0  0  0  0  0
  148.9244  134.8677  155.2916 C   0  0  0  0  0  0  0  0  0  0  0  0
  147.9075  134.1703  154.3978 C   0  0  0  0  0  0  0  0  0  0  0  0
  146.8364  134.9210  153.8459 C   0  0  0  0  0  0  0  0  0  0  0  0
  145.8733  134.3076  153.0128 C   0  0  0  0  0  0  0  0  0  0  0  0
  146.0104  132.9342  152.7553 C   0  0  0  0  0  0  0  0  0  0  0  0
  147.0449  132.1974  153.2929 C   0  0  0  0  0  0  0  0  0  0  0  0
  148.0136  132.7828  154.1238 C   0  0  0  0  0  0  0  0  0  0  0  0
  146.9412  130.9056  152.8895 O   0  0  0  0  0  0  0  0  0  0  0  0
  145.8011  130.8494  152.0717 C   0  0  0  0  0  0  0  0  0  0  0  0
  145.2246  132.1281  151.9968 O   0  0  0  0  0  0  0  0  0  0  0  0
  152.1916  137.8162  154.3901 H   0  0  0  0  0  0  0  0  0  0  0  0
  150.8378  137.7101  153.3352 H   0  0  0  0  0  0  0  0  0  0  0  0
  149.4522  142.6972  155.9794 H   0  0  0  0  0  0  0  0  0  0  0  0
  152.8374  142.4045  156.2754 H   0  0  0  0  0  0  0  0  0  0  0  0
  151.8111  140.6103  158.3607 H   0  0  0  0  0  0  0  0  0  0  0  0
  153.3314  141.5147  158.3261 H   0  0  0  0  0  0  0  0  0  0  0  0
  150.6872  142.3483  159.5088 H   0  0  0  0  0  0  0  0  0  0  0  0
  152.3034  142.7555  160.0855 H   0  0  0  0  0  0  0  0  0  0  0  0
  150.9118  144.6247  158.7174 H   0  0  0  0  0  0  0  0  0  0  0  0
  152.6077  144.3718  158.2768 H   0  0  0  0  0  0  0  0  0  0  0  0
  149.3878  136.1615  153.6801 H   0  0  0  0  0  0  0  0  0  0  0  0
  149.6651  134.1321  155.6053 H   0  0  0  0  0  0  0  0  0  0  0  0
  148.4407  135.2259  156.2021 H   0  0  0  0  0  0  0  0  0  0  0  0
  146.7531  135.9767  154.0585 H   0  0  0  0  0  0  0  0  0  0  0  0
  145.0590  134.8760  152.5883 H   0  0  0  0  0  0  0  0  0  0  0  0
  148.8126  132.1840  154.5354 H   0  0  0  0  0  0  0  0  0  0  0  0
  146.0845  130.5171  151.0725 H   0  0  0  0  0  0  0  0  0  0  0  0
  145.0818  130.1481  152.4958 H   0  0  0  0  0  0  0  0  0  0  0  0
  1  2  2  0  0  0  0
  2  3  1  0  0  0  0
  2 18  1  0  0  0  0
  3  4  1  0  0  0  0
  3 29  1  0  0  0  0
  3 30  1  0  0  0  0
  4 16  1  0  0  0  0
  4  5  1  0  0  0  0
  5  6  2  0  0  0  0
  5  7  1  0  0  0  0
  7  8  1  0  0  0  0
  7  9  2  0  0  0  0
  9 10  1  0  0  0  0
  9 31  1  0  0  0  0
 10 11  1  0  0  0  0
 10 16  1  0  0  0  0
 11 15  1  0  0  0  0
 11 12  1  0  0  0  0
 11 32  1  0  0  0  0
 12 13  1  0  0  0  0
 12 33  1  0  0  0  0
 12 34  1  0  0  0  0
 13 14  1  0  0  0  0
 13 35  1  0  0  0  0
 13 36  1  0  0  0  0
 14 15  1  0  0  0  0
 14 37  1  0  0  0  0
 14 38  1  0  0  0  0
 16 17  2  0  0  0  0
 18 19  1  0  0  0  0
 18 39  1  0  0  0  0
 19 20  1  0  0  0  0
 19 40  1  0  0  0  0
 19 41  1  0  0  0  0
 20 25  1  0  0  0  0
 20 21  2  0  0  0  0
 21 22  1  0  0  0  0
 21 42  1  0  0  0  0
 22 23  2  0  0  0  0
 22 43  1  0  0  0  0
 23 28  1  0  0  0  0
 23 24  1  0  0  0  0
 24 25  2  0  0  0  0
 24 26  1  0  0  0  0
 25 44  1  0  0  0  0
 26 27  1  0  0  0  0
 27 28  1  0  0  0  0
 27 45  1  0  0  0  0
 27 46  1  0  0  0  0
M  END
> <s_m_source_file>
AV-unprocessed.smi

> <i_m_source_file_index>
97

> <i_lp_mmshare_version>
43012

> <i_f3d_flags>
0

> <s_epik_input>
TzFbQ0gyXU9jKGMxMilbY0hdYyhbY0hdW2NIXTIpW0NIMl1bTkhdQyg9TylbQ0gyXW4zYyg9TyljKEYpW2NIXW4oYzM9TylbQ0BASF00W0NIMl1bQ0gyXVtDSDJdTzQ=

> <s_epik_cmdline>
J2VwaWtfcHl0aG9uJywgJy1waCcsICc3LjAnLCAnLXRuJywgJzgnLCAnLW1hJywgJzIwMCcsICctbWV0YWxfYmluZGluZycsICctaW1hZScsICc8aW5maWxlLm1hZT4nLCAnLW9tYWUnLCAnPG91dGZpbGUubWFlPic=

> <r_lp_tautomer_probability>
1

> <r_epik_Ionization_Penalty>
3.79042e-08

> <r_epik_Ionization_Penalty_Charging>
3.81036e-09

> <r_epik_Ionization_Penalty_Neutral>
3.40938e-08

> <r_epik_State_Penalty>
-0

> <r_epik_Charging_Adjusted_Penalty>
3.81036e-09

> <i_epik_Tot_Q>
0

> <i_epik_Tot_abs_Q>
0

> <r_epik_Metal_State_Penalty>
-0

> <b_epik_Metal_Only>
0

> <s_epik_Chemistry_Notes>
This compound contains an acetal/aminal-like group ( X-CH(R)-Y where X, Y are N, S, or O) that may be acid/base labile, releasing an aldehyde.

> <s_lp_Force_Field>
OPLS_2005

> <r_lp_Energy>
33.0069

> <b_lp_Chiralities_Consistent>
1

> <s_lp_Variant>
AV-unprocessed.smi:97-1

> <Gold.Version>
5.8.1

> <Gold.Id.Protein>
6NUR|6NUR_protein|mol2

> <Gold.PLP.Fitness>
50.2955

> <Gold.PLP.PLP>
-42.0314

> <Gold.PLP.part.hbond>
-2.0000

> <Gold.PLP.part.metal>
0.0000

> <Gold.PLP.part.buried>
-6.6077

> <Gold.PLP.part.nonpolar>
-35.8346

> <Gold.PLP.part.repulsive>
2.6065

> <Gold.PLP.ligand.clash>
0.0000

> <Gold.PLP.ligand.torsion>
0.3916

> <Gold.PLP.Chemscore.Hbond>
2.0000

> <Gold.PLP.Chemscore.CHOScore>
1.0000

> <Gold.PLP.Chemscore.Metal>
0.0000

> <Gold.Chemscore.Hbonds>
donor molecule, donor type, donor heavy atom, donor atom, acceptor molecule, acceptor atom, score
      L1  H    18    39       P1  7948  1.00
      P1  H  7997  8010       L1    17  1.00
      L1  C     9    31       P1  8028  1.00

> <Gold.PLP.Chemscore.Internal.Correction>
0.0472

> <Gold.Rescore>
     Score         DG    S(hbond)    S(metal)    S(lipo)     H(rot)  DE(clash)    DE(int)     intcor
     11.99     -14.06       1.92        0.00      74.99       2.58       1.56       0.51       ----

> <Gold.Chemscore.Fitness>
11.9890

> <Gold.Chemscore.DG>
-14.0637

> <Gold.Chemscore.ZeroCoef>
-5.4800

> <Gold.Chemscore.Hbond>
1.9206

> <Gold.Chemscore.Metal>
0.0000

> <Gold.Chemscore.Lipo>
74.9911

> <Gold.Chemscore.Internal_Hbond>
0.0000

> <Gold.Chemscore.DEClash>
1.5611

> <Gold.Chemscore.DEInternal>
0.5136

> <Gold.Chemscore.Rot>
2.5801

> <Gold.Chemscore.Internal.Correction>
   9.000000E+99

> <Gold.Chemscore.Hbonds>
donor molecule, donor type, donor heavy atom, donor atom, acceptor molecule, acceptor atom, score
      L1  H    18    39       P1  7948  0.74
      P1  H  7997  8010       L1    17  1.00

> <Gold.Chemscore.Hbond.Weighted>
-6.4147

> <Gold.Chemscore.Metal.Weighted>
-0.0000

> <Gold.Chemscore.Lipo.Weighted>
-8.7740

> <Gold.Chemscore.Internal_Hbond.Weighted>
0.0000

> <Gold.Chemscore.DEClash.Weighted>
1.5611

> <Gold.Chemscore.DEInternal.Weighted>
0.5136

> <Gold.Chemscore.Rot.Weighted>
6.6050

> <Gold.Chemscore.Internal.Correction.Weighted>
   9.000000E+99

> <Gold.Protein.RotatedTorsions>
[ 6907 6896 6895 6894 ] final  -15.74 input  -60.11 | X-H torsion
[ 7974 7965 7964 7962 ] final  -34.92 input  175.53 | X-H torsion
[ 8008 7997 7996 7995 ] final   75.76 input   59.86 | X-H torsion
[ 10167 10162 10161 10158 ] final  161.16 input  -65.29 | X-H torsion
[ 10718 10713 10712 10709 ] final   -5.81 input   66.30 | X-H torsion
[ 10763 10752 10751 10750 ] final   67.23 input  -60.55 | X-H torsion
[ 11005 11000 10999 10996 ] final   46.23 input  -57.11 | X-H torsion

> <Gold.Protein.ActiveResidues>
 VAL166  LYS551  ARG553  GLY616  TRP617  ASP618  TYR619  PRO620  LYS621  CYS622 
 ASP623  PHE694  ASN695  SER759  ASP760  ASP761  ALA762  ILE779  LEU786  VAL792 
 PHE793  MET794  SER795  GLU796  ALA797  LYS798  CYS799  TRP800  GLU811  SER814 

> <Gold.Protein.RotatedAtoms>
  151.3193  135.0814  159.9299 H   0  0  0  0  0  0  0  0  0  0  0  0  # atno 6907 bound_to 6896
  152.5260  133.9655  159.7747 H   0  0  0  0  0  0  0  0  0  0  0  0  # atno 6908 bound_to 6896
  150.9973  133.6038  159.2730 H   0  0  0  0  0  0  0  0  0  0  0  0  # atno 6909 bound_to 6896
  146.0789  140.6097  142.8917 H   0  0  0  0  0  0  0  0  0  0  0  0  # atno 7974 bound_to 7965
  155.8175  140.3471  155.5494 H   0  0  0  0  0  0  0  0  0  0  0  0  # atno 8008 bound_to 7997
  155.8376  140.0936  157.1774 H   0  0  0  0  0  0  0  0  0  0  0  0  # atno 8009 bound_to 7997
  154.4004  140.1400  156.3677 H   0  0  0  0  0  0  0  0  0  0  0  0  # atno 8010 bound_to 7997
  139.4846  144.4563  151.8764 H   0  0  0  0  0  0  0  0  0  0  0  0  # atno 10167 bound_to 10162
  156.7411  130.5210  149.5824 H   0  0  0  0  0  0  0  0  0  0  0  0  # atno 10718 bound_to 10713
  153.0177  135.5291  154.6948 H   0  0  0  0  0  0  0  0  0  0  0  0  # atno 10763 bound_to 10752
  154.6073  135.2874  155.0473 H   0  0  0  0  0  0  0  0  0  0  0  0  # atno 10764 bound_to 10752
  154.1508  135.6563  153.5015 H   0  0  0  0  0  0  0  0  0  0  0  0  # atno 10765 bound_to 10752
  140.1387  134.4611  155.8465 H   0  0  0  0  0  0  0  0  0  0  0  0  # atno 11005 bound_to 11000
  144.7280  140.4584  143.6959 LP  0  0  0  0  0  0  0  0  0  0  0  0  # atno 17320 bound_to 7965
  145.6254  139.1529  143.2999 LP  0  0  0  0  0  0  0  0  0  0  0  0  # atno 17321 bound_to 7965
  140.4023  144.2477  150.5892 LP  0  0  0  0  0  0  0  0  0  0  0  0  # atno 17342 bound_to 10162
  140.5046  143.2308  151.8628 LP  0  0  0  0  0  0  0  0  0  0  0  0  # atno 17343 bound_to 10162
  156.1464  130.6280  151.0537 LP  0  0  0  0  0  0  0  0  0  0  0  0  # atno 17370 bound_to 10713
  157.6818  131.0836  150.7349 LP  0  0  0  0  0  0  0  0  0  0  0  0  # atno 17371 bound_to 10713
  141.2182  133.6824  156.7207 LP  0  0  0  0  0  0  0  0  0  0  0  0  # atno 17394 bound_to 11000
  140.2749  134.8363  157.3881 LP  0  0  0  0  0  0  0  0  0  0  0  0  # atno 17395 bound_to 11000

$$$$
