AV-unprocessed.smi:1225|AV-procd|sdf|5143|dock2
  -GOLD-   22720 4213D 1   1.00000     0.00000
 Structure written by MMmdl.
 49 51  0  0  0  0  0  0  0  0  2 V2000
  148.7908  130.1889  153.9751 C   0  0  0  0  0  0  0  0  0  0  0  0
  148.5444  131.6582  154.0226 C   0  0  0  0  0  0  0  0  0  0  0  0
  148.1221  132.3718  152.9765 N   0  0  0  0  0  0  0  0  0  0  0  0
  147.9736  133.7268  153.2792 C   0  0  0  0  0  0  0  0  0  0  0  0
  148.2861  134.0423  154.5789 C   0  0  0  0  0  0  0  0  0  0  0  0
  148.2346  135.3857  155.2323 C   0  0  0  0  0  0  0  0  0  0  0  0
  149.2008  136.3490  154.6455 N   0  3  2  0  0  0  0  0  0  0  0  0
  150.6121  135.9880  154.9313 C   0  0  0  0  0  0  0  0  0  0  0  0
  148.8840  137.7551  155.0079 C   0  0  0  0  0  0  0  0  0  0  0  0
  149.8467  138.7676  154.3482 C   0  0  1  0  0  0  0  0  0  0  0  0
  149.4021  139.0250  153.0317 O   0  0  0  0  0  0  0  0  0  0  0  0
  149.9239  140.1164  155.0914 C   0  0  0  0  0  0  0  0  0  0  0  0
  150.9597  140.1354  156.1082 N   0  0  0  0  0  0  0  0  0  0  0  0
  151.9309  139.2209  156.2969 C   0  0  0  0  0  0  0  0  0  0  0  0
  152.7891  139.4405  157.2881 N   0  0  0  0  0  0  0  0  0  0  0  0
  152.3115  140.6288  157.8137 C   0  0  0  0  0  0  0  0  0  0  0  0
  152.7786  141.4063  158.8956 C   0  0  0  0  0  0  0  0  0  0  0  0
  152.1244  142.6037  159.2631 C   0  0  0  0  0  0  0  0  0  0  0  0
  152.6604  143.4086  160.4342 C   0  0  0  0  0  0  0  0  0  0  0  0
  150.9828  143.0396  158.5435 C   0  0  0  0  0  0  0  0  0  0  0  0
  150.2607  144.3201  158.9239 C   0  0  0  0  0  0  0  0  0  0  0  0
  150.5039  142.2755  157.4588 C   0  0  0  0  0  0  0  0  0  0  0  0
  151.1646  141.0869  157.1015 C   0  0  0  0  0  0  0  0  0  0  0  0
  148.7837  132.6273  155.4711 S   0  0  0  0  0  0  0  0  0  0  0  0
  148.5288  129.7862  152.9962 H   0  0  0  0  0  0  0  0  0  0  0  0
  148.1896  129.6853  154.7322 H   0  0  0  0  0  0  0  0  0  0  0  0
  149.8435  129.9815  154.1678 H   0  0  0  0  0  0  0  0  0  0  0  0
  147.6354  134.4004  152.5057 H   0  0  0  0  0  0  0  0  0  0  0  0
  147.2204  135.7725  155.1260 H   0  0  0  0  0  0  0  0  0  0  0  0
  148.4161  135.2938  156.3043 H   0  0  0  0  0  0  0  0  0  0  0  0
  150.8066  135.9979  156.0044 H   0  0  0  0  0  0  0  0  0  0  0  0
  151.3081  136.6780  154.4568 H   0  0  0  0  0  0  0  0  0  0  0  0
  150.8491  134.9934  154.5536 H   0  0  0  0  0  0  0  0  0  0  0  0
  147.8683  138.0064  154.6989 H   0  0  0  0  0  0  0  0  0  0  0  0
  148.8982  137.8448  156.0949 H   0  0  0  0  0  0  0  0  0  0  0  0
  150.8513  138.3513  154.2851 H   0  0  0  0  0  0  0  0  0  0  0  0
  149.2101  138.1999  152.6112 H   0  0  0  0  0  0  0  0  0  0  0  0
  150.1227  140.9271  154.3890 H   0  0  0  0  0  0  0  0  0  0  0  0
  148.9683  140.3423  155.5675 H   0  0  0  0  0  0  0  0  0  0  0  0
  152.0190  138.3491  155.6647 H   0  0  0  0  0  0  0  0  0  0  0  0
  153.6472  141.0735  159.4447 H   0  0  0  0  0  0  0  0  0  0  0  0
  151.8962  143.5220  161.2030 H   0  0  0  0  0  0  0  0  0  0  0  0
  152.9711  144.4002  160.1051 H   0  0  0  0  0  0  0  0  0  0  0  0
  153.5229  142.9223  160.8905 H   0  0  0  0  0  0  0  0  0  0  0  0
  149.4237  144.5191  158.2542 H   0  0  0  0  0  0  0  0  0  0  0  0
  150.9387  145.1722  158.8736 H   0  0  0  0  0  0  0  0  0  0  0  0
  149.8679  144.2487  159.9384 H   0  0  0  0  0  0  0  0  0  0  0  0
  149.6338  142.5957  156.9052 H   0  0  0  0  0  0  0  0  0  0  0  0
  149.0749  136.2899  153.6447 H   0  0  0  0  0  0  0  0  0  0  0  0
  1  2  1  0  0  0  0
  1 25  1  0  0  0  0
  1 26  1  0  0  0  0
  1 27  1  0  0  0  0
  2 24  1  0  0  0  0
  2  3  2  0  0  0  0
  3  4  1  0  0  0  0
  4  5  2  0  0  0  0
  4 28  1  0  0  0  0
  5  6  1  0  0  0  0
  5 24  1  0  0  0  0
  6  7  1  0  0  0  0
  6 29  1  0  0  0  0
  6 30  1  0  0  0  0
  7  8  1  0  0  0  0
  7  9  1  0  0  0  0
  7 49  1  0  0  0  0
  8 31  1  0  0  0  0
  8 32  1  0  0  0  0
  8 33  1  0  0  0  0
  9 10  1  0  0  0  0
  9 34  1  0  0  0  0
  9 35  1  0  0  0  0
 10 11  1  0  0  0  0
 10 12  1  0  0  0  0
 10 36  1  0  0  0  0
 11 37  1  0  0  0  0
 12 13  1  0  0  0  0
 12 38  1  0  0  0  0
 12 39  1  0  0  0  0
 13 23  1  0  0  0  0
 13 14  1  0  0  0  0
 14 15  2  0  0  0  0
 14 40  1  0  0  0  0
 15 16  1  0  0  0  0
 16 23  2  0  0  0  0
 16 17  1  0  0  0  0
 17 18  2  0  0  0  0
 17 41  1  0  0  0  0
 18 19  1  0  0  0  0
 18 20  1  0  0  0  0
 19 42  1  0  0  0  0
 19 43  1  0  0  0  0
 19 44  1  0  0  0  0
 20 21  1  0  0  0  0
 20 22  2  0  0  0  0
 21 45  1  0  0  0  0
 21 46  1  0  0  0  0
 21 47  1  0  0  0  0
 22 23  1  0  0  0  0
 22 48  1  0  0  0  0
M  CHG  1   7   1
M  END
> <s_m_source_file>
AV-unprocessed.smi

> <i_m_source_file_index>
1225

> <i_lp_mmshare_version>
43012

> <i_f3d_flags>
0

> <s_epik_input>
W0NIM11jMW5bY0hdYyhzMSlbQ0gyXU4oW0NIM10pW0NIMl1bQ0BIXShbT0hdKVtDSDJdbihbY0hdbjIpYyhjMjMpW2NIXWMoW0NIM10pYyhbY0hdMylbQ0gzXQ==

> <s_epik_cmdline>
J2VwaWtfcHl0aG9uJywgJy1waCcsICc3LjAnLCAnLXRuJywgJzgnLCAnLW1hJywgJzIwMCcsICctbWV0YWxfYmluZGluZycsICctaW1hZScsICc8aW5maWxlLm1hZT4nLCAnLW9tYWUnLCAnPG91dGZpbGUubWFlPic=

> <r_epik_Ionization_Penalty>
1.62543

> <r_epik_Ionization_Penalty_Charging>
1.53932

> <r_epik_Ionization_Penalty_Neutral>
0.0861152

> <r_epik_State_Penalty>
1.73127

> <r_epik_Charging_Adjusted_Penalty>
3.27059

> <i_epik_Tot_Q>
1

> <i_epik_Tot_abs_Q>
1

> <r_epik_Metal_State_Penalty>
1.71387

> <b_epik_Metal_Only>
0

> <s_lp_Force_Field>
OPLS_2005

> <r_lp_Energy>
12.5396

> <b_lp_Chiralities_Consistent>
1

> <s_lp_Variant>
AV-unprocessed.smi:1225-8

> <Gold.Version>
5.8.1

> <Gold.Id.Protein>
6NUR|6NUR_protein|mol2

> <Gold.PLP.Fitness>
55.6951

> <Gold.PLP.PLP>
-42.0944

> <Gold.PLP.part.hbond>
-3.5862

> <Gold.PLP.part.metal>
0.0000

> <Gold.PLP.part.buried>
-3.2856

> <Gold.PLP.part.nonpolar>
-35.3814

> <Gold.PLP.part.repulsive>
0.1695

> <Gold.PLP.ligand.clash>
0.0000

> <Gold.PLP.ligand.torsion>
0.8408

> <Gold.PLP.Chemscore.Hbond>
4.0000

> <Gold.PLP.Chemscore.CHOScore>
0.9805

> <Gold.PLP.Chemscore.Metal>
0.0000

> <Gold.Chemscore.Hbonds>
donor molecule, donor type, donor heavy atom, donor atom, acceptor molecule, acceptor atom, score
      L1  H     7    49       P1  7948  2.00
      L1  H    11    37       P1  7948  0.88
      P1  H  7997  8009       L1    15  0.74
      L1  C     4    28       P1  7948  0.81

> <Gold.PLP.Chemscore.Internal.Correction>
0.3409

> <Gold.Rescore>
     Score         DG    S(hbond)    S(metal)    S(lipo)     H(rot)  DE(clash)    DE(int)     intcor
     18.98     -19.61       2.00        0.00     115.56       2.37       0.03       0.61       ----

> <Gold.Chemscore.Fitness>
18.9776

> <Gold.Chemscore.DG>
-19.6124

> <Gold.Chemscore.ZeroCoef>
-5.4800

> <Gold.Chemscore.Hbond>
2.0036

> <Gold.Chemscore.Metal>
0.0000

> <Gold.Chemscore.Lipo>
115.5596

> <Gold.Chemscore.Internal_Hbond>
0.0000

> <Gold.Chemscore.DEClash>
0.0273

> <Gold.Chemscore.DEInternal>
0.6075

> <Gold.Chemscore.Rot>
2.3750

> <Gold.Chemscore.Internal.Correction>
   9.000000E+99

> <Gold.Chemscore.Hbonds>
donor molecule, donor type, donor heavy atom, donor atom, acceptor molecule, acceptor atom, score
      L1  H     7    49       P1  7948  0.98
      L1  H    11    37       P1  7948  0.81
      P1  H  7997  8009       L1    15  0.11

> <Gold.Chemscore.Hbond.Weighted>
-6.6919

> <Gold.Chemscore.Metal.Weighted>
-0.0000

> <Gold.Chemscore.Lipo.Weighted>
-13.5205

> <Gold.Chemscore.Internal_Hbond.Weighted>
0.0000

> <Gold.Chemscore.DEClash.Weighted>
0.0273

> <Gold.Chemscore.DEInternal.Weighted>
0.6075

> <Gold.Chemscore.Rot.Weighted>
6.0800

> <Gold.Chemscore.Internal.Correction.Weighted>
   9.000000E+99

> <Gold.Protein.RotatedTorsions>
[ 6907 6896 6895 6894 ] final  173.53 input  -60.11 | X-H torsion
[ 7974 7965 7964 7962 ] final  -45.31 input  175.53 | X-H torsion
[ 8008 7997 7996 7995 ] final  151.72 input   59.86 | X-H torsion
[ 10167 10162 10161 10158 ] final  -99.12 input  -65.29 | X-H torsion
[ 10718 10713 10712 10709 ] final   23.95 input   66.30 | X-H torsion
[ 10763 10752 10751 10750 ] final  -50.38 input  -60.55 | X-H torsion
[ 11005 11000 10999 10996 ] final  -24.64 input  -57.11 | X-H torsion

> <Gold.Protein.ActiveResidues>
 VAL166  LYS551  ARG553  GLY616  TRP617  ASP618  TYR619  PRO620  LYS621  CYS622 
 ASP623  PHE694  ASN695  SER759  ASP760  ASP761  ALA762  ILE779  LEU786  VAL792 
 PHE793  MET794  SER795  GLU796  ALA797  LYS798  CYS799  TRP800  GLU811  SER814 

> <Gold.Protein.RotatedAtoms>
  151.7669  133.3338  159.3433 H   0  0  0  0  0  0  0  0  0  0  0  0  # atno 6907 bound_to 6896
  150.7476  134.6054  159.6068 H   0  0  0  0  0  0  0  0  0  0  0  0  # atno 6908 bound_to 6896
  152.3368  134.7189  160.0326 H   0  0  0  0  0  0  0  0  0  0  0  0  # atno 6909 bound_to 6896
  145.9833  140.7260  142.9353 H   0  0  0  0  0  0  0  0  0  0  0  0  # atno 7974 bound_to 7965
  156.2661  140.2040  156.6221 H   0  0  0  0  0  0  0  0  0  0  0  0  # atno 8008 bound_to 7997
  154.6749  140.0546  157.0229 H   0  0  0  0  0  0  0  0  0  0  0  0  # atno 8009 bound_to 7997
  155.1083  140.3213  155.4531 H   0  0  0  0  0  0  0  0  0  0  0  0  # atno 8010 bound_to 7997
  140.2658  143.3377  152.0582 H   0  0  0  0  0  0  0  0  0  0  0  0  # atno 10167 bound_to 10162
  157.1731  130.6768  149.6085 H   0  0  0  0  0  0  0  0  0  0  0  0  # atno 10718 bound_to 10713
  154.1094  135.6551  153.4882 H   0  0  0  0  0  0  0  0  0  0  0  0  # atno 10763 bound_to 10752
  153.0262  135.5244  154.7207 H   0  0  0  0  0  0  0  0  0  0  0  0  # atno 10764 bound_to 10752
  154.6383  135.2985  155.0104 H   0  0  0  0  0  0  0  0  0  0  0  0  # atno 10765 bound_to 10752
  140.8864  133.7618  156.0366 H   0  0  0  0  0  0  0  0  0  0  0  0  # atno 11005 bound_to 11000
  144.6867  140.2945  143.7273 LP  0  0  0  0  0  0  0  0  0  0  0  0  # atno 17320 bound_to 7965
  145.7737  139.1866  143.2197 LP  0  0  0  0  0  0  0  0  0  0  0  0  # atno 17321 bound_to 7965
  139.5003  144.6689  151.6290 LP  0  0  0  0  0  0  0  0  0  0  0  0  # atno 17342 bound_to 10162
  140.5930  143.9746  150.6336 LP  0  0  0  0  0  0  0  0  0  0  0  0  # atno 17343 bound_to 10162
  155.9735  130.4672  150.6317 LP  0  0  0  0  0  0  0  0  0  0  0  0  # atno 17370 bound_to 10713
  157.4024  131.0812  151.1296 LP  0  0  0  0  0  0  0  0  0  0  0  0  # atno 17371 bound_to 10713
  140.8399  134.3078  157.5317 LP  0  0  0  0  0  0  0  0  0  0  0  0  # atno 17394 bound_to 11000
  139.8725  134.9410  156.3786 LP  0  0  0  0  0  0  0  0  0  0  0  0  # atno 17395 bound_to 11000

$$$$
