AV-unprocessed.smi:1488|AV-procd|sdf|6024|dock1
  -GOLD-   22720 6123D 1   1.00000     0.00000
 Structure written by MMmdl.
 36 37  0  0  0  0  0  0  0  0  1 V2000
  153.7642  137.7213  157.0352 C   0  0  0  0  0  0  0  0  0  0  0  0
  152.7110  138.1629  156.0778 C   0  0  0  0  0  0  0  0  0  0  0  0
  151.6644  137.5157  155.4832 C   0  0  0  0  0  0  0  0  0  0  0  0
  151.0707  138.5315  154.6881 C   0  0  0  0  0  0  0  0  0  0  0  0
  149.9289  138.2584  153.8928 N   0  0  0  0  0  0  0  0  0  0  0  0
  148.7378  138.8792  153.9297 C   0  0  0  0  0  0  0  0  0  0  0  0
  148.4428  139.8058  154.6851 O   0  0  0  0  0  0  0  0  0  0  0  0
  147.8904  138.3562  153.0321 N   0  0  0  0  0  0  0  0  0  0  0  0
  146.5104  138.7879  152.8159 C   0  0  2  0  0  0  0  0  0  0  0  0
  145.5330  138.0395  153.7463 C   0  0  0  0  0  0  0  0  0  0  0  0
  145.3984  136.5526  153.3739 C   0  0  0  0  0  0  0  0  0  0  0  0
  144.9840  136.3664  151.8986 C   0  0  2  0  0  0  0  0  0  0  0  0
  144.8386  134.8772  151.5229 C   0  0  0  0  0  0  0  0  0  0  0  0
  144.0002  134.2580  152.3546 F   0  0  0  0  0  0  0  0  0  0  0  0
  144.3742  134.7629  150.2786 F   0  0  0  0  0  0  0  0  0  0  0  0
  146.0260  134.2741  151.5805 F   0  0  0  0  0  0  0  0  0  0  0  0
  145.9756  137.1006  150.9710 C   0  0  0  0  0  0  0  0  0  0  0  0
  146.1153  138.5882  151.3408 C   0  0  0  0  0  0  0  0  0  0  0  0
  151.6973  139.6938  154.7884 N   0  0  0  0  0  0  0  0  0  0  0  0
  152.7523  139.4634  155.6792 O   0  0  0  0  0  0  0  0  0  0  0  0
  153.4698  136.8009  157.5397 H   0  0  0  0  0  0  0  0  0  0  0  0
  153.9405  138.4815  157.7964 H   0  0  0  0  0  0  0  0  0  0  0  0
  154.7046  137.5374  156.5158 H   0  0  0  0  0  0  0  0  0  0  0  0
  151.3741  136.4821  155.6002 H   0  0  0  0  0  0  0  0  0  0  0  0
  150.0302  137.5097  153.2237 H   0  0  0  0  0  0  0  0  0  0  0  0
  148.2212  137.5967  152.4551 H   0  0  0  0  0  0  0  0  0  0  0  0
  146.4523  139.8557  153.0352 H   0  0  0  0  0  0  0  0  0  0  0  0
  145.8451  138.1364  154.7869 H   0  0  0  0  0  0  0  0  0  0  0  0
  144.5512  138.5105  153.6841 H   0  0  0  0  0  0  0  0  0  0  0  0
  146.3434  136.0418  153.5616 H   0  0  0  0  0  0  0  0  0  0  0  0
  144.6639  136.0846  154.0300 H   0  0  0  0  0  0  0  0  0  0  0  0
  144.0054  136.8315  151.7700 H   0  0  0  0  0  0  0  0  0  0  0  0
  146.9525  136.6185  151.0189 H   0  0  0  0  0  0  0  0  0  0  0  0
  145.6472  137.0189  149.9347 H   0  0  0  0  0  0  0  0  0  0  0  0
  145.1652  139.0908  151.1545 H   0  0  0  0  0  0  0  0  0  0  0  0
  146.8439  139.0688  150.6864 H   0  0  0  0  0  0  0  0  0  0  0  0
  1  2  1  0  0  0  0
  1 21  1  0  0  0  0
  1 22  1  0  0  0  0
  1 23  1  0  0  0  0
  2 20  1  0  0  0  0
  2  3  2  0  0  0  0
  3  4  1  0  0  0  0
  3 24  1  0  0  0  0
  4  5  1  0  0  0  0
  4 19  2  0  0  0  0
  5  6  1  0  0  0  0
  5 25  1  0  0  0  0
  6  7  2  0  0  0  0
  6  8  1  0  0  0  0
  8  9  1  0  0  0  0
  8 26  1  0  0  0  0
  9 18  1  0  0  0  0
  9 10  1  0  0  0  0
  9 27  1  0  0  0  0
 10 11  1  0  0  0  0
 10 28  1  0  0  0  0
 10 29  1  0  0  0  0
 11 12  1  0  0  0  0
 11 30  1  0  0  0  0
 11 31  1  0  0  0  0
 12 13  1  0  0  0  0
 12 17  1  0  0  0  0
 12 32  1  0  0  0  0
 13 14  1  0  0  0  0
 13 15  1  0  0  0  0
 13 16  1  0  0  0  0
 17 18  1  0  0  0  0
 17 33  1  0  0  0  0
 17 34  1  0  0  0  0
 18 35  1  0  0  0  0
 18 36  1  0  0  0  0
 19 20  1  0  0  0  0
M  END
> <s_m_source_file>
AV-unprocessed.smi

> <i_m_source_file_index>
1488

> <i_lp_mmshare_version>
43012

> <i_f3d_flags>
0

> <s_epik_input>
W0NIM11jMVtjSF1jKG5vMSlbTkhdQyg9TylbTkhdW0NAQEhdMltDSDJdW0NIMl1bQ0BASF0oQyhGKShGKUYpW0NIMl1bQ0gyXTI=

> <s_epik_cmdline>
J2VwaWtfcHl0aG9uJywgJy1waCcsICc3LjAnLCAnLXRuJywgJzgnLCAnLW1hJywgJzIwMCcsICctbWV0YWxfYmluZGluZycsICctaW1hZScsICc8aW5maWxlLm1hZT4nLCAnLW9tYWUnLCAnPG91dGZpbGUubWFlPic=

> <r_lp_tautomer_probability>
1

> <r_epik_Ionization_Penalty>
2.30349e-05

> <r_epik_Ionization_Penalty_Charging>
0

> <r_epik_Ionization_Penalty_Neutral>
2.30349e-05

> <r_epik_State_Penalty>
-0

> <r_epik_Charging_Adjusted_Penalty>
0

> <i_epik_Tot_Q>
0

> <i_epik_Tot_abs_Q>
0

> <r_epik_Metal_State_Penalty>
-0

> <b_epik_Metal_Only>
0

> <s_lp_Force_Field>
OPLS_2005

> <r_lp_Energy>
6.9589

> <b_lp_Chiralities_Consistent>
1

> <s_lp_Variant>
AV-unprocessed.smi:1488-2

> <Gold.Version>
5.8.1

> <Gold.Id.Protein>
6NUR|6NUR_protein|mol2

> <Gold.PLP.Fitness>
40.2927

> <Gold.PLP.PLP>
-30.7569

> <Gold.PLP.part.hbond>
-5.4774

> <Gold.PLP.part.metal>
0.0000

> <Gold.PLP.part.buried>
5.8373

> <Gold.PLP.part.nonpolar>
-32.3883

> <Gold.PLP.part.repulsive>
0.2769

> <Gold.PLP.ligand.clash>
0.0000

> <Gold.PLP.ligand.torsion>
0.9230

> <Gold.PLP.Chemscore.Hbond>
3.7862

> <Gold.PLP.Chemscore.CHOScore>
0.0000

> <Gold.PLP.Chemscore.Metal>
0.0000

> <Gold.Chemscore.Hbonds>
donor molecule, donor type, donor heavy atom, donor atom, acceptor molecule, acceptor atom, score
      L1  H     5    25       P1  7948  0.74
      L1  H     8    26       P1  7948  1.00
      P1  H  7989  7998       L1    19  1.00
      P1  H  7997  8008       L1    20  1.00

> <Gold.PLP.Chemscore.Internal.Correction>
0.0229

> <Gold.Rescore>
     Score         DG    S(hbond)    S(metal)    S(lipo)     H(rot)  DE(clash)    DE(int)     intcor
     16.93     -20.47       3.15        0.00      60.00       1.00       2.63       0.90       ----

> <Gold.Chemscore.Fitness>
16.9336

> <Gold.Chemscore.DG>
-20.4655

> <Gold.Chemscore.ZeroCoef>
-5.4800

> <Gold.Chemscore.Hbond>
3.1513

> <Gold.Chemscore.Metal>
0.0000

> <Gold.Chemscore.Lipo>
60.0006

> <Gold.Chemscore.Internal_Hbond>
0.0000

> <Gold.Chemscore.DEClash>
2.6350

> <Gold.Chemscore.DEInternal>
0.8969

> <Gold.Chemscore.Rot>
1.0000

> <Gold.Chemscore.Internal.Correction>
   9.000000E+99

> <Gold.Chemscore.Hbonds>
donor molecule, donor type, donor heavy atom, donor atom, acceptor molecule, acceptor atom, score
      L1  H     5    25       P1  7948  0.21
      L1  H     8    26       P1  7948  1.00
      P1  H  7989  7998       L1    19  0.97
      P1  H  7997  8008       L1    20  0.74

> <Gold.Chemscore.Hbond.Weighted>
-10.5255

> <Gold.Chemscore.Metal.Weighted>
-0.0000

> <Gold.Chemscore.Lipo.Weighted>
-7.0201

> <Gold.Chemscore.Internal_Hbond.Weighted>
0.0000

> <Gold.Chemscore.DEClash.Weighted>
2.6350

> <Gold.Chemscore.DEInternal.Weighted>
0.8969

> <Gold.Chemscore.Rot.Weighted>
2.5600

> <Gold.Chemscore.Internal.Correction.Weighted>
   9.000000E+99

> <Gold.Protein.RotatedTorsions>
[ 6907 6896 6895 6894 ] final    3.98 input  -60.11 | X-H torsion
[ 7974 7965 7964 7962 ] final  -48.32 input  175.53 | X-H torsion
[ 8008 7997 7996 7995 ] final  -24.26 input   59.86 | X-H torsion
[ 10167 10162 10161 10158 ] final  118.33 input  -65.29 | X-H torsion
[ 10718 10713 10712 10709 ] final  -99.39 input   66.30 | X-H torsion
[ 10763 10752 10751 10750 ] final  145.11 input  -60.55 | X-H torsion
[ 11005 11000 10999 10996 ] final  146.44 input  -57.11 | X-H torsion

> <Gold.Protein.ActiveResidues>
 VAL166  LYS551  ARG553  GLY616  TRP617  ASP618  TYR619  PRO620  LYS621  CYS622 
 ASP623  PHE694  ASN695  SER759  ASP760  ASP761  ALA762  ILE779  LEU786  VAL792 
 PHE793  MET794  SER795  GLU796  ALA797  LYS798  CYS799  TRP800  GLU811  SER814 

> <Gold.Protein.RotatedAtoms>
  151.6338  135.1020  160.0127 H   0  0  0  0  0  0  0  0  0  0  0  0  # atno 6907 bound_to 6896
  152.4091  133.6932  159.6391 H   0  0  0  0  0  0  0  0  0  0  0  0  # atno 6908 bound_to 6896
  150.7983  133.8572  159.3263 H   0  0  0  0  0  0  0  0  0  0  0  0  # atno 6909 bound_to 6896
  145.9524  140.7559  142.9498 H   0  0  0  0  0  0  0  0  0  0  0  0  # atno 7974 bound_to 7965
  154.4539  140.1958  156.0437 H   0  0  0  0  0  0  0  0  0  0  0  0  # atno 8008 bound_to 7997
  156.0706  140.3285  155.7543 H   0  0  0  0  0  0  0  0  0  0  0  0  # atno 8009 bound_to 7997
  155.5269  140.0574  157.2887 H   0  0  0  0  0  0  0  0  0  0  0  0  # atno 8010 bound_to 7997
  139.6118  144.7083  151.2826 H   0  0  0  0  0  0  0  0  0  0  0  0  # atno 10167 bound_to 10162
  156.0133  130.5280  150.6663 H   0  0  0  0  0  0  0  0  0  0  0  0  # atno 10718 bound_to 10713
  154.0000  135.2924  155.3403 H   0  0  0  0  0  0  0  0  0  0  0  0  # atno 10763 bound_to 10752
  154.7165  135.5127  153.8748 H   0  0  0  0  0  0  0  0  0  0  0  0  # atno 10764 bound_to 10752
  153.0770  135.6667  154.0243 H   0  0  0  0  0  0  0  0  0  0  0  0  # atno 10765 bound_to 10752
  140.0793  134.9106  157.1475 H   0  0  0  0  0  0  0  0  0  0  0  0  # atno 11005 bound_to 11000
  144.6798  140.2457  143.7338 LP  0  0  0  0  0  0  0  0  0  0  0  0  # atno 17320 bound_to 7965
  145.8152  139.2020  143.1970 LP  0  0  0  0  0  0  0  0  0  0  0  0  # atno 17321 bound_to 7965
  140.7324  143.6823  150.7990 LP  0  0  0  0  0  0  0  0  0  0  0  0  # atno 17342 bound_to 10162
  140.0419  143.5337  152.2714 LP  0  0  0  0  0  0  0  0  0  0  0  0  # atno 17343 bound_to 10162
  157.4395  131.0859  151.0958 LP  0  0  0  0  0  0  0  0  0  0  0  0  # atno 17370 bound_to 10713
  157.1506  130.6182  149.5581 LP  0  0  0  0  0  0  0  0  0  0  0  0  # atno 17371 bound_to 10713
  140.3511  134.2598  155.7198 LP  0  0  0  0  0  0  0  0  0  0  0  0  # atno 17394 bound_to 11000
  141.2041  133.7895  157.0305 LP  0  0  0  0  0  0  0  0  0  0  0  0  # atno 17395 bound_to 11000

$$$$
