AV-unprocessed.smi:788|AV-procd|sdf|3732|dock8
  -GOLD-   22720 1163D 1   1.00000     0.00000
 Structure written by MMmdl.
 35 36  0  0  0  0  0  0  0  0  1 V2000
  152.9770  145.2935  156.9786 C   0  0  0  0  0  0  0  0  0  0  0  0
  152.7936  144.5425  158.3087 C   0  0  1  0  0  0  0  0  0  0  0  0
  151.8747  145.3193  159.2736 C   0  0  0  0  0  0  0  0  0  0  0  0
  151.7340  144.5964  160.6219 C   0  0  0  0  0  0  0  0  0  0  0  0
  151.2413  143.1530  160.4368 C   0  0  0  0  0  0  0  0  0  0  0  0
  152.1573  142.3627  159.4799 C   0  0  1  0  0  0  0  0  0  0  0  0
  151.6969  140.9017  159.3376 C   0  0  0  0  0  0  0  0  0  0  0  0
  152.3011  143.0857  158.1167 C   0  0  1  0  0  0  0  0  0  0  0  0
  151.0368  143.0577  157.3782 N   0  0  0  0  0  0  0  0  0  0  0  0
  150.5808  142.0664  156.5952 C   0  0  0  0  0  0  0  0  0  0  0  0
  151.2087  141.0278  156.3976 O   0  0  0  0  0  0  0  0  0  0  0  0
  149.3763  142.2691  156.0192 N   0  0  0  0  0  0  0  0  0  0  0  0
  148.5922  141.4587  155.1458 C   0  0  0  0  0  0  0  0  0  0  0  0
  148.8957  140.1982  154.7937 N   0  0  0  0  0  0  0  0  0  0  0  0
  147.9569  139.6553  153.9273 N   0  0  0  0  0  0  0  0  0  0  0  0
  146.9816  140.5264  153.6547 C   0  0  0  0  0  0  0  0  0  0  0  0
  147.1164  142.0943  154.4310 S   0  0  0  0  0  0  0  0  0  0  0  0
  152.0271  145.4453  156.4652 H   0  0  0  0  0  0  0  0  0  0  0  0
  153.6355  144.7437  156.3058 H   0  0  0  0  0  0  0  0  0  0  0  0
  153.4203  146.2757  157.1435 H   0  0  0  0  0  0  0  0  0  0  0  0
  153.7791  144.4887  158.7742 H   0  0  0  0  0  0  0  0  0  0  0  0
  152.2715  146.3213  159.4398 H   0  0  0  0  0  0  0  0  0  0  0  0
  150.8887  145.4519  158.8260 H   0  0  0  0  0  0  0  0  0  0  0  0
  152.6969  144.5897  161.1340 H   0  0  0  0  0  0  0  0  0  0  0  0
  151.0458  145.1439  161.2663 H   0  0  0  0  0  0  0  0  0  0  0  0
  151.1991  142.6573  161.4071 H   0  0  0  0  0  0  0  0  0  0  0  0
  150.2196  143.1626  160.0543 H   0  0  0  0  0  0  0  0  0  0  0  0
  153.1495  142.3333  159.9329 H   0  0  0  0  0  0  0  0  0  0  0  0
  150.6751  140.8343  158.9634 H   0  0  0  0  0  0  0  0  0  0  0  0
  151.7289  140.3872  160.2982 H   0  0  0  0  0  0  0  0  0  0  0  0
  152.3406  140.3535  158.6490 H   0  0  0  0  0  0  0  0  0  0  0  0
  153.0656  142.5561  157.5455 H   0  0  0  0  0  0  0  0  0  0  0  0
  150.4486  143.8729  157.4768 H   0  0  0  0  0  0  0  0  0  0  0  0
  148.9567  143.1597  156.2433 H   0  0  0  0  0  0  0  0  0  0  0  0
  146.1774  140.2436  152.9916 H   0  0  0  0  0  0  0  0  0  0  0  0
  1  2  1  0  0  0  0
  1 18  1  0  0  0  0
  1 19  1  0  0  0  0
  1 20  1  0  0  0  0
  2  8  1  0  0  0  0
  2  3  1  0  0  0  0
  2 21  1  0  0  0  0
  3  4  1  0  0  0  0
  3 22  1  0  0  0  0
  3 23  1  0  0  0  0
  4  5  1  0  0  0  0
  4 24  1  0  0  0  0
  4 25  1  0  0  0  0
  5  6  1  0  0  0  0
  5 26  1  0  0  0  0
  5 27  1  0  0  0  0
  6  7  1  0  0  0  0
  6  8  1  0  0  0  0
  6 28  1  0  0  0  0
  7 29  1  0  0  0  0
  7 30  1  0  0  0  0
  7 31  1  0  0  0  0
  8  9  1  0  0  0  0
  8 32  1  0  0  0  0
  9 10  1  0  0  0  0
  9 33  1  0  0  0  0
 10 11  2  0  0  0  0
 10 12  1  0  0  0  0
 12 13  1  0  0  0  0
 12 34  1  0  0  0  0
 13 17  1  0  0  0  0
 13 14  2  0  0  0  0
 14 15  1  0  0  0  0
 15 16  2  0  0  0  0
 16 17  1  0  0  0  0
 16 35  1  0  0  0  0
M  END
> <s_m_source_file>
AV-unprocessed.smi

> <i_m_source_file_index>
788

> <i_lp_mmshare_version>
43012

> <i_f3d_flags>
0

> <s_epik_input>
W0NIM11bQ0BASF0xW0NIMl1bQ0gyXVtDSDJdW0NAQEhdKFtDSDNdKVtDQEhdMVtOSF1DKD1PKVtOSF1jMm5uW2NIXXMy

> <s_epik_cmdline>
J2VwaWtfcHl0aG9uJywgJy1waCcsICc3LjAnLCAnLXRuJywgJzgnLCAnLW1hJywgJzIwMCcsICctbWV0YWxfYmluZGluZycsICctaW1hZScsICc8aW5maWxlLm1hZT4nLCAnLW9tYWUnLCAnPG91dGZpbGUubWFlPic=

> <r_lp_tautomer_probability>
1

> <r_epik_Ionization_Penalty>
0.000304078

> <r_epik_Ionization_Penalty_Charging>
0

> <r_epik_Ionization_Penalty_Neutral>
0.000304078

> <r_epik_State_Penalty>
-0

> <r_epik_Charging_Adjusted_Penalty>
0

> <i_epik_Tot_Q>
0

> <i_epik_Tot_abs_Q>
0

> <r_epik_Metal_State_Penalty>
0.164801

> <b_epik_Metal_Only>
0

> <s_lp_Force_Field>
OPLS_2005

> <r_lp_Energy>
12.7564

> <b_lp_Chiralities_Consistent>
1

> <s_lp_Variant>
AV-unprocessed.smi:788-2

> <Gold.Version>
5.8.1

> <Gold.Id.Protein>
6NUR|6NUR_protein|mol2

> <Gold.PLP.Fitness>
35.1161

> <Gold.PLP.PLP>
-30.4372

> <Gold.PLP.part.hbond>
-1.4263

> <Gold.PLP.part.metal>
0.0000

> <Gold.PLP.part.buried>
-4.9451

> <Gold.PLP.part.nonpolar>
-26.2112

> <Gold.PLP.part.repulsive>
0.4195

> <Gold.PLP.ligand.clash>
0.0000

> <Gold.PLP.ligand.torsion>
0.3643

> <Gold.PLP.Chemscore.Hbond>
0.8160

> <Gold.PLP.Chemscore.CHOScore>
0.9840

> <Gold.PLP.Chemscore.Metal>
0.0000

> <Gold.Chemscore.Hbonds>
donor molecule, donor type, donor heavy atom, donor atom, acceptor molecule, acceptor atom, score
      L1  H    12    34       P1  8028  0.82
      L1  C    16    35       P1 10175  0.94

> <Gold.PLP.Chemscore.Internal.Correction>
0.0076

> <Gold.Rescore>
     Score         DG    S(hbond)    S(metal)    S(lipo)     H(rot)  DE(clash)    DE(int)     intcor
     13.76     -19.06       1.03        0.00     108.44       1.00       2.45       2.84       ----

> <Gold.Chemscore.Fitness>
13.7640

> <Gold.Chemscore.DG>
-19.0620

> <Gold.Chemscore.ZeroCoef>
-5.4800

> <Gold.Chemscore.Hbond>
1.0342

> <Gold.Chemscore.Metal>
0.0000

> <Gold.Chemscore.Lipo>
108.4431

> <Gold.Chemscore.Internal_Hbond>
0.0000

> <Gold.Chemscore.DEClash>
2.4539

> <Gold.Chemscore.DEInternal>
2.8440

> <Gold.Chemscore.Rot>
1.0000

> <Gold.Chemscore.Internal.Correction>
   9.000000E+99

> <Gold.Chemscore.Hbonds>
donor molecule, donor type, donor heavy atom, donor atom, acceptor molecule, acceptor atom, score
      L1  H    12    34       P1  8028  0.81

> <Gold.Chemscore.Hbond.Weighted>
-3.4541

> <Gold.Chemscore.Metal.Weighted>
-0.0000

> <Gold.Chemscore.Lipo.Weighted>
-12.6878

> <Gold.Chemscore.Internal_Hbond.Weighted>
0.0000

> <Gold.Chemscore.DEClash.Weighted>
2.4539

> <Gold.Chemscore.DEInternal.Weighted>
2.8440

> <Gold.Chemscore.Rot.Weighted>
2.5600

> <Gold.Chemscore.Internal.Correction.Weighted>
   9.000000E+99

> <Gold.Protein.RotatedTorsions>
[ 6907 6896 6895 6894 ] final  -20.36 input  -60.11 | X-H torsion
[ 7974 7965 7964 7962 ] final   23.48 input  175.53 | X-H torsion
[ 8008 7997 7996 7995 ] final   73.71 input   59.86 | X-H torsion
[ 10167 10162 10161 10158 ] final  145.57 input  -65.29 | X-H torsion
[ 10718 10713 10712 10709 ] final   16.38 input   66.30 | X-H torsion
[ 10763 10752 10751 10750 ] final   75.93 input  -60.55 | X-H torsion
[ 11005 11000 10999 10996 ] final  116.12 input  -57.11 | X-H torsion

> <Gold.Protein.ActiveResidues>
 VAL166  LYS551  ARG553  GLY616  TRP617  ASP618  TYR619  PRO620  LYS621  CYS622 
 ASP623  PHE694  ASN695  SER759  ASP760  ASP761  ALA762  ILE779  LEU786  VAL792 
 PHE793  MET794  SER795  GLU796  ALA797  LYS798  CYS799  TRP800  GLU811  SER814 

> <Gold.Protein.RotatedAtoms>
  151.2493  135.0616  159.9055 H   0  0  0  0  0  0  0  0  0  0  0  0  # atno 6907 bound_to 6896
  152.5382  134.0350  159.8052 H   0  0  0  0  0  0  0  0  0  0  0  0  # atno 6908 bound_to 6896
  151.0555  133.5538  159.2670 H   0  0  0  0  0  0  0  0  0  0  0  0  # atno 6909 bound_to 6896
  146.1982  139.7739  142.8781 H   0  0  0  0  0  0  0  0  0  0  0  0  # atno 7974 bound_to 7965
  155.7877  140.3480  155.5332 H   0  0  0  0  0  0  0  0  0  0  0  0  # atno 8008 bound_to 7997
  155.8666  140.0980  157.1599 H   0  0  0  0  0  0  0  0  0  0  0  0  # atno 8009 bound_to 7997
  154.4015  140.1348  156.4013 H   0  0  0  0  0  0  0  0  0  0  0  0  # atno 8010 bound_to 7997
  139.4923  144.5892  151.6716 H   0  0  0  0  0  0  0  0  0  0  0  0  # atno 10167 bound_to 10162
  157.0671  130.6333  149.5798 H   0  0  0  0  0  0  0  0  0  0  0  0  # atno 10718 bound_to 10713
  153.0689  135.4970  154.8262 H   0  0  0  0  0  0  0  0  0  0  0  0  # atno 10763 bound_to 10752
  154.6995  135.2999  154.9365 H   0  0  0  0  0  0  0  0  0  0  0  0  # atno 10764 bound_to 10752
  154.0093  135.6756  153.4817 H   0  0  0  0  0  0  0  0  0  0  0  0  # atno 10765 bound_to 10752
  139.9031  134.9593  156.7149 H   0  0  0  0  0  0  0  0  0  0  0  0  # atno 11005 bound_to 11000
  145.3572  141.0319  143.3305 LP  0  0  0  0  0  0  0  0  0  0  0  0  # atno 17320 bound_to 7965
  144.8626  139.5155  143.6805 LP  0  0  0  0  0  0  0  0  0  0  0  0  # atno 17321 bound_to 7965
  140.5515  144.0418  150.6129 LP  0  0  0  0  0  0  0  0  0  0  0  0  # atno 17342 bound_to 10162
  140.3473  143.2984  152.0524 LP  0  0  0  0  0  0  0  0  0  0  0  0  # atno 17343 bound_to 10162
  155.9961  130.5030  150.7485 LP  0  0  0  0  0  0  0  0  0  0  0  0  # atno 17370 bound_to 10713
  157.4908  131.0910  151.0429 LP  0  0  0  0  0  0  0  0  0  0  0  0  # atno 17371 bound_to 10713
  140.7046  133.9276  155.8046 LP  0  0  0  0  0  0  0  0  0  0  0  0  # atno 17394 bound_to 11000
  141.0346  134.0708  157.3975 LP  0  0  0  0  0  0  0  0  0  0  0  0  # atno 17395 bound_to 11000

$$$$
