AV-unprocessed.smi:72|AV-procd|sdf|752|dock7
  -GOLD-   2262017 83D 1   1.00000     0.00000
 Structure written by MMmdl.
 29 30  0  0  0  0  0  0  0  0  1 V2000
  152.9786  138.3958  154.4043 N   0  0  0  0  0  0  0  0  0  0  0  0
  152.4267  139.1728  155.4007 C   0  0  0  0  0  0  0  0  0  0  0  0
  153.0047  139.0584  156.6717 N   0  0  0  0  0  0  0  0  0  0  0  0
  152.4997  139.7977  157.6076 C   0  0  0  0  0  0  0  0  0  0  0  0
  151.4069  140.7205  157.3391 N   0  0  0  0  0  0  0  0  0  0  0  0
  150.7720  141.5833  158.4203 C   0  0  1  0  0  0  0  0  0  0  0  0
  151.4638  141.4427  159.6253 O   0  0  0  0  0  0  0  0  0  0  0  0
  152.4474  142.4643  159.7331 C   0  0  2  0  0  0  0  0  0  0  0  0
  152.8745  142.6284  161.1992 C   0  0  0  0  0  0  0  0  0  0  0  0
  151.7410  142.8623  162.0076 O   0  0  0  0  0  0  0  0  0  0  0  0
  151.7085  143.6779  159.1669 C   0  0  1  0  0  0  0  0  0  0  0  0
  152.6295  144.6082  158.6339 O   0  0  0  0  0  0  0  0  0  0  0  0
  150.8386  143.0848  158.0594 C   0  0  2  0  0  0  0  0  0  0  0  0
  149.5574  143.6806  158.0766 O   0  0  0  0  0  0  0  0  0  0  0  0
  150.8358  140.7414  156.0352 C   0  0  0  0  0  0  0  0  0  0  0  0
  149.8617  141.4558  155.7984 O   0  0  0  0  0  0  0  0  0  0  0  0
  151.4240  139.9291  155.0589 N   0  0  0  0  0  0  0  0  0  0  0  0
  149.7602  141.1876  158.5269 H   0  0  0  0  0  0  0  0  0  0  0  0
  153.3053  142.2278  159.1005 H   0  0  0  0  0  0  0  0  0  0  0  0
  151.0979  144.1441  159.9423 H   0  0  0  0  0  0  0  0  0  0  0  0
  151.2971  143.2178  157.0781 H   0  0  0  0  0  0  0  0  0  0  0  0
  152.6432  138.3936  153.4520 H   0  0  0  0  0  0  0  0  0  0  0  0
  153.7551  137.7684  154.5542 H   0  0  0  0  0  0  0  0  0  0  0  0
  152.8603  139.7666  158.6357 H   0  0  0  0  0  0  0  0  0  0  0  0
  153.3475  141.7130  161.5563 H   0  0  0  0  0  0  0  0  0  0  0  0
  153.5987  143.4351  161.3152 H   0  0  0  0  0  0  0  0  0  0  0  0
  151.8038  143.7331  162.3692 H   0  0  0  0  0  0  0  0  0  0  0  0
  153.5037  144.2783  158.7771 H   0  0  0  0  0  0  0  0  0  0  0  0
  149.4356  144.1532  157.2673 H   0  0  0  0  0  0  0  0  0  0  0  0
  1  2  1  0  0  0  0
  1 22  1  0  0  0  0
  1 23  1  0  0  0  0
  2 17  2  0  0  0  0
  2  3  1  0  0  0  0
  3  4  2  0  0  0  0
  4  5  1  0  0  0  0
  4 24  1  0  0  0  0
  5  6  1  0  0  0  0
  5 15  1  0  0  0  0
  6 18  1  0  0  0  0
  6 13  1  0  0  0  0
  6  7  1  0  0  0  0
  7  8  1  0  0  0  0
  8 19  1  0  0  0  0
  8  9  1  0  0  0  0
  8 11  1  0  0  0  0
  9 10  1  0  0  0  0
  9 25  1  0  0  0  0
  9 26  1  0  0  0  0
 10 27  1  0  0  0  0
 11 20  1  0  0  0  0
 11 12  1  0  0  0  0
 11 13  1  0  0  0  0
 12 28  1  0  0  0  0
 13 21  1  0  0  0  0
 13 14  1  0  0  0  0
 14 29  1  0  0  0  0
 15 16  2  0  0  0  0
 15 17  1  0  0  0  0
M  END
> <s_m_source_file>
AV-unprocessed.smi

> <i_m_source_file_index>
72

> <i_lp_mmshare_version>
43012

> <i_f3d_flags>
0

> <s_epik_input>
W05IMl1jMW5bY0hdbihjKD1PKW4xKVtDQEBIXTJPW0NASF0oW0NIMl1bT0hdKVtDQEBIXShbT0hdKVtDQEhdMltPSF0=

> <s_epik_cmdline>
J2VwaWtfcHl0aG9uJywgJy1waCcsICc3LjAnLCAnLXRuJywgJzgnLCAnLW1hJywgJzIwMCcsICctbWV0YWxfYmluZGluZycsICctaW1hZScsICc8aW5maWxlLm1hZT4nLCAnLW9tYWUnLCAnPG91dGZpbGUubWFlPic=

> <r_lp_tautomer_probability>
4.77166e-05

> <r_epik_Ionization_Penalty>
1.3546

> <r_epik_Ionization_Penalty_Charging>
1.46833e-10

> <r_epik_Ionization_Penalty_Neutral>
1.3546

> <r_epik_State_Penalty>
3.51908

> <r_epik_Charging_Adjusted_Penalty>
3.51908

> <i_epik_Tot_Q>
0

> <i_epik_Tot_abs_Q>
0

> <r_epik_Metal_State_Penalty>
3.44088

> <b_epik_Metal_Only>
1

> <s_epik_Chemistry_Notes>
This compound contains an acetal/aminal-like group ( X-CH(R)-Y where X, Y are N, S, or O) that may be acid/base labile, releasing an aldehyde.

> <s_lp_Force_Field>
OPLS_2005

> <r_lp_Energy>
23.1081

> <b_lp_Chiralities_Consistent>
1

> <s_lp_Variant>
AV-unprocessed.smi:72-90

> <Gold.Version>
5.8.1

> <Gold.Id.Protein>
6NUR|6NUR_protein|mol2

> <Gold.PLP.Fitness>
43.4236

> <Gold.PLP.PLP>
-33.1590

> <Gold.PLP.part.hbond>
-6.6490

> <Gold.PLP.part.metal>
0.0000

> <Gold.PLP.part.buried>
-4.1919

> <Gold.PLP.part.nonpolar>
-22.2991

> <Gold.PLP.part.repulsive>
0.3622

> <Gold.PLP.ligand.clash>
0.0000

> <Gold.PLP.ligand.torsion>
0.0293

> <Gold.PLP.Chemscore.Hbond>
3.4270

> <Gold.PLP.Chemscore.CHOScore>
0.0000

> <Gold.PLP.Chemscore.Metal>
0.0000

> <Gold.Chemscore.Hbonds>
donor molecule, donor type, donor heavy atom, donor atom, acceptor molecule, acceptor atom, score
      L1  H    14    29       P1  8028  1.00
      P1  H  6933  6945       L1    10  0.83
      P1  H  7989  7998       L1    17  1.00
      P1  H  7997  8010       L1     3  0.60

> <Gold.PLP.Chemscore.Internal.Correction>
0.0422

> <Gold.Rescore>
     Score         DG    S(hbond)    S(metal)    S(lipo)     H(rot)  DE(clash)    DE(int)     intcor
      5.10      -6.14       1.87        0.00      41.17       4.06       0.07       0.97       ----

> <Gold.Chemscore.Fitness>
5.1042

> <Gold.Chemscore.DG>
-6.1438

> <Gold.Chemscore.ZeroCoef>
-5.4800

> <Gold.Chemscore.Hbond>
1.8683

> <Gold.Chemscore.Metal>
0.0000

> <Gold.Chemscore.Lipo>
41.1742

> <Gold.Chemscore.Internal_Hbond>
0.0000

> <Gold.Chemscore.DEClash>
0.0726

> <Gold.Chemscore.DEInternal>
0.9670

> <Gold.Chemscore.Rot>
4.0600

> <Gold.Chemscore.Internal.Correction>
   9.000000E+99

> <Gold.Chemscore.Hbonds>
donor molecule, donor type, donor heavy atom, donor atom, acceptor molecule, acceptor atom, score
      L1  H    14    29       P1  8028  0.26
      P1  H  6933  6945       L1    10  0.74
      P1  H  7989  7998       L1    17  0.67
      P1  H  7997  8010       L1     3  0.01

> <Gold.Chemscore.Hbond.Weighted>
-6.2400

> <Gold.Chemscore.Metal.Weighted>
-0.0000

> <Gold.Chemscore.Lipo.Weighted>
-4.8174

> <Gold.Chemscore.Internal_Hbond.Weighted>
0.0000

> <Gold.Chemscore.DEClash.Weighted>
0.0726

> <Gold.Chemscore.DEInternal.Weighted>
0.9670

> <Gold.Chemscore.Rot.Weighted>
10.3936

> <Gold.Chemscore.Internal.Correction.Weighted>
   9.000000E+99

> <Gold.Protein.RotatedTorsions>
[ 6907 6896 6895 6894 ] final   94.09 input  -60.11 | X-H torsion
[ 7974 7965 7964 7962 ] final   66.95 input  175.53 | X-H torsion
[ 8008 7997 7996 7995 ] final   82.35 input   59.86 | X-H torsion
[ 10167 10162 10161 10158 ] final  -20.53 input  -65.29 | X-H torsion
[ 10718 10713 10712 10709 ] final  -98.06 input   66.30 | X-H torsion
[ 10763 10752 10751 10750 ] final  123.90 input  -60.55 | X-H torsion
[ 11005 11000 10999 10996 ] final -174.69 input  -57.11 | X-H torsion

> <Gold.Protein.ActiveResidues>
 VAL166  LYS551  ARG553  GLY616  TRP617  ASP618  TYR619  PRO620  LYS621  CYS622 
 ASP623  PHE694  ASN695  SER759  ASP760  ASP761  ALA762  ILE779  LEU786  VAL792 
 PHE793  MET794  SER795  GLU796  ALA797  LYS798  CYS799  TRP800  GLU811  SER814 

> <Gold.Protein.RotatedAtoms>
  152.5451  134.1248  159.8413 H   0  0  0  0  0  0  0  0  0  0  0  0  # atno 6907 bound_to 6896
  151.1300  133.5036  159.2607 H   0  0  0  0  0  0  0  0  0  0  0  0  # atno 6908 bound_to 6896
  151.1686  135.0317  159.8796 H   0  0  0  0  0  0  0  0  0  0  0  0  # atno 6909 bound_to 6896
  145.8204  139.3082  143.1046 H   0  0  0  0  0  0  0  0  0  0  0  0  # atno 7974 bound_to 7965
  155.9094  140.3428  155.6087 H   0  0  0  0  0  0  0  0  0  0  0  0  # atno 8008 bound_to 7997
  155.7406  140.0807  157.2266 H   0  0  0  0  0  0  0  0  0  0  0  0  # atno 8009 bound_to 7997
  154.4054  140.1571  156.2598 H   0  0  0  0  0  0  0  0  0  0  0  0  # atno 8010 bound_to 7997
  140.7276  143.4714  151.0242 H   0  0  0  0  0  0  0  0  0  0  0  0  # atno 10167 bound_to 10162
  156.0098  130.5222  150.6467 H   0  0  0  0  0  0  0  0  0  0  0  0  # atno 10718 bound_to 10713
  153.6529  135.3359  155.3105 H   0  0  0  0  0  0  0  0  0  0  0  0  # atno 10763 bound_to 10752
  154.8533  135.4345  154.1885 H   0  0  0  0  0  0  0  0  0  0  0  0  # atno 10764 bound_to 10752
  153.2833  135.7011  153.7439 H   0  0  0  0  0  0  0  0  0  0  0  0  # atno 10765 bound_to 10752
  140.4716  134.6159  157.4884 H   0  0  0  0  0  0  0  0  0  0  0  0  # atno 11005 bound_to 11000
  145.9681  140.8782  143.0177 LP  0  0  0  0  0  0  0  0  0  0  0  0  # atno 17320 bound_to 7965
  144.6748  140.1906  143.7397 LP  0  0  0  0  0  0  0  0  0  0  0  0  # atno 17321 bound_to 7965
  139.8406  143.7569  152.3180 LP  0  0  0  0  0  0  0  0  0  0  0  0  # atno 17342 bound_to 10162
  139.7716  144.7474  151.0216 LP  0  0  0  0  0  0  0  0  0  0  0  0  # atno 17343 bound_to 10162
  157.4237  131.0840  151.1106 LP  0  0  0  0  0  0  0  0  0  0  0  0  # atno 17370 bound_to 10713
  157.1701  130.6263  149.5638 LP  0  0  0  0  0  0  0  0  0  0  0  0  # atno 17371 bound_to 10713
  139.9881  134.7028  155.9737 LP  0  0  0  0  0  0  0  0  0  0  0  0  # atno 17394 bound_to 11000
  141.1574  133.6541  156.4206 LP  0  0  0  0  0  0  0  0  0  0  0  0  # atno 17395 bound_to 11000

$$$$
