AV-unprocessed.smi:2358|AV-procd|sdf|9405|dock2
  -GOLD-   2272013 43D 1   1.00000     0.00000
 Structure written by MMmdl.
 46 48  0  0  0  0  0  0  0  0  2 V2000
  153.8783  141.2487  161.1609 C   0  0  0  0  0  0  0  0  0  0  0  0
  153.0761  141.9729  160.0993 C   0  0  0  0  0  0  0  0  0  0  0  0
  152.8572  143.3614  160.1965 C   0  0  0  0  0  0  0  0  0  0  0  0
  152.1151  144.0303  159.2041 C   0  0  0  0  0  0  0  0  0  0  0  0
  151.8832  145.5231  159.3150 C   0  0  0  0  0  0  0  0  0  0  0  0
  151.5919  143.3054  158.1140 C   0  0  0  0  0  0  0  0  0  0  0  0
  151.8011  141.9156  158.0017 C   0  0  0  0  0  0  0  0  0  0  0  0
  151.2540  141.2886  156.9028 O   0  0  0  0  0  0  0  0  0  0  0  0
  151.4850  139.8959  156.7365 C   0  0  0  0  0  0  0  0  0  0  0  0
  150.4779  139.3432  155.7142 C   0  0  2  0  0  0  0  0  0  0  0  0
  150.9651  139.6690  154.4263 O   0  0  0  0  0  0  0  0  0  0  0  0
  149.0846  139.9921  155.8695 C   0  0  0  0  0  0  0  0  0  0  0  0
  148.2841  139.8684  154.6455 N   0  0  0  0  0  0  0  0  0  0  0  0
  147.7023  138.6243  154.4795 N   0  0  0  0  0  0  0  0  0  0  0  0
  146.9509  138.3738  153.4559 C   0  0  0  0  0  0  0  0  0  0  0  0
  146.3051  137.0895  153.2422 N   0  0  0  0  0  0  0  0  0  0  0  0
  145.4985  136.6634  152.2143 C   0  0  0  0  0  0  0  0  0  0  0  0
  145.1559  135.3682  152.5087 C   0  0  0  0  0  0  0  0  0  0  0  0
  145.7650  135.0609  153.6970 N   0  3  0  0  0  0  0  0  0  0  0  0
  146.4654  136.1086  154.1450 C   0  0  0  0  0  0  0  0  0  0  0  0
  146.7211  139.4063  152.4572 C   0  0  0  0  0  0  0  0  0  0  0  0
  147.2914  140.6184  152.6296 C   0  0  0  0  0  0  0  0  0  0  0  0
  148.1311  140.9200  153.7875 C   0  0  0  0  0  0  0  0  0  0  0  0
  148.6486  142.0202  153.9766 O   0  0  0  0  0  0  0  0  0  0  0  0
  152.5505  141.2534  159.0068 C   0  0  0  0  0  0  0  0  0  0  0  0
  154.0673  141.8894  162.0229 H   0  0  0  0  0  0  0  0  0  0  0  0
  154.8383  140.9307  160.7540 H   0  0  0  0  0  0  0  0  0  0  0  0
  153.3417  140.3648  161.5065 H   0  0  0  0  0  0  0  0  0  0  0  0
  153.2587  143.9162  161.0321 H   0  0  0  0  0  0  0  0  0  0  0  0
  151.3903  145.9173  158.4257 H   0  0  0  0  0  0  0  0  0  0  0  0
  152.8321  146.0459  159.4367 H   0  0  0  0  0  0  0  0  0  0  0  0
  151.2558  145.7436  160.1789 H   0  0  0  0  0  0  0  0  0  0  0  0
  151.0223  143.8171  157.3518 H   0  0  0  0  0  0  0  0  0  0  0  0
  152.4983  139.7631  156.3533 H   0  0  0  0  0  0  0  0  0  0  0  0
  151.4135  139.3592  157.6844 H   0  0  0  0  0  0  0  0  0  0  0  0
  150.4074  138.2601  155.8236 H   0  0  0  0  0  0  0  0  0  0  0  0
  150.7478  138.9634  153.8365 H   0  0  0  0  0  0  0  0  0  0  0  0
  148.5417  139.5177  156.6890 H   0  0  0  0  0  0  0  0  0  0  0  0
  149.1787  141.0376  156.1702 H   0  0  0  0  0  0  0  0  0  0  0  0
  145.2263  137.2789  151.3699 H   0  0  0  0  0  0  0  0  0  0  0  0
  144.5389  134.6603  151.9744 H   0  0  0  0  0  0  0  0  0  0  0  0
  147.0377  136.1405  155.0558 H   0  0  0  0  0  0  0  0  0  0  0  0
  146.1069  139.2261  151.5892 H   0  0  0  0  0  0  0  0  0  0  0  0
  147.1219  141.3897  151.8926 H   0  0  0  0  0  0  0  0  0  0  0  0
  152.7371  140.1912  158.9598 H   0  0  0  0  0  0  0  0  0  0  0  0
  145.6958  134.1691  154.1714 H   0  0  0  0  0  0  0  0  0  0  0  0
  1  2  1  0  0  0  0
  1 26  1  0  0  0  0
  1 27  1  0  0  0  0
  1 28  1  0  0  0  0
  2 25  1  0  0  0  0
  2  3  2  0  0  0  0
  3  4  1  0  0  0  0
  3 29  1  0  0  0  0
  4  5  1  0  0  0  0
  4  6  2  0  0  0  0
  5 30  1  0  0  0  0
  5 31  1  0  0  0  0
  5 32  1  0  0  0  0
  6  7  1  0  0  0  0
  6 33  1  0  0  0  0
  7  8  1  0  0  0  0
  7 25  2  0  0  0  0
  8  9  1  0  0  0  0
  9 10  1  0  0  0  0
  9 34  1  0  0  0  0
  9 35  1  0  0  0  0
 10 11  1  0  0  0  0
 10 12  1  0  0  0  0
 10 36  1  0  0  0  0
 11 37  1  0  0  0  0
 12 13  1  0  0  0  0
 12 38  1  0  0  0  0
 12 39  1  0  0  0  0
 13 23  1  0  0  0  0
 13 14  1  0  0  0  0
 14 15  2  0  0  0  0
 15 16  1  0  0  0  0
 15 21  1  0  0  0  0
 16 20  1  0  0  0  0
 16 17  1  0  0  0  0
 17 18  2  0  0  0  0
 17 40  1  0  0  0  0
 18 19  1  0  0  0  0
 18 41  1  0  0  0  0
 19 20  2  0  0  0  0
 19 46  1  0  0  0  0
 20 42  1  0  0  0  0
 21 22  2  0  0  0  0
 21 43  1  0  0  0  0
 22 23  1  0  0  0  0
 22 44  1  0  0  0  0
 23 24  2  0  0  0  0
 25 45  1  0  0  0  0
M  CHG  1  19   1
M  END
> <s_m_source_file>
AV-unprocessed.smi

> <i_m_source_file_index>
2358

> <i_lp_mmshare_version>
43012

> <i_f3d_flags>
0

> <s_epik_input>
W0NIM11jMVtjSF1jKFtDSDNdKVtjSF1jKFtjSF0xKU9bQ0gyXVtDQEhdKFtPSF0pW0NIMl1uMm5jKFtjSF1bY0hdYzI9TyktbjNbY0hdW2NIXW5bY0hdMw==

> <s_epik_cmdline>
J2VwaWtfcHl0aG9uJywgJy1waCcsICc3LjAnLCAnLXRuJywgJzgnLCAnLW1hJywgJzIwMCcsICctbWV0YWxfYmluZGluZycsICctaW1hZScsICc8aW5maWxlLm1hZT4nLCAnLW9tYWUnLCAnPG91dGZpbGUubWFlPic=

> <r_lp_tautomer_probability>
1

> <r_epik_Ionization_Penalty>
1.66053

> <r_epik_Ionization_Penalty_Charging>
2.42216e-09

> <r_epik_Ionization_Penalty_Neutral>
1.66053

> <r_epik_State_Penalty>
1.76336

> <r_epik_Charging_Adjusted_Penalty>
1.76336

> <i_epik_Tot_Q>
1

> <i_epik_Tot_abs_Q>
1

> <r_epik_Metal_State_Penalty>
1.79856

> <b_epik_Metal_Only>
0

> <s_lp_Force_Field>
OPLS_2005

> <r_lp_Energy>
37.8442

> <b_lp_Chiralities_Consistent>
1

> <s_lp_Variant>
AV-unprocessed.smi:2358-3

> <Gold.Version>
5.8.1

> <Gold.Id.Protein>
6NUR|6NUR_protein|mol2

> <Gold.PLP.Fitness>
49.2244

> <Gold.PLP.PLP>
-43.2838

> <Gold.PLP.part.hbond>
-2.0000

> <Gold.PLP.part.metal>
0.0000

> <Gold.PLP.part.buried>
-0.9118

> <Gold.PLP.part.nonpolar>
-40.4390

> <Gold.PLP.part.repulsive>
0.3438

> <Gold.PLP.ligand.clash>
0.0000

> <Gold.PLP.ligand.torsion>
0.7109

> <Gold.PLP.Chemscore.Hbond>
1.3988

> <Gold.PLP.Chemscore.CHOScore>
1.0000

> <Gold.PLP.Chemscore.Metal>
0.0000

> <Gold.Chemscore.Hbonds>
donor molecule, donor type, donor heavy atom, donor atom, acceptor molecule, acceptor atom, score
      P1  H  7989  7998       L1    11  1.00
      P1  H  8011  8017       L1    24  0.40
      L1  C    17    40       P1 10171  1.00

> <Gold.PLP.Chemscore.Internal.Correction>
0.1658

> <Gold.Rescore>
     Score         DG    S(hbond)    S(metal)    S(lipo)     H(rot)  DE(clash)    DE(int)     intcor
     16.44     -17.69       1.34        0.00     124.26       2.65       0.63       0.62       ----

> <Gold.Chemscore.Fitness>
16.4394

> <Gold.Chemscore.DG>
-17.6874

> <Gold.Chemscore.ZeroCoef>
-5.4800

> <Gold.Chemscore.Hbond>
1.3361

> <Gold.Chemscore.Metal>
0.0000

> <Gold.Chemscore.Lipo>
124.2604

> <Gold.Chemscore.Internal_Hbond>
0.0000

> <Gold.Chemscore.DEClash>
0.6287

> <Gold.Chemscore.DEInternal>
0.6193

> <Gold.Chemscore.Rot>
2.6537

> <Gold.Chemscore.Internal.Correction>
   9.000000E+99

> <Gold.Chemscore.Hbonds>
donor molecule, donor type, donor heavy atom, donor atom, acceptor molecule, acceptor atom, score
      P1  H  7989  7998       L1    11  0.55
      P1  H  8011  8017       L1    24  0.22

> <Gold.Chemscore.Hbond.Weighted>
-4.4624

> <Gold.Chemscore.Metal.Weighted>
-0.0000

> <Gold.Chemscore.Lipo.Weighted>
-14.5385

> <Gold.Chemscore.Internal_Hbond.Weighted>
0.0000

> <Gold.Chemscore.DEClash.Weighted>
0.6287

> <Gold.Chemscore.DEInternal.Weighted>
0.6193

> <Gold.Chemscore.Rot.Weighted>
6.7935

> <Gold.Chemscore.Internal.Correction.Weighted>
   9.000000E+99

> <Gold.Protein.RotatedTorsions>
[ 6907 6896 6895 6894 ] final  149.89 input  -60.11 | X-H torsion
[ 7974 7965 7964 7962 ] final  -97.87 input  175.53 | X-H torsion
[ 8008 7997 7996 7995 ] final  -81.64 input   59.86 | X-H torsion
[ 10167 10162 10161 10158 ] final   18.84 input  -65.29 | X-H torsion
[ 10718 10713 10712 10709 ] final  -80.14 input   66.30 | X-H torsion
[ 10763 10752 10751 10750 ] final   52.31 input  -60.55 | X-H torsion
[ 11005 11000 10999 10996 ] final    1.53 input  -57.11 | X-H torsion

> <Gold.Protein.ActiveResidues>
 VAL166  LYS551  ARG553  GLY616  TRP617  ASP618  TYR619  PRO620  LYS621  CYS622 
 ASP623  PHE694  ASN695  SER759  ASP760  ASP761  ALA762  ILE779  LEU786  VAL792 
 PHE793  MET794  SER795  GLU796  ALA797  LYS798  CYS799  TRP800  GLU811  SER814 

> <Gold.Protein.RotatedAtoms>
  152.1219  133.4358  159.4679 H   0  0  0  0  0  0  0  0  0  0  0  0  # atno 6907 bound_to 6896
  150.6872  134.2524  159.4525 H   0  0  0  0  0  0  0  0  0  0  0  0  # atno 6908 bound_to 6896
  152.0401  134.9716  160.0624 H   0  0  0  0  0  0  0  0  0  0  0  0  # atno 6909 bound_to 6896
  145.3281  140.9436  143.2677 H   0  0  0  0  0  0  0  0  0  0  0  0  # atno 7974 bound_to 7965
  154.6004  140.0645  156.9360 H   0  0  0  0  0  0  0  0  0  0  0  0  # atno 8008 bound_to 7997
  155.2142  140.3325  155.4306 H   0  0  0  0  0  0  0  0  0  0  0  0  # atno 8009 bound_to 7997
  156.2314  140.1843  156.7216 H   0  0  0  0  0  0  0  0  0  0  0  0  # atno 8010 bound_to 7997
  140.5624  143.9314  150.6652 H   0  0  0  0  0  0  0  0  0  0  0  0  # atno 10167 bound_to 10162
  156.0077  130.4566  150.3755 H   0  0  0  0  0  0  0  0  0  0  0  0  # atno 10718 bound_to 10713
  152.9788  135.5817  154.4558 H   0  0  0  0  0  0  0  0  0  0  0  0  # atno 10763 bound_to 10752
  154.4140  135.2770  155.2020 H   0  0  0  0  0  0  0  0  0  0  0  0  # atno 10764 bound_to 10752
  154.3798  135.6149  153.5838 H   0  0  0  0  0  0  0  0  0  0  0  0  # atno 10765 bound_to 10752
  140.6144  133.9719  155.8193 H   0  0  0  0  0  0  0  0  0  0  0  0  # atno 11005 bound_to 11000
  144.8886  139.4806  143.6689 LP  0  0  0  0  0  0  0  0  0  0  0  0  # atno 17320 bound_to 7965
  146.3056  139.7570  142.9058 LP  0  0  0  0  0  0  0  0  0  0  0  0  # atno 17321 bound_to 7965
  140.2768  143.3417  152.1188 LP  0  0  0  0  0  0  0  0  0  0  0  0  # atno 17342 bound_to 10162
  139.5076  144.6835  151.5947 LP  0  0  0  0  0  0  0  0  0  0  0  0  # atno 17343 bound_to 10162
  157.1837  131.0398  151.2735 LP  0  0  0  0  0  0  0  0  0  0  0  0  # atno 17370 bound_to 10713
  157.4123  130.7392  149.6848 LP  0  0  0  0  0  0  0  0  0  0  0  0  # atno 17371 bound_to 10713
  141.0786  134.0097  157.3421 LP  0  0  0  0  0  0  0  0  0  0  0  0  # atno 17394 bound_to 11000
  139.9179  135.0198  156.7951 LP  0  0  0  0  0  0  0  0  0  0  0  0  # atno 17395 bound_to 11000

$$$$
