AV-unprocessed.smi:275|AV-procd|sdf|2067|dock2
  -GOLD-   2262021323D 1   1.00000     0.00000
 Structure written by MMmdl.
 65 69  0  0  0  0  0  0  0  0  1 V2000
  148.1993  132.4120  159.0414 C   0  0  0  0  0  0  0  0  0  0  0  0
  148.5533  132.0202  157.5996 C   0  0  0  0  0  0  0  0  0  0  0  0
  149.6363  130.9182  157.6107 C   0  0  0  0  0  0  0  0  0  0  0  0
  148.8526  133.2728  156.7331 C   0  0  1  0  0  0  0  0  0  0  0  0
  150.1372  133.8780  157.0936 N   0  0  0  0  0  0  0  0  0  0  0  0
  150.1478  135.2930  157.3277 C   0  0  0  0  0  0  0  0  0  0  0  0
  149.5952  135.7694  158.4768 N   0  0  0  0  0  0  0  0  0  0  0  0
  149.5661  137.0752  158.7532 C   0  0  0  0  0  0  0  0  0  0  0  0
  150.0173  138.0896  158.0186 N   0  0  0  0  0  0  0  0  0  0  0  0
  150.5467  137.6421  156.8466 C   0  0  0  0  0  0  0  0  0  0  0  0
  150.6434  136.2832  156.4240 C   0  0  0  0  0  0  0  0  0  0  0  0
  151.2264  136.2365  155.1621 N   0  0  0  0  0  0  0  0  0  0  0  0
  151.4713  137.4823  154.8649 C   0  0  0  0  0  0  0  0  0  0  0  0
  151.1033  138.3928  155.8261 N   0  0  0  0  0  0  0  0  0  0  0  0
  151.2638  139.8350  155.7590 C   0  0  0  0  0  0  0  0  0  0  0  0
  149.9624  140.6090  156.0865 C   0  0  2  0  0  0  0  0  0  0  0  0
  149.4921  141.5117  154.9195 C   0  0  0  0  0  0  0  0  0  0  0  0
  149.5703  140.8380  153.6800 O   0  0  0  0  0  0  0  0  0  0  0  0
  150.0856  141.3879  157.4206 C   0  0  1  0  0  0  0  0  0  0  0  0
  150.9804  142.6138  157.3664 C   0  0  0  0  0  0  0  0  0  0  0  0
  150.5367  143.3906  158.6012 C   0  0  0  0  0  0  0  0  0  0  0  0
  149.1514  143.1051  158.7574 O   0  0  0  0  0  0  0  0  0  0  0  0
  148.7796  142.0194  157.9143 C   0  0  0  0  0  0  0  0  0  0  0  0
  150.7679  133.4208  155.8563 C   0  0  0  0  0  0  0  0  0  0  0  0
  149.3666  133.2038  155.2694 C   0  0  0  0  0  0  0  0  0  0  0  0
  148.8850  134.3413  154.3409 C   0  0  0  0  0  0  0  0  0  0  0  0
  147.4187  134.1893  153.9026 C   0  0  0  0  0  0  0  0  0  0  0  0
  147.1969  132.8565  153.1795 C   0  0  0  0  0  0  0  0  0  0  0  0
  147.6976  131.6831  154.0287 C   0  0  0  0  0  0  0  0  0  0  0  0
  149.1552  131.8978  154.4758 C   0  0  0  0  0  0  0  0  0  0  0  0
  149.0501  132.8706  159.5461 H   0  0  0  0  0  0  0  0  0  0  0  0
  147.8994  131.5409  159.6244 H   0  0  0  0  0  0  0  0  0  0  0  0
  147.3714  133.1209  159.0661 H   0  0  0  0  0  0  0  0  0  0  0  0
  147.6536  131.5544  157.1999 H   0  0  0  0  0  0  0  0  0  0  0  0
  150.5611  131.2671  158.0709 H   0  0  0  0  0  0  0  0  0  0  0  0
  149.8793  130.5542  156.6152 H   0  0  0  0  0  0  0  0  0  0  0  0
  149.2992  130.0555  158.1856 H   0  0  0  0  0  0  0  0  0  0  0  0
  148.0243  133.9787  156.7661 H   0  0  0  0  0  0  0  0  0  0  0  0
  149.1163  137.3444  159.6975 H   0  0  0  0  0  0  0  0  0  0  0  0
  151.9338  137.7731  153.9328 H   0  0  0  0  0  0  0  0  0  0  0  0
  152.0584  140.1082  156.4534 H   0  0  0  0  0  0  0  0  0  0  0  0
  151.6219  140.1025  154.7642 H   0  0  0  0  0  0  0  0  0  0  0  0
  149.1806  139.8608  156.2250 H   0  0  0  0  0  0  0  0  0  0  0  0
  148.4659  141.8464  155.0708 H   0  0  0  0  0  0  0  0  0  0  0  0
  150.0948  142.4179  154.8622 H   0  0  0  0  0  0  0  0  0  0  0  0
  148.9144  140.1578  153.6651 H   0  0  0  0  0  0  0  0  0  0  0  0
  150.4606  140.7220  158.1999 H   0  0  0  0  0  0  0  0  0  0  0  0
  152.0439  142.3735  157.3878 H   0  0  0  0  0  0  0  0  0  0  0  0
  150.7782  143.1955  156.4658 H   0  0  0  0  0  0  0  0  0  0  0  0
  151.0667  143.0342  159.4853 H   0  0  0  0  0  0  0  0  0  0  0  0
  150.7154  144.4620  158.5072 H   0  0  0  0  0  0  0  0  0  0  0  0
  148.2024  142.4195  157.0793 H   0  0  0  0  0  0  0  0  0  0  0  0
  148.1489  141.3087  158.4490 H   0  0  0  0  0  0  0  0  0  0  0  0
  151.3694  134.1424  155.3036 H   0  0  0  0  0  0  0  0  0  0  0  0
  151.3206  132.4939  156.0075 H   0  0  0  0  0  0  0  0  0  0  0  0
  148.9988  135.3109  154.8258 H   0  0  0  0  0  0  0  0  0  0  0  0
  149.5183  134.3895  153.4540 H   0  0  0  0  0  0  0  0  0  0  0  0
  146.7646  134.2487  154.7731 H   0  0  0  0  0  0  0  0  0  0  0  0
  147.1377  135.0157  153.2492 H   0  0  0  0  0  0  0  0  0  0  0  0
  146.1405  132.7268  152.9429 H   0  0  0  0  0  0  0  0  0  0  0  0
  147.7294  132.8677  152.2276 H   0  0  0  0  0  0  0  0  0  0  0  0
  147.0528  131.5670  154.8993 H   0  0  0  0  0  0  0  0  0  0  0  0
  147.6160  130.7558  153.4610 H   0  0  0  0  0  0  0  0  0  0  0  0
  149.7961  131.8988  153.5931 H   0  0  0  0  0  0  0  0  0  0  0  0
  149.4728  131.0307  155.0496 H   0  0  0  0  0  0  0  0  0  0  0  0
  1  2  1  0  0  0  0
  1 31  1  0  0  0  0
  1 32  1  0  0  0  0
  1 33  1  0  0  0  0
  2  3  1  0  0  0  0
  2  4  1  0  0  0  0
  2 34  1  0  0  0  0
  3 35  1  0  0  0  0
  3 36  1  0  0  0  0
  3 37  1  0  0  0  0
  4 25  1  0  0  0  0
  4  5  1  0  0  0  0
  4 38  1  0  0  0  0
  5  6  1  0  0  0  0
  5 24  1  0  0  0  0
  6 11  1  0  0  0  0
  6  7  2  0  0  0  0
  7  8  1  0  0  0  0
  8  9  2  0  0  0  0
  8 39  1  0  0  0  0
  9 10  1  0  0  0  0
 10 14  1  0  0  0  0
 10 11  2  0  0  0  0
 11 12  1  0  0  0  0
 12 13  2  0  0  0  0
 13 14  1  0  0  0  0
 13 40  1  0  0  0  0
 14 15  1  0  0  0  0
 15 16  1  0  0  0  0
 15 41  1  0  0  0  0
 15 42  1  0  0  0  0
 16 17  1  0  0  0  0
 16 19  1  0  0  0  0
 16 43  1  0  0  0  0
 17 18  1  0  0  0  0
 17 44  1  0  0  0  0
 17 45  1  0  0  0  0
 18 46  1  0  0  0  0
 19 23  1  0  0  0  0
 19 20  1  0  0  0  0
 19 47  1  0  0  0  0
 20 21  1  0  0  0  0
 20 48  1  0  0  0  0
 20 49  1  0  0  0  0
 21 22  1  0  0  0  0
 21 50  1  0  0  0  0
 21 51  1  0  0  0  0
 22 23  1  0  0  0  0
 23 52  1  0  0  0  0
 23 53  1  0  0  0  0
 24 25  1  0  0  0  0
 24 54  1  0  0  0  0
 24 55  1  0  0  0  0
 25 30  1  0  0  0  0
 25 26  1  0  0  0  0
 26 27  1  0  0  0  0
 26 56  1  0  0  0  0
 26 57  1  0  0  0  0
 27 28  1  0  0  0  0
 27 58  1  0  0  0  0
 27 59  1  0  0  0  0
 28 29  1  0  0  0  0
 28 60  1  0  0  0  0
 28 61  1  0  0  0  0
 29 30  1  0  0  0  0
 29 62  1  0  0  0  0
 29 63  1  0  0  0  0
 30 64  1  0  0  0  0
 30 65  1  0  0  0  0
M  END
> <s_m_source_file>
AV-unprocessed.smi

> <i_m_source_file_index>
275

> <i_lp_mmshare_version>
43012

> <i_f3d_flags>
0

> <s_epik_input>
W0NIMl0xW0NIMl1bQ0gyXVtDSDJdW0NIMl1DMTJbQ0BIXShbQ0hdKFtDSDNdKVtDSDNdKU4oW0NIMl0yKWMobltjSF1uMyljKGMzNCluW2NIXW40W0NIMl1bQ0BIXShbQ0gyXVtPSF0pW0NAQEhdNVtDSDJdW0NIMl1PW0NIMl01

> <s_epik_cmdline>
J2VwaWtfcHl0aG9uJywgJy1waCcsICc3LjAnLCAnLXRuJywgJzgnLCAnLW1hJywgJzIwMCcsICctbWV0YWxfYmluZGluZycsICctaW1hZScsICc8aW5maWxlLm1hZT4nLCAnLW9tYWUnLCAnPG91dGZpbGUubWFlPic=

> <r_lp_tautomer_probability>
1

> <r_epik_Ionization_Penalty>
0.00375122

> <r_epik_Ionization_Penalty_Charging>
0

> <r_epik_Ionization_Penalty_Neutral>
0.00375122

> <r_epik_State_Penalty>
0.00260593

> <r_epik_Charging_Adjusted_Penalty>
0.00260593

> <i_epik_Tot_Q>
0

> <i_epik_Tot_abs_Q>
0

> <r_epik_Metal_State_Penalty>
-0

> <b_epik_Metal_Only>
0

> <s_lp_Force_Field>
OPLS_2005

> <r_lp_Energy>
69.8585

> <b_lp_Chiralities_Consistent>
1

> <s_lp_Variant>
AV-unprocessed.smi:275-6

> <Gold.Version>
5.8.1

> <Gold.Id.Protein>
6NUR|6NUR_protein|mol2

> <Gold.PLP.Fitness>
48.0712

> <Gold.PLP.PLP>
-40.0643

> <Gold.PLP.part.hbond>
-6.0000

> <Gold.PLP.part.metal>
0.0000

> <Gold.PLP.part.buried>
-2.7940

> <Gold.PLP.part.nonpolar>
-32.5464

> <Gold.PLP.part.repulsive>
0.2825

> <Gold.PLP.ligand.clash>
0.0000

> <Gold.PLP.ligand.torsion>
1.2490

> <Gold.PLP.Chemscore.Hbond>
3.3421

> <Gold.PLP.Chemscore.CHOScore>
0.0000

> <Gold.PLP.Chemscore.Metal>
0.0000

> <Gold.Chemscore.Hbonds>
donor molecule, donor type, donor heavy atom, donor atom, acceptor molecule, acceptor atom, score
      P1  H  6896  6908       L1     7  0.76
      P1  H  7989  7998       L1    18  0.35
      P1  H  8011  8017       L1    18  0.86
      P1  H 10752 10764       L1    12  0.80

> <Gold.PLP.Chemscore.Internal.Correction>
0.4786

> <Gold.Rescore>
     Score         DG    S(hbond)    S(metal)    S(lipo)     H(rot)  DE(clash)    DE(int)     intcor
     13.05     -17.33       2.07        0.00      97.83       2.54       1.80       2.49       ----

> <Gold.Chemscore.Fitness>
13.0470

> <Gold.Chemscore.DG>
-17.3322

> <Gold.Chemscore.ZeroCoef>
-5.4800

> <Gold.Chemscore.Hbond>
2.0668

> <Gold.Chemscore.Metal>
0.0000

> <Gold.Chemscore.Lipo>
97.8269

> <Gold.Chemscore.Internal_Hbond>
0.0000

> <Gold.Chemscore.DEClash>
1.7984

> <Gold.Chemscore.DEInternal>
2.4868

> <Gold.Chemscore.Rot>
2.5377

> <Gold.Chemscore.Internal.Correction>
   9.000000E+99

> <Gold.Chemscore.Hbonds>
donor molecule, donor type, donor heavy atom, donor atom, acceptor molecule, acceptor atom, score
      P1  H  6896  6908       L1     7  0.07
      P1  H  7989  7998       L1    18  0.07
      P1  H  8011  8017       L1    18  0.28
      P1  H 10752 10764       L1    12  0.12

> <Gold.Chemscore.Hbond.Weighted>
-6.9030

> <Gold.Chemscore.Metal.Weighted>
-0.0000

> <Gold.Chemscore.Lipo.Weighted>
-11.4457

> <Gold.Chemscore.Internal_Hbond.Weighted>
0.0000

> <Gold.Chemscore.DEClash.Weighted>
1.7984

> <Gold.Chemscore.DEInternal.Weighted>
2.4868

> <Gold.Chemscore.Rot.Weighted>
6.4966

> <Gold.Chemscore.Internal.Correction.Weighted>
   9.000000E+99

> <Gold.Protein.RotatedTorsions>
[ 6907 6896 6895 6894 ] final -161.25 input  -60.11 | X-H torsion
[ 7974 7965 7964 7962 ] final  -72.71 input  175.53 | X-H torsion
[ 8008 7997 7996 7995 ] final -130.20 input   59.86 | X-H torsion
[ 10167 10162 10161 10158 ] final  100.99 input  -65.29 | X-H torsion
[ 10718 10713 10712 10709 ] final  164.36 input   66.30 | X-H torsion
[ 10763 10752 10751 10750 ] final  -56.10 input  -60.55 | X-H torsion
[ 11005 11000 10999 10996 ] final    4.25 input  -57.11 | X-H torsion

> <Gold.Protein.ActiveResidues>
 VAL166  LYS551  ARG553  GLY616  TRP617  ASP618  TYR619  PRO620  LYS621  CYS622 
 ASP623  PHE694  ASN695  SER759  ASP760  ASP761  ALA762  ILE779  LEU786  VAL792 
 PHE793  MET794  SER795  GLU796  ALA797  LYS798  CYS799  TRP800  GLU811  SER814 

> <Gold.Protein.RotatedAtoms>
  151.3617  133.3887  159.2690 H   0  0  0  0  0  0  0  0  0  0  0  0  # atno 6907 bound_to 6896
  150.9720  134.9092  159.7804 H   0  0  0  0  0  0  0  0  0  0  0  0  # atno 6908 bound_to 6896
  152.5188  134.3579  159.9326 H   0  0  0  0  0  0  0  0  0  0  0  0  # atno 6909 bound_to 6896
  145.6616  140.9250  143.0930 H   0  0  0  0  0  0  0  0  0  0  0  0  # atno 7974 bound_to 7965
  155.2918  140.0448  157.3023 H   0  0  0  0  0  0  0  0  0  0  0  0  # atno 8008 bound_to 7997
  154.5537  140.2325  155.8412 H   0  0  0  0  0  0  0  0  0  0  0  0  # atno 8009 bound_to 7997
  156.1989  140.3031  155.9492 H   0  0  0  0  0  0  0  0  0  0  0  0  # atno 8010 bound_to 7997
  139.7478  144.6993  151.0478 H   0  0  0  0  0  0  0  0  0  0  0  0  # atno 10167 bound_to 10162
  157.0954  131.0429  151.2520 H   0  0  0  0  0  0  0  0  0  0  0  0  # atno 10718 bound_to 10713
  154.2012  135.6410  153.5087 H   0  0  0  0  0  0  0  0  0  0  0  0  # atno 10763 bound_to 10752
  153.0011  135.5452  154.6313 H   0  0  0  0  0  0  0  0  0  0  0  0  # atno 10764 bound_to 10752
  154.5727  135.2918  155.0785 H   0  0  0  0  0  0  0  0  0  0  0  0  # atno 10765 bound_to 10752
  140.5840  133.9986  155.8060 H   0  0  0  0  0  0  0  0  0  0  0  0  # atno 11005 bound_to 11000
  144.7087  139.8457  143.7421 LP  0  0  0  0  0  0  0  0  0  0  0  0  # atno 17320 bound_to 7965
  146.1120  139.4126  143.0282 LP  0  0  0  0  0  0  0  0  0  0  0  0  # atno 17321 bound_to 7965
  140.7794  143.4846  150.9973 LP  0  0  0  0  0  0  0  0  0  0  0  0  # atno 17342 bound_to 10162
  139.8534  143.7409  152.3177 LP  0  0  0  0  0  0  0  0  0  0  0  0  # atno 17343 bound_to 10162
  157.4685  130.7695  149.7302 LP  0  0  0  0  0  0  0  0  0  0  0  0  # atno 17370 bound_to 10713
  155.9887  130.3957  150.3106 LP  0  0  0  0  0  0  0  0  0  0  0  0  # atno 17371 bound_to 10713
  141.0978  133.9817  157.3131 LP  0  0  0  0  0  0  0  0  0  0  0  0  # atno 17394 bound_to 11000
  139.9304  135.0200  156.8380 LP  0  0  0  0  0  0  0  0  0  0  0  0  # atno 17395 bound_to 11000

$$$$
