AV-unprocessed.smi:34|AV-procd|sdf|236|dock10
  -GOLD-   2262015573D 1   1.00000     0.00000
 Structure written by MMmdl.
 54 58  0  0  0  0  0  0  0  0  2 V2000
  150.3716  130.3339  157.3456 O   0  0  0  0  0  0  0  0  0  0  0  0
  151.2104  131.1866  157.0468 C   0  0  0  0  0  0  0  0  0  0  0  0
  151.1804  132.5158  157.3189 N   0  5  0  0  0  0  0  0  0  0  0  0
  150.5491  133.3562  156.4843 C   0  0  0  0  0  0  0  0  0  0  0  0
  150.0481  132.9047  155.3062 N   0  0  0  0  0  0  0  0  0  0  0  0
  149.4243  133.7435  154.4706 C   0  0  0  0  0  0  0  0  0  0  0  0
  149.1986  135.0534  154.6087 N   0  0  0  0  0  0  0  0  0  0  0  0
  149.7049  135.5232  155.7861 C   0  0  0  0  0  0  0  0  0  0  0  0
  150.3882  134.7415  156.7635 C   0  0  0  0  0  0  0  0  0  0  0  0
  150.7714  135.5255  157.8414 N   0  0  0  0  0  0  0  0  0  0  0  0
  150.3112  136.7211  157.4812 C   0  0  0  0  0  0  0  0  0  0  0  0
  149.6732  136.8120  156.2975 N   0  0  0  0  0  0  0  0  0  0  0  0
  149.0738  138.0424  155.6916 C   0  0  1  0  0  0  0  0  0  0  0  0
  149.4354  139.1580  156.4468 O   0  0  0  0  0  0  0  0  0  0  0  0
  149.7526  140.2616  155.5983 C   0  0  1  0  0  0  0  0  0  0  0  0
  151.2235  140.6408  155.8213 C   0  0  0  0  0  0  0  0  0  0  0  0
  151.3068  141.6236  156.8410 O   0  0  0  0  0  0  0  0  0  0  0  0
  151.5721  141.2589  158.1104 C   0  0  0  0  0  0  0  0  0  0  0  0
  151.6900  140.0868  158.4738 O   0  0  0  0  0  0  0  0  0  0  0  0
  151.7070  142.4235  159.0325 C   0  0  0  0  0  0  0  0  0  0  0  0
  151.0454  143.6344  158.7206 C   0  0  0  0  0  0  0  0  0  0  0  0
  151.1535  144.7511  159.5723 C   0  0  0  0  0  0  0  0  0  0  0  0
  151.9256  144.6709  160.7456 C   0  0  0  0  0  0  0  0  0  0  0  0
  152.5889  143.4725  161.0670 C   0  0  0  0  0  0  0  0  0  0  0  0
  152.4811  142.3541  160.2172 C   0  0  0  0  0  0  0  0  0  0  0  0
  149.4540  139.8021  154.1652 C   0  0  2  0  0  0  0  0  0  0  0  0
  148.2141  140.1659  153.8328 F   0  0  0  0  0  0  0  0  0  0  0  0
  149.5244  138.2894  154.2452 C   0  0  1  0  0  0  0  0  0  0  0  0
  150.8234  137.8129  153.9452 O   0  0  0  0  0  0  0  0  0  0  0  0
  152.4029  130.7746  156.2254 C   0  0  0  0  0  0  0  0  0  0  0  0
  152.2538  129.7952  155.2170 C   0  0  0  0  0  0  0  0  0  0  0  0
  153.3618  129.3783  154.4537 C   0  0  0  0  0  0  0  0  0  0  0  0
  154.6338  129.9292  154.6977 C   0  0  0  0  0  0  0  0  0  0  0  0
  154.7976  130.8948  155.7083 C   0  0  0  0  0  0  0  0  0  0  0  0
  153.6899  131.3125  156.4717 C   0  0  0  0  0  0  0  0  0  0  0  0
  149.0529  133.3007  153.5584 H   0  0  0  0  0  0  0  0  0  0  0  0
  150.4436  137.5833  158.1180 H   0  0  0  0  0  0  0  0  0  0  0  0
  147.9950  137.9008  155.7719 H   0  0  0  0  0  0  0  0  0  0  0  0
  149.1201  141.1061  155.8749 H   0  0  0  0  0  0  0  0  0  0  0  0
  151.7869  139.7600  156.1322 H   0  0  0  0  0  0  0  0  0  0  0  0
  151.6739  141.0084  154.8986 H   0  0  0  0  0  0  0  0  0  0  0  0
  150.4481  143.7202  157.8244 H   0  0  0  0  0  0  0  0  0  0  0  0
  150.6432  145.6701  159.3242 H   0  0  0  0  0  0  0  0  0  0  0  0
  152.0085  145.5274  161.3983 H   0  0  0  0  0  0  0  0  0  0  0  0
  153.1823  143.4098  161.9673 H   0  0  0  0  0  0  0  0  0  0  0  0
  153.0021  141.4495  160.4944 H   0  0  0  0  0  0  0  0  0  0  0  0
  150.1190  140.2337  153.4156 H   0  0  0  0  0  0  0  0  0  0  0  0
  148.8258  137.8085  153.5595 H   0  0  0  0  0  0  0  0  0  0  0  0
  150.7959  137.3683  153.1115 H   0  0  0  0  0  0  0  0  0  0  0  0
  151.2845  129.3611  155.0184 H   0  0  0  0  0  0  0  0  0  0  0  0
  153.2350  128.6342  153.6816 H   0  0  0  0  0  0  0  0  0  0  0  0
  155.4835  129.6087  154.1133 H   0  0  0  0  0  0  0  0  0  0  0  0
  155.7738  131.3140  155.9013 H   0  0  0  0  0  0  0  0  0  0  0  0
  153.8393  132.0469  157.2501 H   0  0  0  0  0  0  0  0  0  0  0  0
  1  2  2  0  0  0  0
  2  3  1  0  0  0  0
  2 30  1  0  0  0  0
  3  4  1  0  0  0  0
  4  9  1  0  0  0  0
  4  5  2  0  0  0  0
  5  6  1  0  0  0  0
  6  7  2  0  0  0  0
  6 36  1  0  0  0  0
  7  8  1  0  0  0  0
  8 12  1  0  0  0  0
  8  9  2  0  0  0  0
  9 10  1  0  0  0  0
 10 11  2  0  0  0  0
 11 12  1  0  0  0  0
 11 37  1  0  0  0  0
 12 13  1  0  0  0  0
 13 28  1  0  0  0  0
 13 14  1  0  0  0  0
 13 38  1  0  0  0  0
 14 15  1  0  0  0  0
 15 16  1  0  0  0  0
 15 26  1  0  0  0  0
 15 39  1  0  0  0  0
 16 17  1  0  0  0  0
 16 40  1  0  0  0  0
 16 41  1  0  0  0  0
 17 18  1  0  0  0  0
 18 19  2  0  0  0  0
 18 20  1  0  0  0  0
 20 25  1  0  0  0  0
 20 21  2  0  0  0  0
 21 22  1  0  0  0  0
 21 42  1  0  0  0  0
 22 23  2  0  0  0  0
 22 43  1  0  0  0  0
 23 24  1  0  0  0  0
 23 44  1  0  0  0  0
 24 25  2  0  0  0  0
 24 45  1  0  0  0  0
 25 46  1  0  0  0  0
 26 27  1  0  0  0  0
 26 28  1  0  0  0  0
 26 47  1  0  0  0  0
 28 29  1  0  0  0  0
 28 48  1  0  0  0  0
 29 49  1  0  0  0  0
 30 35  1  0  0  0  0
 30 31  2  0  0  0  0
 31 32  1  0  0  0  0
 31 50  1  0  0  0  0
 32 33  2  0  0  0  0
 32 51  1  0  0  0  0
 33 34  1  0  0  0  0
 33 52  1  0  0  0  0
 34 35  2  0  0  0  0
 34 53  1  0  0  0  0
 35 54  1  0  0  0  0
M  CHG  1   3  -1
M  END
> <s_m_source_file>
AV-unprocessed.smi

> <i_m_source_file_index>
34

> <i_lp_mmshare_version>
43012

> <i_f3d_flags>
0

> <s_epik_input>
W2NIXTFbY0hdW2NIXVtjSF1bY0hdYzFDKD1PKVtOSF1jKG5bY0hdbjIpYyhjMjMpbltjSF1uM1tDQEBIXTRPW0NASF0oW0NAQEhdKEYpW0NASF00W09IXSlbQ0gyXU9DKD1PKWM1W2NIXVtjSF1bY0hdW2NIXVtjSF01

> <s_epik_cmdline>
J2VwaWtfcHl0aG9uJywgJy1waCcsICc3LjAnLCAnLXRuJywgJzgnLCAnLW1hJywgJzIwMCcsICctbWV0YWxfYmluZGluZycsICctaW1hZScsICc8aW5maWxlLm1hZT4nLCAnLW9tYWUnLCAnPG91dGZpbGUubWFlPic=

> <r_lp_tautomer_probability>
1

> <r_epik_Ionization_Penalty>
4.33227

> <r_epik_Ionization_Penalty_Charging>
3.41027

> <r_epik_Ionization_Penalty_Neutral>
0.922001

> <r_epik_State_Penalty>
3.41358

> <r_epik_Charging_Adjusted_Penalty>
6.82385

> <i_epik_Tot_Q>
-1

> <i_epik_Tot_abs_Q>
1

> <r_epik_Metal_State_Penalty>
0.496292

> <b_epik_Metal_Only>
1

> <s_epik_Chemistry_Notes>
This compound has an ester and may undergo hydrolysis at high or low pH. This compound contains an acetal/aminal-like group ( X-CH(R)-Y where X, Y are N, S, or O) that may be acid/base labile, releasing an aldehyde.

> <s_lp_Force_Field>
OPLS_2005

> <r_lp_Energy>
54.5703

> <b_lp_Chiralities_Consistent>
1

> <s_lp_Variant>
AV-unprocessed.smi:34-22

> <Gold.Version>
5.8.1

> <Gold.Id.Protein>
6NUR|6NUR_protein|mol2

> <Gold.PLP.Fitness>
59.6632

> <Gold.PLP.PLP>
-55.2237

> <Gold.PLP.part.hbond>
-3.3556

> <Gold.PLP.part.metal>
0.0000

> <Gold.PLP.part.buried>
-4.4742

> <Gold.PLP.part.nonpolar>
-48.6929

> <Gold.PLP.part.repulsive>
0.9609

> <Gold.PLP.ligand.clash>
0.0000

> <Gold.PLP.ligand.torsion>
2.4076

> <Gold.PLP.Chemscore.Hbond>
2.9475

> <Gold.PLP.Chemscore.CHOScore>
0.0000

> <Gold.PLP.Chemscore.Metal>
0.0000

> <Gold.Chemscore.Hbonds>
donor molecule, donor type, donor heavy atom, donor atom, acceptor molecule, acceptor atom, score
      L1  H    29    49       P1  7949  0.55
      P1  H  6896  6908       L1     3  1.69
      P1  H  6896  6909       L1    10  0.42

> <Gold.PLP.Chemscore.Internal.Correction>
0.4122

> <Gold.Rescore>
     Score         DG    S(hbond)    S(metal)    S(lipo)     H(rot)  DE(clash)    DE(int)     intcor
     15.58     -18.00       1.39        0.00     126.33       2.69       0.07       2.35       ----

> <Gold.Chemscore.Fitness>
15.5792

> <Gold.Chemscore.DG>
-17.9977

> <Gold.Chemscore.ZeroCoef>
-5.4800

> <Gold.Chemscore.Hbond>
1.3877

> <Gold.Chemscore.Metal>
0.0000

> <Gold.Chemscore.Lipo>
126.3273

> <Gold.Chemscore.Internal_Hbond>
0.0000

> <Gold.Chemscore.DEClash>
0.0712

> <Gold.Chemscore.DEInternal>
2.3474

> <Gold.Chemscore.Rot>
2.6944

> <Gold.Chemscore.Internal.Correction>
   9.000000E+99

> <Gold.Chemscore.Hbonds>
donor molecule, donor type, donor heavy atom, donor atom, acceptor molecule, acceptor atom, score
      L1  H    29    49       P1  7949  0.08
      P1  H  6896  6908       L1     3  0.69
      P1  H  6896  6909       L1    10  0.41

> <Gold.Chemscore.Hbond.Weighted>
-4.6350

> <Gold.Chemscore.Metal.Weighted>
-0.0000

> <Gold.Chemscore.Lipo.Weighted>
-14.7803

> <Gold.Chemscore.Internal_Hbond.Weighted>
0.0000

> <Gold.Chemscore.DEClash.Weighted>
0.0712

> <Gold.Chemscore.DEInternal.Weighted>
2.3474

> <Gold.Chemscore.Rot.Weighted>
6.8975

> <Gold.Chemscore.Internal.Correction.Weighted>
   9.000000E+99

> <Gold.Protein.RotatedTorsions>
[ 6907 6896 6895 6894 ] final   69.68 input  -60.11 | X-H torsion
[ 7974 7965 7964 7962 ] final    1.40 input  175.53 | X-H torsion
[ 8008 7997 7996 7995 ] final  -77.91 input   59.86 | X-H torsion
[ 10167 10162 10161 10158 ] final  144.22 input  -65.29 | X-H torsion
[ 10718 10713 10712 10709 ] final -171.11 input   66.30 | X-H torsion
[ 10763 10752 10751 10750 ] final  104.85 input  -60.55 | X-H torsion
[ 11005 11000 10999 10996 ] final   24.28 input  -57.11 | X-H torsion

> <Gold.Protein.ActiveResidues>
 VAL166  LYS551  ARG553  GLY616  TRP617  ASP618  TYR619  PRO620  LYS621  CYS622 
 ASP623  PHE694  ASN695  SER759  ASP760  ASP761  ALA762  ILE779  LEU786  VAL792 
 PHE793  MET794  SER795  GLU796  ALA797  LYS798  CYS799  TRP800  GLU811  SER814 

> <Gold.Protein.RotatedAtoms>
  152.4702  134.4979  159.9715 H   0  0  0  0  0  0  0  0  0  0  0  0  # atno 6907 bound_to 6896
  151.5008  133.3499  159.2876 H   0  0  0  0  0  0  0  0  0  0  0  0  # atno 6908 bound_to 6896
  150.8707  134.8108  159.7214 H   0  0  0  0  0  0  0  0  0  0  0  0  # atno 6909 bound_to 6896
  146.2440  140.0993  142.8348 H   0  0  0  0  0  0  0  0  0  0  0  0  # atno 7974 bound_to 7965
  154.5640  140.0703  156.8863 H   0  0  0  0  0  0  0  0  0  0  0  0  # atno 8008 bound_to 7997
  155.2758  140.3368  155.4243 H   0  0  0  0  0  0  0  0  0  0  0  0  # atno 8009 bound_to 7997
  156.2065  140.1742  156.7773 H   0  0  0  0  0  0  0  0  0  0  0  0  # atno 8010 bound_to 7997
  139.4952  144.5987  151.6528 H   0  0  0  0  0  0  0  0  0  0  0  0  # atno 10167 bound_to 10162
  156.7361  130.9324  151.3107 H   0  0  0  0  0  0  0  0  0  0  0  0  # atno 10718 bound_to 10713
  153.3715  135.3929  155.1792 H   0  0  0  0  0  0  0  0  0  0  0  0  # atno 10763 bound_to 10752
  154.8695  135.3703  154.4972 H   0  0  0  0  0  0  0  0  0  0  0  0  # atno 10764 bound_to 10752
  153.5440  135.7084  153.5684 H   0  0  0  0  0  0  0  0  0  0  0  0  # atno 10765 bound_to 10752
  140.3604  134.2131  155.7672 H   0  0  0  0  0  0  0  0  0  0  0  0  # atno 11005 bound_to 11000
  145.0583  140.9068  143.4954 LP  0  0  0  0  0  0  0  0  0  0  0  0  # atno 17320 bound_to 7965
  145.1103  139.2761  143.5641 LP  0  0  0  0  0  0  0  0  0  0  0  0  # atno 17321 bound_to 7965
  140.5631  144.0235  150.6179 LP  0  0  0  0  0  0  0  0  0  0  0  0  # atno 17342 bound_to 10162
  140.3328  143.3067  152.0669 LP  0  0  0  0  0  0  0  0  0  0  0  0  # atno 17343 bound_to 10162
  157.6838  130.9166  150.0335 LP  0  0  0  0  0  0  0  0  0  0  0  0  # atno 17370 bound_to 10713
  156.1496  130.3642  149.9458 LP  0  0  0  0  0  0  0  0  0  0  0  0  # atno 17371 bound_to 10713
  141.1986  133.8032  157.0577 LP  0  0  0  0  0  0  0  0  0  0  0  0  # atno 17394 bound_to 11000
  140.0631  134.9744  157.1339 LP  0  0  0  0  0  0  0  0  0  0  0  0  # atno 17395 bound_to 11000

$$$$
