AV-unprocessed.smi:1570|AV-procd|sdf|6320|dock9
  -GOLD-   22720 6523D 1   1.00000     0.00000
 Structure written by MMmdl.
 52 54  0  0  0  0  0  0  0  0  2 V2000
  153.7050  141.4801  162.0568 C   0  0  0  0  0  0  0  0  0  0  0  0
  154.0196  140.9297  160.6596 C   0  0  0  0  0  0  0  0  0  0  0  0
  152.9438  141.2325  159.7191 N   0  0  0  0  0  0  0  0  0  0  0  0
  152.3656  140.3684  158.8522 C   0  0  0  0  0  0  0  0  0  0  0  0
  152.6452  139.1768  158.7230 O   0  0  0  0  0  0  0  0  0  0  0  0
  151.4527  141.0520  158.1217 N   0  0  0  0  0  0  0  0  0  0  0  0
  150.6275  140.5231  157.0363 C   0  0  0  0  0  0  0  0  0  0  0  0
  151.4587  139.7246  156.0114 C   0  0  2  0  0  0  0  0  0  0  0  0
  152.1099  140.6518  155.1668 O   0  0  0  0  0  0  0  0  0  0  0  0
  150.6054  138.7781  155.1391 C   0  0  0  0  0  0  0  0  0  0  0  0
  149.3040  139.3769  154.7514 N   0  3  1  0  0  0  0  0  0  0  0  0
  149.4338  140.5211  153.8154 C   0  0  0  0  0  0  0  0  0  0  0  0
  148.0564  141.1342  153.4959 C   0  0  2  0  0  0  0  0  0  0  0  0
  147.4658  141.9542  154.6566 C   0  0  0  0  0  0  0  0  0  0  0  0
  147.1605  140.1220  153.0360 O   0  0  0  0  0  0  0  0  0  0  0  0
  146.9917  139.0220  153.9266 C   0  0  1  0  0  0  0  0  0  0  0  0
  146.0113  138.0370  153.2802 C   0  0  0  0  0  0  0  0  0  0  0  0
  148.3594  138.3749  154.2070 C   0  0  0  0  0  0  0  0  0  0  0  0
  151.4577  142.3951  158.5244 C   0  0  0  0  0  0  0  0  0  0  0  0
  150.7143  143.4983  158.0703 C   0  0  0  0  0  0  0  0  0  0  0  0
  150.9691  144.7465  158.6850 C   0  0  0  0  0  0  0  0  0  0  0  0
  151.9381  144.8652  159.7151 C   0  0  0  0  0  0  0  0  0  0  0  0
  152.6723  143.7380  160.1532 C   0  0  0  0  0  0  0  0  0  0  0  0
  152.3974  142.5095  159.5273 C   0  0  0  0  0  0  0  0  0  0  0  0
  154.5108  141.2512  162.7544 H   0  0  0  0  0  0  0  0  0  0  0  0
  152.7876  141.0453  162.4548 H   0  0  0  0  0  0  0  0  0  0  0  0
  153.5819  142.5634  162.0357 H   0  0  0  0  0  0  0  0  0  0  0  0
  154.9581  141.3528  160.2977 H   0  0  0  0  0  0  0  0  0  0  0  0
  154.1735  139.8516  160.7075 H   0  0  0  0  0  0  0  0  0  0  0  0
  149.8230  139.9043  157.4379 H   0  0  0  0  0  0  0  0  0  0  0  0
  150.1375  141.3649  156.5451 H   0  0  0  0  0  0  0  0  0  0  0  0
  152.2292  139.1687  156.5444 H   0  0  0  0  0  0  0  0  0  0  0  0
  152.7081  141.1665  155.6876 H   0  0  0  0  0  0  0  0  0  0  0  0
  151.1366  138.4930  154.2310 H   0  0  0  0  0  0  0  0  0  0  0  0
  150.4382  137.8537  155.6944 H   0  0  0  0  0  0  0  0  0  0  0  0
  150.0898  141.2887  154.2248 H   0  0  0  0  0  0  0  0  0  0  0  0
  149.8998  140.1739  152.8918 H   0  0  0  0  0  0  0  0  0  0  0  0
  148.1869  141.8225  152.6602 H   0  0  0  0  0  0  0  0  0  0  0  0
  148.1100  142.7999  154.8982 H   0  0  0  0  0  0  0  0  0  0  0  0
  147.3529  141.3650  155.5664 H   0  0  0  0  0  0  0  0  0  0  0  0
  146.4862  142.3527  154.3918 H   0  0  0  0  0  0  0  0  0  0  0  0
  146.5522  139.3691  154.8619 H   0  0  0  0  0  0  0  0  0  0  0  0
  145.8386  137.1746  153.9250 H   0  0  0  0  0  0  0  0  0  0  0  0
  146.3902  137.6705  152.3255 H   0  0  0  0  0  0  0  0  0  0  0  0
  145.0471  138.5114  153.0957 H   0  0  0  0  0  0  0  0  0  0  0  0
  148.7726  137.9431  153.2939 H   0  0  0  0  0  0  0  0  0  0  0  0
  148.2360  137.5593  154.9204 H   0  0  0  0  0  0  0  0  0  0  0  0
  149.9802  143.4021  157.2842 H   0  0  0  0  0  0  0  0  0  0  0  0
  150.4201  145.6201  158.3656 H   0  0  0  0  0  0  0  0  0  0  0  0
  152.1180  145.8284  160.1697 H   0  0  0  0  0  0  0  0  0  0  0  0
  153.4131  143.8234  160.9342 H   0  0  0  0  0  0  0  0  0  0  0  0
  148.8874  139.7281  155.6022 H   0  0  0  0  0  0  0  0  0  0  0  0
  1  2  1  0  0  0  0
  1 25  1  0  0  0  0
  1 26  1  0  0  0  0
  1 27  1  0  0  0  0
  2  3  1  0  0  0  0
  2 28  1  0  0  0  0
  2 29  1  0  0  0  0
  3 24  1  0  0  0  0
  3  4  1  0  0  0  0
  4  5  2  0  0  0  0
  4  6  1  0  0  0  0
  6  7  1  0  0  0  0
  6 19  1  0  0  0  0
  7  8  1  0  0  0  0
  7 30  1  0  0  0  0
  7 31  1  0  0  0  0
  8  9  1  0  0  0  0
  8 10  1  0  0  0  0
  8 32  1  0  0  0  0
  9 33  1  0  0  0  0
 10 11  1  0  0  0  0
 10 34  1  0  0  0  0
 10 35  1  0  0  0  0
 11 18  1  0  0  0  0
 11 12  1  0  0  0  0
 11 52  1  0  0  0  0
 12 13  1  0  0  0  0
 12 36  1  0  0  0  0
 12 37  1  0  0  0  0
 13 14  1  0  0  0  0
 13 15  1  0  0  0  0
 13 38  1  0  0  0  0
 14 39  1  0  0  0  0
 14 40  1  0  0  0  0
 14 41  1  0  0  0  0
 15 16  1  0  0  0  0
 16 17  1  0  0  0  0
 16 18  1  0  0  0  0
 16 42  1  0  0  0  0
 17 43  1  0  0  0  0
 17 44  1  0  0  0  0
 17 45  1  0  0  0  0
 18 46  1  0  0  0  0
 18 47  1  0  0  0  0
 19 24  2  0  0  0  0
 19 20  1  0  0  0  0
 20 21  2  0  0  0  0
 20 48  1  0  0  0  0
 21 22  1  0  0  0  0
 21 49  1  0  0  0  0
 22 23  2  0  0  0  0
 22 50  1  0  0  0  0
 23 24  1  0  0  0  0
 23 51  1  0  0  0  0
M  CHG  1  11   1
M  END
> <s_m_source_file>
AV-unprocessed.smi

> <i_m_source_file_index>
1570

> <i_lp_mmshare_version>
43012

> <i_f3d_flags>
0

> <s_epik_input>
W2NIXTFbY0hdW2NIXVtjSF1jKGMxMiluKFtDSDJdW0NIM10pYyg9TyluMltDSDJdW0NASF0oW09IXSlbQ0gyXU4zW0NIMl1bQ0BASF0oW0NIM10pT1tDQEBIXShbQ0gzXSlbQ0gyXTM=

> <s_epik_cmdline>
J2VwaWtfcHl0aG9uJywgJy1waCcsICc3LjAnLCAnLXRuJywgJzgnLCAnLW1hJywgJzIwMCcsICctbWV0YWxfYmluZGluZycsICctaW1hZScsICc8aW5maWxlLm1hZT4nLCAnLW9tYWUnLCAnPG91dGZpbGUubWFlPic=

> <r_epik_Ionization_Penalty>
0.706332

> <r_epik_Ionization_Penalty_Charging>
0.706318

> <r_epik_Ionization_Penalty_Neutral>
1.42224e-05

> <r_epik_State_Penalty>
0.729493

> <r_epik_Charging_Adjusted_Penalty>
1.43581

> <i_epik_Tot_Q>
1

> <i_epik_Tot_abs_Q>
1

> <r_epik_Metal_State_Penalty>
0.729493

> <b_epik_Metal_Only>
0

> <s_lp_Force_Field>
OPLS_2005

> <r_lp_Energy>
53.5828

> <b_lp_Chiralities_Consistent>
1

> <s_lp_Variant>
AV-unprocessed.smi:1570-9

> <Gold.Version>
5.8.1

> <Gold.Id.Protein>
6NUR|6NUR_protein|mol2

> <Gold.PLP.Fitness>
47.4503

> <Gold.PLP.PLP>
-46.3050

> <Gold.PLP.part.hbond>
-1.0000

> <Gold.PLP.part.metal>
0.0000

> <Gold.PLP.part.buried>
-2.5128

> <Gold.PLP.part.nonpolar>
-42.9644

> <Gold.PLP.part.repulsive>
0.2331

> <Gold.PLP.ligand.clash>
0.0000

> <Gold.PLP.ligand.torsion>
0.6415

> <Gold.PLP.Chemscore.Hbond>
0.7840

> <Gold.PLP.Chemscore.CHOScore>
0.0000

> <Gold.PLP.Chemscore.Metal>
0.0000

> <Gold.Chemscore.Hbonds>
donor molecule, donor type, donor heavy atom, donor atom, acceptor molecule, acceptor atom, score
      P1  H  7989  7998       L1     9  0.53

> <Gold.PLP.Chemscore.Internal.Correction>
0.0764

> <Gold.Rescore>
     Score         DG    S(hbond)    S(metal)    S(lipo)     H(rot)  DE(clash)    DE(int)     intcor
     16.71     -17.56       0.65        0.00     131.30       2.13       0.18       0.68       ----

> <Gold.Chemscore.Fitness>
16.7116

> <Gold.Chemscore.DG>
-17.5639

> <Gold.Chemscore.ZeroCoef>
-5.4800

> <Gold.Chemscore.Hbond>
0.6514

> <Gold.Chemscore.Metal>
0.0000

> <Gold.Chemscore.Lipo>
131.2978

> <Gold.Chemscore.Internal_Hbond>
0.0000

> <Gold.Chemscore.DEClash>
0.1754

> <Gold.Chemscore.DEInternal>
0.6769

> <Gold.Chemscore.Rot>
2.1303

> <Gold.Chemscore.Internal.Correction>
   9.000000E+99

> <Gold.Chemscore.Hbonds>
donor molecule, donor type, donor heavy atom, donor atom, acceptor molecule, acceptor atom, score
      P1  H  7989  7998       L1     9  0.54

> <Gold.Chemscore.Hbond.Weighted>
-2.1756

> <Gold.Chemscore.Metal.Weighted>
-0.0000

> <Gold.Chemscore.Lipo.Weighted>
-15.3618

> <Gold.Chemscore.Internal_Hbond.Weighted>
0.0000

> <Gold.Chemscore.DEClash.Weighted>
0.1754

> <Gold.Chemscore.DEInternal.Weighted>
0.6769

> <Gold.Chemscore.Rot.Weighted>
5.4535

> <Gold.Chemscore.Internal.Correction.Weighted>
   9.000000E+99

> <Gold.Protein.RotatedTorsions>
[ 6907 6896 6895 6894 ] final -134.96 input  -60.11 | X-H torsion
[ 7974 7965 7964 7962 ] final  110.12 input  175.53 | X-H torsion
[ 8008 7997 7996 7995 ] final  -85.47 input   59.86 | X-H torsion
[ 10167 10162 10161 10158 ] final  -25.32 input  -65.29 | X-H torsion
[ 10718 10713 10712 10709 ] final   35.06 input   66.30 | X-H torsion
[ 10763 10752 10751 10750 ] final  120.29 input  -60.55 | X-H torsion
[ 11005 11000 10999 10996 ] final   55.17 input  -57.11 | X-H torsion

> <Gold.Protein.ActiveResidues>
 VAL166  LYS551  ARG553  GLY616  TRP617  ASP618  TYR619  PRO620  LYS621  CYS622 
 ASP623  PHE694  ASN695  SER759  ASP760  ASP761  ALA762  ILE779  LEU786  VAL792 
 PHE793  MET794  SER795  GLU796  ALA797  LYS798  CYS799  TRP800  GLU811  SER814 

> <Gold.Protein.RotatedAtoms>
  150.9921  133.6139  159.2706 H   0  0  0  0  0  0  0  0  0  0  0  0  # atno 6907 bound_to 6896
  151.3356  135.0851  159.9363 H   0  0  0  0  0  0  0  0  0  0  0  0  # atno 6908 bound_to 6896
  152.5249  133.9542  159.7741 H   0  0  0  0  0  0  0  0  0  0  0  0  # atno 6909 bound_to 6896
  145.2590  139.2710  143.4027 H   0  0  0  0  0  0  0  0  0  0  0  0  # atno 7974 bound_to 7965
  154.6411  140.0591  156.9846 H   0  0  0  0  0  0  0  0  0  0  0  0  # atno 8008 bound_to 7997
  155.1516  140.3274  155.4411 H   0  0  0  0  0  0  0  0  0  0  0  0  # atno 8009 bound_to 7997
  156.2531  140.1946  156.6627 H   0  0  0  0  0  0  0  0  0  0  0  0  # atno 8010 bound_to 7997
  140.7286  143.4275  151.0853 H   0  0  0  0  0  0  0  0  0  0  0  0  # atno 10167 bound_to 10162
  157.3180  130.7433  149.6767 H   0  0  0  0  0  0  0  0  0  0  0  0  # atno 10718 bound_to 10713
  153.5962  135.3456  155.2929 H   0  0  0  0  0  0  0  0  0  0  0  0  # atno 10763 bound_to 10752
  154.8644  135.4216  154.2462 H   0  0  0  0  0  0  0  0  0  0  0  0  # atno 10764 bound_to 10752
  153.3281  135.7042  153.7043 H   0  0  0  0  0  0  0  0  0  0  0  0  # atno 10765 bound_to 10752
  140.0628  134.5578  155.9132 H   0  0  0  0  0  0  0  0  0  0  0  0  # atno 11005 bound_to 11000
  146.3281  140.3002  142.8620 LP  0  0  0  0  0  0  0  0  0  0  0  0  # atno 17320 bound_to 7965
  144.9435  140.8104  143.5616 LP  0  0  0  0  0  0  0  0  0  0  0  0  # atno 17321 bound_to 7965
  139.7928  143.8194  152.3154 LP  0  0  0  0  0  0  0  0  0  0  0  0  # atno 17342 bound_to 10162
  139.8184  144.7306  150.9605 LP  0  0  0  0  0  0  0  0  0  0  0  0  # atno 17343 bound_to 10162
  155.9683  130.4231  150.4549 LP  0  0  0  0  0  0  0  0  0  0  0  0  # atno 17370 bound_to 10713
  157.2559  131.0556  151.2350 LP  0  0  0  0  0  0  0  0  0  0  0  0  # atno 17371 bound_to 10713
  141.1980  133.6599  156.5772 LP  0  0  0  0  0  0  0  0  0  0  0  0  # atno 17394 bound_to 11000
  140.3744  134.7578  157.4620 LP  0  0  0  0  0  0  0  0  0  0  0  0  # atno 17395 bound_to 11000

$$$$
