AV-unprocessed.smi:3066|AV-procd|sdf|11693|dock1
  -GOLD-   2272017 93D 1   1.00000     0.00000
 Structure written by MMmdl.
 35 36  0  0  0  0  0  0  0  0  1 V2000
  146.6379  143.1751  154.1179 N   0  0  0  0  0  0  0  0  0  0  0  0
  147.1519  142.1420  154.2079 C   0  0  0  0  0  0  0  0  0  0  0  0
  147.7965  140.8448  154.3208 C   0  0  0  0  0  0  0  0  0  0  0  0
  147.2161  139.7141  153.8233 N   0  0  0  0  0  0  0  0  0  0  0  0
  148.1505  138.8354  154.1653 C   0  0  0  0  0  0  0  0  0  0  0  0
  149.1943  139.3735  154.8052 N   0  0  0  0  0  0  0  0  0  0  0  0
  150.3909  138.7534  155.3447 C   0  0  0  0  0  0  0  0  0  0  0  0
  151.3844  139.8091  155.8308 C   0  0  0  0  0  0  0  0  0  0  0  0
  152.4460  139.9767  155.2309 O   0  0  0  0  0  0  0  0  0  0  0  0
  151.0254  140.5106  156.9179 N   0  0  0  0  0  0  0  0  0  0  0  0
  151.8283  141.5400  157.5726 C   0  0  0  0  0  0  0  0  0  0  0  0
  152.1661  141.0497  158.9932 C   0  0  0  0  0  0  0  0  0  0  0  0
  152.9960  142.0262  159.8446 C   0  0  0  0  0  0  0  0  0  0  0  0
  152.1707  143.2173  160.3575 C   0  0  0  0  0  0  0  0  0  0  0  0
  152.0696  144.4146  159.3964 C   0  0  0  0  0  0  0  0  0  0  0  0
  151.9753  144.0882  157.8956 C   0  0  0  0  0  0  0  0  0  0  0  0
  151.0811  142.8916  157.5297 C   0  0  0  0  0  0  0  0  0  0  0  0
  148.9786  140.7072  154.9179 N   0  0  0  0  0  0  0  0  0  0  0  0
  148.0713  137.7795  153.9507 H   0  0  0  0  0  0  0  0  0  0  0  0
  150.1043  138.1001  156.1699 H   0  0  0  0  0  0  0  0  0  0  0  0
  150.8545  138.1257  154.5817 H   0  0  0  0  0  0  0  0  0  0  0  0
  150.1308  140.3005  157.3373 H   0  0  0  0  0  0  0  0  0  0  0  0
  152.7678  141.6420  157.0257 H   0  0  0  0  0  0  0  0  0  0  0  0
  151.2496  140.7927  159.5267 H   0  0  0  0  0  0  0  0  0  0  0  0
  152.7250  140.1166  158.9076 H   0  0  0  0  0  0  0  0  0  0  0  0
  153.3623  141.4759  160.7120 H   0  0  0  0  0  0  0  0  0  0  0  0
  153.8850  142.3623  159.3093 H   0  0  0  0  0  0  0  0  0  0  0  0
  151.1688  142.8762  160.6209 H   0  0  0  0  0  0  0  0  0  0  0  0
  152.6050  143.5742  161.2919 H   0  0  0  0  0  0  0  0  0  0  0  0
  151.2045  145.0111  159.6879 H   0  0  0  0  0  0  0  0  0  0  0  0
  152.9334  145.0634  159.5453 H   0  0  0  0  0  0  0  0  0  0  0  0
  151.6003  144.9768  157.3864 H   0  0  0  0  0  0  0  0  0  0  0  0
  152.9757  143.9305  157.4909 H   0  0  0  0  0  0  0  0  0  0  0  0
  150.7251  143.0544  156.5114 H   0  0  0  0  0  0  0  0  0  0  0  0
  150.1875  142.8679  158.1549 H   0  0  0  0  0  0  0  0  0  0  0  0
  1  2  3  0  0  0  0
  2  3  1  0  0  0  0
  3 18  2  0  0  0  0
  3  4  1  0  0  0  0
  4  5  2  0  0  0  0
  5  6  1  0  0  0  0
  5 19  1  0  0  0  0
  6  7  1  0  0  0  0
  6 18  1  0  0  0  0
  7  8  1  0  0  0  0
  7 20  1  0  0  0  0
  7 21  1  0  0  0  0
  8  9  2  0  0  0  0
  8 10  1  0  0  0  0
 10 11  1  0  0  0  0
 10 22  1  0  0  0  0
 11 17  1  0  0  0  0
 11 12  1  0  0  0  0
 11 23  1  0  0  0  0
 12 13  1  0  0  0  0
 12 24  1  0  0  0  0
 12 25  1  0  0  0  0
 13 14  1  0  0  0  0
 13 26  1  0  0  0  0
 13 27  1  0  0  0  0
 14 15  1  0  0  0  0
 14 28  1  0  0  0  0
 14 29  1  0  0  0  0
 15 16  1  0  0  0  0
 15 30  1  0  0  0  0
 15 31  1  0  0  0  0
 16 17  1  0  0  0  0
 16 32  1  0  0  0  0
 16 33  1  0  0  0  0
 17 34  1  0  0  0  0
 17 35  1  0  0  0  0
M  END
> <s_m_source_file>
AV-unprocessed.smi

> <i_m_source_file_index>
3066

> <i_lp_mmshare_version>
43012

> <i_f3d_flags>
0

> <s_epik_input>
TiNDYzFuW2NIXW4objEpW0NIMl1DKD1PKVtOSF1bQ0hdMltDSDJdW0NIMl1bQ0gyXVtDSDJdW0NIMl1bQ0gyXTI=

> <s_epik_cmdline>
J2VwaWtfcHl0aG9uJywgJy1waCcsICc3LjAnLCAnLXRuJywgJzgnLCAnLW1hJywgJzIwMCcsICctbWV0YWxfYmluZGluZycsICctaW1hZScsICc8aW5maWxlLm1hZT4nLCAnLW9tYWUnLCAnPG91dGZpbGUubWFlPic=

> <r_lp_tautomer_probability>
1

> <r_epik_Ionization_Penalty>
4.79211e-08

> <r_epik_Ionization_Penalty_Charging>
0

> <r_epik_Ionization_Penalty_Neutral>
4.79211e-08

> <r_epik_State_Penalty>
-0

> <r_epik_Charging_Adjusted_Penalty>
0

> <i_epik_Tot_Q>
0

> <i_epik_Tot_abs_Q>
0

> <r_epik_Metal_State_Penalty>
-0

> <b_epik_Metal_Only>
0

> <s_lp_Force_Field>
OPLS_2005

> <r_lp_Energy>
17.6035

> <b_lp_Chiralities_Consistent>
1

> <s_lp_Variant>
AV-unprocessed.smi:3066-1

> <Gold.Version>
5.8.1

> <Gold.Id.Protein>
6NUR|6NUR_protein|mol2

> <Gold.PLP.Fitness>
44.9114

> <Gold.PLP.PLP>
-38.0667

> <Gold.PLP.part.hbond>
-2.9111

> <Gold.PLP.part.metal>
0.0000

> <Gold.PLP.part.buried>
-4.2845

> <Gold.PLP.part.nonpolar>
-32.5166

> <Gold.PLP.part.repulsive>
1.0561

> <Gold.PLP.ligand.clash>
0.0000

> <Gold.PLP.ligand.torsion>
0.1400

> <Gold.PLP.Chemscore.Hbond>
1.3696

> <Gold.PLP.Chemscore.CHOScore>
1.0000

> <Gold.PLP.Chemscore.Metal>
0.0000

> <Gold.Chemscore.Hbonds>
donor molecule, donor type, donor heavy atom, donor atom, acceptor molecule, acceptor atom, score
      P1  H  7989  7998       L1     9  0.51
      P1  H  7997  8009       L1     9  0.76
      L1  C     5    19       P1  7948  0.48

> <Gold.PLP.Chemscore.Internal.Correction>
0.0159

> <Gold.Rescore>
     Score         DG    S(hbond)    S(metal)    S(lipo)     H(rot)  DE(clash)    DE(int)     intcor
     11.76     -13.48       1.00        0.00      82.57       1.95       0.30       1.42       ----

> <Gold.Chemscore.Fitness>
11.7627

> <Gold.Chemscore.DG>
-13.4826

> <Gold.Chemscore.ZeroCoef>
-5.4800

> <Gold.Chemscore.Hbond>
0.9961

> <Gold.Chemscore.Metal>
0.0000

> <Gold.Chemscore.Lipo>
82.5713

> <Gold.Chemscore.Internal_Hbond>
0.0000

> <Gold.Chemscore.DEClash>
0.2999

> <Gold.Chemscore.DEInternal>
1.4200

> <Gold.Chemscore.Rot>
1.9474

> <Gold.Chemscore.Internal.Correction>
   9.000000E+99

> <Gold.Chemscore.Hbonds>
donor molecule, donor type, donor heavy atom, donor atom, acceptor molecule, acceptor atom, score
      P1  H  7989  7998       L1     9  0.11
      P1  H  7997  8009       L1     9  0.77

> <Gold.Chemscore.Hbond.Weighted>
-3.3270

> <Gold.Chemscore.Metal.Weighted>
-0.0000

> <Gold.Chemscore.Lipo.Weighted>
-9.6608

> <Gold.Chemscore.Internal_Hbond.Weighted>
0.0000

> <Gold.Chemscore.DEClash.Weighted>
0.2999

> <Gold.Chemscore.DEInternal.Weighted>
1.4200

> <Gold.Chemscore.Rot.Weighted>
4.9852

> <Gold.Chemscore.Internal.Correction.Weighted>
   9.000000E+99

> <Gold.Protein.RotatedTorsions>
[ 6907 6896 6895 6894 ] final  -71.45 input  -60.11 | X-H torsion
[ 7974 7965 7964 7962 ] final   56.72 input  175.53 | X-H torsion
[ 8008 7997 7996 7995 ] final -134.04 input   59.86 | X-H torsion
[ 10167 10162 10161 10158 ] final -152.57 input  -65.29 | X-H torsion
[ 10718 10713 10712 10709 ] final  -33.79 input   66.30 | X-H torsion
[ 10763 10752 10751 10750 ] final   41.60 input  -60.55 | X-H torsion
[ 11005 11000 10999 10996 ] final   25.72 input  -57.11 | X-H torsion

> <Gold.Protein.ActiveResidues>
 VAL166  LYS551  ARG553  GLY616  TRP617  ASP618  TYR619  PRO620  LYS621  CYS622 
 ASP623  PHE694  ASN695  SER759  ASP760  ASP761  ALA762  ILE779  LEU786  VAL792 
 PHE793  MET794  SER795  GLU796  ALA797  LYS798  CYS799  TRP800  GLU811  SER814 

> <Gold.Protein.RotatedAtoms>
  150.7212  134.5307  159.5698 H   0  0  0  0  0  0  0  0  0  0  0  0  # atno 6907 bound_to 6896
  152.2841  134.7793  160.0400 H   0  0  0  0  0  0  0  0  0  0  0  0  # atno 6908 bound_to 6896
  151.8429  133.3391  159.3685 H   0  0  0  0  0  0  0  0  0  0  0  0  # atno 6909 bound_to 6896
  145.9368  139.3854  143.0388 H   0  0  0  0  0  0  0  0  0  0  0  0  # atno 7974 bound_to 7965
  155.3554  140.0479  157.3046 H   0  0  0  0  0  0  0  0  0  0  0  0  # atno 8008 bound_to 7997
  154.5205  140.2223  155.8948 H   0  0  0  0  0  0  0  0  0  0  0  0  # atno 8009 bound_to 7997
  156.1684  140.3101  155.8936 H   0  0  0  0  0  0  0  0  0  0  0  0  # atno 8010 bound_to 7997
  139.7170  143.9018  152.2489 H   0  0  0  0  0  0  0  0  0  0  0  0  # atno 10167 bound_to 10162
  156.3584  130.4320  149.7644 H   0  0  0  0  0  0  0  0  0  0  0  0  # atno 10718 bound_to 10713
  152.9904  135.6157  154.2814 H   0  0  0  0  0  0  0  0  0  0  0  0  # atno 10763 bound_to 10752
  154.2543  135.2784  155.2806 H   0  0  0  0  0  0  0  0  0  0  0  0  # atno 10764 bound_to 10752
  154.5261  135.5801  153.6777 H   0  0  0  0  0  0  0  0  0  0  0  0  # atno 10765 bound_to 10752
  140.3448  134.2294  155.7686 H   0  0  0  0  0  0  0  0  0  0  0  0  # atno 11005 bound_to 11000
  145.8353  140.9609  143.0827 LP  0  0  0  0  0  0  0  0  0  0  0  0  # atno 17320 bound_to 7965
  144.6773  140.0215  143.7483 LP  0  0  0  0  0  0  0  0  0  0  0  0  # atno 17321 bound_to 7965
  139.8903  144.6969  150.8778 LP  0  0  0  0  0  0  0  0  0  0  0  0  # atno 17342 bound_to 10162
  140.7746  143.3592  151.1862 LP  0  0  0  0  0  0  0  0  0  0  0  0  # atno 17343 bound_to 10162
  156.4817  130.8044  151.3058 LP  0  0  0  0  0  0  0  0  0  0  0  0  # atno 17370 bound_to 10713
  157.7470  131.0003  150.2923 LP  0  0  0  0  0  0  0  0  0  0  0  0  # atno 17371 bound_to 10713
  141.2029  133.7927  157.0369 LP  0  0  0  0  0  0  0  0  0  0  0  0  # atno 17394 bound_to 11000
  140.0752  134.9680  157.1533 LP  0  0  0  0  0  0  0  0  0  0  0  0  # atno 17395 bound_to 11000

$$$$
