AV-unprocessed.smi:3324|AV-procd|sdf|12781|dock6
  -GOLD-   2272019123D 1   1.00000     0.00000
 Structure written by MMmdl.
 31 31  0  0  0  0  0  0  0  0  2 V2000
  144.5251  136.8890  152.8220 O   0  0  0  0  0  0  0  0  0  0  0  0
  145.6436  136.9749  152.3138 C   0  0  0  0  0  0  0  0  0  0  0  0
  146.2045  138.3313  151.8814 C   0  0  0  0  0  0  0  0  0  0  0  0
  147.5427  138.5934  152.4505 N   0  3  0  0  0  0  0  0  0  0  0  0
  147.5183  139.2881  153.7517 C   0  0  0  0  0  0  0  0  0  0  0  0
  148.3078  140.6036  153.6885 C   0  0  0  0  0  0  0  0  0  0  0  0
  149.4749  140.5720  154.5486 N   0  0  0  0  0  0  0  0  0  0  0  0
  149.7972  141.4141  155.5921 C   0  0  0  0  0  0  0  0  0  0  0  0
  150.9929  140.9923  156.0990 C   0  0  0  0  0  0  0  0  0  0  0  0
  151.3287  139.8727  155.2875 C   0  0  0  0  0  0  0  0  0  0  0  0
  150.4177  139.6238  154.3602 N   0  0  0  0  0  0  0  0  0  0  0  0
  146.4398  135.9161  152.1038 N   0  0  0  0  0  0  0  0  0  0  0  0
  146.0992  134.5316  152.4180 C   0  0  0  0  0  0  0  0  0  0  0  0
  145.4797  133.8033  151.2130 C   0  0  0  0  0  0  0  0  0  0  0  0
  144.7188  132.8017  151.6518 F   0  0  0  0  0  0  0  0  0  0  0  0
  144.7210  134.6317  150.4951 F   0  0  0  0  0  0  0  0  0  0  0  0
  146.4396  133.3027  150.4351 F   0  0  0  0  0  0  0  0  0  0  0  0
  146.2607  138.3618  150.7925 H   0  0  0  0  0  0  0  0  0  0  0  0
  145.5169  139.1173  152.1973 H   0  0  0  0  0  0  0  0  0  0  0  0
  148.0173  137.7090  152.5656 H   0  0  0  0  0  0  0  0  0  0  0  0
  146.4839  139.4871  154.0351 H   0  0  0  0  0  0  0  0  0  0  0  0
  147.9413  138.6309  154.5127 H   0  0  0  0  0  0  0  0  0  0  0  0
  148.6364  140.8053  152.6677 H   0  0  0  0  0  0  0  0  0  0  0  0
  147.6769  141.4411  153.9900 H   0  0  0  0  0  0  0  0  0  0  0  0
  149.1572  142.2337  155.8847 H   0  0  0  0  0  0  0  0  0  0  0  0
  151.5452  141.4191  156.9232 H   0  0  0  0  0  0  0  0  0  0  0  0
  152.2008  139.2379  155.3441 H   0  0  0  0  0  0  0  0  0  0  0  0
  147.3429  136.0741  151.6802 H   0  0  0  0  0  0  0  0  0  0  0  0
  147.0156  134.0236  152.7201 H   0  0  0  0  0  0  0  0  0  0  0  0
  145.4275  134.4857  153.2770 H   0  0  0  0  0  0  0  0  0  0  0  0
  148.0651  139.1527  151.7914 H   0  0  0  0  0  0  0  0  0  0  0  0
  1  2  2  0  0  0  0
  2  3  1  0  0  0  0
  2 12  1  0  0  0  0
  3  4  1  0  0  0  0
  3 18  1  0  0  0  0
  3 19  1  0  0  0  0
  4  5  1  0  0  0  0
  4 20  1  0  0  0  0
  4 31  1  0  0  0  0
  5  6  1  0  0  0  0
  5 21  1  0  0  0  0
  5 22  1  0  0  0  0
  6  7  1  0  0  0  0
  6 23  1  0  0  0  0
  6 24  1  0  0  0  0
  7 11  1  0  0  0  0
  7  8  1  0  0  0  0
  8  9  2  0  0  0  0
  8 25  1  0  0  0  0
  9 10  1  0  0  0  0
  9 26  1  0  0  0  0
 10 11  2  0  0  0  0
 10 27  1  0  0  0  0
 12 13  1  0  0  0  0
 12 28  1  0  0  0  0
 13 14  1  0  0  0  0
 13 29  1  0  0  0  0
 13 30  1  0  0  0  0
 14 15  1  0  0  0  0
 14 16  1  0  0  0  0
 14 17  1  0  0  0  0
M  CHG  1   4   1
M  END
> <s_m_source_file>
AV-unprocessed.smi

> <i_m_source_file_index>
3324

> <i_lp_mmshare_version>
43012

> <i_f3d_flags>
0

> <s_epik_input>
RkMoRikoRilbQ0gyXVtOSF1DKD1PKVtDSDJdW05IXVtDSDJdW0NIMl1uMVtjSF1bY0hdW2NIXW4x

> <s_epik_cmdline>
J2VwaWtfcHl0aG9uJywgJy1waCcsICc3LjAnLCAnLXRuJywgJzgnLCAnLW1hJywgJzIwMCcsICctbWV0YWxfYmluZGluZycsICctaW1hZScsICc8aW5maWxlLm1hZT4nLCAnLW9tYWUnLCAnPG91dGZpbGUubWFlPic=

> <r_lp_tautomer_probability>
1

> <r_epik_Ionization_Penalty>
0.310414

> <r_epik_Ionization_Penalty_Charging>
0.310394

> <r_epik_Ionization_Penalty_Neutral>
2.02819e-05

> <r_epik_State_Penalty>
0.304907

> <r_epik_Charging_Adjusted_Penalty>
0.6153

> <i_epik_Tot_Q>
1

> <i_epik_Tot_abs_Q>
1

> <r_epik_Metal_State_Penalty>
0.315528

> <b_epik_Metal_Only>
0

> <s_lp_Force_Field>
OPLS_2005

> <r_lp_Energy>
1.82642

> <b_lp_Chiralities_Consistent>
1

> <s_lp_Variant>
AV-unprocessed.smi:3324-1

> <Gold.Version>
5.8.1

> <Gold.Id.Protein>
6NUR|6NUR_protein|mol2

> <Gold.PLP.Fitness>
45.6853

> <Gold.PLP.PLP>
-33.9180

> <Gold.PLP.part.hbond>
-4.0000

> <Gold.PLP.part.metal>
0.0000

> <Gold.PLP.part.buried>
0.3977

> <Gold.PLP.part.nonpolar>
-30.9153

> <Gold.PLP.part.repulsive>
0.4178

> <Gold.PLP.ligand.clash>
0.0000

> <Gold.PLP.ligand.torsion>
1.5884

> <Gold.PLP.Chemscore.Hbond>
3.9520

> <Gold.PLP.Chemscore.CHOScore>
1.0000

> <Gold.PLP.Chemscore.Metal>
0.0000

> <Gold.Chemscore.Hbonds>
donor molecule, donor type, donor heavy atom, donor atom, acceptor molecule, acceptor atom, score
      L1  H     4    20       P1  7948  2.00
      L1  H     4    31       P1  7957  1.00
      L1  H    12    28       P1  7948  1.00
      L1  C     8    25       P1  8028  1.00

> <Gold.PLP.Chemscore.Internal.Correction>
0.0880

> <Gold.Rescore>
     Score         DG    S(hbond)    S(metal)    S(lipo)     H(rot)  DE(clash)    DE(int)     intcor
     11.80     -13.40       2.87        0.00      49.53       2.91       0.07       1.53       ----

> <Gold.Chemscore.Fitness>
11.7959

> <Gold.Chemscore.DG>
-13.3994

> <Gold.Chemscore.ZeroCoef>
-5.4800

> <Gold.Chemscore.Hbond>
2.8657

> <Gold.Chemscore.Metal>
0.0000

> <Gold.Chemscore.Lipo>
49.5305

> <Gold.Chemscore.Internal_Hbond>
0.0000

> <Gold.Chemscore.DEClash>
0.0724

> <Gold.Chemscore.DEInternal>
1.5310

> <Gold.Chemscore.Rot>
2.9091

> <Gold.Chemscore.Internal.Correction>
   9.000000E+99

> <Gold.Chemscore.Hbonds>
donor molecule, donor type, donor heavy atom, donor atom, acceptor molecule, acceptor atom, score
      L1  H     4    20       P1  7948  0.94
      L1  H     4    31       P1  7957  0.96
      L1  H    12    28       P1  7948  0.93

> <Gold.Chemscore.Hbond.Weighted>
-9.5715

> <Gold.Chemscore.Metal.Weighted>
-0.0000

> <Gold.Chemscore.Lipo.Weighted>
-5.7951

> <Gold.Chemscore.Internal_Hbond.Weighted>
0.0000

> <Gold.Chemscore.DEClash.Weighted>
0.0724

> <Gold.Chemscore.DEInternal.Weighted>
1.5310

> <Gold.Chemscore.Rot.Weighted>
7.4472

> <Gold.Chemscore.Internal.Correction.Weighted>
   9.000000E+99

> <Gold.Protein.RotatedTorsions>
[ 6907 6896 6895 6894 ] final   37.05 input  -60.11 | X-H torsion
[ 7974 7965 7964 7962 ] final  -83.10 input  175.53 | X-H torsion
[ 8008 7997 7996 7995 ] final  132.06 input   59.86 | X-H torsion
[ 10167 10162 10161 10158 ] final -100.53 input  -65.29 | X-H torsion
[ 10718 10713 10712 10709 ] final  111.28 input   66.30 | X-H torsion
[ 10763 10752 10751 10750 ] final -178.28 input  -60.55 | X-H torsion
[ 11005 11000 10999 10996 ] final  162.01 input  -57.11 | X-H torsion

> <Gold.Protein.ActiveResidues>
 VAL166  LYS551  ARG553  GLY616  TRP617  ASP618  TYR619  PRO620  LYS621  CYS622 
 ASP623  PHE694  ASN695  SER759  ASP760  ASP761  ALA762  ILE779  LEU786  VAL792 
 PHE793  MET794  SER795  GLU796  ALA797  LYS798  CYS799  TRP800  GLU811  SER814 

> <Gold.Protein.RotatedAtoms>
  152.1380  134.9084  160.0555 H   0  0  0  0  0  0  0  0  0  0  0  0  # atno 6907 bound_to 6896
  152.0163  133.3876  159.4248 H   0  0  0  0  0  0  0  0  0  0  0  0  # atno 6908 bound_to 6896
  150.6862  134.3597  159.4988 H   0  0  0  0  0  0  0  0  0  0  0  0  # atno 6909 bound_to 6896
  145.5245  140.9528  143.1637 H   0  0  0  0  0  0  0  0  0  0  0  0  # atno 7974 bound_to 7965
  156.2978  140.2556  156.3027 H   0  0  0  0  0  0  0  0  0  0  0  0  # atno 8008 bound_to 7997
  154.9402  140.0396  157.2111 H   0  0  0  0  0  0  0  0  0  0  0  0  # atno 8009 bound_to 7997
  154.8134  140.2848  155.5841 H   0  0  0  0  0  0  0  0  0  0  0  0  # atno 8010 bound_to 7997
  140.2510  143.3473  152.0715 H   0  0  0  0  0  0  0  0  0  0  0  0  # atno 10167 bound_to 10162
  157.6452  131.0948  150.6726 H   0  0  0  0  0  0  0  0  0  0  0  0  # atno 10718 bound_to 10713
  154.5496  135.2812  155.1021 H   0  0  0  0  0  0  0  0  0  0  0  0  # atno 10763 bound_to 10752
  154.2472  135.6346  153.5231 H   0  0  0  0  0  0  0  0  0  0  0  0  # atno 10764 bound_to 10752
  152.9999  135.5574  154.6058 H   0  0  0  0  0  0  0  0  0  0  0  0  # atno 10765 bound_to 10752
  140.2215  134.8192  157.3225 H   0  0  0  0  0  0  0  0  0  0  0  0  # atno 11005 bound_to 11000
  144.7658  139.6848  143.7215 LP  0  0  0  0  0  0  0  0  0  0  0  0  # atno 17320 bound_to 7965
  146.2084  139.5424  142.9697 LP  0  0  0  0  0  0  0  0  0  0  0  0  # atno 17321 bound_to 7965
  139.5046  144.6779  151.6082 LP  0  0  0  0  0  0  0  0  0  0  0  0  # atno 17342 bound_to 10162
  140.6041  143.9557  150.6406 LP  0  0  0  0  0  0  0  0  0  0  0  0  # atno 17343 bound_to 10162
  156.7044  130.4633  149.5564 LP  0  0  0  0  0  0  0  0  0  0  0  0  # atno 17370 bound_to 10713
  156.1773  130.6476  151.0909 LP  0  0  0  0  0  0  0  0  0  0  0  0  # atno 17371 bound_to 10713
  140.1844  134.4449  155.7752 LP  0  0  0  0  0  0  0  0  0  0  0  0  # atno 17394 bound_to 11000
  141.2223  133.6998  156.7923 LP  0  0  0  0  0  0  0  0  0  0  0  0  # atno 17395 bound_to 11000

$$$$
