AV-unprocessed.smi:897|AV-procd|sdf|4080|dock9
  -GOLD-   22720 1573D 1   1.00000     0.00000
 Structure written by MMmdl.
 35 37  0  0  0  0  0  0  0  0  1 V2000
  152.7707  143.7955  159.2164 C   0  0  0  0  0  0  0  0  0  0  0  0
  152.8834  142.2906  159.3400 C   0  0  0  0  0  0  0  0  0  0  0  0
  153.7211  141.7037  160.3064 C   0  0  0  0  0  0  0  0  0  0  0  0
  153.7882  140.2976  160.3793 C   0  0  0  0  0  0  0  0  0  0  0  0
  154.6931  139.6524  161.4183 C   0  0  0  0  0  0  0  0  0  0  0  0
  153.0063  139.5301  159.4769 C   0  0  0  0  0  0  0  0  0  0  0  0
  153.0414  138.0695  159.5226 C   0  0  0  0  0  0  0  0  0  0  0  0
  153.0688  136.9134  159.5593 N   0  0  0  0  0  0  0  0  0  0  0  0
  152.1891  140.2180  158.5374 C   0  0  0  0  0  0  0  0  0  0  0  0
  151.3987  139.5016  157.6193 N   0  0  0  0  0  0  0  0  0  0  0  0
  151.3761  139.8520  156.2022 C   0  0  1  0  0  0  0  0  0  0  0  0
  152.5383  139.2390  155.4174 C   0  0  0  0  0  0  0  0  0  0  0  0
  151.8047  138.5172  154.2782 C   0  0  1  0  0  0  0  0  0  0  0  0
  151.1259  137.2323  154.7698 C   0  0  0  0  0  0  0  0  0  0  0  0
  149.9557  137.7895  155.5779 C   0  0  0  0  0  0  0  0  0  0  0  0
  150.1590  139.3071  155.4276 C   0  0  2  0  0  0  0  0  0  0  0  0
  150.6750  139.3569  154.1080 O   0  0  0  0  0  0  0  0  0  0  0  0
  152.1387  141.5700  158.4781 N   0  0  0  0  0  0  0  0  0  0  0  0
  153.5023  144.3001  159.8481 H   0  0  0  0  0  0  0  0  0  0  0  0
  151.7756  144.1254  159.5158 H   0  0  0  0  0  0  0  0  0  0  0  0
  152.9412  144.1070  158.1854 H   0  0  0  0  0  0  0  0  0  0  0  0
  154.3004  142.3207  160.9778 H   0  0  0  0  0  0  0  0  0  0  0  0
  154.1124  139.0262  162.0964 H   0  0  0  0  0  0  0  0  0  0  0  0
  155.2094  140.4034  162.0170 H   0  0  0  0  0  0  0  0  0  0  0  0
  155.4488  139.0328  160.9348 H   0  0  0  0  0  0  0  0  0  0  0  0
  150.6364  138.9436  157.9761 H   0  0  0  0  0  0  0  0  0  0  0  0
  151.4219  140.9369  156.0960 H   0  0  0  0  0  0  0  0  0  0  0  0
  153.1853  140.0254  155.0273 H   0  0  0  0  0  0  0  0  0  0  0  0
  153.1544  138.5551  156.0031 H   0  0  0  0  0  0  0  0  0  0  0  0
  152.4064  138.3826  153.3790 H   0  0  0  0  0  0  0  0  0  0  0  0
  150.7620  136.6388  153.9302 H   0  0  0  0  0  0  0  0  0  0  0  0
  151.7946  136.6097  155.3651 H   0  0  0  0  0  0  0  0  0  0  0  0
  149.0088  137.4851  155.1308 H   0  0  0  0  0  0  0  0  0  0  0  0
  149.9574  137.4568  156.6161 H   0  0  0  0  0  0  0  0  0  0  0  0
  149.2474  139.8884  155.5683 H   0  0  0  0  0  0  0  0  0  0  0  0
  1  2  1  0  0  0  0
  1 19  1  0  0  0  0
  1 20  1  0  0  0  0
  1 21  1  0  0  0  0
  2 18  1  0  0  0  0
  2  3  2  0  0  0  0
  3  4  1  0  0  0  0
  3 22  1  0  0  0  0
  4  5  1  0  0  0  0
  4  6  2  0  0  0  0
  5 23  1  0  0  0  0
  5 24  1  0  0  0  0
  5 25  1  0  0  0  0
  6  7  1  0  0  0  0
  6  9  1  0  0  0  0
  7  8  3  0  0  0  0
  9 10  1  0  0  0  0
  9 18  2  0  0  0  0
 10 11  1  0  0  0  0
 10 26  1  0  0  0  0
 11 16  1  0  0  0  0
 11 12  1  0  0  0  0
 11 27  1  0  0  0  0
 12 13  1  0  0  0  0
 12 28  1  0  0  0  0
 12 29  1  0  0  0  0
 13 17  1  0  0  0  0
 13 14  1  0  0  0  0
 13 30  1  0  0  0  0
 14 15  1  0  0  0  0
 14 31  1  0  0  0  0
 14 32  1  0  0  0  0
 15 16  1  0  0  0  0
 15 33  1  0  0  0  0
 15 34  1  0  0  0  0
 16 17  1  0  0  0  0
 16 35  1  0  0  0  0
M  END
> <s_m_source_file>
AV-unprocessed.smi

> <i_m_source_file_index>
897

> <i_lp_mmshare_version>
43012

> <i_f3d_flags>
0

> <s_epik_input>
W0NIM11jMVtjSF1jKFtDSDNdKWMoQyNOKWMobjEpW05IXVtDQEhdKFtDSDJdW0NAQEhdMjMpW0NAQEhdKE8zKVtDSDJdW0NIMl0y

> <s_epik_cmdline>
J2VwaWtfcHl0aG9uJywgJy1waCcsICc3LjAnLCAnLXRuJywgJzgnLCAnLW1hJywgJzIwMCcsICctbWV0YWxfYmluZGluZycsICctaW1hZScsICc8aW5maWxlLm1hZT4nLCAnLW9tYWUnLCAnPG91dGZpbGUubWFlPic=

> <r_lp_tautomer_probability>
1

> <r_epik_Ionization_Penalty>
0.000502654

> <r_epik_Ionization_Penalty_Charging>
0

> <r_epik_Ionization_Penalty_Neutral>
0.000502654

> <r_epik_State_Penalty>
-0

> <r_epik_Charging_Adjusted_Penalty>
0

> <i_epik_Tot_Q>
0

> <i_epik_Tot_abs_Q>
0

> <r_epik_Metal_State_Penalty>
-0

> <b_epik_Metal_Only>
0

> <s_lp_Force_Field>
OPLS_2005

> <r_lp_Energy>
43.9226

> <b_lp_Chiralities_Consistent>
1

> <s_lp_Variant>
AV-unprocessed.smi:897-2

> <Gold.Version>
5.8.1

> <Gold.Id.Protein>
6NUR|6NUR_protein|mol2

> <Gold.PLP.Fitness>
40.6619

> <Gold.PLP.PLP>
-36.0440

> <Gold.PLP.part.hbond>
-2.0000

> <Gold.PLP.part.metal>
0.0000

> <Gold.PLP.part.buried>
-3.9052

> <Gold.PLP.part.nonpolar>
-30.1408

> <Gold.PLP.part.repulsive>
0.2418

> <Gold.PLP.ligand.clash>
0.0000

> <Gold.PLP.ligand.torsion>
0.6961

> <Gold.PLP.Chemscore.Hbond>
2.0000

> <Gold.PLP.Chemscore.CHOScore>
0.0000

> <Gold.PLP.Chemscore.Metal>
0.0000

> <Gold.Chemscore.Hbonds>
donor molecule, donor type, donor heavy atom, donor atom, acceptor molecule, acceptor atom, score
      P1  H  6896  6907       L1     8  0.62
      P1  H  7989  7998       L1    17  0.80

> <Gold.PLP.Chemscore.Internal.Correction>
0.0101

> <Gold.Rescore>
     Score         DG    S(hbond)    S(metal)    S(lipo)     H(rot)  DE(clash)    DE(int)     intcor
     19.33     -20.19       1.87        0.00      94.37       1.00       0.11       0.75       ----

> <Gold.Chemscore.Fitness>
19.3273

> <Gold.Chemscore.DG>
-20.1925

> <Gold.Chemscore.ZeroCoef>
-5.4800

> <Gold.Chemscore.Hbond>
1.8655

> <Gold.Chemscore.Metal>
0.0000

> <Gold.Chemscore.Lipo>
94.3744

> <Gold.Chemscore.Internal_Hbond>
0.0000

> <Gold.Chemscore.DEClash>
0.1104

> <Gold.Chemscore.DEInternal>
0.7549

> <Gold.Chemscore.Rot>
1.0000

> <Gold.Chemscore.Internal.Correction>
   9.000000E+99

> <Gold.Chemscore.Hbonds>
donor molecule, donor type, donor heavy atom, donor atom, acceptor molecule, acceptor atom, score
      P1  H  6896  6907       L1     8  0.60
      P1  H  7989  7998       L1    17  0.12

> <Gold.Chemscore.Hbond.Weighted>
-6.2307

> <Gold.Chemscore.Metal.Weighted>
-0.0000

> <Gold.Chemscore.Lipo.Weighted>
-11.0418

> <Gold.Chemscore.Internal_Hbond.Weighted>
0.0000

> <Gold.Chemscore.DEClash.Weighted>
0.1104

> <Gold.Chemscore.DEInternal.Weighted>
0.7549

> <Gold.Chemscore.Rot.Weighted>
2.5600

> <Gold.Chemscore.Internal.Correction.Weighted>
   9.000000E+99

> <Gold.Protein.RotatedTorsions>
[ 6907 6896 6895 6894 ] final   25.65 input  -60.11 | X-H torsion
[ 7974 7965 7964 7962 ] final -142.05 input  175.53 | X-H torsion
[ 8008 7997 7996 7995 ] final   51.29 input   59.86 | X-H torsion
[ 10167 10162 10161 10158 ] final   44.07 input  -65.29 | X-H torsion
[ 10718 10713 10712 10709 ] final  130.19 input   66.30 | X-H torsion
[ 10763 10752 10751 10750 ] final  -13.43 input  -60.55 | X-H torsion
[ 11005 11000 10999 10996 ] final -171.80 input  -57.11 | X-H torsion

> <Gold.Protein.ActiveResidues>
 VAL166  LYS551  ARG553  GLY616  TRP617  ASP618  TYR619  PRO620  LYS621  CYS622 
 ASP623  PHE694  ASN695  SER759  ASP760  ASP761  ALA762  ILE779  LEU786  VAL792 
 PHE793  MET794  SER795  GLU796  ALA797  LYS798  CYS799  TRP800  GLU811  SER814 

> <Gold.Protein.RotatedAtoms>
  151.9757  135.0054  160.0554 H   0  0  0  0  0  0  0  0  0  0  0  0  # atno 6907 bound_to 6896
  152.1742  133.4659  159.4933 H   0  0  0  0  0  0  0  0  0  0  0  0  # atno 6908 bound_to 6896
  150.6906  134.1832  159.4300 H   0  0  0  0  0  0  0  0  0  0  0  0  # atno 6909 bound_to 6896
  144.8473  140.6005  143.5413 H   0  0  0  0  0  0  0  0  0  0  0  0  # atno 7974 bound_to 7965
  155.4329  140.3451  155.4282 H   0  0  0  0  0  0  0  0  0  0  0  0  # atno 8008 bound_to 7997
  156.1326  140.1518  156.9074 H   0  0  0  0  0  0  0  0  0  0  0  0  # atno 8009 bound_to 7997
  154.4906  140.0842  156.7566 H   0  0  0  0  0  0  0  0  0  0  0  0  # atno 8010 bound_to 7997
  140.3380  144.2506  150.6159 H   0  0  0  0  0  0  0  0  0  0  0  0  # atno 10167 bound_to 10162
  157.5085  131.1096  150.9327 H   0  0  0  0  0  0  0  0  0  0  0  0  # atno 10718 bound_to 10713
  153.5132  135.7016  153.5770 H   0  0  0  0  0  0  0  0  0  0  0  0  # atno 10763 bound_to 10752
  153.3851  135.3910  155.1884 H   0  0  0  0  0  0  0  0  0  0  0  0  # atno 10764 bound_to 10752
  154.8701  135.3844  154.4613 H   0  0  0  0  0  0  0  0  0  0  0  0  # atno 10765 bound_to 10752
  140.5042  134.5864  157.4998 H   0  0  0  0  0  0  0  0  0  0  0  0  # atno 11005 bound_to 11000
  145.4572  139.1517  143.3886 LP  0  0  0  0  0  0  0  0  0  0  0  0  # atno 17320 bound_to 7965
  146.2755  140.4700  142.8797 LP  0  0  0  0  0  0  0  0  0  0  0  0  # atno 17321 bound_to 7965
  140.5335  143.2238  151.8200 LP  0  0  0  0  0  0  0  0  0  0  0  0  # atno 17342 bound_to 10162
  139.4845  144.4690  151.9448 LP  0  0  0  0  0  0  0  0  0  0  0  0  # atno 17343 bound_to 10162
  156.9975  130.5587  149.5308 LP  0  0  0  0  0  0  0  0  0  0  0  0  # atno 17370 bound_to 10713
  156.0273  130.5367  150.8442 LP  0  0  0  0  0  0  0  0  0  0  0  0  # atno 17371 bound_to 10713
  139.9696  134.7315  156.0069 LP  0  0  0  0  0  0  0  0  0  0  0  0  # atno 17394 bound_to 11000
  141.1420  133.6563  156.3756 LP  0  0  0  0  0  0  0  0  0  0  0  0  # atno 17395 bound_to 11000

$$$$
