AV-unprocessed.smi:104|AV-procd|sdf|1002|dock10
  -GOLD-   2262017593D 1   1.00000     0.00000
 Structure written by MMmdl.
 47 49  0  0  0  0  0  0  0  0  1 V2000
  142.4969  131.8751  158.9143 C   0  0  0  0  0  0  0  0  0  0  0  0
  142.7942  133.3462  158.6567 C   0  0  0  0  0  0  0  0  0  0  0  0
  142.0613  134.2369  159.0867 O   0  0  0  0  0  0  0  0  0  0  0  0
  143.9089  133.5215  157.9348 O   0  0  0  0  0  0  0  0  0  0  0  0
  144.3642  134.8340  157.6484 C   0  0  0  0  0  0  0  0  0  0  0  0
  145.4488  134.7972  156.5629 C   0  0  1  0  0  0  0  0  0  0  0  0
  145.0769  133.9343  155.5012 O   0  0  0  0  0  0  0  0  0  0  0  0
  145.8159  134.2682  154.3686 C   0  0  1  0  0  0  0  0  0  0  0  0
  144.9112  134.1333  153.1808 N   0  0  0  0  0  0  0  0  0  0  0  0
  143.7663  134.8337  152.8755 C   0  0  0  0  0  0  0  0  0  0  0  0
  143.0694  136.1957  154.0096 Br  0  0  0  0  0  0  0  0  0  0  0  0
  143.1515  134.5177  151.7700 N   0  0  0  0  0  0  0  0  0  0  0  0
  143.9425  133.4951  151.2615 C   0  0  0  0  0  0  0  0  0  0  0  0
  143.8755  132.6805  150.1030 C   0  0  0  0  0  0  0  0  0  0  0  0
  142.9035  132.7908  149.1869 N   0  0  0  0  0  0  0  0  0  0  0  0
  144.8350  131.7448  149.9130 N   0  0  0  0  0  0  0  0  0  0  0  0
  145.8141  131.6124  150.8135 C   0  0  0  0  0  0  0  0  0  0  0  0
  146.0108  132.3004  151.9410 N   0  0  0  0  0  0  0  0  0  0  0  0
  145.0438  133.2454  152.1312 C   0  0  0  0  0  0  0  0  0  0  0  0
  146.3568  135.7056  154.5531 C   0  0  1  0  0  0  0  0  0  0  0  0
  145.9610  136.5768  153.4975 O   0  0  0  0  0  0  0  0  0  0  0  0
  146.4084  137.8410  153.4526 C   0  0  0  0  0  0  0  0  0  0  0  0
  146.4902  138.3729  152.0286 C   0  0  0  0  0  0  0  0  0  0  0  0
  146.7267  138.5335  154.4192 O   0  0  0  0  0  0  0  0  0  0  0  0
  145.7460  136.1343  155.8811 C   0  0  2  0  0  0  0  0  0  0  0  0
  146.6935  136.8959  156.6178 O   0  0  0  0  0  0  0  0  0  0  0  0
  147.8733  136.3552  156.9656 C   0  0  0  0  0  0  0  0  0  0  0  0
  148.6872  137.2736  157.8668 C   0  0  0  0  0  0  0  0  0  0  0  0
  148.2972  135.2520  156.6204 O   0  0  0  0  0  0  0  0  0  0  0  0
  142.4171  131.3338  157.9715 H   0  0  0  0  0  0  0  0  0  0  0  0
  141.5591  131.7627  159.4585 H   0  0  0  0  0  0  0  0  0  0  0  0
  143.2953  131.4274  159.5059 H   0  0  0  0  0  0  0  0  0  0  0  0
  143.5269  135.4433  157.3052 H   0  0  0  0  0  0  0  0  0  0  0  0
  144.7536  135.2972  158.5559 H   0  0  0  0  0  0  0  0  0  0  0  0
  146.3696  134.3961  156.9906 H   0  0  0  0  0  0  0  0  0  0  0  0
  146.6101  133.5385  154.2155 H   0  0  0  0  0  0  0  0  0  0  0  0
  142.1745  133.4795  149.3071 H   0  0  0  0  0  0  0  0  0  0  0  0
  142.9022  132.1871  148.3774 H   0  0  0  0  0  0  0  0  0  0  0  0
  146.5427  130.8439  150.6018 H   0  0  0  0  0  0  0  0  0  0  0  0
  147.4431  135.6314  154.6270 H   0  0  0  0  0  0  0  0  0  0  0  0
  147.2692  137.8496  151.4740 H   0  0  0  0  0  0  0  0  0  0  0  0
  146.7215  139.4382  152.0296 H   0  0  0  0  0  0  0  0  0  0  0  0
  145.5401  138.2263  151.5141 H   0  0  0  0  0  0  0  0  0  0  0  0
  144.8235  136.6839  155.6875 H   0  0  0  0  0  0  0  0  0  0  0  0
  148.9992  138.1622  157.3182 H   0  0  0  0  0  0  0  0  0  0  0  0
  149.5780  136.7616  158.2313 H   0  0  0  0  0  0  0  0  0  0  0  0
  148.0929  137.5865  158.7255 H   0  0  0  0  0  0  0  0  0  0  0  0
  1  2  1  0  0  0  0
  1 30  1  0  0  0  0
  1 31  1  0  0  0  0
  1 32  1  0  0  0  0
  2  3  2  0  0  0  0
  2  4  1  0  0  0  0
  4  5  1  0  0  0  0
  5  6  1  0  0  0  0
  5 33  1  0  0  0  0
  5 34  1  0  0  0  0
  6 25  1  0  0  0  0
  6  7  1  0  0  0  0
  6 35  1  0  0  0  0
  7  8  1  0  0  0  0
  8  9  1  0  0  0  0
  8 20  1  0  0  0  0
  8 36  1  0  0  0  0
  9 19  1  0  0  0  0
  9 10  1  0  0  0  0
 10 11  1  0  0  0  0
 10 12  2  0  0  0  0
 12 13  1  0  0  0  0
 13 19  2  0  0  0  0
 13 14  1  0  0  0  0
 14 15  1  0  0  0  0
 14 16  2  0  0  0  0
 15 37  1  0  0  0  0
 15 38  1  0  0  0  0
 16 17  1  0  0  0  0
 17 18  2  0  0  0  0
 17 39  1  0  0  0  0
 18 19  1  0  0  0  0
 20 21  1  0  0  0  0
 20 25  1  0  0  0  0
 20 40  1  0  0  0  0
 21 22  1  0  0  0  0
 22 23  1  0  0  0  0
 22 24  2  0  0  0  0
 23 41  1  0  0  0  0
 23 42  1  0  0  0  0
 23 43  1  0  0  0  0
 25 26  1  0  0  0  0
 25 44  1  0  0  0  0
 26 27  1  0  0  0  0
 27 28  1  0  0  0  0
 27 29  2  0  0  0  0
 28 45  1  0  0  0  0
 28 46  1  0  0  0  0
 28 47  1  0  0  0  0
M  END
> <s_m_source_file>
AV-unprocessed.smi

> <i_m_source_file_index>
104

> <i_lp_mmshare_version>
43012

> <i_f3d_flags>
0

> <s_epik_input>
W0NIM11DKD1PKU9bQ0gyXVtDQEBIXTFPW0NASF0oW0NAQEhdKE9DKD1PKVtDSDNdKVtDQEhdMU9DKD1PKVtDSDNdKW4oYyhCciluMiljKGMyMyluW2NIXW5jM1tOSDJd

> <s_epik_cmdline>
J2VwaWtfcHl0aG9uJywgJy1waCcsICc3LjAnLCAnLXRuJywgJzgnLCAnLW1hJywgJzIwMCcsICctbWV0YWxfYmluZGluZycsICctaW1hZScsICc8aW5maWxlLm1hZT4nLCAnLW9tYWUnLCAnPG91dGZpbGUubWFlPic=

> <r_lp_tautomer_probability>
1

> <r_epik_Ionization_Penalty>
7.36622e-05

> <r_epik_Ionization_Penalty_Charging>
0

> <r_epik_Ionization_Penalty_Neutral>
7.36622e-05

> <r_epik_State_Penalty>
-0

> <r_epik_Charging_Adjusted_Penalty>
0

> <i_epik_Tot_Q>
0

> <i_epik_Tot_abs_Q>
0

> <r_epik_Metal_State_Penalty>
-0

> <b_epik_Metal_Only>
0

> <s_epik_Chemistry_Notes>
This compound has an ester and may undergo hydrolysis at high or low pH. This compound contains an acetal/aminal-like group ( X-CH(R)-Y where X, Y are N, S, or O) that may be acid/base labile, releasing an aldehyde.

> <s_lp_Force_Field>
OPLS_2005

> <r_lp_Energy>
14.3188

> <b_lp_Chiralities_Consistent>
1

> <s_lp_Variant>
AV-unprocessed.smi:104-10

> <Gold.Version>
5.8.1

> <Gold.Id.Protein>
6NUR|6NUR_protein|mol2

> <Gold.PLP.Fitness>
34.4755

> <Gold.PLP.PLP>
-26.6612

> <Gold.PLP.part.hbond>
-2.6138

> <Gold.PLP.part.metal>
0.0000

> <Gold.PLP.part.buried>
-6.6284

> <Gold.PLP.part.nonpolar>
-18.8833

> <Gold.PLP.part.repulsive>
1.3554

> <Gold.PLP.ligand.clash>
0.0000

> <Gold.PLP.ligand.torsion>
0.6485

> <Gold.PLP.Chemscore.Hbond>
2.0000

> <Gold.PLP.Chemscore.CHOScore>
1.0000

> <Gold.PLP.Chemscore.Metal>
0.0000

> <Gold.Chemscore.Hbonds>
donor molecule, donor type, donor heavy atom, donor atom, acceptor molecule, acceptor atom, score
      L1  H    15    37       P1 10186  0.96
      P1  H 11000 11005       L1     3  0.80
      L1  C    17    39       P1 10747  1.00

> <Gold.PLP.Chemscore.Internal.Correction>
0.1112

> <Gold.Rescore>
     Score         DG    S(hbond)    S(metal)    S(lipo)     H(rot)  DE(clash)    DE(int)     intcor
     -0.91      -4.15       1.97        0.00      26.71       4.31       0.11       4.95       ----

> <Gold.Chemscore.Fitness>
-0.9072

> <Gold.Chemscore.DG>
-4.1495

> <Gold.Chemscore.ZeroCoef>
-5.4800

> <Gold.Chemscore.Hbond>
1.9673

> <Gold.Chemscore.Metal>
0.0000

> <Gold.Chemscore.Lipo>
26.7071

> <Gold.Chemscore.Internal_Hbond>
0.0000

> <Gold.Chemscore.DEClash>
0.1073

> <Gold.Chemscore.DEInternal>
4.9494

> <Gold.Chemscore.Rot>
4.3070

> <Gold.Chemscore.Internal.Correction>
   9.000000E+99

> <Gold.Chemscore.Hbonds>
donor molecule, donor type, donor heavy atom, donor atom, acceptor molecule, acceptor atom, score
      L1  H    15    37       P1 10186  0.91
      P1  H 11000 11005       L1     3  0.12

> <Gold.Chemscore.Hbond.Weighted>
-6.5707

> <Gold.Chemscore.Metal.Weighted>
-0.0000

> <Gold.Chemscore.Lipo.Weighted>
-3.1247

> <Gold.Chemscore.Internal_Hbond.Weighted>
0.0000

> <Gold.Chemscore.DEClash.Weighted>
0.1073

> <Gold.Chemscore.DEInternal.Weighted>
4.9494

> <Gold.Chemscore.Rot.Weighted>
11.0259

> <Gold.Chemscore.Internal.Correction.Weighted>
   9.000000E+99

> <Gold.Protein.RotatedTorsions>
[ 6907 6896 6895 6894 ] final  113.53 input  -60.11 | X-H torsion
[ 7974 7965 7964 7962 ] final   96.26 input  175.53 | X-H torsion
[ 8008 7997 7996 7995 ] final  129.35 input   59.86 | X-H torsion
[ 10167 10162 10161 10158 ] final    6.20 input  -65.29 | X-H torsion
[ 10718 10713 10712 10709 ] final   25.42 input   66.30 | X-H torsion
[ 10763 10752 10751 10750 ] final   18.06 input  -60.55 | X-H torsion
[ 11005 11000 10999 10996 ] final -144.48 input  -57.11 | X-H torsion

> <Gold.Protein.ActiveResidues>
 VAL166  LYS551  ARG553  GLY616  TRP617  ASP618  TYR619  PRO620  LYS621  CYS622 
 ASP623  PHE694  ASN695  SER759  ASP760  ASP761  ALA762  ILE779  LEU786  VAL792 
 PHE793  MET794  SER795  GLU796  ALA797  LYS798  CYS799  TRP800  GLU811  SER814 

> <Gold.Protein.RotatedAtoms>
  152.4855  133.8363  159.7129 H   0  0  0  0  0  0  0  0  0  0  0  0  # atno 6907 bound_to 6896
  150.8939  133.7197  159.2904 H   0  0  0  0  0  0  0  0  0  0  0  0  # atno 6908 bound_to 6896
  151.4661  135.1046  159.9790 H   0  0  0  0  0  0  0  0  0  0  0  0  # atno 6909 bound_to 6896
  145.4413  139.2301  143.3090 H   0  0  0  0  0  0  0  0  0  0  0  0  # atno 7974 bound_to 7965
  156.2934  140.2622  156.2585 H   0  0  0  0  0  0  0  0  0  0  0  0  # atno 8008 bound_to 7997
  154.9812  140.0390  157.2297 H   0  0  0  0  0  0  0  0  0  0  0  0  # atno 8009 bound_to 7997
  154.7770  140.2788  155.6098 H   0  0  0  0  0  0  0  0  0  0  0  0  # atno 8010 bound_to 7997
  140.6441  143.7705  150.7472 H   0  0  0  0  0  0  0  0  0  0  0  0  # atno 10167 bound_to 10162
  157.1931  130.6855  149.6158 H   0  0  0  0  0  0  0  0  0  0  0  0  # atno 10718 bound_to 10713
  153.1283  135.6734  153.9221 H   0  0  0  0  0  0  0  0  0  0  0  0  # atno 10763 bound_to 10752
  153.8715  135.3069  155.3443 H   0  0  0  0  0  0  0  0  0  0  0  0  # atno 10764 bound_to 10752
  154.7684  135.4952  153.9681 H   0  0  0  0  0  0  0  0  0  0  0  0  # atno 10765 bound_to 10752
  140.8020  134.2845  157.4975 H   0  0  0  0  0  0  0  0  0  0  0  0  # atno 11005 bound_to 11000
  146.2555  140.5161  142.8875 LP  0  0  0  0  0  0  0  0  0  0  0  0  # atno 17320 bound_to 7965
  144.8120  140.6402  143.6409 LP  0  0  0  0  0  0  0  0  0  0  0  0  # atno 17321 bound_to 7965
  140.1342  143.4499  152.2235 LP  0  0  0  0  0  0  0  0  0  0  0  0  # atno 17342 bound_to 10162
  139.5651  144.7430  151.4046 LP  0  0  0  0  0  0  0  0  0  0  0  0  # atno 17343 bound_to 10162
  155.9709  130.4608  150.6085 LP  0  0  0  0  0  0  0  0  0  0  0  0  # atno 17370 bound_to 10713
  157.3841  131.0785  151.1451 LP  0  0  0  0  0  0  0  0  0  0  0  0  # atno 17371 bound_to 10713
  139.8721  134.9435  156.3854 LP  0  0  0  0  0  0  0  0  0  0  0  0  # atno 17394 bound_to 11000
  140.9285  133.7596  155.9995 LP  0  0  0  0  0  0  0  0  0  0  0  0  # atno 17395 bound_to 11000

$$$$
