#       Name:                AV-unprocessed.smi:1824
#       Creating user name   scv26
#       Creation time:       Fri Mar 27 09:08:38 2020


#       File generated by GOLD software.
#

@<TRIPOS>MOLECULE
AV-unprocessed.smi:1824
    50    52     1
SMALL
NO_CHARGES


@<TRIPOS>ATOM
      1 ****        -5.2063   1.0048  -1.4143 C.3            1 S1                 0.0000
      2 ****        -3.7381   1.0199  -0.9755 C.3            1 S1                 0.0000
      3 ****        -3.1271  -0.3937  -0.9344 C.3            1 S1                 0.0000
      4 ****        -1.7537  -0.3819  -0.4440 N.3            1 S1                 0.0000
      5 ****        -1.1901  -1.7325  -0.4306 C.3            1 S1                 0.0000
      6 ****         0.3265  -1.8094  -0.1680 C.3            1 S1                 0.0000
      7 ****         0.6932  -3.1722  -0.1008 O.3            1 S1                 0.0000
      8 ****         1.1531  -1.1203  -1.2726 C.3            1 S1                 0.0000
      9 ****         2.5965  -1.1562  -1.0076 N.pl3          1 S1                 0.0000
     10 ****         3.5608  -1.9777  -1.5048 C.2            1 S1                 0.0000
     11 ****         4.7457  -1.6028  -0.9470 N.pl3          1 S1                 1.0000
     12 ****         4.5352  -0.5237  -0.0847 C.ar           1 S1                 0.0000
     13 ****         5.4217   0.2019   0.7045 C.ar           1 S1                 0.0000
     14 ****         4.8761   1.2525   1.4719 C.ar           1 S1                 0.0000
     15 ****         5.6951   1.9912   2.2573 F              1 S1                 0.0000
     16 ****         3.4965   1.5482   1.4365 C.ar           1 S1                 0.0000
     17 ****         3.0139   2.5660   2.1879 F              1 S1                 0.0000
     18 ****         2.6072   0.8048   0.6329 C.ar           1 S1                 0.0000
     19 ****         3.1562  -0.2310  -0.1212 C.ar           1 S1                 0.0000
     20 ****        -1.7287   0.2556   0.8704 C.3            1 S1                 0.0000
     21 ****        -2.3356   1.6711   0.8343 C.3            1 S1                 0.0000
     22 ****        -2.3848   2.3163   2.2231 C.3            1 S1                 0.0000
     23 ****        -3.6643   1.5959   0.3259 O.3            1 S1                 0.0000
     24 ****        -5.3127   0.5822  -2.4138 H              1 S1                 0.0000
     25 ****        -5.6165   2.0146  -1.4351 H              1 S1                 0.0000
     26 ****        -5.8162   0.4111  -0.7327 H              1 S1                 0.0000
     27 ****        -3.1715   1.6426  -1.6700 H              1 S1                 0.0000
     28 ****        -3.7394  -1.0356  -0.2988 H              1 S1                 0.0000
     29 ****        -3.1572  -0.8269  -1.9349 H              1 S1                 0.0000
     30 ****        -1.7170  -2.3344   0.3119 H              1 S1                 0.0000
     31 ****        -1.3870  -2.2089  -1.3923 H              1 S1                 0.0000
     32 ****         0.5622  -1.3751   0.8028 H              1 S1                 0.0000
     33 ****         1.6079  -3.2253   0.1295 H              1 S1                 0.0000
     34 ****         0.9812  -1.6036  -2.2355 H              1 S1                 0.0000
     35 ****         0.8565  -0.0778  -1.3947 H              1 S1                 0.0000
     36 ****         3.4122  -2.7820  -2.2113 H              1 S1                 0.0000
     37 ****         6.4781  -0.0200   0.7343 H              1 S1                 0.0000
     38 ****         1.5531   1.0385   0.6122 H              1 S1                 0.0000
     39 ****        -2.2756  -0.3581   1.5881 H              1 S1                 0.0000
     40 ****        -0.7060   0.3290   1.2374 H              1 S1                 0.0000
     41 ****        -1.7405   2.3057   0.1750 H              1 S1                 0.0000
     42 ****        -1.3855   2.4062   2.6495 H              1 S1                 0.0000
     43 ****        -2.9911   1.7264   2.9110 H              1 S1                 0.0000
     44 ****        -2.8157   3.3164   2.1730 H              1 S1                 0.0000
     45 ****         5.6314  -2.0515  -1.1440 H              1 S1                 0.0000
     46 ****        -1.1731   0.1503  -1.0601 LP             1 S1                 0.0000
     47 ****         0.5432  -3.6061  -0.9892 LP             1 S1                 0.0000
     48 ****         0.1430  -3.6358   0.5937 LP             1 S1                 0.0000
     49 ****        -4.2122   1.0397   0.9507 LP             1 S1                 0.0000
     50 ****        -4.0415   2.5211   0.2853 LP             1 S1                 0.0000
@<TRIPOS>BOND
    1    1    2 1     
    2    1   24 1     
    3    1   25 1     
    4    1   26 1     
    5    2   23 1     
    6    2    3 1     
    7    2   27 1     
    8    3    4 1     
    9    3   28 1     
   10    3   29 1     
   11    4    5 1     
   12    4   20 1     
   13    5    6 1     
   14    5   30 1     
   15    5   31 1     
   16    6    7 1     
   17    6    8 1     
   18    6   32 1     
   19    7   33 1     
   20    8    9 1     
   21    8   34 1     
   22    8   35 1     
   23    9   19 1     
   24    9   10 1     
   25   10   11 2     
   26   10   36 1     
   27   11   12 1     
   28   11   45 1     
   29   12   19 ar    
   30   12   13 ar    
   31   13   14 ar    
   32   13   37 1     
   33   14   15 1     
   34   14   16 ar    
   35   16   17 1     
   36   16   18 ar    
   37   18   19 ar    
   38   18   38 1     
   39   20   21 1     
   40   20   39 1     
   41   20   40 1     
   42   21   22 1     
   43   21   23 1     
   44   21   41 1     
   45   22   42 1     
   46   22   43 1     
   47   22   44 1     
   48    4   46 1     
   49    7   47 1     
   50    7   48 1     
   51   23   49 1     
   52   23   50 1     
@<TRIPOS>SUBSTRUCTURE
      1 S1             1
@<TRIPOS>SET
LONE_PAIRS      STATIC     ATOMS    <user>   **** ""
5 46 47 48 49 50
DONOR_HYDROGENS      STATIC     ATOMS    <user>   **** ""
2 33 45
ATOM$BLUE        STATIC     ATOMS    COLORGROUP SYSTEM
5 46 47 48 49 50
ATOM$RED        STATIC     ATOMS    COLORGROUP SYSTEM
2 33 45
