AV-unprocessed.smi:646|AV-procd|sdf|3168|dock3
  -GOLD-   22720 0 93D 1   1.00000     0.00000
 Structure written by MMmdl.
 44 45  0  0  0  0  0  0  0  0  1 V2000
  143.5004  132.7475  148.5123 C   0  0  0  0  0  0  0  0  0  0  0  0
  143.7627  131.8561  149.5883 O   0  0  0  0  0  0  0  0  0  0  0  0
  145.0306  131.9943  150.2313 C   0  0  2  0  0  0  0  0  0  0  0  0
  146.1610  131.8490  149.2005 C   0  0  0  0  0  0  0  0  0  0  0  0
  145.1231  131.1632  151.5243 C   0  0  0  0  0  0  0  0  0  0  0  0
  145.7791  132.3875  152.1593 C   0  0  2  0  0  0  0  0  0  0  0  0
  145.3861  132.5768  153.5500 N   0  0  0  0  0  0  0  0  0  0  0  0
  146.1324  133.2038  154.4713 C   0  0  0  0  0  0  0  0  0  0  0  0
  147.2707  133.6188  154.2552 O   0  0  0  0  0  0  0  0  0  0  0  0
  145.4842  133.4185  155.8386 C   0  0  0  0  0  0  0  0  0  0  0  0
  146.2724  132.6785  156.8899 C   0  0  0  0  0  0  0  0  0  0  0  0
  145.8155  131.6551  157.7693 C   0  0  0  0  0  0  0  0  0  0  0  0
  144.4410  131.0592  157.8732 C   0  0  0  0  0  0  0  0  0  0  0  0
  146.7820  131.2107  158.5549 N   0  0  0  0  0  0  0  0  0  0  0  0
  147.9221  131.9436  158.2114 O   0  0  0  0  0  0  0  0  0  0  0  0
  147.5939  132.8081  157.2181 C   0  0  0  0  0  0  0  0  0  0  0  0
  148.6874  133.6810  156.7029 C   0  0  0  0  0  0  0  0  0  0  0  0
  144.9990  133.2629  151.1444 C   0  0  0  0  0  0  0  0  0  0  0  0
  145.7338  134.5040  150.6284 C   0  0  0  0  0  0  0  0  0  0  0  0
  143.6015  133.7529  151.5791 C   0  0  0  0  0  0  0  0  0  0  0  0
  142.5521  132.4759  148.0490 H   0  0  0  0  0  0  0  0  0  0  0  0
  144.2696  132.6963  147.7416 H   0  0  0  0  0  0  0  0  0  0  0  0
  143.4100  133.7791  148.8509 H   0  0  0  0  0  0  0  0  0  0  0  0
  147.1348  132.0835  149.6301 H   0  0  0  0  0  0  0  0  0  0  0  0
  146.0104  132.5153  148.3510 H   0  0  0  0  0  0  0  0  0  0  0  0
  146.2332  130.8321  148.8163 H   0  0  0  0  0  0  0  0  0  0  0  0
  144.1521  130.9120  151.9555 H   0  0  0  0  0  0  0  0  0  0  0  0
  145.7690  130.2873  151.4594 H   0  0  0  0  0  0  0  0  0  0  0  0
  146.8594  132.4007  151.9975 H   0  0  0  0  0  0  0  0  0  0  0  0
  144.4614  132.2685  153.8131 H   0  0  0  0  0  0  0  0  0  0  0  0
  145.4411  134.4883  156.0449 H   0  0  0  0  0  0  0  0  0  0  0  0
  144.4501  133.0738  155.8052 H   0  0  0  0  0  0  0  0  0  0  0  0
  143.6748  131.8326  157.8177 H   0  0  0  0  0  0  0  0  0  0  0  0
  144.3027  130.5252  158.8139 H   0  0  0  0  0  0  0  0  0  0  0  0
  144.2610  130.3558  157.0600 H   0  0  0  0  0  0  0  0  0  0  0  0
  148.5467  133.8967  155.6437 H   0  0  0  0  0  0  0  0  0  0  0  0
  149.6593  133.2012  156.8211 H   0  0  0  0  0  0  0  0  0  0  0  0
  148.7089  134.6284  157.2418 H   0  0  0  0  0  0  0  0  0  0  0  0
  145.7251  135.3099  151.3633 H   0  0  0  0  0  0  0  0  0  0  0  0
  145.2766  134.8855  149.7149 H   0  0  0  0  0  0  0  0  0  0  0  0
  146.7802  134.2965  150.4064 H   0  0  0  0  0  0  0  0  0  0  0  0
  143.6645  134.5173  152.3541 H   0  0  0  0  0  0  0  0  0  0  0  0
  142.9843  132.9476  151.9774 H   0  0  0  0  0  0  0  0  0  0  0  0
  143.0548  134.1892  150.7425 H   0  0  0  0  0  0  0  0  0  0  0  0
  1  2  1  0  0  0  0
  1 21  1  0  0  0  0
  1 22  1  0  0  0  0
  1 23  1  0  0  0  0
  2  3  1  0  0  0  0
  3 18  1  0  0  0  0
  3  4  1  0  0  0  0
  3  5  1  0  0  0  0
  4 24  1  0  0  0  0
  4 25  1  0  0  0  0
  4 26  1  0  0  0  0
  5  6  1  0  0  0  0
  5 27  1  0  0  0  0
  5 28  1  0  0  0  0
  6  7  1  0  0  0  0
  6 18  1  0  0  0  0
  6 29  1  0  0  0  0
  7  8  1  0  0  0  0
  7 30  1  0  0  0  0
  8  9  2  0  0  0  0
  8 10  1  0  0  0  0
 10 11  1  0  0  0  0
 10 31  1  0  0  0  0
 10 32  1  0  0  0  0
 11 16  2  0  0  0  0
 11 12  1  0  0  0  0
 12 13  1  0  0  0  0
 12 14  2  0  0  0  0
 13 33  1  0  0  0  0
 13 34  1  0  0  0  0
 13 35  1  0  0  0  0
 14 15  1  0  0  0  0
 15 16  1  0  0  0  0
 16 17  1  0  0  0  0
 17 36  1  0  0  0  0
 17 37  1  0  0  0  0
 17 38  1  0  0  0  0
 18 19  1  0  0  0  0
 18 20  1  0  0  0  0
 19 39  1  0  0  0  0
 19 40  1  0  0  0  0
 19 41  1  0  0  0  0
 20 42  1  0  0  0  0
 20 43  1  0  0  0  0
 20 44  1  0  0  0  0
M  END
> <s_m_source_file>
AV-unprocessed.smi

> <i_m_source_file_index>
646

> <i_lp_mmshare_version>
43012

> <i_f3d_flags>
0

> <s_epik_input>
W0NIM11PW0NAQF0xKFtDSDNdKVtDSDJdW0NASF0oQzEoW0NIM10pW0NIM10pW05IXUMoPU8pW0NIMl1jMmMoW0NIM10pbm9jMltDSDNd

> <s_epik_cmdline>
J2VwaWtfcHl0aG9uJywgJy1waCcsICc3LjAnLCAnLXRuJywgJzgnLCAnLW1hJywgJzIwMCcsICctbWV0YWxfYmluZGluZycsICctaW1hZScsICc8aW5maWxlLm1hZT4nLCAnLW9tYWUnLCAnPG91dGZpbGUubWFlPic=

> <r_lp_tautomer_probability>
1

> <r_epik_Ionization_Penalty>
2.13169e-08

> <r_epik_Ionization_Penalty_Charging>
0

> <r_epik_Ionization_Penalty_Neutral>
2.13169e-08

> <r_epik_State_Penalty>
-0

> <r_epik_Charging_Adjusted_Penalty>
0

> <i_epik_Tot_Q>
0

> <i_epik_Tot_abs_Q>
0

> <r_epik_Metal_State_Penalty>
-0

> <b_epik_Metal_Only>
0

> <s_lp_Force_Field>
OPLS_2005

> <r_lp_Energy>
15.4726

> <b_lp_Chiralities_Consistent>
1

> <s_lp_Variant>
AV-unprocessed.smi:646-4

> <Gold.Version>
5.8.1

> <Gold.Id.Protein>
6NUR|6NUR_protein|mol2

> <Gold.PLP.Fitness>
30.8764

> <Gold.PLP.PLP>
-25.5219

> <Gold.PLP.part.hbond>
-2.0000

> <Gold.PLP.part.metal>
0.0000

> <Gold.PLP.part.buried>
-2.4106

> <Gold.PLP.part.nonpolar>
-21.6327

> <Gold.PLP.part.repulsive>
0.2682

> <Gold.PLP.ligand.clash>
0.0000

> <Gold.PLP.ligand.torsion>
0.3444

> <Gold.PLP.Chemscore.Hbond>
1.8873

> <Gold.PLP.Chemscore.CHOScore>
0.0000

> <Gold.PLP.Chemscore.Metal>
0.0000

> <Gold.Chemscore.Hbonds>
donor molecule, donor type, donor heavy atom, donor atom, acceptor molecule, acceptor atom, score
      L1  H     7    30       P1 10957  0.78
      P1  H 10785 10796       L1     2  0.86

> <Gold.PLP.Chemscore.Internal.Correction>
0.3816

> <Gold.Rescore>
     Score         DG    S(hbond)    S(metal)    S(lipo)     H(rot)  DE(clash)    DE(int)     intcor
     11.13     -11.84       0.48        0.00      73.20       1.49       0.19       0.52       ----

> <Gold.Chemscore.Fitness>
11.1297

> <Gold.Chemscore.DG>
-11.8410

> <Gold.Chemscore.ZeroCoef>
-5.4800

> <Gold.Chemscore.Hbond>
0.4845

> <Gold.Chemscore.Metal>
0.0000

> <Gold.Chemscore.Lipo>
73.1998

> <Gold.Chemscore.Internal_Hbond>
0.0000

> <Gold.Chemscore.DEClash>
0.1884

> <Gold.Chemscore.DEInternal>
0.5229

> <Gold.Chemscore.Rot>
1.4928

> <Gold.Chemscore.Internal.Correction>
   9.000000E+99

> <Gold.Chemscore.Hbonds>
donor molecule, donor type, donor heavy atom, donor atom, acceptor molecule, acceptor atom, score
      L1  H     7    30       P1 10957  0.15
      P1  H 10785 10796       L1     2  0.21

> <Gold.Chemscore.Hbond.Weighted>
-1.6183

> <Gold.Chemscore.Metal.Weighted>
-0.0000

> <Gold.Chemscore.Lipo.Weighted>
-8.5644

> <Gold.Chemscore.Internal_Hbond.Weighted>
0.0000

> <Gold.Chemscore.DEClash.Weighted>
0.1884

> <Gold.Chemscore.DEInternal.Weighted>
0.5229

> <Gold.Chemscore.Rot.Weighted>
3.8217

> <Gold.Chemscore.Internal.Correction.Weighted>
   9.000000E+99

> <Gold.Protein.RotatedTorsions>
[ 6907 6896 6895 6894 ] final  156.99 input  -60.11 | X-H torsion
[ 7974 7965 7964 7962 ] final   76.54 input  175.53 | X-H torsion
[ 8008 7997 7996 7995 ] final  141.18 input   59.86 | X-H torsion
[ 10167 10162 10161 10158 ] final    4.15 input  -65.29 | X-H torsion
[ 10718 10713 10712 10709 ] final  113.18 input   66.30 | X-H torsion
[ 10763 10752 10751 10750 ] final  121.71 input  -60.55 | X-H torsion
[ 11005 11000 10999 10996 ] final  -96.95 input  -57.11 | X-H torsion

> <Gold.Protein.ActiveResidues>
 VAL166  LYS551  ARG553  GLY616  TRP617  ASP618  TYR619  PRO620  LYS621  CYS622 
 ASP623  PHE694  ASN695  SER759  ASP760  ASP761  ALA762  ILE779  LEU786  VAL792 
 PHE793  MET794  SER795  GLU796  ALA797  LYS798  CYS799  TRP800  GLU811  SER814 

> <Gold.Protein.RotatedAtoms>
  152.0217  133.3901  159.4260 H   0  0  0  0  0  0  0  0  0  0  0  0  # atno 6907 bound_to 6896
  150.6890  134.3619  159.4963 H   0  0  0  0  0  0  0  0  0  0  0  0  # atno 6908 bound_to 6896
  152.1393  134.9074  160.0605 H   0  0  0  0  0  0  0  0  0  0  0  0  # atno 6909 bound_to 6896
  145.7015  139.2584  143.1702 H   0  0  0  0  0  0  0  0  0  0  0  0  # atno 7974 bound_to 7965
  156.2969  140.2322  156.4523 H   0  0  0  0  0  0  0  0  0  0  0  0  # atno 8008 bound_to 7997
  154.8091  140.0444  157.1350 H   0  0  0  0  0  0  0  0  0  0  0  0  # atno 8009 bound_to 7997
  154.9444  140.3034  155.5108 H   0  0  0  0  0  0  0  0  0  0  0  0  # atno 8010 bound_to 7997
  140.6550  143.7451  150.7638 H   0  0  0  0  0  0  0  0  0  0  0  0  # atno 10167 bound_to 10162
  157.6352  131.0979  150.7004 H   0  0  0  0  0  0  0  0  0  0  0  0  # atno 10718 bound_to 10713
  153.6184  135.3417  155.3002 H   0  0  0  0  0  0  0  0  0  0  0  0  # atno 10763 bound_to 10752
  154.8605  135.4267  154.2234 H   0  0  0  0  0  0  0  0  0  0  0  0  # atno 10764 bound_to 10752
  153.3101  135.7031  153.7196 H   0  0  0  0  0  0  0  0  0  0  0  0  # atno 10765 bound_to 10752
  141.1395  133.8135  157.0640 H   0  0  0  0  0  0  0  0  0  0  0  0  # atno 11005 bound_to 11000
  146.0793  140.7782  142.9649 LP  0  0  0  0  0  0  0  0  0  0  0  0  # atno 17320 bound_to 7965
  144.6967  140.3464  143.7190 LP  0  0  0  0  0  0  0  0  0  0  0  0  # atno 17321 bound_to 7965
  140.1109  143.4700  152.2371 LP  0  0  0  0  0  0  0  0  0  0  0  0  # atno 17342 bound_to 10162
  139.5771  144.7492  151.3737 LP  0  0  0  0  0  0  0  0  0  0  0  0  # atno 17343 bound_to 10162
  156.7336  130.4717  149.5493 LP  0  0  0  0  0  0  0  0  0  0  0  0  # atno 17370 bound_to 10713
  156.1585  130.6358  151.0689 LP  0  0  0  0  0  0  0  0  0  0  0  0  # atno 17371 bound_to 10713
  140.0553  134.9784  157.1210 LP  0  0  0  0  0  0  0  0  0  0  0  0  # atno 17394 bound_to 11000
  140.3928  134.2166  155.7165 LP  0  0  0  0  0  0  0  0  0  0  0  0  # atno 17395 bound_to 11000

$$$$
