AV-unprocessed.smi:2062|AV-procd|sdf|8397|dock1
  -GOLD-   2272011 83D 1   1.00000     0.00000
 Structure written by MMmdl.
 43 44  0  0  0  0  0  0  0  0  2 V2000
  146.8211  134.3061  153.4344 C   0  0  0  0  0  0  0  0  0  0  0  0
  147.0920  134.5028  154.9333 C   0  0  0  0  0  0  0  0  0  0  0  0
  145.7686  134.5651  155.7141 C   0  0  0  0  0  0  0  0  0  0  0  0
  147.9593  135.7590  155.1677 C   0  0  0  0  0  0  0  0  0  0  0  0
  149.3346  135.6324  154.6116 N   0  3  2  0  0  0  0  0  0  0  0  0
  149.9133  134.2756  154.7655 C   0  0  0  0  0  0  0  0  0  0  0  0
  150.4207  134.0473  156.2006 C   0  0  0  0  0  0  0  0  0  0  0  0
  151.3692  135.0541  156.5308 O   0  0  0  0  0  0  0  0  0  0  0  0
  150.8055  136.3623  156.5080 C   0  0  1  0  0  0  0  0  0  0  0  0
  151.8862  137.3642  156.9531 C   0  0  0  0  0  0  0  0  0  0  0  0
  151.3454  138.7078  157.1294 N   0  0  0  0  0  0  0  0  0  0  0  0
  151.9241  139.6782  157.8511 C   0  0  0  0  0  0  0  0  0  0  0  0
  152.9880  139.5292  158.4531 O   0  0  0  0  0  0  0  0  0  0  0  0
  151.1977  140.8089  157.8212 N   0  0  0  0  0  0  0  0  0  0  0  0
  151.4940  142.0578  158.4281 C   0  0  0  0  0  0  0  0  0  0  0  0
  150.9434  143.2223  158.0652 N   0  0  0  0  0  0  0  0  0  0  0  0
  151.4146  144.2877  158.8366 C   0  0  0  0  0  0  0  0  0  0  0  0
  152.3283  143.9131  159.7900 C   0  0  0  0  0  0  0  0  0  0  0  0
  152.6354  142.1973  159.7574 S   0  0  0  0  0  0  0  0  0  0  0  0
  150.2988  136.6617  155.0801 C   0  0  0  0  0  0  0  0  0  0  0  0
  146.2654  135.1463  153.0166 H   0  0  0  0  0  0  0  0  0  0  0  0
  146.2396  133.4012  153.2551 H   0  0  0  0  0  0  0  0  0  0  0  0
  147.7524  134.2115  152.8755 H   0  0  0  0  0  0  0  0  0  0  0  0
  147.6370  133.6212  155.2680 H   0  0  0  0  0  0  0  0  0  0  0  0
  145.1734  135.4297  155.4181 H   0  0  0  0  0  0  0  0  0  0  0  0
  145.9407  134.6305  156.7884 H   0  0  0  0  0  0  0  0  0  0  0  0
  145.1669  133.6731  155.5369 H   0  0  0  0  0  0  0  0  0  0  0  0
  147.4687  136.6410  154.7564 H   0  0  0  0  0  0  0  0  0  0  0  0
  148.0208  135.9289  156.2436 H   0  0  0  0  0  0  0  0  0  0  0  0
  149.1897  133.5108  154.4814 H   0  0  0  0  0  0  0  0  0  0  0  0
  150.7481  134.1781  154.0701 H   0  0  0  0  0  0  0  0  0  0  0  0
  149.5991  134.0495  156.9183 H   0  0  0  0  0  0  0  0  0  0  0  0
  150.9037  133.0732  156.2758 H   0  0  0  0  0  0  0  0  0  0  0  0
  149.9720  136.4075  157.2098 H   0  0  0  0  0  0  0  0  0  0  0  0
  152.3292  137.0446  157.8969 H   0  0  0  0  0  0  0  0  0  0  0  0
  152.6983  137.3946  156.2248 H   0  0  0  0  0  0  0  0  0  0  0  0
  150.4723  138.9126  156.6653 H   0  0  0  0  0  0  0  0  0  0  0  0
  150.3360  140.7764  157.2969 H   0  0  0  0  0  0  0  0  0  0  0  0
  151.0446  145.2829  158.6387 H   0  0  0  0  0  0  0  0  0  0  0  0
  152.8370  144.5402  160.5070 H   0  0  0  0  0  0  0  0  0  0  0  0
  151.1445  136.6661  154.3913 H   0  0  0  0  0  0  0  0  0  0  0  0
  149.8653  137.6594  155.0285 H   0  0  0  0  0  0  0  0  0  0  0  0
  149.2251  135.7717  153.6171 H   0  0  0  0  0  0  0  0  0  0  0  0
  1  2  1  0  0  0  0
  1 21  1  0  0  0  0
  1 22  1  0  0  0  0
  1 23  1  0  0  0  0
  2  3  1  0  0  0  0
  2  4  1  0  0  0  0
  2 24  1  0  0  0  0
  3 25  1  0  0  0  0
  3 26  1  0  0  0  0
  3 27  1  0  0  0  0
  4  5  1  0  0  0  0
  4 28  1  0  0  0  0
  4 29  1  0  0  0  0
  5 20  1  0  0  0  0
  5  6  1  0  0  0  0
  5 43  1  0  0  0  0
  6  7  1  0  0  0  0
  6 30  1  0  0  0  0
  6 31  1  0  0  0  0
  7  8  1  0  0  0  0
  7 32  1  0  0  0  0
  7 33  1  0  0  0  0
  8  9  1  0  0  0  0
  9 10  1  0  0  0  0
  9 20  1  0  0  0  0
  9 34  1  0  0  0  0
 10 11  1  0  0  0  0
 10 35  1  0  0  0  0
 10 36  1  0  0  0  0
 11 12  1  0  0  0  0
 11 37  1  0  0  0  0
 12 13  2  0  0  0  0
 12 14  1  0  0  0  0
 14 15  1  0  0  0  0
 14 38  1  0  0  0  0
 15 19  1  0  0  0  0
 15 16  2  0  0  0  0
 16 17  1  0  0  0  0
 17 18  2  0  0  0  0
 17 39  1  0  0  0  0
 18 19  1  0  0  0  0
 18 40  1  0  0  0  0
 20 41  1  0  0  0  0
 20 42  1  0  0  0  0
M  CHG  1   5   1
M  END
> <s_m_source_file>
AV-unprocessed.smi

> <i_m_source_file_index>
2062

> <i_lp_mmshare_version>
43012

> <i_f3d_flags>
0

> <s_epik_input>
W0NIM11bQ0hdKFtDSDNdKVtDSDJdTjFbQ0gyXVtDSDJdT1tDQEhdKFtDSDJdMSlbQ0gyXVtOSF1DKD1PKVtOSF1jMm5bY0hdW2NIXXMy

> <s_epik_cmdline>
J2VwaWtfcHl0aG9uJywgJy1waCcsICc3LjAnLCAnLXRuJywgJzgnLCAnLW1hJywgJzIwMCcsICctbWV0YWxfYmluZGluZycsICctaW1hZScsICc8aW5maWxlLm1hZT4nLCAnLW9tYWUnLCAnPG91dGZpbGUubWFlPic=

> <r_lp_tautomer_probability>
0.999

> <r_epik_Ionization_Penalty>
0.0985527

> <r_epik_Ionization_Penalty_Charging>
0.098413

> <r_epik_Ionization_Penalty_Neutral>
0.000139681

> <r_epik_State_Penalty>
0.0884988

> <r_epik_Charging_Adjusted_Penalty>
0.186912

> <i_epik_Tot_Q>
1

> <i_epik_Tot_abs_Q>
1

> <r_epik_Metal_State_Penalty>
0.141792

> <b_epik_Metal_Only>
0

> <s_lp_Force_Field>
OPLS_2005

> <r_lp_Energy>
17.4544

> <b_lp_Chiralities_Consistent>
1

> <s_lp_Variant>
AV-unprocessed.smi:2062-2

> <Gold.Version>
5.8.1

> <Gold.Id.Protein>
6NUR|6NUR_protein|mol2

> <Gold.PLP.Fitness>
39.6713

> <Gold.PLP.PLP>
-28.4706

> <Gold.PLP.part.hbond>
-3.0000

> <Gold.PLP.part.metal>
0.0000

> <Gold.PLP.part.buried>
-4.6309

> <Gold.PLP.part.nonpolar>
-21.5917

> <Gold.PLP.part.repulsive>
0.2894

> <Gold.PLP.ligand.clash>
0.0000

> <Gold.PLP.ligand.torsion>
0.4476

> <Gold.PLP.Chemscore.Hbond>
3.9920

> <Gold.PLP.Chemscore.CHOScore>
0.0000

> <Gold.PLP.Chemscore.Metal>
0.0000

> <Gold.Chemscore.Hbonds>
donor molecule, donor type, donor heavy atom, donor atom, acceptor molecule, acceptor atom, score
      L1  H     5    43       P1  7948  2.00
      P1  H  7997  8009       L1    13  0.47
      P1  H 10752 10763       L1     8  0.22

> <Gold.PLP.Chemscore.Internal.Correction>
0.1199

> <Gold.Rescore>
     Score         DG    S(hbond)    S(metal)    S(lipo)     H(rot)  DE(clash)    DE(int)     intcor
     16.69     -18.21       2.81        0.00      66.96       1.76       0.08       1.43       ----

> <Gold.Chemscore.Fitness>
16.6909

> <Gold.Chemscore.DG>
-18.2067

> <Gold.Chemscore.ZeroCoef>
-5.4800

> <Gold.Chemscore.Hbond>
2.8137

> <Gold.Chemscore.Metal>
0.0000

> <Gold.Chemscore.Lipo>
66.9595

> <Gold.Chemscore.Internal_Hbond>
0.0000

> <Gold.Chemscore.DEClash>
0.0810

> <Gold.Chemscore.DEInternal>
1.4348

> <Gold.Chemscore.Rot>
1.7599

> <Gold.Chemscore.Internal.Correction>
   9.000000E+99

> <Gold.Chemscore.Hbonds>
donor molecule, donor type, donor heavy atom, donor atom, acceptor molecule, acceptor atom, score
      L1  H     5    43       P1  7948  0.70
      P1  H  7997  8009       L1    13  0.39
      P1  H 10752 10763       L1     8  0.04

> <Gold.Chemscore.Hbond.Weighted>
-9.3979

> <Gold.Chemscore.Metal.Weighted>
-0.0000

> <Gold.Chemscore.Lipo.Weighted>
-7.8343

> <Gold.Chemscore.Internal_Hbond.Weighted>
0.0000

> <Gold.Chemscore.DEClash.Weighted>
0.0810

> <Gold.Chemscore.DEInternal.Weighted>
1.4348

> <Gold.Chemscore.Rot.Weighted>
4.5054

> <Gold.Chemscore.Internal.Correction.Weighted>
   9.000000E+99

> <Gold.Protein.RotatedTorsions>
[ 6907 6896 6895 6894 ] final  146.26 input  -60.11 | X-H torsion
[ 7974 7965 7964 7962 ] final  -64.72 input  175.53 | X-H torsion
[ 8008 7997 7996 7995 ] final  140.39 input   59.86 | X-H torsion
[ 10167 10162 10161 10158 ] final  117.30 input  -65.29 | X-H torsion
[ 10718 10713 10712 10709 ] final   61.52 input   66.30 | X-H torsion
[ 10763 10752 10751 10750 ] final   88.05 input  -60.55 | X-H torsion
[ 11005 11000 10999 10996 ] final   43.95 input  -57.11 | X-H torsion

> <Gold.Protein.ActiveResidues>
 VAL166  LYS551  ARG553  GLY616  TRP617  ASP618  TYR619  PRO620  LYS621  CYS622 
 ASP623  PHE694  ASN695  SER759  ASP760  ASP761  ALA762  ILE779  LEU786  VAL792 
 PHE793  MET794  SER795  GLU796  ALA797  LYS798  CYS799  TRP800  GLU811  SER814 

> <Gold.Protein.RotatedAtoms>
  152.1703  133.4639  159.4905 H   0  0  0  0  0  0  0  0  0  0  0  0  # atno 6907 bound_to 6896
  150.6919  134.1962  159.4313 H   0  0  0  0  0  0  0  0  0  0  0  0  # atno 6908 bound_to 6896
  151.9868  134.9999  160.0610 H   0  0  0  0  0  0  0  0  0  0  0  0  # atno 6909 bound_to 6896
  145.7632  140.8851  143.0419 H   0  0  0  0  0  0  0  0  0  0  0  0  # atno 7974 bound_to 7965
  156.2979  140.2342  156.4394 H   0  0  0  0  0  0  0  0  0  0  0  0  # atno 8008 bound_to 7997
  154.8199  140.0438  157.1424 H   0  0  0  0  0  0  0  0  0  0  0  0  # atno 8009 bound_to 7997
  154.9326  140.3019  155.5163 H   0  0  0  0  0  0  0  0  0  0  0  0  # atno 8010 bound_to 7997
  139.6188  144.7097  151.2681 H   0  0  0  0  0  0  0  0  0  0  0  0  # atno 10167 bound_to 10162
  157.5834  130.8999  149.9472 H   0  0  0  0  0  0  0  0  0  0  0  0  # atno 10718 bound_to 10713
  153.1729  135.4521  154.9927 H   0  0  0  0  0  0  0  0  0  0  0  0  # atno 10763 bound_to 10752
  154.7978  135.3244  154.7626 H   0  0  0  0  0  0  0  0  0  0  0  0  # atno 10764 bound_to 10752
  153.8100  135.6955  153.4897 H   0  0  0  0  0  0  0  0  0  0  0  0  # atno 10765 bound_to 10752
  140.1597  134.4357  155.8326 H   0  0  0  0  0  0  0  0  0  0  0  0  # atno 11005 bound_to 11000
  144.6826  139.9751  143.7482 LP  0  0  0  0  0  0  0  0  0  0  0  0  # atno 17320 bound_to 7965
  146.0244  139.3279  143.0793 LP  0  0  0  0  0  0  0  0  0  0  0  0  # atno 17321 bound_to 7965
  140.7368  143.6696  150.8093 LP  0  0  0  0  0  0  0  0  0  0  0  0  # atno 17342 bound_to 10162
  140.0303  143.5450  152.2763 LP  0  0  0  0  0  0  0  0  0  0  0  0  # atno 17343 bound_to 10162
  156.0881  130.3666  150.0447 LP  0  0  0  0  0  0  0  0  0  0  0  0  # atno 17370 bound_to 10713
  156.8583  130.9482  151.3620 LP  0  0  0  0  0  0  0  0  0  0  0  0  # atno 17371 bound_to 10713
  141.2208  133.6908  156.7572 LP  0  0  0  0  0  0  0  0  0  0  0  0  # atno 17394 bound_to 11000
  140.2504  134.8544  157.3662 LP  0  0  0  0  0  0  0  0  0  0  0  0  # atno 17395 bound_to 11000

$$$$
