AV-unprocessed.smi:1667|AV-procd|sdf|6679|dock10
  -GOLD-   22720 7393D 1   1.00000     0.00000
 Structure written by MMmdl.
 46 48  0  0  0  0  0  0  0  0  2 V2000
  146.3170  143.1996  153.8073 C   0  0  0  0  0  0  0  0  0  0  0  0
  147.0736  141.9418  154.2200 C   0  0  0  0  0  0  0  0  0  0  0  0
  146.7599  140.8530  153.7403 O   0  0  0  0  0  0  0  0  0  0  0  0
  148.0625  142.1063  155.1128 N   0  0  0  0  0  0  0  0  0  0  0  0
  148.9055  141.0428  155.6509 C   0  0  1  0  0  0  0  0  0  0  0  0
  149.6173  140.3084  154.5028 C   0  0  0  0  0  0  0  0  0  0  0  0
  149.8654  141.5840  156.6696 C   0  0  0  0  0  0  0  0  0  0  0  0
  150.1770  142.8976  156.8698 N   0  3  0  0  0  0  0  0  0  0  0  0
  151.1048  143.0157  157.9040 C   0  0  0  0  0  0  0  0  0  0  0  0
  151.7208  144.1362  158.4527 C   0  0  0  0  0  0  0  0  0  0  0  0
  152.6297  143.9062  159.5063 C   0  0  0  0  0  0  0  0  0  0  0  0
  152.8931  142.6034  159.9773 C   0  0  0  0  0  0  0  0  0  0  0  0
  152.2595  141.4756  159.4145 C   0  0  0  0  0  0  0  0  0  0  0  0
  151.3651  141.7122  158.3711 C   0  0  0  0  0  0  0  0  0  0  0  0
  150.5760  140.8626  157.5878 N   0  0  0  0  0  0  0  0  0  0  0  0
  150.6247  139.4132  157.8436 C   0  0  0  0  0  0  0  0  0  0  0  0
  151.8454  138.7313  157.1934 C   0  0  1  0  0  0  0  0  0  0  0  0
  152.5400  139.7006  156.4365 O   0  0  0  0  0  0  0  0  0  0  0  0
  152.7362  138.0527  158.2237 C   0  0  0  0  0  0  0  0  0  0  0  0
  152.4146  138.1011  159.5986 C   0  0  0  0  0  0  0  0  0  0  0  0
  153.2226  137.4345  160.5396 C   0  0  0  0  0  0  0  0  0  0  0  0
  154.3578  136.7190  160.1130 C   0  0  0  0  0  0  0  0  0  0  0  0
  154.6845  136.6697  158.7444 C   0  0  0  0  0  0  0  0  0  0  0  0
  155.7725  135.9773  158.3321 F   0  0  0  0  0  0  0  0  0  0  0  0
  153.8764  137.3350  157.8026 C   0  0  0  0  0  0  0  0  0  0  0  0
  148.2881  140.3062  156.1629 H   0  0  0  0  0  0  0  0  0  0  0  0
  146.9516  144.0837  153.8785 H   0  0  0  0  0  0  0  0  0  0  0  0
  145.4494  143.3438  154.4515 H   0  0  0  0  0  0  0  0  0  0  0  0
  145.9687  143.1150  152.7774 H   0  0  0  0  0  0  0  0  0  0  0  0
  148.2398  143.0408  155.4512 H   0  0  0  0  0  0  0  0  0  0  0  0
  150.2239  139.4845  154.8806 H   0  0  0  0  0  0  0  0  0  0  0  0
  150.2694  140.9762  153.9388 H   0  0  0  0  0  0  0  0  0  0  0  0
  148.8944  139.8858  153.8040 H   0  0  0  0  0  0  0  0  0  0  0  0
  151.5200  145.1352  158.0939 H   0  0  0  0  0  0  0  0  0  0  0  0
  153.1349  144.7455  159.9621 H   0  0  0  0  0  0  0  0  0  0  0  0
  153.5958  142.4661  160.7864 H   0  0  0  0  0  0  0  0  0  0  0  0
  152.4689  140.4815  159.7814 H   0  0  0  0  0  0  0  0  0  0  0  0
  150.6261  139.2644  158.9242 H   0  0  0  0  0  0  0  0  0  0  0  0
  149.6985  138.9688  157.4797 H   0  0  0  0  0  0  0  0  0  0  0  0
  151.5032  137.9786  156.4823 H   0  0  0  0  0  0  0  0  0  0  0  0
  152.1766  139.7173  155.5641 H   0  0  0  0  0  0  0  0  0  0  0  0
  151.5378  138.6353  159.9353 H   0  0  0  0  0  0  0  0  0  0  0  0
  152.9678  137.4679  161.5886 H   0  0  0  0  0  0  0  0  0  0  0  0
  154.9761  136.2061  160.8350 H   0  0  0  0  0  0  0  0  0  0  0  0
  154.1280  137.2818  156.7535 H   0  0  0  0  0  0  0  0  0  0  0  0
  149.7851  143.6570  156.3278 H   0  0  0  0  0  0  0  0  0  0  0  0
  1  2  1  0  0  0  0
  1 27  1  0  0  0  0
  1 28  1  0  0  0  0
  1 29  1  0  0  0  0
  2  3  2  0  0  0  0
  2  4  1  0  0  0  0
  4  5  1  0  0  0  0
  4 30  1  0  0  0  0
  5 26  1  0  0  0  0
  5  6  1  0  0  0  0
  5  7  1  0  0  0  0
  6 31  1  0  0  0  0
  6 32  1  0  0  0  0
  6 33  1  0  0  0  0
  7 15  1  0  0  0  0
  7  8  2  0  0  0  0
  8  9  1  0  0  0  0
  8 46  1  0  0  0  0
  9 14  2  0  0  0  0
  9 10  1  0  0  0  0
 10 11  2  0  0  0  0
 10 34  1  0  0  0  0
 11 12  1  0  0  0  0
 11 35  1  0  0  0  0
 12 13  2  0  0  0  0
 12 36  1  0  0  0  0
 13 14  1  0  0  0  0
 13 37  1  0  0  0  0
 14 15  1  0  0  0  0
 15 16  1  0  0  0  0
 16 17  1  0  0  0  0
 16 38  1  0  0  0  0
 16 39  1  0  0  0  0
 17 18  1  0  0  0  0
 17 19  1  0  0  0  0
 17 40  1  0  0  0  0
 18 41  1  0  0  0  0
 19 25  1  0  0  0  0
 19 20  2  0  0  0  0
 20 21  1  0  0  0  0
 20 42  1  0  0  0  0
 21 22  2  0  0  0  0
 21 43  1  0  0  0  0
 22 23  1  0  0  0  0
 22 44  1  0  0  0  0
 23 24  1  0  0  0  0
 23 25  2  0  0  0  0
 25 45  1  0  0  0  0
M  CHG  1   8   1
M  END
> <s_m_source_file>
AV-unprocessed.smi

> <i_m_source_file_index>
1667

> <i_lp_mmshare_version>
43012

> <i_f3d_flags>
0

> <s_epik_input>
W0NIM11DKD1PKVtOSF1bQ0BASF0oW0NIM10pYyhuMSluKGMoYzEyKVtjSF1bY0hdW2NIXVtjSF0yKVtDSDJdW0NASF0oW09IXSljM1tjSF1bY0hdW2NIXWMoRilbY0hdMw==

> <s_epik_cmdline>
J2VwaWtfcHl0aG9uJywgJy1waCcsICc3LjAnLCAnLXRuJywgJzgnLCAnLW1hJywgJzIwMCcsICctbWV0YWxfYmluZGluZycsICctaW1hZScsICc8aW5maWxlLm1hZT4nLCAnLW9tYWUnLCAnPG91dGZpbGUubWFlPic=

> <r_epik_Ionization_Penalty>
0.950383

> <r_epik_Ionization_Penalty_Charging>
0.950379

> <r_epik_Ionization_Penalty_Neutral>
3.60962e-06

> <r_epik_State_Penalty>
0.994584

> <r_epik_Charging_Adjusted_Penalty>
1.94496

> <i_epik_Tot_Q>
1

> <i_epik_Tot_abs_Q>
1

> <r_epik_Metal_State_Penalty>
1.10485

> <b_epik_Metal_Only>
0

> <s_lp_Force_Field>
OPLS_2005

> <r_lp_Energy>
12.894

> <b_lp_Chiralities_Consistent>
1

> <s_lp_Variant>
AV-unprocessed.smi:1667-7

> <Gold.Version>
5.8.1

> <Gold.Id.Protein>
6NUR|6NUR_protein|mol2

> <Gold.PLP.Fitness>
55.6307

> <Gold.PLP.PLP>
-46.3324

> <Gold.PLP.part.hbond>
-3.0000

> <Gold.PLP.part.metal>
0.0000

> <Gold.PLP.part.buried>
-7.4634

> <Gold.PLP.part.nonpolar>
-36.7570

> <Gold.PLP.part.repulsive>
0.3256

> <Gold.PLP.ligand.clash>
0.0000

> <Gold.PLP.ligand.torsion>
1.3812

> <Gold.PLP.Chemscore.Hbond>
4.0000

> <Gold.PLP.Chemscore.CHOScore>
0.0000

> <Gold.PLP.Chemscore.Metal>
0.0000

> <Gold.Chemscore.Hbonds>
donor molecule, donor type, donor heavy atom, donor atom, acceptor molecule, acceptor atom, score
      L1  H     4    30       P1  8028  1.00
      L1  H     8    46       P1  8028  2.00
      P1  H  7997  8009       L1    18  1.00

> <Gold.PLP.Chemscore.Internal.Correction>
0.0607

> <Gold.Rescore>
     Score         DG    S(hbond)    S(metal)    S(lipo)     H(rot)  DE(clash)    DE(int)     intcor
     21.15     -22.56       2.95        0.00     117.38       2.53       0.02       1.40       ----

> <Gold.Chemscore.Fitness>
21.1460

> <Gold.Chemscore.DG>
-22.5648

> <Gold.Chemscore.ZeroCoef>
-5.4800

> <Gold.Chemscore.Hbond>
2.9453

> <Gold.Chemscore.Metal>
0.0000

> <Gold.Chemscore.Lipo>
117.3767

> <Gold.Chemscore.Internal_Hbond>
0.0000

> <Gold.Chemscore.DEClash>
0.0202

> <Gold.Chemscore.DEInternal>
1.3985

> <Gold.Chemscore.Rot>
2.5335

> <Gold.Chemscore.Internal.Correction>
   9.000000E+99

> <Gold.Chemscore.Hbonds>
donor molecule, donor type, donor heavy atom, donor atom, acceptor molecule, acceptor atom, score
      L1  H     4    30       P1  8028  0.96
      L1  H     8    46       P1  8028  0.94
      P1  H  7997  8009       L1    18  0.85

> <Gold.Chemscore.Hbond.Weighted>
-9.8374

> <Gold.Chemscore.Metal.Weighted>
-0.0000

> <Gold.Chemscore.Lipo.Weighted>
-13.7331

> <Gold.Chemscore.Internal_Hbond.Weighted>
0.0000

> <Gold.Chemscore.DEClash.Weighted>
0.0202

> <Gold.Chemscore.DEInternal.Weighted>
1.3985

> <Gold.Chemscore.Rot.Weighted>
6.4856

> <Gold.Chemscore.Internal.Correction.Weighted>
   9.000000E+99

> <Gold.Protein.RotatedTorsions>
[ 6907 6896 6895 6894 ] final    8.97 input  -60.11 | X-H torsion
[ 7974 7965 7964 7962 ] final -124.11 input  175.53 | X-H torsion
[ 8008 7997 7996 7995 ] final -170.08 input   59.86 | X-H torsion
[ 10167 10162 10161 10158 ] final   69.45 input  -65.29 | X-H torsion
[ 10718 10713 10712 10709 ] final -152.05 input   66.30 | X-H torsion
[ 10763 10752 10751 10750 ] final -105.07 input  -60.55 | X-H torsion
[ 11005 11000 10999 10996 ] final   -2.03 input  -57.11 | X-H torsion

> <Gold.Protein.ActiveResidues>
 VAL166  LYS551  ARG553  GLY616  TRP617  ASP618  TYR619  PRO620  LYS621  CYS622 
 ASP623  PHE694  ASN695  SER759  ASP760  ASP761  ALA762  ILE779  LEU786  VAL792 
 PHE793  MET794  SER795  GLU796  ALA797  LYS798  CYS799  TRP800  GLU811  SER814 

> <Gold.Protein.RotatedAtoms>
  151.7146  135.0906  160.0273 H   0  0  0  0  0  0  0  0  0  0  0  0  # atno 6907 bound_to 6896
  152.3640  133.6329  159.6045 H   0  0  0  0  0  0  0  0  0  0  0  0  # atno 6908 bound_to 6896
  150.7625  133.9293  159.3463 H   0  0  0  0  0  0  0  0  0  0  0  0  # atno 6909 bound_to 6896
  145.0115  140.7910  143.4435 H   0  0  0  0  0  0  0  0  0  0  0  0  # atno 7974 bound_to 7965
  155.9135  140.1061  157.1261 H   0  0  0  0  0  0  0  0  0  0  0  0  # atno 8008 bound_to 7997
  154.4043  140.1269  156.4653 H   0  0  0  0  0  0  0  0  0  0  0  0  # atno 8009 bound_to 7997
  155.7281  140.3469  155.5049 H   0  0  0  0  0  0  0  0  0  0  0  0  # atno 8010 bound_to 7997
  140.0676  144.5180  150.7250 H   0  0  0  0  0  0  0  0  0  0  0  0  # atno 10167 bound_to 10162
  156.4674  130.8242  151.2472 H   0  0  0  0  0  0  0  0  0  0  0  0  # atno 10718 bound_to 10713
  154.7921  135.4763  154.0077 H   0  0  0  0  0  0  0  0  0  0  0  0  # atno 10763 bound_to 10752
  153.1647  135.6815  153.8699 H   0  0  0  0  0  0  0  0  0  0  0  0  # atno 10764 bound_to 10752
  153.8301  135.3193  155.3396 H   0  0  0  0  0  0  0  0  0  0  0  0  # atno 10765 bound_to 10752
  140.6539  133.9380  155.8396 H   0  0  0  0  0  0  0  0  0  0  0  0  # atno 11005 bound_to 11000
  145.2016  139.2249  143.5190 LP  0  0  0  0  0  0  0  0  0  0  0  0  # atno 17320 bound_to 7965
  146.3471  140.1835  142.8589 LP  0  0  0  0  0  0  0  0  0  0  0  0  # atno 17321 bound_to 7965
  140.7141  143.2529  151.4489 LP  0  0  0  0  0  0  0  0  0  0  0  0  # atno 17342 bound_to 10162
  139.5855  144.1613  152.2024 LP  0  0  0  0  0  0  0  0  0  0  0  0  # atno 17343 bound_to 10162
  157.7494  131.0087  150.3240 LP  0  0  0  0  0  0  0  0  0  0  0  0  # atno 17370 bound_to 10713
  156.3654  130.3854  149.7218 LP  0  0  0  0  0  0  0  0  0  0  0  0  # atno 17371 bound_to 10713
  141.0516  134.0476  157.3776 LP  0  0  0  0  0  0  0  0  0  0  0  0  # atno 17394 bound_to 11000
  139.9036  135.0173  156.7384 LP  0  0  0  0  0  0  0  0  0  0  0  0  # atno 17395 bound_to 11000

$$$$
