#       Name:                AV-unprocessed.smi:1793
#       Creating user name   scv26
#       Creation time:       Fri Mar 27 08:47:32 2020


#       File generated by GOLD software.
#

@<TRIPOS>MOLECULE
AV-unprocessed.smi:1793
    52    54     1
SMALL
NO_CHARGES


@<TRIPOS>ATOM
      1 ****        -4.1943   0.1203  -1.9252 C.3            1 S1                 0.0000
      2 ****        -3.3914   0.3859  -0.6437 C.3            1 S1                 0.0000
      3 ****        -2.0075   0.6971  -0.9958 N.am           1 S1                 0.0000
      4 ****        -1.2168   1.5670  -0.3527 C.2            1 S1                 0.0000
      5 ****        -1.5917   2.2892   0.5709 O.2            1 S1                 0.0000
      6 ****         0.0384   1.5193  -0.8240 N.am           1 S1                 0.0000
      7 ****         1.1733   2.1601  -0.2604 C.ar           1 S1                 0.0000
      8 ****         1.1163   3.5278   0.1055 C.ar           1 S1                 0.0000
      9 ****         2.2698   4.1699   0.5940 C.ar           1 S1                 0.0000
     10 ****         3.4650   3.4364   0.6945 C.ar           1 S1                 0.0000
     11 ****         3.4865   2.1371   0.3303 N.pl3          1 S1                 1.0000
     12 ****         2.4062   1.4590  -0.1319 C.ar           1 S1                 0.0000
     13 ****         2.5653   0.0914  -0.4520 N.3            1 S1                 0.0000
     14 ****         3.8917  -0.5146  -0.4618 C.3            1 S1                 0.0000
     15 ****         3.6389  -2.0200  -0.4683 C.3            1 S1                 0.0000
     16 ****         2.3839  -2.1461   0.3904 C.3            1 S1                 0.0000
     17 ****         1.5997  -0.8679   0.0769 C.3            1 S1                 0.0000
     18 ****        -3.4635  -0.8028   0.3419 C.3            1 S1                 0.0000
     19 ****        -2.7701  -2.0972  -0.1034 C.3            1 S1                 0.0000
     20 ****        -2.4584  -2.7493   1.2239 C.3            1 S1                 0.0000
     21 ****        -2.0725  -1.5434   2.0730 C.3            1 S1                 0.0000
     22 ****        -2.8678  -0.4632   1.5933 O.3            1 S1                 0.0000
     23 ****        -5.2413  -0.0803  -1.6962 H              1 S1                 0.0000
     24 ****        -3.8037  -0.7379  -2.4733 H              1 S1                 0.0000
     25 ****        -4.1643   0.9822  -2.5927 H              1 S1                 0.0000
     26 ****        -3.8437   1.2539  -0.1603 H              1 S1                 0.0000
     27 ****        -1.6054   0.1587  -1.7491 H              1 S1                 0.0000
     28 ****         0.2284   0.8163  -1.5232 H              1 S1                 0.0000
     29 ****         0.2029   4.0943  -0.0016 H              1 S1                 0.0000
     30 ****         2.2395   5.2122   0.8760 H              1 S1                 0.0000
     31 ****         4.3989   3.8459   1.0513 H              1 S1                 0.0000
     32 ****         4.4689  -0.1969  -1.3307 H              1 S1                 0.0000
     33 ****         4.4436  -0.2411   0.4384 H              1 S1                 0.0000
     34 ****         3.4308  -2.3602  -1.4837 H              1 S1                 0.0000
     35 ****         4.4810  -2.5949  -0.0821 H              1 S1                 0.0000
     36 ****         1.8145  -3.0532   0.1851 H              1 S1                 0.0000
     37 ****         2.6627  -2.1568   1.4451 H              1 S1                 0.0000
     38 ****         1.0898  -0.4896   0.9640 H              1 S1                 0.0000
     39 ****         0.8486  -1.0699  -0.6872 H              1 S1                 0.0000
     40 ****        -4.5097  -1.0275   0.5552 H              1 S1                 0.0000
     41 ****        -3.3996  -2.7157  -0.7438 H              1 S1                 0.0000
     42 ****        -1.8398  -1.8968  -0.6355 H              1 S1                 0.0000
     43 ****        -3.3528  -3.2252   1.6283 H              1 S1                 0.0000
     44 ****        -1.6682  -3.4982   1.1614 H              1 S1                 0.0000
     45 ****        -2.2295  -1.7140   3.1382 H              1 S1                 0.0000
     46 ****        -1.0223  -1.2929   1.9207 H              1 S1                 0.0000
     47 ****         4.3681   1.6316   0.4190 H              1 S1                 0.0000
     48 ****        -2.5403   2.2478   0.8846 LP             1 S1                 0.0000
     49 ****        -0.9476   2.9173   1.0076 LP             1 S1                 0.0000
     50 ****         2.3416   0.2644  -1.4111 LP             1 S1                 0.0000
     51 ****        -3.5879  -0.2635   2.2578 LP             1 S1                 0.0000
     52 ****        -2.2900   0.3444   1.4751 LP             1 S1                 0.0000
@<TRIPOS>BOND
    1    1    2 1     
    2    1   23 1     
    3    1   24 1     
    4    1   25 1     
    5    2    3 1     
    6    2   18 1     
    7    2   26 1     
    8    3    4 am    
    9    3   27 1     
   10    4    5 2     
   11    4    6 am    
   12    6    7 1     
   13    6   28 1     
   14    7   12 ar    
   15    7    8 ar    
   16    8    9 ar    
   17    8   29 1     
   18    9   10 ar    
   19    9   30 1     
   20   10   11 ar    
   21   10   31 1     
   22   11   12 ar    
   23   11   47 1     
   24   12   13 1     
   25   13   17 1     
   26   13   14 1     
   27   14   15 1     
   28   14   32 1     
   29   14   33 1     
   30   15   16 1     
   31   15   34 1     
   32   15   35 1     
   33   16   17 1     
   34   16   36 1     
   35   16   37 1     
   36   17   38 1     
   37   17   39 1     
   38   18   22 1     
   39   18   19 1     
   40   18   40 1     
   41   19   20 1     
   42   19   41 1     
   43   19   42 1     
   44   20   21 1     
   45   20   43 1     
   46   20   44 1     
   47   21   22 1     
   48   21   45 1     
   49   21   46 1     
   50    5   48 1     
   51    5   49 1     
   52   13   50 1     
   53   22   51 1     
   54   22   52 1     
@<TRIPOS>SUBSTRUCTURE
      1 S1             1
@<TRIPOS>SET
LONE_PAIRS      STATIC     ATOMS    <user>   **** ""
5 48 49 50 51 52
DONOR_HYDROGENS      STATIC     ATOMS    <user>   **** ""
3 27 28 47
ATOM$BLUE        STATIC     ATOMS    COLORGROUP SYSTEM
5 48 49 50 51 52
ATOM$RED        STATIC     ATOMS    COLORGROUP SYSTEM
3 27 28 47
