AV-unprocessed.smi:2148|AV-procd|sdf|8750|dock1
  -GOLD-   2272011523D 1   1.00000     0.00000
 Structure written by MMmdl.
 44 45  0  0  0  0  0  0  0  0  1 V2000
  143.9277  131.8926  149.1326 C   0  0  0  0  0  0  0  0  0  0  0  0
  145.4706  131.7348  150.0731 S   0  0  0  0  0  0  0  0  0  0  0  0
  145.9531  133.4798  150.2427 C   0  0  2  0  0  0  0  0  0  0  0  0
  147.1731  133.6051  151.1688 C   0  0  0  0  0  0  0  0  0  0  0  0
  144.7908  134.3488  150.7403 C   0  0  0  0  0  0  0  0  0  0  0  0
  144.4418  135.3306  150.0856 O   0  0  0  0  0  0  0  0  0  0  0  0
  144.2413  133.9737  151.9110 N   0  0  0  0  0  0  0  0  0  0  0  0
  143.1728  134.5720  152.6332 C   0  0  0  0  0  0  0  0  0  0  0  0
  142.8847  135.9266  152.3774 C   0  0  0  0  0  0  0  0  0  0  0  0
  141.8427  136.5567  153.0832 C   0  0  0  0  0  0  0  0  0  0  0  0
  141.1083  135.8145  154.0380 C   0  0  0  0  0  0  0  0  0  0  0  0
  140.0549  136.4214  154.7567 N   0  0  0  0  0  0  0  0  0  0  0  0
  139.8570  137.8477  154.5184 C   0  0  0  0  0  0  0  0  0  0  0  0
  138.9633  138.4547  155.6147 C   0  0  1  0  0  0  0  0  0  0  0  0
  138.6288  139.9230  155.3317 C   0  0  0  0  0  0  0  0  0  0  0  0
  137.7373  137.7284  155.6887 O   0  0  0  0  0  0  0  0  0  0  0  0
  137.8851  136.3314  155.9511 C   0  0  2  0  0  0  0  0  0  0  0  0
  138.3303  136.0556  157.3982 C   0  0  0  0  0  0  0  0  0  0  0  0
  138.8003  135.6834  154.8933 C   0  0  0  0  0  0  0  0  0  0  0  0
  141.3989  134.5161  154.2978 N   0  0  0  0  0  0  0  0  0  0  0  0
  142.3987  133.9150  153.6191 C   0  0  0  0  0  0  0  0  0  0  0  0
  143.5233  130.9051  148.9104 H   0  0  0  0  0  0  0  0  0  0  0  0
  144.1056  132.4126  148.1915 H   0  0  0  0  0  0  0  0  0  0  0  0
  143.1818  132.4462  149.7028 H   0  0  0  0  0  0  0  0  0  0  0  0
  146.2551  133.8272  149.2533 H   0  0  0  0  0  0  0  0  0  0  0  0
  147.4795  134.6456  151.2838 H   0  0  0  0  0  0  0  0  0  0  0  0
  148.0247  133.0569  150.7651 H   0  0  0  0  0  0  0  0  0  0  0  0
  146.9663  133.2055  152.1626 H   0  0  0  0  0  0  0  0  0  0  0  0
  144.6787  133.1854  152.3657 H   0  0  0  0  0  0  0  0  0  0  0  0
  143.4548  136.4822  151.6469 H   0  0  0  0  0  0  0  0  0  0  0  0
  141.6311  137.5984  152.8940 H   0  0  0  0  0  0  0  0  0  0  0  0
  140.8012  138.3896  154.4902 H   0  0  0  0  0  0  0  0  0  0  0  0
  139.3910  137.9756  153.5406 H   0  0  0  0  0  0  0  0  0  0  0  0
  139.4785  138.4065  156.5742 H   0  0  0  0  0  0  0  0  0  0  0  0
  139.5344  140.5274  155.2729 H   0  0  0  0  0  0  0  0  0  0  0  0
  138.0026  140.3387  156.1217 H   0  0  0  0  0  0  0  0  0  0  0  0
  138.0919  140.0309  154.3888 H   0  0  0  0  0  0  0  0  0  0  0  0
  136.8921  135.8951  155.8402 H   0  0  0  0  0  0  0  0  0  0  0  0
  138.2983  134.9875  157.6139 H   0  0  0  0  0  0  0  0  0  0  0  0
  137.6718  136.5552  158.1089 H   0  0  0  0  0  0  0  0  0  0  0  0
  139.3486  136.3928  157.5901 H   0  0  0  0  0  0  0  0  0  0  0  0
  138.2940  135.6760  153.9269 H   0  0  0  0  0  0  0  0  0  0  0  0
  138.9912  134.6443  155.1643 H   0  0  0  0  0  0  0  0  0  0  0  0
  142.5761  132.8904  153.9036 H   0  0  0  0  0  0  0  0  0  0  0  0
  1  2  1  0  0  0  0
  1 22  1  0  0  0  0
  1 23  1  0  0  0  0
  1 24  1  0  0  0  0
  2  3  1  0  0  0  0
  3  4  1  0  0  0  0
  3  5  1  0  0  0  0
  3 25  1  0  0  0  0
  4 26  1  0  0  0  0
  4 27  1  0  0  0  0
  4 28  1  0  0  0  0
  5  6  2  0  0  0  0
  5  7  1  0  0  0  0
  7  8  1  0  0  0  0
  7 29  1  0  0  0  0
  8 21  1  0  0  0  0
  8  9  2  0  0  0  0
  9 10  1  0  0  0  0
  9 30  1  0  0  0  0
 10 11  2  0  0  0  0
 10 31  1  0  0  0  0
 11 12  1  0  0  0  0
 11 20  1  0  0  0  0
 12 19  1  0  0  0  0
 12 13  1  0  0  0  0
 13 14  1  0  0  0  0
 13 32  1  0  0  0  0
 13 33  1  0  0  0  0
 14 15  1  0  0  0  0
 14 16  1  0  0  0  0
 14 34  1  0  0  0  0
 15 35  1  0  0  0  0
 15 36  1  0  0  0  0
 15 37  1  0  0  0  0
 16 17  1  0  0  0  0
 17 18  1  0  0  0  0
 17 19  1  0  0  0  0
 17 38  1  0  0  0  0
 18 39  1  0  0  0  0
 18 40  1  0  0  0  0
 18 41  1  0  0  0  0
 19 42  1  0  0  0  0
 19 43  1  0  0  0  0
 20 21  2  0  0  0  0
 21 44  1  0  0  0  0
M  END
> <s_m_source_file>
AV-unprocessed.smi

> <i_m_source_file_index>
2148

> <i_lp_mmshare_version>
43012

> <i_f3d_flags>
0

> <s_epik_input>
W0NIM11TW0NASF0oW0NIM10pQyg9TylbTkhdYzFbY0hdW2NIXWMobltjSF0xKU4yW0NIMl1bQ0BASF0oW0NIM10pT1tDQEBIXShbQ0gzXSlbQ0gyXTI=

> <s_epik_cmdline>
J2VwaWtfcHl0aG9uJywgJy1waCcsICc3LjAnLCAnLXRuJywgJzgnLCAnLW1hJywgJzIwMCcsICctbWV0YWxfYmluZGluZycsICctaW1hZScsICc8aW5maWxlLm1hZT4nLCAnLW9tYWUnLCAnPG91dGZpbGUubWFlPic=

> <r_lp_tautomer_probability>
1

> <r_epik_Ionization_Penalty>
0.000646494

> <r_epik_Ionization_Penalty_Charging>
0

> <r_epik_Ionization_Penalty_Neutral>
0.000646494

> <r_epik_State_Penalty>
0.000408447

> <r_epik_Charging_Adjusted_Penalty>
0.000408447

> <i_epik_Tot_Q>
0

> <i_epik_Tot_abs_Q>
0

> <r_epik_Metal_State_Penalty>
-0

> <b_epik_Metal_Only>
0

> <s_lp_Force_Field>
OPLS_2005

> <r_lp_Energy>
25.6467

> <b_lp_Chiralities_Consistent>
1

> <s_lp_Variant>
AV-unprocessed.smi:2148-5

> <Gold.Version>
5.8.1

> <Gold.Id.Protein>
6NUR|6NUR_protein|mol2

> <Gold.PLP.Fitness>
41.5971

> <Gold.PLP.PLP>
-37.1011

> <Gold.PLP.part.hbond>
-1.2377

> <Gold.PLP.part.metal>
0.0000

> <Gold.PLP.part.buried>
-8.1767

> <Gold.PLP.part.nonpolar>
-29.1293

> <Gold.PLP.part.repulsive>
0.4924

> <Gold.PLP.ligand.clash>
0.0000

> <Gold.PLP.ligand.torsion>
0.4004

> <Gold.PLP.Chemscore.Hbond>
0.6338

> <Gold.PLP.Chemscore.CHOScore>
0.9959

> <Gold.PLP.Chemscore.Metal>
0.0000

> <Gold.Chemscore.Hbonds>
donor molecule, donor type, donor heavy atom, donor atom, acceptor molecule, acceptor atom, score
      P1  H 11000 11005       L1    20  1.00

> <Gold.PLP.Chemscore.Internal.Correction>
0.4080

> <Gold.Rescore>
     Score         DG    S(hbond)    S(metal)    S(lipo)     H(rot)  DE(clash)    DE(int)     intcor
      9.91     -12.11       0.01        0.00      84.07       1.27       0.16       2.04       ----

> <Gold.Chemscore.Fitness>
9.9103

> <Gold.Chemscore.DG>
-12.1139

> <Gold.Chemscore.ZeroCoef>
-5.4800

> <Gold.Chemscore.Hbond>
0.0115

> <Gold.Chemscore.Metal>
0.0000

> <Gold.Chemscore.Lipo>
84.0682

> <Gold.Chemscore.Internal_Hbond>
0.0000

> <Gold.Chemscore.DEClash>
0.1612

> <Gold.Chemscore.DEInternal>
2.0423

> <Gold.Chemscore.Rot>
1.2659

> <Gold.Chemscore.Internal.Correction>
   9.000000E+99

> <Gold.Chemscore.Hbonds>
donor molecule, donor type, donor heavy atom, donor atom, acceptor molecule, acceptor atom, score
      P1  H 11000 11005       L1    20  0.59

> <Gold.Chemscore.Hbond.Weighted>
-0.0385

> <Gold.Chemscore.Metal.Weighted>
-0.0000

> <Gold.Chemscore.Lipo.Weighted>
-9.8360

> <Gold.Chemscore.Internal_Hbond.Weighted>
0.0000

> <Gold.Chemscore.DEClash.Weighted>
0.1612

> <Gold.Chemscore.DEInternal.Weighted>
2.0423

> <Gold.Chemscore.Rot.Weighted>
3.2406

> <Gold.Chemscore.Internal.Correction.Weighted>
   9.000000E+99

> <Gold.Protein.RotatedTorsions>
[ 6907 6896 6895 6894 ] final   52.48 input  -60.11 | X-H torsion
[ 7974 7965 7964 7962 ] final  -95.28 input  175.53 | X-H torsion
[ 8008 7997 7996 7995 ] final  113.63 input   59.86 | X-H torsion
[ 10167 10162 10161 10158 ] final   84.39 input  -65.29 | X-H torsion
[ 10718 10713 10712 10709 ] final  131.11 input   66.30 | X-H torsion
[ 10763 10752 10751 10750 ] final   44.91 input  -60.55 | X-H torsion
[ 11005 11000 10999 10996 ] final   11.86 input  -57.11 | X-H torsion

> <Gold.Protein.ActiveResidues>
 VAL166  LYS551  ARG553  GLY616  TRP617  ASP618  TYR619  PRO620  LYS621  CYS622 
 ASP623  PHE694  ASN695  SER759  ASP760  ASP761  ALA762  ILE779  LEU786  VAL792 
 PHE793  MET794  SER795  GLU796  ALA797  LYS798  CYS799  TRP800  GLU811  SER814 

> <Gold.Protein.RotatedAtoms>
  152.3237  134.7348  160.0307 H   0  0  0  0  0  0  0  0  0  0  0  0  # atno 6907 bound_to 6896
  151.7788  133.3342  159.3473 H   0  0  0  0  0  0  0  0  0  0  0  0  # atno 6908 bound_to 6896
  150.7384  134.5882  159.6018 H   0  0  0  0  0  0  0  0  0  0  0  0  # atno 6909 bound_to 6896
  145.3621  140.9493  143.2495 H   0  0  0  0  0  0  0  0  0  0  0  0  # atno 7974 bound_to 7965
  156.2270  140.2975  156.0093 H   0  0  0  0  0  0  0  0  0  0  0  0  # atno 8008 bound_to 7997
  155.2328  140.0419  157.2981 H   0  0  0  0  0  0  0  0  0  0  0  0  # atno 8009 bound_to 7997
  154.5933  140.2407  155.7899 H   0  0  0  0  0  0  0  0  0  0  0  0  # atno 8010 bound_to 7997
  139.9085  144.6286  150.8562 H   0  0  0  0  0  0  0  0  0  0  0  0  # atno 10167 bound_to 10162
  157.4999  131.1094  150.9442 H   0  0  0  0  0  0  0  0  0  0  0  0  # atno 10718 bound_to 10713
  152.9833  135.6056  154.3350 H   0  0  0  0  0  0  0  0  0  0  0  0  # atno 10763 bound_to 10752
  154.3051  135.2772  155.2594 H   0  0  0  0  0  0  0  0  0  0  0  0  # atno 10764 bound_to 10752
  154.4829  135.5912  153.6459 H   0  0  0  0  0  0  0  0  0  0  0  0  # atno 10765 bound_to 10752
  140.4985  134.0769  155.7788 H   0  0  0  0  0  0  0  0  0  0  0  0  # atno 11005 bound_to 11000
  144.8638  139.5137  143.6799 LP  0  0  0  0  0  0  0  0  0  0  0  0  # atno 17320 bound_to 7965
  146.2922  139.7174  142.9152 LP  0  0  0  0  0  0  0  0  0  0  0  0  # atno 17321 bound_to 7965
  140.7691  143.3383  151.2262 LP  0  0  0  0  0  0  0  0  0  0  0  0  # atno 17342 bound_to 10162
  139.6963  143.9608  152.2884 LP  0  0  0  0  0  0  0  0  0  0  0  0  # atno 17343 bound_to 10162
  157.0116  130.5639  149.5321 LP  0  0  0  0  0  0  0  0  0  0  0  0  # atno 17370 bound_to 10713
  156.0223  130.5317  150.8309 LP  0  0  0  0  0  0  0  0  0  0  0  0  # atno 17371 bound_to 10713
  141.1448  133.9075  157.2242 LP  0  0  0  0  0  0  0  0  0  0  0  0  # atno 17394 bound_to 11000
  139.9727  135.0123  156.9553 LP  0  0  0  0  0  0  0  0  0  0  0  0  # atno 17395 bound_to 11000

$$$$
