#       Name:                AV-unprocessed.smi:686
#       Creating user name   scv26
#       Creation time:       Fri Mar 27 00:30:59 2020


#       File generated by GOLD software.
#

@<TRIPOS>MOLECULE
AV-unprocessed.smi:686
    45    46     1
SMALL
NO_CHARGES


@<TRIPOS>ATOM
      1 ****        -2.1641   0.7097  -1.5967 C.3            1 S1                 0.0000
      2 ****        -1.2075  -0.2490  -0.8708 C.3            1 S1                 0.0000
      3 ****        -1.9554  -1.3572  -0.1205 C.3            1 S1                 0.0000
      4 ****        -2.0361  -0.9183   1.2870 N.4            1 S1                 1.0000
      5 ****        -2.3491  -1.9920   2.2725 C.3            1 S1                 0.0000
      6 ****        -3.6787  -2.6934   1.9372 C.3            1 S1                 0.0000
      7 ****        -2.4055  -1.4394   3.7092 C.3            1 S1                 0.0000
      8 ****        -0.7913  -0.1636   1.5467 C.3            1 S1                 0.0000
      9 ****        -0.3723   0.4673   0.2100 C.3            1 S1                 0.0000
     10 ****         1.0641   0.2835  -0.0250 N.3            1 S1                 0.0000
     11 ****         1.8248   1.2232  -1.2588 S.o2           1 S1                 0.0000
     12 ****         1.6462   0.5110  -2.5333 O.2            1 S1                 0.0000
     13 ****         1.3543   2.6103  -1.1209 O.2            1 S1                 0.0000
     14 ****         3.6015   1.1573  -0.7764 C.3            1 S1                 0.0000
     15 ****         4.4122   1.9729  -1.7423 C.2            1 S1                 0.0000
     16 ****         4.8583   1.6144  -3.0445 C.2            1 S1                 0.0000
     17 ****         5.5388   2.7210  -3.4637 C.2            1 S1                 0.0000
     18 ****         5.5211   3.6811  -2.5049 O.3            1 S1                 0.0000
     19 ****         4.8009   3.1934  -1.4085 N.2            1 S1                 0.0000
     20 ****        -2.8536   1.1887  -0.9006 H              1 S1                 0.0000
     21 ****        -2.7573   0.1816  -2.3437 H              1 S1                 0.0000
     22 ****        -1.6099   1.4949  -2.1123 H              1 S1                 0.0000
     23 ****        -0.5709  -0.7117  -1.6264 H              1 S1                 0.0000
     24 ****        -2.9403  -1.5564  -0.5443 H              1 S1                 0.0000
     25 ****        -1.3783  -2.2821  -0.1734 H              1 S1                 0.0000
     26 ****        -1.5535  -2.7375   2.2287 H              1 S1                 0.0000
     27 ****        -3.9268  -3.4415   2.6908 H              1 S1                 0.0000
     28 ****        -3.6368  -3.2142   0.9805 H              1 S1                 0.0000
     29 ****        -4.5035  -1.9809   1.8966 H              1 S1                 0.0000
     30 ****        -2.6784  -2.2220   4.4176 H              1 S1                 0.0000
     31 ****        -3.1441  -0.6419   3.7989 H              1 S1                 0.0000
     32 ****        -1.4430  -1.0440   4.0337 H              1 S1                 0.0000
     33 ****        -0.9402   0.5918   2.3189 H              1 S1                 0.0000
     34 ****        -0.0237  -0.8539   1.9023 H              1 S1                 0.0000
     35 ****        -0.5995   1.5341   0.2329 H              1 S1                 0.0000
     36 ****         1.2976  -0.7042  -0.1255 H              1 S1                 0.0000
     37 ****         3.6969   1.5339   0.2426 H              1 S1                 0.0000
     38 ****         3.9233   0.1161  -0.7790 H              1 S1                 0.0000
     39 ****         4.6994   0.6941  -3.5866 H              1 S1                 0.0000
     40 ****         6.0658   2.9681  -4.3735 H              1 S1                 0.0000
     41 ****        -2.7866  -0.2433   1.3273 H              1 S1                 0.0000
     42 ****         1.4603   0.6661   0.8096 LP             1 S1                 0.0000
     43 ****         5.0799   4.5053  -2.8598 LP             1 S1                 0.0000
     44 ****         6.4567   3.8976  -2.2258 LP             1 S1                 0.0000
     45 ****         4.6175   3.6696  -0.5486 LP             1 S1                 0.0000
@<TRIPOS>BOND
    1    1    2 1     
    2    1   20 1     
    3    1   21 1     
    4    1   22 1     
    5    2    9 1     
    6    2    3 1     
    7    2   23 1     
    8    3    4 1     
    9    3   24 1     
   10    3   25 1     
   11    4    5 1     
   12    4    8 1     
   13    4   41 1     
   14    5    6 1     
   15    5    7 1     
   16    5   26 1     
   17    6   27 1     
   18    6   28 1     
   19    6   29 1     
   20    7   30 1     
   21    7   31 1     
   22    7   32 1     
   23    8    9 1     
   24    8   33 1     
   25    8   34 1     
   26    9   10 1     
   27    9   35 1     
   28   10   11 1     
   29   10   36 1     
   30   11   12 2     
   31   11   13 2     
   32   11   14 1     
   33   14   15 1     
   34   14   37 1     
   35   14   38 1     
   36   15   19 2     
   37   15   16 1     
   38   16   17 2     
   39   16   39 1     
   40   17   18 1     
   41   17   40 1     
   42   18   19 1     
   43   10   42 1     
   44   18   43 1     
   45   18   44 1     
   46   19   45 1     
@<TRIPOS>SUBSTRUCTURE
      1 S1             1
@<TRIPOS>SET
LONE_PAIRS      STATIC     ATOMS    <user>   **** ""
6 42 12 13 43 44 45
DONOR_HYDROGENS      STATIC     ATOMS    <user>   **** ""
2 41 36
ATOM$BLUE        STATIC     ATOMS    COLORGROUP SYSTEM
6 42 12 13 43 44 45
ATOM$RED        STATIC     ATOMS    COLORGROUP SYSTEM
2 41 36
