AV-unprocessed.smi:1543|AV-procd|sdf|6208|dock2
  -GOLD-   22720 6383D 1   1.00000     0.00000
 Structure written by MMmdl.
 49 50  0  0  0  0  0  0  0  0  2 V2000
  143.2960  139.4899  156.7436 C   0  0  0  0  0  0  0  0  0  0  0  0
  144.8213  139.5708  156.6150 C   0  0  2  0  0  0  0  0  0  0  0  0
  145.2538  140.1911  155.2743 C   0  0  0  0  0  0  0  0  0  0  0  0
  146.7376  140.1835  155.1501 N   0  3  2  0  0  0  0  0  0  0  0  0
  147.3068  140.9702  153.9967 C   0  0  0  0  0  0  0  0  0  0  0  0
  146.8884  140.3166  152.6555 C   0  0  0  0  0  0  0  0  0  0  0  0
  146.6884  142.3912  153.9901 C   0  0  0  0  0  0  0  0  0  0  0  0
  148.8610  141.0488  154.0794 C   0  0  0  0  0  0  0  0  0  0  0  0
  149.3462  141.9858  155.0924 N   0  0  0  0  0  0  0  0  0  0  0  0
  150.1549  141.6769  156.1163 C   0  0  0  0  0  0  0  0  0  0  0  0
  150.5817  140.5416  156.3247 O   0  0  0  0  0  0  0  0  0  0  0  0
  150.4360  142.7625  156.8570 N   0  0  0  0  0  0  0  0  0  0  0  0
  151.2304  142.8519  158.0319 C   0  0  0  0  0  0  0  0  0  0  0  0
  151.8733  144.0343  158.4730 C   0  0  0  0  0  0  0  0  0  0  0  0
  152.6509  143.9875  159.6460 C   0  0  0  0  0  0  0  0  0  0  0  0
  152.7638  142.7619  160.3305 C   0  0  0  0  0  0  0  0  0  0  0  0
  152.1677  141.6248  159.9145 N   0  0  0  0  0  0  0  0  0  0  0  0
  151.4241  141.6769  158.7890 C   0  0  0  0  0  0  0  0  0  0  0  0
  147.2343  138.7851  155.2899 C   0  0  0  0  0  0  0  0  0  0  0  0
  146.7570  138.1535  156.6117 C   0  0  1  0  0  0  0  0  0  0  0  0
  147.4768  138.7084  157.8541 C   0  0  0  0  0  0  0  0  0  0  0  0
  145.3380  138.2482  156.7185 O   0  0  0  0  0  0  0  0  0  0  0  0
  142.8433  140.4799  156.6840 H   0  0  0  0  0  0  0  0  0  0  0  0
  143.0085  139.0515  157.6996 H   0  0  0  0  0  0  0  0  0  0  0  0
  142.8642  138.8760  155.9527 H   0  0  0  0  0  0  0  0  0  0  0  0
  145.1960  140.1794  157.4381 H   0  0  0  0  0  0  0  0  0  0  0  0
  144.8061  139.6349  154.4500 H   0  0  0  0  0  0  0  0  0  0  0  0
  144.8530  141.2020  155.2343 H   0  0  0  0  0  0  0  0  0  0  0  0
  147.0992  140.9673  151.8060 H   0  0  0  0  0  0  0  0  0  0  0  0
  145.8194  140.1016  152.6343 H   0  0  0  0  0  0  0  0  0  0  0  0
  147.4238  139.3877  152.4606 H   0  0  0  0  0  0  0  0  0  0  0  0
  146.8977  142.9200  153.0598 H   0  0  0  0  0  0  0  0  0  0  0  0
  147.0824  143.0198  154.7882 H   0  0  0  0  0  0  0  0  0  0  0  0
  145.6035  142.3533  154.0957 H   0  0  0  0  0  0  0  0  0  0  0  0
  149.2948  140.0642  154.2558 H   0  0  0  0  0  0  0  0  0  0  0  0
  149.2738  141.3874  153.1298 H   0  0  0  0  0  0  0  0  0  0  0  0
  149.0495  142.9464  154.9987 H   0  0  0  0  0  0  0  0  0  0  0  0
  150.0782  143.6411  156.5116 H   0  0  0  0  0  0  0  0  0  0  0  0
  151.7991  144.9655  157.9335 H   0  0  0  0  0  0  0  0  0  0  0  0
  153.1534  144.8710  160.0106 H   0  0  0  0  0  0  0  0  0  0  0  0
  153.3529  142.6919  161.2327 H   0  0  0  0  0  0  0  0  0  0  0  0
  150.9649  140.7475  158.4847 H   0  0  0  0  0  0  0  0  0  0  0  0
  146.8668  138.1809  154.4603 H   0  0  0  0  0  0  0  0  0  0  0  0
  148.3207  138.7302  155.2616 H   0  0  0  0  0  0  0  0  0  0  0  0
  146.9831  137.0876  156.5688 H   0  0  0  0  0  0  0  0  0  0  0  0
  148.5459  138.4999  157.8059 H   0  0  0  0  0  0  0  0  0  0  0  0
  147.0929  138.2471  158.7644 H   0  0  0  0  0  0  0  0  0  0  0  0
  147.3629  139.7876  157.9521 H   0  0  0  0  0  0  0  0  0  0  0  0
  147.0723  140.6648  155.9727 H   0  0  0  0  0  0  0  0  0  0  0  0
  1  2  1  0  0  0  0
  1 23  1  0  0  0  0
  1 24  1  0  0  0  0
  1 25  1  0  0  0  0
  2 22  1  0  0  0  0
  2  3  1  0  0  0  0
  2 26  1  0  0  0  0
  3  4  1  0  0  0  0
  3 27  1  0  0  0  0
  3 28  1  0  0  0  0
  4  5  1  0  0  0  0
  4 19  1  0  0  0  0
  4 49  1  0  0  0  0
  5  6  1  0  0  0  0
  5  7  1  0  0  0  0
  5  8  1  0  0  0  0
  6 29  1  0  0  0  0
  6 30  1  0  0  0  0
  6 31  1  0  0  0  0
  7 32  1  0  0  0  0
  7 33  1  0  0  0  0
  7 34  1  0  0  0  0
  8  9  1  0  0  0  0
  8 35  1  0  0  0  0
  8 36  1  0  0  0  0
  9 10  1  0  0  0  0
  9 37  1  0  0  0  0
 10 11  2  0  0  0  0
 10 12  1  0  0  0  0
 12 13  1  0  0  0  0
 12 38  1  0  0  0  0
 13 18  1  0  0  0  0
 13 14  2  0  0  0  0
 14 15  1  0  0  0  0
 14 39  1  0  0  0  0
 15 16  2  0  0  0  0
 15 40  1  0  0  0  0
 16 17  1  0  0  0  0
 16 41  1  0  0  0  0
 17 18  2  0  0  0  0
 18 42  1  0  0  0  0
 19 20  1  0  0  0  0
 19 43  1  0  0  0  0
 19 44  1  0  0  0  0
 20 21  1  0  0  0  0
 20 22  1  0  0  0  0
 20 45  1  0  0  0  0
 21 46  1  0  0  0  0
 21 47  1  0  0  0  0
 21 48  1  0  0  0  0
M  CHG  1   4   1
M  END
> <s_m_source_file>
AV-unprocessed.smi

> <i_m_source_file_index>
1543

> <i_lp_mmshare_version>
43012

> <i_f3d_flags>
0

> <s_epik_input>
W0NIM11bQ0BASF0xW0NIMl1OKFtDSDJdW0NASF0oTzEpW0NIM10pQyhbQ0gzXSkoW0NIM10pW0NIMl1bTkhdQyg9TylbTkhdYzJbY0hdW2NIXVtjSF1uW2NIXTI=

> <s_epik_cmdline>
J2VwaWtfcHl0aG9uJywgJy1waCcsICc3LjAnLCAnLXRuJywgJzgnLCAnLW1hJywgJzIwMCcsICctbWV0YWxfYmluZGluZycsICctaW1hZScsICc8aW5maWxlLm1hZT4nLCAnLW9tYWUnLCAnPG91dGZpbGUubWFlPic=

> <r_epik_Ionization_Penalty>
0.60676

> <r_epik_Ionization_Penalty_Charging>
0.602531

> <r_epik_Ionization_Penalty_Neutral>
0.00422967

> <r_epik_State_Penalty>
0.607492

> <r_epik_Charging_Adjusted_Penalty>
1.21002

> <i_epik_Tot_Q>
1

> <i_epik_Tot_abs_Q>
1

> <r_epik_Metal_State_Penalty>
0.604589

> <b_epik_Metal_Only>
0

> <s_lp_Force_Field>
OPLS_2005

> <r_lp_Energy>
30.3839

> <b_lp_Chiralities_Consistent>
1

> <s_lp_Variant>
AV-unprocessed.smi:1543-4

> <Gold.Version>
5.8.1

> <Gold.Id.Protein>
6NUR|6NUR_protein|mol2

> <Gold.PLP.Fitness>
40.1685

> <Gold.PLP.PLP>
-34.7407

> <Gold.PLP.part.hbond>
-2.0000

> <Gold.PLP.part.metal>
0.0000

> <Gold.PLP.part.buried>
-3.0664

> <Gold.PLP.part.nonpolar>
-29.9251

> <Gold.PLP.part.repulsive>
0.2752

> <Gold.PLP.ligand.clash>
0.0000

> <Gold.PLP.ligand.torsion>
0.3495

> <Gold.PLP.Chemscore.Hbond>
2.0000

> <Gold.PLP.Chemscore.CHOScore>
0.0000

> <Gold.PLP.Chemscore.Metal>
0.0000

> <Gold.Chemscore.Hbonds>
donor molecule, donor type, donor heavy atom, donor atom, acceptor molecule, acceptor atom, score
      L1  H     9    37       P1  8028  1.00
      L1  H    12    38       P1  8028  1.00

> <Gold.PLP.Chemscore.Internal.Correction>
0.1267

> <Gold.Rescore>
     Score         DG    S(hbond)    S(metal)    S(lipo)     H(rot)  DE(clash)    DE(int)     intcor
     17.01     -18.92       1.93        0.00      91.89       1.46       0.20       1.70       ----

> <Gold.Chemscore.Fitness>
17.0116

> <Gold.Chemscore.DG>
-18.9175

> <Gold.Chemscore.ZeroCoef>
-5.4800

> <Gold.Chemscore.Hbond>
1.9258

> <Gold.Chemscore.Metal>
0.0000

> <Gold.Chemscore.Lipo>
91.8904

> <Gold.Chemscore.Internal_Hbond>
0.0000

> <Gold.Chemscore.DEClash>
0.2012

> <Gold.Chemscore.DEInternal>
1.7046

> <Gold.Chemscore.Rot>
1.4632

> <Gold.Chemscore.Internal.Correction>
   9.000000E+99

> <Gold.Chemscore.Hbonds>
donor molecule, donor type, donor heavy atom, donor atom, acceptor molecule, acceptor atom, score
      L1  H     9    37       P1  8028  0.97
      L1  H    12    38       P1  8028  0.99

> <Gold.Chemscore.Hbond.Weighted>
-6.4322

> <Gold.Chemscore.Metal.Weighted>
-0.0000

> <Gold.Chemscore.Lipo.Weighted>
-10.7512

> <Gold.Chemscore.Internal_Hbond.Weighted>
0.0000

> <Gold.Chemscore.DEClash.Weighted>
0.2012

> <Gold.Chemscore.DEInternal.Weighted>
1.7046

> <Gold.Chemscore.Rot.Weighted>
3.7459

> <Gold.Chemscore.Internal.Correction.Weighted>
   9.000000E+99

> <Gold.Protein.RotatedTorsions>
[ 6907 6896 6895 6894 ] final  163.37 input  -60.11 | X-H torsion
[ 7974 7965 7964 7962 ] final   72.76 input  175.53 | X-H torsion
[ 8008 7997 7996 7995 ] final   73.74 input   59.86 | X-H torsion
[ 10167 10162 10161 10158 ] final  -71.99 input  -65.29 | X-H torsion
[ 10718 10713 10712 10709 ] final -135.42 input   66.30 | X-H torsion
[ 10763 10752 10751 10750 ] final   20.44 input  -60.55 | X-H torsion
[ 11005 11000 10999 10996 ] final  -68.49 input  -57.11 | X-H torsion

> <Gold.Protein.ActiveResidues>
 VAL166  LYS551  ARG553  GLY616  TRP617  ASP618  TYR619  PRO620  LYS621  CYS622 
 ASP623  PHE694  ASN695  SER759  ASP760  ASP761  ALA762  ILE779  LEU786  VAL792 
 PHE793  MET794  SER795  GLU796  ALA797  LYS798  CYS799  TRP800  GLU811  SER814 

> <Gold.Protein.RotatedAtoms>
  151.9262  133.3598  159.3914 H   0  0  0  0  0  0  0  0  0  0  0  0  # atno 6907 bound_to 6896
  150.7026  134.4584  159.5378 H   0  0  0  0  0  0  0  0  0  0  0  0  # atno 6908 bound_to 6896
  152.2217  134.8407  160.0536 H   0  0  0  0  0  0  0  0  0  0  0  0  # atno 6909 bound_to 6896
  145.7493  139.2753  143.1441 H   0  0  0  0  0  0  0  0  0  0  0  0  # atno 7974 bound_to 7965
  155.7880  140.3480  155.5334 H   0  0  0  0  0  0  0  0  0  0  0  0  # atno 8008 bound_to 7997
  155.8662  140.0979  157.1601 H   0  0  0  0  0  0  0  0  0  0  0  0  # atno 8009 bound_to 7997
  154.4014  140.1349  156.4009 H   0  0  0  0  0  0  0  0  0  0  0  0  # atno 8010 bound_to 7997
  140.5228  143.2329  151.7400 H   0  0  0  0  0  0  0  0  0  0  0  0  # atno 10167 bound_to 10162
  156.2659  130.7237  151.1188 H   0  0  0  0  0  0  0  0  0  0  0  0  # atno 10718 bound_to 10713
  153.1077  135.6689  153.9556 H   0  0  0  0  0  0  0  0  0  0  0  0  # atno 10763 bound_to 10752
  153.9108  135.3025  155.3450 H   0  0  0  0  0  0  0  0  0  0  0  0  # atno 10764 bound_to 10752
  154.7498  135.5040  153.9345 H   0  0  0  0  0  0  0  0  0  0  0  0  # atno 10765 bound_to 10752
  141.1533  133.6742  156.6453 H   0  0  0  0  0  0  0  0  0  0  0  0  # atno 11005 bound_to 11000
  146.0372  140.8200  142.9846 LP  0  0  0  0  0  0  0  0  0  0  0  0  # atno 17320 bound_to 7965
  144.6853  140.2856  143.7285 LP  0  0  0  0  0  0  0  0  0  0  0  0  # atno 17321 bound_to 7965
  139.4929  144.4229  151.9957 LP  0  0  0  0  0  0  0  0  0  0  0  0  # atno 17342 bound_to 10162
  140.3327  144.3297  150.5984 LP  0  0  0  0  0  0  0  0  0  0  0  0  # atno 17343 bound_to 10162
  157.7267  131.0644  150.5897 LP  0  0  0  0  0  0  0  0  0  0  0  0  # atno 17370 bound_to 10713
  156.5989  130.4349  149.5905 LP  0  0  0  0  0  0  0  0  0  0  0  0  # atno 17371 bound_to 10713
  140.3361  134.7888  157.4363 LP  0  0  0  0  0  0  0  0  0  0  0  0  # atno 17394 bound_to 11000
  140.0976  134.5516  155.8383 LP  0  0  0  0  0  0  0  0  0  0  0  0  # atno 17395 bound_to 11000

$$$$
