#       Name:                AV-unprocessed.smi:160
#       Creating user name   scv26
#       Creation time:       Thu Mar 26 19:05:52 2020


#       File generated by GOLD software.
#

@<TRIPOS>MOLECULE
AV-unprocessed.smi:160
    41    42     1
SMALL
NO_CHARGES


@<TRIPOS>ATOM
      1 ****        -3.5083   2.0714   0.4407 N.am           1 S1                 0.0000
      2 ****        -3.9626   0.8143   0.4044 C.2            1 S1                 0.0000
      3 ****        -5.1613   0.5448   0.4639 O.2            1 S1                 0.0000
      4 ****        -2.9217  -0.2644   0.2851 C.2            1 S1                 0.0000
      5 ****        -3.2743  -1.5831   0.2346 N.2            1 S1                 0.0000
      6 ****        -2.0646  -2.1187   0.1364 C.2            1 S1                 0.0000
      7 ****        -1.0693  -1.2263   0.1220 N.pl3          1 S1                 0.0000
      8 ****         0.4115  -1.4460   0.0224 C.3            1 S1                 0.0000
      9 ****         1.0469  -0.5993   0.9330 O.3            1 S1                 0.0000
     10 ****         1.6109   0.5119   0.2446 C.3            1 S1                 0.0000
     11 ****         2.7065   1.1914   1.0847 C.3            1 S1                 0.0000
     12 ****         2.1257   2.0977   1.9982 O.3            1 S1                 0.0000
     13 ****         2.0801  -0.1171  -1.0748 C.3            1 S1                 0.0000
     14 ****         3.3290  -0.7659  -0.9138 O.3            1 S1                 0.0000
     15 ****         0.9895  -1.1384  -1.3812 C.3            1 S1                 0.0000
     16 ****         0.0537  -0.5942  -2.2962 O.3            1 S1                 0.0000
     17 ****        -1.6179   0.0110   0.2223 N.2            1 S1                 0.0000
     18 ****         0.5509  -2.4842   0.3260 H              1 S1                 0.0000
     19 ****         0.8218   1.2299   0.0148 H              1 S1                 0.0000
     20 ****         2.1901   0.6296  -1.8626 H              1 S1                 0.0000
     21 ****         1.3958  -2.0532  -1.8149 H              1 S1                 0.0000
     22 ****        -4.1580   2.8398   0.5204 H              1 S1                 0.0000
     23 ****        -2.5143   2.2430   0.3882 H              1 S1                 0.0000
     24 ****        -1.9005  -3.1841   0.0699 H              1 S1                 0.0000
     25 ****         3.3148   0.4581   1.6155 H              1 S1                 0.0000
     26 ****         3.3734   1.7639   0.4395 H              1 S1                 0.0000
     27 ****         2.8161   2.5022   2.5010 H              1 S1                 0.0000
     28 ****         3.9812  -0.1151  -0.7039 H              1 S1                 0.0000
     29 ****        -0.6450  -1.2183  -2.4194 H              1 S1                 0.0000
     30 ****        -5.8356   1.2791   0.5425 LP             1 S1                 0.0000
     31 ****        -5.4615  -0.4086   0.4336 LP             1 S1                 0.0000
     32 ****        -4.1754  -2.0157   0.2631 LP             1 S1                 0.0000
     33 ****         1.7725  -1.1018   1.4032 LP             1 S1                 0.0000
     34 ****         0.3804  -0.2717   1.6026 LP             1 S1                 0.0000
     35 ****         1.5053   1.6078   2.6107 LP             1 S1                 0.0000
     36 ****         1.6166   2.7991   1.4994 LP             1 S1                 0.0000
     37 ****         3.5787  -1.2318  -1.7627 LP             1 S1                 0.0000
     38 ****         3.2686  -1.4340  -0.1722 LP             1 S1                 0.0000
     39 ****         0.5033  -0.4147  -3.1712 LP             1 S1                 0.0000
     40 ****        -0.3175   0.2594  -1.9309 LP             1 S1                 0.0000
     41 ****        -1.1619   0.9007   0.2436 LP             1 S1                 0.0000
@<TRIPOS>BOND
    1    1    2 am    
    2    1   22 1     
    3    1   23 1     
    4    2    3 2     
    5    2    4 1     
    6    4   17 2     
    7    4    5 1     
    8    5    6 2     
    9    6    7 1     
   10    6   24 1     
   11    7    8 1     
   12    7   17 1     
   13    8   18 1     
   14    8   15 1     
   15    8    9 1     
   16    9   10 1     
   17   10   19 1     
   18   10   11 1     
   19   10   13 1     
   20   11   12 1     
   21   11   25 1     
   22   11   26 1     
   23   12   27 1     
   24   13   20 1     
   25   13   14 1     
   26   13   15 1     
   27   14   28 1     
   28   15   21 1     
   29   15   16 1     
   30   16   29 1     
   31    3   30 1     
   32    3   31 1     
   33    5   32 1     
   34    9   33 1     
   35    9   34 1     
   36   12   35 1     
   37   12   36 1     
   38   14   37 1     
   39   14   38 1     
   40   16   39 1     
   41   16   40 1     
   42   17   41 1     
@<TRIPOS>SUBSTRUCTURE
      1 S1             1
@<TRIPOS>SET
LONE_PAIRS      STATIC     ATOMS    <user>   **** ""
12 30 31 32 33 34 35 36 37 38 39 40 41
DONOR_HYDROGENS      STATIC     ATOMS    <user>   **** ""
5 22 23 27 28 29
ATOM$BLUE        STATIC     ATOMS    COLORGROUP SYSTEM
12 30 31 32 33 34 35 36 37 38 39 40 41
ATOM$RED        STATIC     ATOMS    COLORGROUP SYSTEM
5 22 23 27 28 29
