AV-unprocessed.smi:124|AV-procd|sdf|1147|dock6
  -GOLD-   2262018283D 1   1.00000     0.00000
 Structure written by MMmdl.
 52 56  0  0  0  0  0  0  0  0  1 V2000
  146.7659  135.5124  154.9684 O   0  0  0  0  0  0  0  0  0  0  0  0
  146.2443  134.4068  154.8137 C   0  0  0  0  0  0  0  0  0  0  0  0
  145.3276  133.8532  155.9215 C   0  0  0  0  0  0  0  0  0  0  0  0
  145.1654  134.7651  157.0496 N   0  0  0  0  0  0  0  0  0  0  0  0
  143.8927  135.3588  157.2398 C   0  0  0  0  0  0  0  0  0  0  0  0
  142.9411  135.1245  156.4924 O   0  0  0  0  0  0  0  0  0  0  0  0
  143.8173  136.2767  158.3698 C   0  0  0  0  0  0  0  0  0  0  0  0
  142.6704  136.9312  158.6188 F   0  0  0  0  0  0  0  0  0  0  0  0
  144.8871  136.4939  159.1648 C   0  0  0  0  0  0  0  0  0  0  0  0
  146.1080  135.8626  158.9881 N   0  0  0  0  0  0  0  0  0  0  0  0
  147.3104  136.2141  159.8400 C   0  0  2  0  0  0  0  0  0  0  0  0
  147.9243  135.0155  160.5849 C   0  0  0  0  0  0  0  0  0  0  0  0
  147.4822  135.2589  162.0150 C   0  0  0  0  0  0  0  0  0  0  0  0
  147.4113  136.7801  162.0630 C   0  0  0  0  0  0  0  0  0  0  0  0
  146.8927  137.1466  160.7912 O   0  0  0  0  0  0  0  0  0  0  0  0
  146.2934  135.0198  157.8678 C   0  0  0  0  0  0  0  0  0  0  0  0
  147.3972  134.5306  157.6162 O   0  0  0  0  0  0  0  0  0  0  0  0
  146.4193  133.5600  153.6257 C   0  0  0  0  0  0  0  0  0  0  0  0
  147.5131  132.7368  153.4348 C   0  0  0  0  0  0  0  0  0  0  0  0
  148.6801  132.4459  154.2599 C   0  0  0  0  0  0  0  0  0  0  0  0
  149.1724  133.4113  155.1641 C   0  0  0  0  0  0  0  0  0  0  0  0
  150.3031  133.1359  155.9574 C   0  0  0  0  0  0  0  0  0  0  0  0
  150.9533  131.8920  155.8492 C   0  0  0  0  0  0  0  0  0  0  0  0
  150.4713  130.9249  154.9468 C   0  0  0  0  0  0  0  0  0  0  0  0
  149.3402  131.2026  154.1550 C   0  0  0  0  0  0  0  0  0  0  0  0
  147.4047  132.1050  152.2112 N   0  0  0  0  0  0  0  0  0  0  0  0
  146.2410  132.4654  151.5738 C   0  0  0  0  0  0  0  0  0  0  0  0
  145.7018  132.0807  150.3325 C   0  0  0  0  0  0  0  0  0  0  0  0
  144.4675  132.6089  149.9193 C   0  0  0  0  0  0  0  0  0  0  0  0
  143.7876  133.5146  150.7522 C   0  0  0  0  0  0  0  0  0  0  0  0
  144.3381  133.8943  151.9927 C   0  0  0  0  0  0  0  0  0  0  0  0
  145.5844  133.3856  152.4479 C   0  0  0  0  0  0  0  0  0  0  0  0
  148.0986  131.4588  151.8638 H   0  0  0  0  0  0  0  0  0  0  0  0
  144.3323  133.6372  155.5316 H   0  0  0  0  0  0  0  0  0  0  0  0
  145.7120  132.9084  156.3078 H   0  0  0  0  0  0  0  0  0  0  0  0
  144.7658  137.2048  159.9662 H   0  0  0  0  0  0  0  0  0  0  0  0
  148.0469  136.6526  159.1653 H   0  0  0  0  0  0  0  0  0  0  0  0
  147.6310  134.0505  160.1717 H   0  0  0  0  0  0  0  0  0  0  0  0
  149.0101  135.0939  160.5154 H   0  0  0  0  0  0  0  0  0  0  0  0
  146.4952  134.8319  162.1932 H   0  0  0  0  0  0  0  0  0  0  0  0
  148.1704  134.8424  162.7508 H   0  0  0  0  0  0  0  0  0  0  0  0
  146.7822  137.1480  162.8737 H   0  0  0  0  0  0  0  0  0  0  0  0
  148.4082  137.2074  162.1806 H   0  0  0  0  0  0  0  0  0  0  0  0
  148.6789  134.3681  155.2533 H   0  0  0  0  0  0  0  0  0  0  0  0
  150.6714  133.8793  156.6489 H   0  0  0  0  0  0  0  0  0  0  0  0
  151.8205  131.6800  156.4571 H   0  0  0  0  0  0  0  0  0  0  0  0
  150.9684  129.9701  154.8611 H   0  0  0  0  0  0  0  0  0  0  0  0
  148.9764  130.4557  153.4644 H   0  0  0  0  0  0  0  0  0  0  0  0
  146.2321  131.3830  149.7016 H   0  0  0  0  0  0  0  0  0  0  0  0
  144.0433  132.3201  148.9689 H   0  0  0  0  0  0  0  0  0  0  0  0
  142.8373  133.9217  150.4392 H   0  0  0  0  0  0  0  0  0  0  0  0
  143.7757  134.5890  152.5940 H   0  0  0  0  0  0  0  0  0  0  0  0
  1  2  2  0  0  0  0
  2  3  1  0  0  0  0
  2 18  1  0  0  0  0
  3  4  1  0  0  0  0
  3 34  1  0  0  0  0
  3 35  1  0  0  0  0
  4 16  1  0  0  0  0
  4  5  1  0  0  0  0
  5  6  2  0  0  0  0
  5  7  1  0  0  0  0
  7  8  1  0  0  0  0
  7  9  2  0  0  0  0
  9 10  1  0  0  0  0
  9 36  1  0  0  0  0
 10 11  1  0  0  0  0
 10 16  1  0  0  0  0
 11 15  1  0  0  0  0
 11 12  1  0  0  0  0
 11 37  1  0  0  0  0
 12 13  1  0  0  0  0
 12 38  1  0  0  0  0
 12 39  1  0  0  0  0
 13 14  1  0  0  0  0
 13 40  1  0  0  0  0
 13 41  1  0  0  0  0
 14 15  1  0  0  0  0
 14 42  1  0  0  0  0
 14 43  1  0  0  0  0
 16 17  2  0  0  0  0
 18 32  1  0  0  0  0
 18 19  2  0  0  0  0
 19 20  1  0  0  0  0
 19 26  1  0  0  0  0
 20 25  1  0  0  0  0
 20 21  2  0  0  0  0
 21 22  1  0  0  0  0
 21 44  1  0  0  0  0
 22 23  2  0  0  0  0
 22 45  1  0  0  0  0
 23 24  1  0  0  0  0
 23 46  1  0  0  0  0
 24 25  2  0  0  0  0
 24 47  1  0  0  0  0
 25 48  1  0  0  0  0
 26 33  1  0  0  0  0
 26 27  1  0  0  0  0
 27 32  1  0  0  0  0
 27 28  2  0  0  0  0
 28 29  1  0  0  0  0
 28 49  1  0  0  0  0
 29 30  2  0  0  0  0
 29 50  1  0  0  0  0
 30 31  1  0  0  0  0
 30 51  1  0  0  0  0
 31 32  2  0  0  0  0
 31 52  1  0  0  0  0
M  END
> <s_m_source_file>
AV-unprocessed.smi

> <i_m_source_file_index>
124

> <i_lp_mmshare_version>
43012

> <i_f3d_flags>
0

> <s_epik_input>
W2NIXTFbY0hdW2NIXVtjSF1bY0hdYzEtYyhbbkhdMiljKGMoYzIzKVtjSF1bY0hdW2NIXVtjSF0zKUMoPU8pW0NIMl1uNGMoPU8pYyhGKVtjSF1uKGM0PU8pW0NAQEhdNVtDSDJdW0NIMl1bQ0gyXU81

> <s_epik_cmdline>
J2VwaWtfcHl0aG9uJywgJy1waCcsICc3LjAnLCAnLXRuJywgJzgnLCAnLW1hJywgJzIwMCcsICctbWV0YWxfYmluZGluZycsICctaW1hZScsICc8aW5maWxlLm1hZT4nLCAnLW9tYWUnLCAnPG91dGZpbGUubWFlPic=

> <r_lp_tautomer_probability>
1

> <r_epik_Ionization_Penalty>
1.43207e-08

> <r_epik_Ionization_Penalty_Charging>
5.01743e-09

> <r_epik_Ionization_Penalty_Neutral>
9.30329e-09

> <r_epik_State_Penalty>
-0

> <r_epik_Charging_Adjusted_Penalty>
5.01743e-09

> <i_epik_Tot_Q>
0

> <i_epik_Tot_abs_Q>
0

> <r_epik_Metal_State_Penalty>
-0

> <b_epik_Metal_Only>
0

> <s_epik_Chemistry_Notes>
This compound contains an acetal/aminal-like group ( X-CH(R)-Y where X, Y are N, S, or O) that may be acid/base labile, releasing an aldehyde.

> <s_lp_Force_Field>
OPLS_2005

> <r_lp_Energy>
48.315

> <b_lp_Chiralities_Consistent>
1

> <s_lp_Variant>
AV-unprocessed.smi:124-1

> <Gold.Version>
5.8.1

> <Gold.Id.Protein>
6NUR|6NUR_protein|mol2

> <Gold.PLP.Fitness>
47.7680

> <Gold.PLP.PLP>
-43.5422

> <Gold.PLP.part.hbond>
-2.9321

> <Gold.PLP.part.metal>
0.0000

> <Gold.PLP.part.buried>
-6.8739

> <Gold.PLP.part.nonpolar>
-34.7676

> <Gold.PLP.part.repulsive>
0.1316

> <Gold.PLP.ligand.clash>
0.0000

> <Gold.PLP.ligand.torsion>
1.9194

> <Gold.PLP.Chemscore.Hbond>
2.1569

> <Gold.PLP.Chemscore.CHOScore>
0.0000

> <Gold.PLP.Chemscore.Metal>
0.0000

> <Gold.Chemscore.Hbonds>
donor molecule, donor type, donor heavy atom, donor atom, acceptor molecule, acceptor atom, score
      L1  H    26    33       P1 10747  0.88
      P1  H  6934  6947       L1    15  0.90
      P1  H 11000 11005       L1     6  0.16

> <Gold.PLP.Chemscore.Internal.Correction>
1.5938

> <Gold.Rescore>
     Score         DG    S(hbond)    S(metal)    S(lipo)     H(rot)  DE(clash)    DE(int)     intcor
     17.39     -19.54       1.48        0.00     111.98       1.55       0.02       2.13       ----

> <Gold.Chemscore.Fitness>
17.3920

> <Gold.Chemscore.DG>
-19.5415

> <Gold.Chemscore.ZeroCoef>
-5.4800

> <Gold.Chemscore.Hbond>
1.4783

> <Gold.Chemscore.Metal>
0.0000

> <Gold.Chemscore.Lipo>
111.9782

> <Gold.Chemscore.Internal_Hbond>
0.0000

> <Gold.Chemscore.DEClash>
0.0212

> <Gold.Chemscore.DEInternal>
2.1283

> <Gold.Chemscore.Rot>
1.5537

> <Gold.Chemscore.Internal.Correction>
   9.000000E+99

> <Gold.Chemscore.Hbonds>
donor molecule, donor type, donor heavy atom, donor atom, acceptor molecule, acceptor atom, score
      L1  H    26    33       P1 10747  0.86
      P1  H  6934  6947       L1    15  0.18
      P1  H 11000 11005       L1     6  0.16

> <Gold.Chemscore.Hbond.Weighted>
-4.9375

> <Gold.Chemscore.Metal.Weighted>
-0.0000

> <Gold.Chemscore.Lipo.Weighted>
-13.1014

> <Gold.Chemscore.Internal_Hbond.Weighted>
0.0000

> <Gold.Chemscore.DEClash.Weighted>
0.0212

> <Gold.Chemscore.DEInternal.Weighted>
2.1283

> <Gold.Chemscore.Rot.Weighted>
3.9774

> <Gold.Chemscore.Internal.Correction.Weighted>
   9.000000E+99

> <Gold.Protein.RotatedTorsions>
[ 6907 6896 6895 6894 ] final   22.00 input  -60.11 | X-H torsion
[ 7974 7965 7964 7962 ] final  132.21 input  175.53 | X-H torsion
[ 8008 7997 7996 7995 ] final  -54.96 input   59.86 | X-H torsion
[ 10167 10162 10161 10158 ] final  -64.43 input  -65.29 | X-H torsion
[ 10718 10713 10712 10709 ] final   -4.72 input   66.30 | X-H torsion
[ 10763 10752 10751 10750 ] final   -3.94 input  -60.55 | X-H torsion
[ 11005 11000 10999 10996 ] final  -81.93 input  -57.11 | X-H torsion

> <Gold.Protein.ActiveResidues>
 VAL166  LYS551  ARG553  GLY616  TRP617  ASP618  TYR619  PRO620  LYS621  CYS622 
 ASP623  PHE694  ASN695  SER759  ASP760  ASP761  ALA762  ILE779  LEU786  VAL792 
 PHE793  MET794  SER795  GLU796  ALA797  LYS798  CYS799  TRP800  GLU811  SER814 

> <Gold.Protein.RotatedAtoms>
  151.9205  135.0300  160.0521 H   0  0  0  0  0  0  0  0  0  0  0  0  # atno 6907 bound_to 6896
  152.2204  133.4974  159.5167 H   0  0  0  0  0  0  0  0  0  0  0  0  # atno 6908 bound_to 6896
  150.6998  134.1267  159.4097 H   0  0  0  0  0  0  0  0  0  0  0  0  # atno 6909 bound_to 6896
  144.9992  139.4328  143.5300 H   0  0  0  0  0  0  0  0  0  0  0  0  # atno 7974 bound_to 7965
  154.4179  140.1164  156.5399 H   0  0  0  0  0  0  0  0  0  0  0  0  # atno 8008 bound_to 7997
  155.6519  140.3496  155.4732 H   0  0  0  0  0  0  0  0  0  0  0  0  # atno 8009 bound_to 7997
  155.9786  140.1155  157.0737 H   0  0  0  0  0  0  0  0  0  0  0  0  # atno 8010 bound_to 7997
  140.5801  143.2326  151.6360 H   0  0  0  0  0  0  0  0  0  0  0  0  # atno 10167 bound_to 10162
  156.7572  130.5258  149.5792 H   0  0  0  0  0  0  0  0  0  0  0  0  # atno 10718 bound_to 10713
  153.3781  135.6997  153.6586 H   0  0  0  0  0  0  0  0  0  0  0  0  # atno 10763 bound_to 10752
  153.5209  135.3612  155.2632 H   0  0  0  0  0  0  0  0  0  0  0  0  # atno 10764 bound_to 10752
  154.8689  135.4157  154.3073 H   0  0  0  0  0  0  0  0  0  0  0  0  # atno 10765 bound_to 10752
  141.1665  133.7220  156.8497 H   0  0  0  0  0  0  0  0  0  0  0  0  # atno 11005 bound_to 11000
  146.3448  139.9371  142.8746 LP  0  0  0  0  0  0  0  0  0  0  0  0  # atno 17320 bound_to 7965
  145.2176  140.9922  143.4064 LP  0  0  0  0  0  0  0  0  0  0  0  0  # atno 17321 bound_to 7965
  139.5165  144.3345  152.0796 LP  0  0  0  0  0  0  0  0  0  0  0  0  # atno 17342 bound_to 10162
  140.2494  144.4185  150.6228 LP  0  0  0  0  0  0  0  0  0  0  0  0  # atno 17343 bound_to 10162
  156.1363  130.6213  151.0404 LP  0  0  0  0  0  0  0  0  0  0  0  0  # atno 17370 bound_to 10713
  157.6751  131.0852  150.7515 LP  0  0  0  0  0  0  0  0  0  0  0  0  # atno 17371 bound_to 10713
  140.1925  134.8955  157.3076 LP  0  0  0  0  0  0  0  0  0  0  0  0  # atno 17394 bound_to 11000
  140.2275  134.3949  155.7537 LP  0  0  0  0  0  0  0  0  0  0  0  0  # atno 17395 bound_to 11000

$$$$
