AV-unprocessed.smi:276|AV-procd|sdf|2081|dock7
  -GOLD-   2262021353D 1   1.00000     0.00000
 Structure written by MMmdl.
 57 61  0  0  0  0  0  0  0  0  1 V2000
  154.2878  141.1986  160.7546 C   0  0  0  0  0  0  0  0  0  0  0  0
  153.5333  142.3229  160.3381 O   0  0  0  0  0  0  0  0  0  0  0  0
  152.8496  142.0971  159.1155 C   0  0  1  0  0  0  0  0  0  0  0  0
  151.7081  141.0767  159.2032 C   0  0  0  0  0  0  0  0  0  0  0  0
  150.8701  142.0010  158.2974 C   0  0  2  0  0  0  0  0  0  0  0  0
  151.0103  141.6387  156.8795 N   0  0  0  0  0  0  0  0  0  0  0  0
  151.8899  140.5107  156.5884 C   0  0  0  0  0  0  0  0  0  0  0  0
  149.8590  141.5152  156.1820 C   0  0  0  0  0  0  0  0  0  0  0  0
  149.9681  141.3752  154.8375 N   0  0  0  0  0  0  0  0  0  0  0  0
  148.8696  141.2530  154.0863 C   0  0  0  0  0  0  0  0  0  0  0  0
  147.5917  141.2385  154.4715 N   0  0  0  0  0  0  0  0  0  0  0  0
  147.4806  141.3658  155.8248 C   0  0  0  0  0  0  0  0  0  0  0  0
  148.5527  141.5037  156.7507 C   0  0  0  0  0  0  0  0  0  0  0  0
  148.0500  141.5985  158.0434 N   0  0  0  0  0  0  0  0  0  0  0  0
  146.7558  141.5315  157.8892 C   0  0  0  0  0  0  0  0  0  0  0  0
  146.3281  141.3916  156.5889 N   0  0  0  0  0  0  0  0  0  0  0  0
  144.9555  141.2863  156.1268 C   0  0  0  0  0  0  0  0  0  0  0  0
  144.1892  142.6186  156.2448 C   0  0  2  0  0  0  0  0  0  0  0  0
  142.8662  142.4348  155.7771 O   0  0  0  0  0  0  0  0  0  0  0  0
  144.8546  143.7464  155.4342 C   0  0  1  0  0  0  0  0  0  0  0  0
  145.2705  143.3479  154.0169 C   0  0  0  0  0  0  0  0  0  0  0  0
  145.2989  144.6879  153.3189 C   0  0  0  0  0  0  0  0  0  0  0  0
  144.0929  145.3852  153.9397 C   0  0  0  0  0  0  0  0  0  0  0  0
  143.9451  144.8288  155.2438 O   0  0  0  0  0  0  0  0  0  0  0  0
  151.7826  143.1576  158.7893 C   0  0  0  0  0  0  0  0  0  0  0  0
  151.2739  144.1001  159.8956 C   0  0  0  0  0  0  0  0  0  0  0  0
  152.1891  145.1840  159.3200 C   0  0  0  0  0  0  0  0  0  0  0  0
  152.1415  144.4258  157.9912 C   0  0  0  0  0  0  0  0  0  0  0  0
  154.7964  141.4263  161.6912 H   0  0  0  0  0  0  0  0  0  0  0  0
  155.0456  140.9383  160.0143 H   0  0  0  0  0  0  0  0  0  0  0  0
  153.6490  140.3305  160.9218 H   0  0  0  0  0  0  0  0  0  0  0  0
  153.5156  141.9189  158.2683 H   0  0  0  0  0  0  0  0  0  0  0  0
  151.9558  140.0931  158.8052 H   0  0  0  0  0  0  0  0  0  0  0  0
  151.2938  140.9981  160.2097 H   0  0  0  0  0  0  0  0  0  0  0  0
  149.8378  142.0812  158.6377 H   0  0  0  0  0  0  0  0  0  0  0  0
  151.7053  140.0828  155.6013 H   0  0  0  0  0  0  0  0  0  0  0  0
  151.7578  139.7199  157.3275 H   0  0  0  0  0  0  0  0  0  0  0  0
  152.9320  140.8281  156.6110 H   0  0  0  0  0  0  0  0  0  0  0  0
  149.0390  141.1529  153.0244 H   0  0  0  0  0  0  0  0  0  0  0  0
  146.0741  141.5833  158.7256 H   0  0  0  0  0  0  0  0  0  0  0  0
  144.9763  140.9511  155.0893 H   0  0  0  0  0  0  0  0  0  0  0  0
  144.4527  140.5039  156.6970 H   0  0  0  0  0  0  0  0  0  0  0  0
  144.1371  142.9138  157.2937 H   0  0  0  0  0  0  0  0  0  0  0  0
  142.8514  142.5996  154.8469 H   0  0  0  0  0  0  0  0  0  0  0  0
  145.7246  144.1348  155.9668 H   0  0  0  0  0  0  0  0  0  0  0  0
  146.2291  142.8295  153.9838 H   0  0  0  0  0  0  0  0  0  0  0  0
  144.5172  142.7048  153.5592 H   0  0  0  0  0  0  0  0  0  0  0  0
  146.2152  145.2226  153.5732 H   0  0  0  0  0  0  0  0  0  0  0  0
  145.2363  144.6103  152.2332 H   0  0  0  0  0  0  0  0  0  0  0  0
  144.2155  146.4676  153.9799 H   0  0  0  0  0  0  0  0  0  0  0  0
  143.1899  145.1680  153.3680 H   0  0  0  0  0  0  0  0  0  0  0  0
  150.2162  144.3446  159.7838 H   0  0  0  0  0  0  0  0  0  0  0  0
  151.5052  143.7976  160.9171 H   0  0  0  0  0  0  0  0  0  0  0  0
  151.7544  146.1835  159.2930 H   0  0  0  0  0  0  0  0  0  0  0  0
  153.1822  145.1836  159.7725 H   0  0  0  0  0  0  0  0  0  0  0  0
  153.0902  144.3799  157.4560 H   0  0  0  0  0  0  0  0  0  0  0  0
  151.3374  144.7965  157.3560 H   0  0  0  0  0  0  0  0  0  0  0  0
  1  2  1  0  0  0  0
  1 29  1  0  0  0  0
  1 30  1  0  0  0  0
  1 31  1  0  0  0  0
  2  3  1  0  0  0  0
  3 25  1  0  0  0  0
  3  4  1  0  0  0  0
  3 32  1  0  0  0  0
  4  5  1  0  0  0  0
  4 33  1  0  0  0  0
  4 34  1  0  0  0  0
  5  6  1  0  0  0  0
  5 25  1  0  0  0  0
  5 35  1  0  0  0  0
  6  7  1  0  0  0  0
  6  8  1  0  0  0  0
  7 36  1  0  0  0  0
  7 37  1  0  0  0  0
  7 38  1  0  0  0  0
  8 13  1  0  0  0  0
  8  9  2  0  0  0  0
  9 10  1  0  0  0  0
 10 11  2  0  0  0  0
 10 39  1  0  0  0  0
 11 12  1  0  0  0  0
 12 16  1  0  0  0  0
 12 13  2  0  0  0  0
 13 14  1  0  0  0  0
 14 15  2  0  0  0  0
 15 16  1  0  0  0  0
 15 40  1  0  0  0  0
 16 17  1  0  0  0  0
 17 18  1  0  0  0  0
 17 41  1  0  0  0  0
 17 42  1  0  0  0  0
 18 19  1  0  0  0  0
 18 20  1  0  0  0  0
 18 43  1  0  0  0  0
 19 44  1  0  0  0  0
 20 24  1  0  0  0  0
 20 21  1  0  0  0  0
 20 45  1  0  0  0  0
 21 22  1  0  0  0  0
 21 46  1  0  0  0  0
 21 47  1  0  0  0  0
 22 23  1  0  0  0  0
 22 48  1  0  0  0  0
 22 49  1  0  0  0  0
 23 24  1  0  0  0  0
 23 50  1  0  0  0  0
 23 51  1  0  0  0  0
 25 28  1  0  0  0  0
 25 26  1  0  0  0  0
 26 27  1  0  0  0  0
 26 52  1  0  0  0  0
 26 53  1  0  0  0  0
 27 28  1  0  0  0  0
 27 54  1  0  0  0  0
 27 55  1  0  0  0  0
 28 56  1  0  0  0  0
 28 57  1  0  0  0  0
M  END
> <s_m_source_file>
AV-unprocessed.smi

> <i_m_source_file_index>
276

> <i_lp_mmshare_version>
43012

> <i_f3d_flags>
0

> <s_epik_input>
W0NIMl0xW0NIMl1bQ0gyXUMxMltDQEhdKE9bQ0gzXSlbQ0gyXVtDQEhdMk4oW0NIM10pYyhuW2NIXW4zKWMoYzM0KW5bY0hdbjRbQ0gyXVtDQEhdKFtPSF0pW0NAQEhdNVtDSDJdW0NIMl1bQ0gyXU81

> <s_epik_cmdline>
J2VwaWtfcHl0aG9uJywgJy1waCcsICc3LjAnLCAnLXRuJywgJzgnLCAnLW1hJywgJzIwMCcsICctbWV0YWxfYmluZGluZycsICctaW1hZScsICc8aW5maWxlLm1hZT4nLCAnLW9tYWUnLCAnPG91dGZpbGUubWFlPic=

> <r_lp_tautomer_probability>
1

> <r_epik_Ionization_Penalty>
0.00204117

> <r_epik_Ionization_Penalty_Charging>
0

> <r_epik_Ionization_Penalty_Neutral>
0.00204117

> <r_epik_State_Penalty>
0.00127401

> <r_epik_Charging_Adjusted_Penalty>
0.00127401

> <i_epik_Tot_Q>
0

> <i_epik_Tot_abs_Q>
0

> <r_epik_Metal_State_Penalty>
-0

> <b_epik_Metal_Only>
0

> <s_lp_Force_Field>
OPLS_2005

> <r_lp_Energy>
57.2167

> <b_lp_Chiralities_Consistent>
1

> <s_lp_Variant>
AV-unprocessed.smi:276-12

> <Gold.Version>
5.8.1

> <Gold.Id.Protein>
6NUR|6NUR_protein|mol2

> <Gold.PLP.Fitness>
49.5226

> <Gold.PLP.PLP>
-50.7734

> <Gold.PLP.part.hbond>
-1.0000

> <Gold.PLP.part.metal>
0.0000

> <Gold.PLP.part.buried>
-6.9019

> <Gold.PLP.part.nonpolar>
-42.9139

> <Gold.PLP.part.repulsive>
0.4865

> <Gold.PLP.ligand.clash>
2.4590

> <Gold.PLP.ligand.torsion>
1.8429

> <Gold.PLP.Chemscore.Hbond>
0.3518

> <Gold.PLP.Chemscore.CHOScore>
1.0000

> <Gold.PLP.Chemscore.Metal>
0.0000

> <Gold.Chemscore.Hbonds>
donor molecule, donor type, donor heavy atom, donor atom, acceptor molecule, acceptor atom, score
      P1  H  7989  7998       L1     9  0.31
      L1  C    10    39       P1  7957  1.00

> <Gold.PLP.Chemscore.Internal.Correction>
0.8387

> <Gold.Rescore>
     Score         DG    S(hbond)    S(metal)    S(lipo)     H(rot)  DE(clash)    DE(int)     intcor
     10.21     -13.48       0.14        0.00     123.92       2.72       0.11       3.15       ----

> <Gold.Chemscore.Fitness>
10.2092

> <Gold.Chemscore.DG>
-13.4763

> <Gold.Chemscore.ZeroCoef>
-5.4800

> <Gold.Chemscore.Hbond>
0.1360

> <Gold.Chemscore.Metal>
0.0000

> <Gold.Chemscore.Lipo>
123.9151

> <Gold.Chemscore.Internal_Hbond>
0.0000

> <Gold.Chemscore.DEClash>
0.1135

> <Gold.Chemscore.DEInternal>
3.1537

> <Gold.Chemscore.Rot>
2.7172

> <Gold.Chemscore.Internal.Correction>
   9.000000E+99

> <Gold.Chemscore.Hbonds>
donor molecule, donor type, donor heavy atom, donor atom, acceptor molecule, acceptor atom, score
      P1  H  7989  7998       L1     9  0.16

> <Gold.Chemscore.Hbond.Weighted>
-0.4543

> <Gold.Chemscore.Metal.Weighted>
-0.0000

> <Gold.Chemscore.Lipo.Weighted>
-14.4981

> <Gold.Chemscore.Internal_Hbond.Weighted>
0.0000

> <Gold.Chemscore.DEClash.Weighted>
0.1135

> <Gold.Chemscore.DEInternal.Weighted>
3.1537

> <Gold.Chemscore.Rot.Weighted>
6.9560

> <Gold.Chemscore.Internal.Correction.Weighted>
   9.000000E+99

> <Gold.Protein.RotatedTorsions>
[ 6907 6896 6895 6894 ] final  163.32 input  -60.11 | X-H torsion
[ 7974 7965 7964 7962 ] final   30.96 input  175.53 | X-H torsion
[ 8008 7997 7996 7995 ] final  110.43 input   59.86 | X-H torsion
[ 10167 10162 10161 10158 ] final  -83.12 input  -65.29 | X-H torsion
[ 10718 10713 10712 10709 ] final  161.58 input   66.30 | X-H torsion
[ 10763 10752 10751 10750 ] final -129.04 input  -60.55 | X-H torsion
[ 11005 11000 10999 10996 ] final  179.04 input  -57.11 | X-H torsion

> <Gold.Protein.ActiveResidues>
 VAL166  LYS551  ARG553  GLY616  TRP617  ASP618  TYR619  PRO620  LYS621  CYS622 
 ASP623  PHE694  ASN695  SER759  ASP760  ASP761  ALA762  ILE779  LEU786  VAL792 
 PHE793  MET794  SER795  GLU796  ALA797  LYS798  CYS799  TRP800  GLU811  SER814 

> <Gold.Protein.RotatedAtoms>
  151.9270  133.3601  159.3917 H   0  0  0  0  0  0  0  0  0  0  0  0  # atno 6907 bound_to 6896
  150.7025  134.4576  159.5375 H   0  0  0  0  0  0  0  0  0  0  0  0  # atno 6908 bound_to 6896
  152.2210  134.8413  160.0537 H   0  0  0  0  0  0  0  0  0  0  0  0  # atno 6909 bound_to 6896
  146.1579  139.6719  142.9053 H   0  0  0  0  0  0  0  0  0  0  0  0  # atno 7974 bound_to 7965
  156.2052  140.3039  155.9611 H   0  0  0  0  0  0  0  0  0  0  0  0  # atno 8008 bound_to 7997
  155.2858  140.0440  157.3036 H   0  0  0  0  0  0  0  0  0  0  0  0  # atno 8009 bound_to 7997
  154.5623  140.2324  155.8324 H   0  0  0  0  0  0  0  0  0  0  0  0  # atno 8010 bound_to 7997
  140.4256  143.2567  151.8830 H   0  0  0  0  0  0  0  0  0  0  0  0  # atno 10167 bound_to 10162
  157.1346  131.0525  151.2355 H   0  0  0  0  0  0  0  0  0  0  0  0  # atno 10718 bound_to 10713
  154.8757  135.3908  154.3855 H   0  0  0  0  0  0  0  0  0  0  0  0  # atno 10763 bound_to 10752
  153.4597  135.7029  153.6063 H   0  0  0  0  0  0  0  0  0  0  0  0  # atno 10764 bound_to 10752
  153.4567  135.3821  155.2283 H   0  0  0  0  0  0  0  0  0  0  0  0  # atno 10765 bound_to 10752
  140.4017  134.6771  157.4566 H   0  0  0  0  0  0  0  0  0  0  0  0  # atno 11005 bound_to 11000
  145.4661  141.0434  143.2724 LP  0  0  0  0  0  0  0  0  0  0  0  0  # atno 17320 bound_to 7965
  144.7988  139.6181  143.7081 LP  0  0  0  0  0  0  0  0  0  0  0  0  # atno 17321 bound_to 7965
  139.4783  144.5390  151.8556 LP  0  0  0  0  0  0  0  0  0  0  0  0  # atno 17342 bound_to 10162
  140.4484  144.1889  150.5895 LP  0  0  0  0  0  0  0  0  0  0  0  0  # atno 17343 bound_to 10162
  157.4362  130.7518  149.7031 LP  0  0  0  0  0  0  0  0  0  0  0  0  # atno 17370 bound_to 10713
  155.9801  130.4033  150.3549 LP  0  0  0  0  0  0  0  0  0  0  0  0  # atno 17371 bound_to 10713
  140.0331  134.6377  155.9079 LP  0  0  0  0  0  0  0  0  0  0  0  0  # atno 17394 bound_to 11000
  141.1854  133.6555  156.5196 LP  0  0  0  0  0  0  0  0  0  0  0  0  # atno 17395 bound_to 11000

$$$$
