AV-unprocessed.smi:66|AV-procd|sdf|628|dock4
  -GOLD-   2262016523D 1   1.00000     0.00000
 Structure written by MMmdl.
 27 29  0  0  0  0  0  0  0  0  3 V2000
  152.8473  139.5900  155.7656 O   0  0  0  0  0  0  0  0  0  0  0  0
  151.5992  139.6159  155.6917 C   0  0  0  0  0  0  0  0  0  0  0  0
  150.9391  139.6244  154.6284 O   0  5  0  0  0  0  0  0  0  0  0  0
  150.8271  139.6550  157.0210 C   0  0  1  0  0  0  0  0  0  0  0  0
  150.3950  138.2546  157.4891 C   0  0  0  0  0  0  0  0  0  0  0  0
  151.4897  137.8477  158.4743 C   0  0  2  0  0  0  0  0  0  0  0  0
  151.0437  136.8910  159.4130 O   0  0  0  0  0  0  0  0  0  0  0  0
  151.8762  139.1740  159.1312 C   0  0  0  0  0  0  0  0  0  0  0  0
  151.6544  140.1870  158.1079 N   0  0  0  0  0  0  0  0  0  0  0  0
  151.7480  141.5765  158.3659 C   0  0  0  0  0  0  0  0  0  0  0  0
  151.3187  142.4189  157.3906 N   0  0  0  0  0  0  0  0  0  0  0  0
  151.3983  143.7351  157.6075 C   0  0  0  0  0  0  0  0  0  0  0  0
  151.8589  144.3415  158.7039 N   0  0  0  0  0  0  0  0  0  0  0  0
  152.2913  143.5255  159.6859 C   0  0  0  0  0  0  0  0  0  0  0  0
  152.8027  143.7777  160.8801 N   0  5  0  0  0  0  0  0  0  0  0  0
  153.0729  142.5834  161.4633 C   0  0  0  0  0  0  0  0  0  0  0  0
  152.7545  141.5251  160.6918 N   0  0  0  0  0  0  0  0  0  0  0  0
  152.2601  142.1339  159.5715 C   0  0  0  0  0  0  0  0  0  0  0  0
  149.9337  140.2665  156.8865 H   0  0  0  0  0  0  0  0  0  0  0  0
  149.4364  138.3326  158.0042 H   0  0  0  0  0  0  0  0  0  0  0  0
  150.2725  137.5364  156.6770 H   0  0  0  0  0  0  0  0  0  0  0  0
  152.3435  137.4442  157.9283 H   0  0  0  0  0  0  0  0  0  0  0  0
  150.1040  136.9599  159.4813 H   0  0  0  0  0  0  0  0  0  0  0  0
  151.2374  139.3886  159.9895 H   0  0  0  0  0  0  0  0  0  0  0  0
  152.9146  139.1500  159.4620 H   0  0  0  0  0  0  0  0  0  0  0  0
  151.0498  144.3765  156.8116 H   0  0  0  0  0  0  0  0  0  0  0  0
  153.5051  142.5543  162.4560 H   0  0  0  0  0  0  0  0  0  0  0  0
  1  2  2  0  0  0  0
  2  3  1  0  0  0  0
  2  4  1  0  0  0  0
  4  5  1  0  0  0  0
  4 19  1  0  0  0  0
  4  9  1  0  0  0  0
  5  6  1  0  0  0  0
  5 20  1  0  0  0  0
  5 21  1  0  0  0  0
  6  7  1  0  0  0  0
  6  8  1  0  0  0  0
  6 22  1  0  0  0  0
  7 23  1  0  0  0  0
  8 24  1  0  0  0  0
  8 25  1  0  0  0  0
  8  9  1  0  0  0  0
  9 10  1  0  0  0  0
 10 11  1  0  0  0  0
 10 18  2  0  0  0  0
 11 12  2  0  0  0  0
 12 26  1  0  0  0  0
 12 13  1  0  0  0  0
 13 14  2  0  0  0  0
 14 15  1  0  0  0  0
 14 18  1  0  0  0  0
 15 16  1  0  0  0  0
 16 17  2  0  0  0  0
 16 27  1  0  0  0  0
 17 18  1  0  0  0  0
M  CHG  1   3  -1
M  CHG  1  15  -1
M  END
> <s_m_source_file>
AV-unprocessed.smi

> <i_m_source_file_index>
66

> <i_lp_mmshare_version>
43012

> <i_f3d_flags>
0

> <s_epik_input>
Tz1DKFtPSF0pW0NAQEhdMVtDSDJdW0NAQEhdKFtPSF0pW0NIMl1OMWMobltjSF1uMiljKGMyMylbbkhdW2NIXW4z

> <s_epik_cmdline>
J2VwaWtfcHl0aG9uJywgJy1waCcsICc3LjAnLCAnLXRuJywgJzgnLCAnLW1hJywgJzIwMCcsICctbWV0YWxfYmluZGluZycsICctaW1hZScsICc8aW5maWxlLm1hZT4nLCAnLW9tYWUnLCAnPG91dGZpbGUubWFlPic=

> <r_lp_tautomer_probability>
0.955585

> <r_epik_Ionization_Penalty>
7.65809

> <r_epik_Ionization_Penalty_Charging>
3.4974

> <r_epik_Ionization_Penalty_Neutral>
4.16069

> <r_epik_State_Penalty>
3.51624

> <r_epik_Charging_Adjusted_Penalty>
7.01364

> <i_epik_Tot_Q>
-2

> <i_epik_Tot_abs_Q>
2

> <r_epik_Metal_State_Penalty>
0.522662

> <b_epik_Metal_Only>
1

> <s_lp_Force_Field>
OPLS_2005

> <r_lp_Energy>
43.3227

> <b_lp_Chiralities_Consistent>
1

> <s_lp_Variant>
AV-unprocessed.smi:66-12

> <Gold.Version>
5.8.1

> <Gold.Id.Protein>
6NUR|6NUR_protein|mol2

> <Gold.PLP.Fitness>
43.8193

> <Gold.PLP.PLP>
-30.1889

> <Gold.PLP.part.hbond>
-3.0000

> <Gold.PLP.part.metal>
0.0000

> <Gold.PLP.part.buried>
-4.3881

> <Gold.PLP.part.nonpolar>
-22.8924

> <Gold.PLP.part.repulsive>
0.2873

> <Gold.PLP.ligand.clash>
0.0000

> <Gold.PLP.ligand.torsion>
0.7614

> <Gold.PLP.Chemscore.Hbond>
4.0000

> <Gold.PLP.Chemscore.CHOScore>
1.0000

> <Gold.PLP.Chemscore.Metal>
0.0000

> <Gold.Chemscore.Hbonds>
donor molecule, donor type, donor heavy atom, donor atom, acceptor molecule, acceptor atom, score
      P1  H  6896  6907       L1     7  0.95
      P1  H  7989  7998       L1     3  1.00
      P1  H  7997  8010       L1     1  2.00
      L1  C    12    26       P1  8028  1.00

> <Gold.PLP.Chemscore.Internal.Correction>
0.1532

> <Gold.Rescore>
     Score         DG    S(hbond)    S(metal)    S(lipo)     H(rot)  DE(clash)    DE(int)     intcor
     11.99     -13.71       2.96        0.00      24.62       1.78       0.02       1.70       ----

> <Gold.Chemscore.Fitness>
11.9912

> <Gold.Chemscore.DG>
-13.7125

> <Gold.Chemscore.ZeroCoef>
-5.4800

> <Gold.Chemscore.Hbond>
2.9630

> <Gold.Chemscore.Metal>
0.0000

> <Gold.Chemscore.Lipo>
24.6241

> <Gold.Chemscore.Internal_Hbond>
0.0000

> <Gold.Chemscore.DEClash>
0.0227

> <Gold.Chemscore.DEInternal>
1.6987

> <Gold.Chemscore.Rot>
1.7754

> <Gold.Chemscore.Internal.Correction>
   9.000000E+99

> <Gold.Chemscore.Hbonds>
donor molecule, donor type, donor heavy atom, donor atom, acceptor molecule, acceptor atom, score
      P1  H  6896  6907       L1     7  0.22
      P1  H  7989  7998       L1     3  0.74
      P1  H  7997  8010       L1     1  0.99

> <Gold.Chemscore.Hbond.Weighted>
-9.8965

> <Gold.Chemscore.Metal.Weighted>
-0.0000

> <Gold.Chemscore.Lipo.Weighted>
-2.8810

> <Gold.Chemscore.Internal_Hbond.Weighted>
0.0000

> <Gold.Chemscore.DEClash.Weighted>
0.0227

> <Gold.Chemscore.DEInternal.Weighted>
1.6987

> <Gold.Chemscore.Rot.Weighted>
4.5451

> <Gold.Chemscore.Internal.Correction.Weighted>
   9.000000E+99

> <Gold.Protein.RotatedTorsions>
[ 6907 6896 6895 6894 ] final  -20.11 input  -60.11 | X-H torsion
[ 7974 7965 7964 7962 ] final  137.59 input  175.53 | X-H torsion
[ 8008 7997 7996 7995 ] final   73.02 input   59.86 | X-H torsion
[ 10167 10162 10161 10158 ] final  -73.24 input  -65.29 | X-H torsion
[ 10718 10713 10712 10709 ] final  147.23 input   66.30 | X-H torsion
[ 10763 10752 10751 10750 ] final  -54.64 input  -60.55 | X-H torsion
[ 11005 11000 10999 10996 ] final -172.14 input  -57.11 | X-H torsion

> <Gold.Protein.ActiveResidues>
 VAL166  LYS551  ARG553  GLY616  TRP617  ASP618  TYR619  PRO620  LYS621  CYS622 
 ASP623  PHE694  ASN695  SER759  ASP760  ASP761  ALA762  ILE779  LEU786  VAL792 
 PHE793  MET794  SER795  GLU796  ALA797  LYS798  CYS799  TRP800  GLU811  SER814 

> <Gold.Protein.RotatedAtoms>
  151.2531  135.0629  159.9069 H   0  0  0  0  0  0  0  0  0  0  0  0  # atno 6907 bound_to 6896
  152.5377  134.0311  159.8035 H   0  0  0  0  0  0  0  0  0  0  0  0  # atno 6908 bound_to 6896
  151.0522  133.5565  159.2672 H   0  0  0  0  0  0  0  0  0  0  0  0  # atno 6909 bound_to 6896
  144.9453  139.4882  143.5552 H   0  0  0  0  0  0  0  0  0  0  0  0  # atno 7974 bound_to 7965
  155.7775  140.3483  155.5280 H   0  0  0  0  0  0  0  0  0  0  0  0  # atno 8008 bound_to 7997
  155.8761  140.0994  157.1538 H   0  0  0  0  0  0  0  0  0  0  0  0  # atno 8009 bound_to 7997
  154.4021  140.1331  156.4125 H   0  0  0  0  0  0  0  0  0  0  0  0  # atno 8010 bound_to 7997
  140.5126  143.2342  151.7567 H   0  0  0  0  0  0  0  0  0  0  0  0  # atno 10167 bound_to 10162
  157.3235  131.0908  151.1221 H   0  0  0  0  0  0  0  0  0  0  0  0  # atno 10718 bound_to 10713
  154.1780  135.6448  153.5027 H   0  0  0  0  0  0  0  0  0  0  0  0  # atno 10763 bound_to 10752
  153.0066  135.5399  154.6543 H   0  0  0  0  0  0  0  0  0  0  0  0  # atno 10764 bound_to 10752
  154.5900  135.2933  155.0617 H   0  0  0  0  0  0  0  0  0  0  0  0  # atno 10765 bound_to 10752
  140.5003  134.5900  157.4985 H   0  0  0  0  0  0  0  0  0  0  0  0  # atno 11005 bound_to 11000
  146.3301  139.8501  142.8874 LP  0  0  0  0  0  0  0  0  0  0  0  0  # atno 17320 bound_to 7965
  145.2927  141.0172  143.3653 LP  0  0  0  0  0  0  0  0  0  0  0  0  # atno 17321 bound_to 7965
  139.4900  144.4369  151.9809 LP  0  0  0  0  0  0  0  0  0  0  0  0  # atno 17342 bound_to 10162
  140.3461  144.3145  150.5958 LP  0  0  0  0  0  0  0  0  0  0  0  0  # atno 17343 bound_to 10162
  157.2497  130.6608  149.5926 LP  0  0  0  0  0  0  0  0  0  0  0  0  # atno 17370 bound_to 10713
  155.9688  130.4542  150.5841 LP  0  0  0  0  0  0  0  0  0  0  0  0  # atno 17371 bound_to 10713
  139.9717  134.7282  156.0028 LP  0  0  0  0  0  0  0  0  0  0  0  0  # atno 17394 bound_to 11000
  141.1439  133.6559  156.3809 LP  0  0  0  0  0  0  0  0  0  0  0  0  # atno 17395 bound_to 11000

$$$$
