#       Name:                AV-unprocessed.smi:1047
#       Creating user name   scv26
#       Creation time:       Fri Mar 27 03:04:37 2020


#       File generated by GOLD software.
#

@<TRIPOS>MOLECULE
AV-unprocessed.smi:1047
    62    64     1
SMALL
NO_CHARGES


@<TRIPOS>ATOM
      1 ****        -3.5435   4.2451   2.4342 C.3            1 S1                 0.0000
      2 ****        -2.4928   4.9769   1.5868 C.3            1 S1                 0.0000
      3 ****        -2.3460   4.3941   0.2294 N.4            1 S1                 1.0000
      4 ****        -1.6667   5.3192  -0.7092 C.3            1 S1                 0.0000
      5 ****        -1.5931   4.7033  -2.1165 C.3            1 S1                 0.0000
      6 ****        -0.9211   3.4506  -2.0578 O.3            1 S1                 0.0000
      7 ****        -1.5953   2.5168  -1.2210 C.3            1 S1                 0.0000
      8 ****        -0.8834   1.1562  -1.3151 C.3            1 S1                 0.0000
      9 ****         0.5306   1.2367  -0.8931 N.4            1 S1                 1.0000
     10 ****         1.2381  -0.0592  -0.9041 C.3            1 S1                 0.0000
     11 ****         2.7096   0.1072  -0.4814 C.3            1 S1                 0.0000
     12 ****         3.3856   0.8556  -1.4710 O.3            1 S1                 0.0000
     13 ****         3.4669  -1.2234  -0.2999 C.3            1 S1                 0.0000
     14 ****         2.9258  -2.0462   0.7913 N.pl3          1 S1                 0.0000
     15 ****         3.1475  -1.9568   2.1314 C.2            1 S1                 0.0000
     16 ****         2.4310  -2.9451   2.7340 N.pl3          1 S1                 1.0000
     17 ****         1.7452  -3.6806   1.7655 C.ar           1 S1                 0.0000
     18 ****         0.8952  -4.7732   1.8879 C.ar           1 S1                 0.0000
     19 ****         0.3493  -5.3024   0.6970 C.ar           1 S1                 0.0000
     20 ****        -0.5822  -6.4988   0.7959 C.3            1 S1                 0.0000
     21 ****         0.6608  -4.7326  -0.5645 C.ar           1 S1                 0.0000
     22 ****         0.0672  -5.3089  -1.8388 C.3            1 S1                 0.0000
     23 ****         1.5288  -3.6219  -0.6681 C.ar           1 S1                 0.0000
     24 ****         2.0598  -3.1123   0.5152 C.ar           1 S1                 0.0000
     25 ****        -1.6794   3.0680   0.2186 C.3            1 S1                 0.0000
     26 ****        -3.6959   4.7605   3.3828 H              1 S1                 0.0000
     27 ****        -3.2429   3.2244   2.6687 H              1 S1                 0.0000
     28 ****        -4.5058   4.2053   1.9231 H              1 S1                 0.0000
     29 ****        -2.8056   6.0177   1.4926 H              1 S1                 0.0000
     30 ****        -1.5285   4.9892   2.0970 H              1 S1                 0.0000
     31 ****        -2.2072   6.2657  -0.7534 H              1 S1                 0.0000
     32 ****        -0.6623   5.5403  -0.3443 H              1 S1                 0.0000
     33 ****        -2.5912   4.5758  -2.5388 H              1 S1                 0.0000
     34 ****        -1.0466   5.3655  -2.7883 H              1 S1                 0.0000
     35 ****        -2.6094   2.3827  -1.6028 H              1 S1                 0.0000
     36 ****        -1.4046   0.4255  -0.6953 H              1 S1                 0.0000
     37 ****        -0.9250   0.7891  -2.3415 H              1 S1                 0.0000
     38 ****         1.0171   1.8691  -1.5136 H              1 S1                 0.0000
     39 ****         0.7194  -0.7238  -0.2130 H              1 S1                 0.0000
     40 ****         1.1732  -0.5127  -1.8944 H              1 S1                 0.0000
     41 ****         2.7563   0.6684   0.4530 H              1 S1                 0.0000
     42 ****         3.4470   0.3363  -2.2589 H              1 S1                 0.0000
     43 ****         3.4809  -1.8030  -1.2230 H              1 S1                 0.0000
     44 ****         4.5107  -1.0236  -0.0527 H              1 S1                 0.0000
     45 ****         3.7795  -1.2339   2.6274 H              1 S1                 0.0000
     46 ****         0.6620  -5.2014   2.8521 H              1 S1                 0.0000
     47 ****        -0.2133  -7.3256   0.1882 H              1 S1                 0.0000
     48 ****        -1.5821  -6.2342   0.4511 H              1 S1                 0.0000
     49 ****        -0.6669  -6.8547   1.8231 H              1 S1                 0.0000
     50 ****         0.3433  -4.7166  -2.7118 H              1 S1                 0.0000
     51 ****        -1.0213  -5.3291  -1.7832 H              1 S1                 0.0000
     52 ****         0.4252  -6.3263  -1.9986 H              1 S1                 0.0000
     53 ****         1.7634  -3.1934  -1.6310 H              1 S1                 0.0000
     54 ****        -0.6827   3.1656   0.6518 H              1 S1                 0.0000
     55 ****        -2.2305   2.3627   0.8400 H              1 S1                 0.0000
     56 ****         0.5709   1.6120   0.0435 H              1 S1                 0.0000
     57 ****        -3.2810   4.2614  -0.1298 H              1 S1                 0.0000
     58 ****         2.4175  -3.1076   3.7332 H              1 S1                 0.0000
     59 ****         0.0011   3.5964  -1.6998 LP             1 S1                 0.0000
     60 ****        -0.8640   3.0723  -2.9817 LP             1 S1                 0.0000
     61 ****         4.3036   1.0864  -1.1487 LP             1 S1                 0.0000
     62 ****         2.8781   1.6960  -1.6615 LP             1 S1                 0.0000
@<TRIPOS>BOND
    1    1    2 1     
    2    1   26 1     
    3    1   27 1     
    4    1   28 1     
    5    2    3 1     
    6    2   29 1     
    7    2   30 1     
    8    3   25 1     
    9    3    4 1     
   10    3   57 1     
   11    4    5 1     
   12    4   31 1     
   13    4   32 1     
   14    5    6 1     
   15    5   33 1     
   16    5   34 1     
   17    6    7 1     
   18    7    8 1     
   19    7   25 1     
   20    7   35 1     
   21    8    9 1     
   22    8   36 1     
   23    8   37 1     
   24    9   10 1     
   25    9   38 1     
   26    9   56 1     
   27   10   11 1     
   28   10   39 1     
   29   10   40 1     
   30   11   12 1     
   31   11   13 1     
   32   11   41 1     
   33   12   42 1     
   34   13   14 1     
   35   13   43 1     
   36   13   44 1     
   37   14   24 1     
   38   14   15 1     
   39   15   16 2     
   40   15   45 1     
   41   16   17 1     
   42   16   58 1     
   43   17   24 ar    
   44   17   18 ar    
   45   18   19 ar    
   46   18   46 1     
   47   19   20 1     
   48   19   21 ar    
   49   20   47 1     
   50   20   48 1     
   51   20   49 1     
   52   21   22 1     
   53   21   23 ar    
   54   22   50 1     
   55   22   51 1     
   56   22   52 1     
   57   23   24 ar    
   58   23   53 1     
   59   25   54 1     
   60   25   55 1     
   61    6   59 1     
   62    6   60 1     
   63   12   61 1     
   64   12   62 1     
@<TRIPOS>SUBSTRUCTURE
      1 S1             1
@<TRIPOS>SET
LONE_PAIRS      STATIC     ATOMS    <user>   **** ""
4 59 60 61 62
DONOR_HYDROGENS      STATIC     ATOMS    <user>   **** ""
5 57 38 56 42 58
ATOM$BLUE        STATIC     ATOMS    COLORGROUP SYSTEM
4 59 60 61 62
ATOM$RED        STATIC     ATOMS    COLORGROUP SYSTEM
5 57 38 56 42 58
