#       Name:                AV-unprocessed.smi:2406
#       Creating user name   scv26
#       Creation time:       Fri Mar 27 13:14:57 2020


#       File generated by GOLD software.
#

@<TRIPOS>MOLECULE
AV-unprocessed.smi:2406
    42    43     1
SMALL
NO_CHARGES


@<TRIPOS>ATOM
      1 ****        -6.3489   2.0384   0.1677 C.3            1 S1                 0.0000
      2 ****        -5.2925   1.0848   0.1515 O.3            1 S1                 0.0000
      3 ****        -4.0216   1.5155   0.4712 C.ar           1 S1                 0.0000
      4 ****        -2.9522   0.5971   0.4389 C.ar           1 S1                 0.0000
      5 ****        -1.6654   1.0810   0.7657 C.ar           1 S1                 0.0000
      6 ****        -0.6154   0.1269   0.7107 N.am           1 S1                 0.0000
      7 ****         0.6982   0.3268   0.9160 C.2            1 S1                 0.0000
      8 ****         1.2132   1.3984   1.2363 O.2            1 S1                 0.0000
      9 ****         1.3934  -0.8029   0.7179 N.am           1 S1                 0.0000
     10 ****         2.8467  -0.9400   0.7941 C.3            1 S1                 0.0000
     11 ****         3.2267  -1.6680   2.0913 C.3            1 S1                 0.0000
     12 ****         3.3746  -1.6774  -0.4509 C.3            1 S1                 0.0000
     13 ****         3.1061  -0.9340  -1.7482 C.3            1 S1                 0.0000
     14 ****         1.8165  -1.1247  -2.5133 C.3            1 S1                 0.0000
     15 ****         3.1136  -1.6618  -3.0713 C.3            1 S1                 0.0000
     16 ****        -1.4977   2.3844   1.0997 N.ar           1 S1                 0.0000
     17 ****        -2.5743   3.1726   1.1036 C.ar           1 S1                 0.0000
     18 ****        -3.8239   2.8130   0.8078 N.ar           1 S1                 0.0000
     19 ****        -7.2810   1.5488  -0.1136 H              1 S1                 0.0000
     20 ****        -6.1699   2.8435  -0.5463 H              1 S1                 0.0000
     21 ****        -6.4863   2.4658   1.1619 H              1 S1                 0.0000
     22 ****        -3.1178  -0.4357   0.1686 H              1 S1                 0.0000
     23 ****        -0.8926  -0.8099   0.4578 H              1 S1                 0.0000
     24 ****         0.8791  -1.6331   0.4623 H              1 S1                 0.0000
     25 ****         3.3151   0.0456   0.8167 H              1 S1                 0.0000
     26 ****         4.3086  -1.7688   2.1818 H              1 S1                 0.0000
     27 ****         2.7953  -2.6688   2.1270 H              1 S1                 0.0000
     28 ****         2.8741  -1.1209   2.9662 H              1 S1                 0.0000
     29 ****         4.4523  -1.8180  -0.3622 H              1 S1                 0.0000
     30 ****         2.9376  -2.6753  -0.5111 H              1 S1                 0.0000
     31 ****         3.5213   0.0721  -1.7645 H              1 S1                 0.0000
     32 ****         1.0989  -1.8464  -2.1279 H              1 S1                 0.0000
     33 ****         1.3847  -0.2484  -2.9924 H              1 S1                 0.0000
     34 ****         3.5456  -1.1449  -3.9257 H              1 S1                 0.0000
     35 ****         3.2555  -2.7408  -3.0581 H              1 S1                 0.0000
     36 ****        -2.4176   4.2067   1.3723 H              1 S1                 0.0000
     37 ****        -5.2526   0.7019  -0.7715 LP             1 S1                 0.0000
     38 ****        -5.5336   0.3639   0.8012 LP             1 S1                 0.0000
     39 ****         0.6421   2.2092   1.3638 LP             1 S1                 0.0000
     40 ****         2.2026   1.4578   1.3689 LP             1 S1                 0.0000
     41 ****        -0.5949   2.7438   1.3358 LP             1 S1                 0.0000
     42 ****        -4.5783   3.4689   0.8331 LP             1 S1                 0.0000
@<TRIPOS>BOND
    1    1    2 1     
    2    1   19 1     
    3    1   20 1     
    4    1   21 1     
    5    2    3 1     
    6    3   18 ar    
    7    3    4 ar    
    8    4    5 ar    
    9    4   22 1     
   10    5    6 1     
   11    5   16 ar    
   12    6    7 am    
   13    6   23 1     
   14    7    8 2     
   15    7    9 am    
   16    9   10 1     
   17    9   24 1     
   18   10   11 1     
   19   10   12 1     
   20   10   25 1     
   21   11   26 1     
   22   11   27 1     
   23   11   28 1     
   24   12   13 1     
   25   12   29 1     
   26   12   30 1     
   27   13   15 1     
   28   13   14 1     
   29   13   31 1     
   30   14   15 1     
   31   14   32 1     
   32   14   33 1     
   33   15   34 1     
   34   15   35 1     
   35   16   17 ar    
   36   17   18 ar    
   37   17   36 1     
   38    2   37 1     
   39    2   38 1     
   40    8   39 1     
   41    8   40 1     
   42   16   41 1     
   43   18   42 1     
@<TRIPOS>SUBSTRUCTURE
      1 S1             1
@<TRIPOS>SET
LONE_PAIRS      STATIC     ATOMS    <user>   **** ""
6 37 38 39 40 41 42
DONOR_HYDROGENS      STATIC     ATOMS    <user>   **** ""
2 23 24
ATOM$BLUE        STATIC     ATOMS    COLORGROUP SYSTEM
6 37 38 39 40 41 42
ATOM$RED        STATIC     ATOMS    COLORGROUP SYSTEM
2 23 24
