AV-unprocessed.smi:2587|AV-procd|sdf|10146|dock1
  -GOLD-   2272014153D 1   1.00000     0.00000
 Structure written by MMmdl.
 39 40  0  0  0  0  0  0  0  0  1 V2000
  153.3776  143.2540  163.5186 C   0  0  0  0  0  0  0  0  0  0  0  0
  152.8258  143.0901  162.3073 C   0  0  0  0  0  0  0  0  0  0  0  0
  153.4725  142.3255  161.1699 C   0  0  0  0  0  0  0  0  0  0  0  0
  152.7960  142.5358  159.8903 N   0  0  0  0  0  0  0  0  0  0  0  0
  152.7373  143.8931  159.3541 C   0  0  0  0  0  0  0  0  0  0  0  0
  151.7026  144.7641  160.0824 C   0  0  0  0  0  0  0  0  0  0  0  0
  151.9673  146.1248  159.8224 O   0  0  0  0  0  0  0  0  0  0  0  0
  152.3912  141.4275  159.1065 C   0  0  0  0  0  0  0  0  0  0  0  0
  151.5537  141.5673  157.9704 C   0  0  0  0  0  0  0  0  0  0  0  0
  151.2065  140.3953  157.2566 C   0  0  0  0  0  0  0  0  0  0  0  0
  150.3766  140.4621  156.1166 N   0  0  0  0  0  0  0  0  0  0  0  0
  149.8894  141.7761  155.7009 C   0  0  0  0  0  0  0  0  0  0  0  0
  148.7831  141.6274  154.6429 C   0  0  0  0  0  0  0  0  0  0  0  0
  149.2630  140.8479  153.5527 O   0  0  0  0  0  0  0  0  0  0  0  0
  149.6274  139.5338  153.9618 C   0  0  0  0  0  0  0  0  0  0  0  0
  150.7627  139.6059  154.9975 C   0  0  0  0  0  0  0  0  0  0  0  0
  151.6750  139.1880  157.6529 N   0  0  0  0  0  0  0  0  0  0  0  0
  152.4552  139.1564  158.7323 C   0  0  0  0  0  0  0  0  0  0  0  0
  152.8318  140.1994  159.4714 N   0  0  0  0  0  0  0  0  0  0  0  0
  154.3464  142.8385  163.7552 H   0  0  0  0  0  0  0  0  0  0  0  0
  152.8651  143.8083  164.2908 H   0  0  0  0  0  0  0  0  0  0  0  0
  151.8536  143.5178  162.1093 H   0  0  0  0  0  0  0  0  0  0  0  0
  154.5156  142.6324  161.0829 H   0  0  0  0  0  0  0  0  0  0  0  0
  153.4955  141.2643  161.4196 H   0  0  0  0  0  0  0  0  0  0  0  0
  153.7234  144.3566  159.3694 H   0  0  0  0  0  0  0  0  0  0  0  0
  152.4696  143.8290  158.2985 H   0  0  0  0  0  0  0  0  0  0  0  0
  150.6923  144.5285  159.7470 H   0  0  0  0  0  0  0  0  0  0  0  0
  151.7357  144.5974  161.1593 H   0  0  0  0  0  0  0  0  0  0  0  0
  151.3013  146.6467  160.2430 H   0  0  0  0  0  0  0  0  0  0  0  0
  151.2041  142.5304  157.6348 H   0  0  0  0  0  0  0  0  0  0  0  0
  149.4956  142.3227  156.5590 H   0  0  0  0  0  0  0  0  0  0  0  0
  150.7185  142.3576  155.2954 H   0  0  0  0  0  0  0  0  0  0  0  0
  147.8941  141.1626  155.0729 H   0  0  0  0  0  0  0  0  0  0  0  0
  148.4823  142.6080  154.2740 H   0  0  0  0  0  0  0  0  0  0  0  0
  148.7594  139.0154  154.3725 H   0  0  0  0  0  0  0  0  0  0  0  0
  149.9515  138.9676  153.0886 H   0  0  0  0  0  0  0  0  0  0  0  0
  151.6620  140.0161  154.5362 H   0  0  0  0  0  0  0  0  0  0  0  0
  151.0070  138.5961  155.3238 H   0  0  0  0  0  0  0  0  0  0  0  0
  152.8200  138.1875  159.0396 H   0  0  0  0  0  0  0  0  0  0  0  0
  1  2  2  0  0  0  0
  1 20  1  0  0  0  0
  1 21  1  0  0  0  0
  2  3  1  0  0  0  0
  2 22  1  0  0  0  0
  3  4  1  0  0  0  0
  3 23  1  0  0  0  0
  3 24  1  0  0  0  0
  4  5  1  0  0  0  0
  4  8  1  0  0  0  0
  5  6  1  0  0  0  0
  5 25  1  0  0  0  0
  5 26  1  0  0  0  0
  6  7  1  0  0  0  0
  6 27  1  0  0  0  0
  6 28  1  0  0  0  0
  7 29  1  0  0  0  0
  8 19  1  0  0  0  0
  8  9  2  0  0  0  0
  9 10  1  0  0  0  0
  9 30  1  0  0  0  0
 10 11  1  0  0  0  0
 10 17  2  0  0  0  0
 11 16  1  0  0  0  0
 11 12  1  0  0  0  0
 12 13  1  0  0  0  0
 12 31  1  0  0  0  0
 12 32  1  0  0  0  0
 13 14  1  0  0  0  0
 13 33  1  0  0  0  0
 13 34  1  0  0  0  0
 14 15  1  0  0  0  0
 15 16  1  0  0  0  0
 15 35  1  0  0  0  0
 15 36  1  0  0  0  0
 16 37  1  0  0  0  0
 16 38  1  0  0  0  0
 17 18  1  0  0  0  0
 18 19  2  0  0  0  0
 18 39  1  0  0  0  0
M  END
> <s_m_source_file>
AV-unprocessed.smi

> <i_m_source_file_index>
2587

> <i_lp_mmshare_version>
43012

> <i_f3d_flags>
0

> <s_epik_input>
W0NIMl09W0NIXVtDSDJdTihbQ0gyXVtDSDJdW09IXSljMVtjSF1jKG5bY0hdbjEpTjJbQ0gyXVtDSDJdT1tDSDJdW0NIMl0y

> <s_epik_cmdline>
J2VwaWtfcHl0aG9uJywgJy1waCcsICc3LjAnLCAnLXRuJywgJzgnLCAnLW1hJywgJzIwMCcsICctbWV0YWxfYmluZGluZycsICctaW1hZScsICc8aW5maWxlLm1hZT4nLCAnLW9tYWUnLCAnPG91dGZpbGUubWFlPic=

> <r_lp_tautomer_probability>
1

> <r_epik_Ionization_Penalty>
0.00218234

> <r_epik_Ionization_Penalty_Charging>
0

> <r_epik_Ionization_Penalty_Neutral>
0.00218234

> <r_epik_State_Penalty>
0.00992355

> <r_epik_Charging_Adjusted_Penalty>
0.00992355

> <i_epik_Tot_Q>
0

> <i_epik_Tot_abs_Q>
0

> <r_epik_Metal_State_Penalty>
0.00985368

> <b_epik_Metal_Only>
0

> <s_lp_Force_Field>
OPLS_2005

> <r_lp_Energy>
11.4622

> <b_lp_Chiralities_Consistent>
1

> <s_lp_Variant>
AV-unprocessed.smi:2587-1

> <Gold.Version>
5.8.1

> <Gold.Id.Protein>
6NUR|6NUR_protein|mol2

> <Gold.PLP.Fitness>
44.2753

> <Gold.PLP.PLP>
-42.0988

> <Gold.PLP.part.hbond>
-3.1566

> <Gold.PLP.part.metal>
0.0000

> <Gold.PLP.part.buried>
-1.2285

> <Gold.PLP.part.nonpolar>
-40.1322

> <Gold.PLP.part.repulsive>
3.7148

> <Gold.PLP.ligand.clash>
0.0000

> <Gold.PLP.ligand.torsion>
0.6714

> <Gold.PLP.Chemscore.Hbond>
0.9750

> <Gold.PLP.Chemscore.CHOScore>
0.0000

> <Gold.PLP.Chemscore.Metal>
0.0000

> <Gold.Chemscore.Hbonds>
donor molecule, donor type, donor heavy atom, donor atom, acceptor molecule, acceptor atom, score
      P1  H  8011  8017       L1    14  0.80

> <Gold.PLP.Chemscore.Internal.Correction>
0.5943

> <Gold.Rescore>
     Score         DG    S(hbond)    S(metal)    S(lipo)     H(rot)  DE(clash)    DE(int)     intcor
      9.83     -11.43       0.31        0.00      96.85       2.51       0.76       0.85       ----

> <Gold.Chemscore.Fitness>
9.8259

> <Gold.Chemscore.DG>
-11.4295

> <Gold.Chemscore.ZeroCoef>
-5.4800

> <Gold.Chemscore.Hbond>
0.3140

> <Gold.Chemscore.Metal>
0.0000

> <Gold.Chemscore.Lipo>
96.8549

> <Gold.Chemscore.Internal_Hbond>
0.0000

> <Gold.Chemscore.DEClash>
0.7568

> <Gold.Chemscore.DEInternal>
0.8467

> <Gold.Chemscore.Rot>
2.5123

> <Gold.Chemscore.Internal.Correction>
   9.000000E+99

> <Gold.Chemscore.Hbonds>
donor molecule, donor type, donor heavy atom, donor atom, acceptor molecule, acceptor atom, score
      P1  H  8011  8017       L1    14  0.13

> <Gold.Chemscore.Hbond.Weighted>
-1.0489

> <Gold.Chemscore.Metal.Weighted>
-0.0000

> <Gold.Chemscore.Lipo.Weighted>
-11.3320

> <Gold.Chemscore.Internal_Hbond.Weighted>
0.0000

> <Gold.Chemscore.DEClash.Weighted>
0.7568

> <Gold.Chemscore.DEInternal.Weighted>
0.8467

> <Gold.Chemscore.Rot.Weighted>
6.4315

> <Gold.Chemscore.Internal.Correction.Weighted>
   9.000000E+99

> <Gold.Protein.RotatedTorsions>
[ 6907 6896 6895 6894 ] final -164.13 input  -60.11 | X-H torsion
[ 7974 7965 7964 7962 ] final   79.03 input  175.53 | X-H torsion
[ 8008 7997 7996 7995 ] final   11.42 input   59.86 | X-H torsion
[ 10167 10162 10161 10158 ] final   -3.58 input  -65.29 | X-H torsion
[ 10718 10713 10712 10709 ] final   22.10 input   66.30 | X-H torsion
[ 10763 10752 10751 10750 ] final  101.04 input  -60.55 | X-H torsion
[ 11005 11000 10999 10996 ] final  161.54 input  -57.11 | X-H torsion

> <Gold.Protein.ActiveResidues>
 VAL166  LYS551  ARG553  GLY616  TRP617  ASP618  TYR619  PRO620  LYS621  CYS622 
 ASP623  PHE694  ASN695  SER759  ASP760  ASP761  ALA762  ILE779  LEU786  VAL792 
 PHE793  MET794  SER795  GLU796  ALA797  LYS798  CYS799  TRP800  GLU811  SER814 

> <Gold.Protein.RotatedAtoms>
  151.4070  133.3739  159.2738 H   0  0  0  0  0  0  0  0  0  0  0  0  # atno 6907 bound_to 6896
  150.9391  134.8803  159.7611 H   0  0  0  0  0  0  0  0  0  0  0  0  # atno 6908 bound_to 6896
  152.5063  134.4019  159.9471 H   0  0  0  0  0  0  0  0  0  0  0  0  # atno 6909 bound_to 6896
  145.6695  139.2493  143.1877 H   0  0  0  0  0  0  0  0  0  0  0  0  # atno 7974 bound_to 7965
  154.8067  140.2861  155.5882 H   0  0  0  0  0  0  0  0  0  0  0  0  # atno 8008 bound_to 7997
  156.2983  140.2576  156.2877 H   0  0  0  0  0  0  0  0  0  0  0  0  # atno 8009 bound_to 7997
  154.9494  140.0379  157.2126 H   0  0  0  0  0  0  0  0  0  0  0  0  # atno 8010 bound_to 7997
  140.6896  143.6523  150.8339 H   0  0  0  0  0  0  0  0  0  0  0  0  # atno 10167 bound_to 10162
  157.1476  130.6660  149.6001 H   0  0  0  0  0  0  0  0  0  0  0  0  # atno 10718 bound_to 10713
  153.3216  135.4058  155.1422 H   0  0  0  0  0  0  0  0  0  0  0  0  # atno 10763 bound_to 10752
  154.8602  135.3589  154.5588 H   0  0  0  0  0  0  0  0  0  0  0  0  # atno 10764 bound_to 10752
  153.6022  135.7070  153.5439 H   0  0  0  0  0  0  0  0  0  0  0  0  # atno 10765 bound_to 10752
  140.2168  134.8226  157.3179 H   0  0  0  0  0  0  0  0  0  0  0  0  # atno 11005 bound_to 11000
  146.1058  140.7489  142.9527 LP  0  0  0  0  0  0  0  0  0  0  0  0  # atno 17320 bound_to 7965
  144.7062  140.3859  143.7116 LP  0  0  0  0  0  0  0  0  0  0  0  0  # atno 17321 bound_to 7965
  140.0234  143.5519  152.2791 LP  0  0  0  0  0  0  0  0  0  0  0  0  # atno 17342 bound_to 10162
  139.6285  144.7641  151.2587 LP  0  0  0  0  0  0  0  0  0  0  0  0  # atno 17343 bound_to 10162
  155.9776  130.4756  150.6606 LP  0  0  0  0  0  0  0  0  0  0  0  0  # atno 17370 bound_to 10713
  157.4250  131.0842  151.1094 LP  0  0  0  0  0  0  0  0  0  0  0  0  # atno 17371 bound_to 10713
  140.1892  134.4393  155.7726 LP  0  0  0  0  0  0  0  0  0  0  0  0  # atno 17394 bound_to 11000
  141.2224  133.7019  156.7998 LP  0  0  0  0  0  0  0  0  0  0  0  0  # atno 17395 bound_to 11000

$$$$
