AV-unprocessed.smi:2999|AV-procd|sdf|11426|dock7
  -GOLD-   2272016353D 1   1.00000     0.00000
 Structure written by MMmdl.
 37 39  0  0  0  0  0  0  0  0  3 V2000
  149.8635  136.2072  158.9420 O   0  0  0  0  0  0  0  0  0  0  0  0
  148.8727  136.8688  158.6248 C   0  0  0  0  0  0  0  0  0  0  0  0
  149.0189  138.0050  157.9299 N   0  0  0  0  0  0  0  0  0  0  0  0
  150.2844  138.6146  157.5314 C   0  0  0  0  0  0  0  0  0  0  0  0
  150.4700  140.0414  158.0899 C   0  0  1  0  0  0  0  0  0  0  0  0
  151.9488  140.4912  158.1744 C   0  0  0  0  0  0  0  0  0  0  0  0
  152.0664  141.8882  158.6537 N   0  3  2  0  0  0  0  0  0  0  0  0
  151.8727  142.0287  160.1157 C   0  0  0  0  0  0  0  0  0  0  0  0
  152.7174  143.1170  160.7357 C   0  0  0  0  0  0  0  0  0  0  0  0
  153.0952  141.6649  160.9251 C   0  0  0  0  0  0  0  0  0  0  0  0
  151.2102  142.7961  157.8546 C   0  0  0  0  0  0  0  0  0  0  0  0
  149.7600  142.2845  157.7911 C   0  0  0  0  0  0  0  0  0  0  0  0
  149.7410  140.9585  157.2802 O   0  0  0  0  0  0  0  0  0  0  0  0
  147.5854  136.5766  158.9158 N   0  5  0  0  0  0  0  0  0  0  0  0
  147.2533  136.1641  160.1499 C   0  0  0  0  0  0  0  0  0  0  0  0
  147.0740  137.0051  161.1750 N   0  0  0  0  0  0  0  0  0  0  0  0
  146.7273  136.3630  162.3653 C   0  0  0  0  0  0  0  0  0  0  0  0
  146.6338  135.0021  162.2419 C   0  0  0  0  0  0  0  0  0  0  0  0
  146.9791  134.4832  160.6167 S   0  0  0  0  0  0  0  0  0  0  0  0
  148.1759  138.5025  157.6830 H   0  0  0  0  0  0  0  0  0  0  0  0
  151.1238  137.9782  157.8161 H   0  0  0  0  0  0  0  0  0  0  0  0
  150.2903  138.6537  156.4421 H   0  0  0  0  0  0  0  0  0  0  0  0
  150.0298  140.0536  159.0882 H   0  0  0  0  0  0  0  0  0  0  0  0
  152.5220  139.8216  158.8167 H   0  0  0  0  0  0  0  0  0  0  0  0
  152.4137  140.4478  157.1887 H   0  0  0  0  0  0  0  0  0  0  0  0
  150.8775  141.8201  160.5033 H   0  0  0  0  0  0  0  0  0  0  0  0
  153.3457  143.7182  160.0810 H   0  0  0  0  0  0  0  0  0  0  0  0
  152.3078  143.6414  161.5966 H   0  0  0  0  0  0  0  0  0  0  0  0
  152.9339  141.2315  161.9101 H   0  0  0  0  0  0  0  0  0  0  0  0
  153.9750  141.3023  160.3961 H   0  0  0  0  0  0  0  0  0  0  0  0
  151.2466  143.8074  158.2610 H   0  0  0  0  0  0  0  0  0  0  0  0
  151.6170  142.8518  156.8441 H   0  0  0  0  0  0  0  0  0  0  0  0
  149.2828  142.3179  158.7714 H   0  0  0  0  0  0  0  0  0  0  0  0
  149.1692  142.9206  157.1319 H   0  0  0  0  0  0  0  0  0  0  0  0
  146.5647  136.9543  163.2540 H   0  0  0  0  0  0  0  0  0  0  0  0
  146.3835  134.2773  163.0015 H   0  0  0  0  0  0  0  0  0  0  0  0
  153.0210  142.1692  158.4802 H   0  0  0  0  0  0  0  0  0  0  0  0
  1  2  2  0  0  0  0
  2  3  1  0  0  0  0
  2 14  1  0  0  0  0
  3  4  1  0  0  0  0
  3 20  1  0  0  0  0
  4  5  1  0  0  0  0
  4 21  1  0  0  0  0
  4 22  1  0  0  0  0
  5 13  1  0  0  0  0
  5  6  1  0  0  0  0
  5 23  1  0  0  0  0
  6  7  1  0  0  0  0
  6 24  1  0  0  0  0
  6 25  1  0  0  0  0
  7  8  1  0  0  0  0
  7 11  1  0  0  0  0
  7 37  1  0  0  0  0
  8 10  1  0  0  0  0
  8  9  1  0  0  0  0
  8 26  1  0  0  0  0
  9 10  1  0  0  0  0
  9 27  1  0  0  0  0
  9 28  1  0  0  0  0
 10 29  1  0  0  0  0
 10 30  1  0  0  0  0
 11 12  1  0  0  0  0
 11 31  1  0  0  0  0
 11 32  1  0  0  0  0
 12 13  1  0  0  0  0
 12 33  1  0  0  0  0
 12 34  1  0  0  0  0
 14 15  1  0  0  0  0
 15 19  1  0  0  0  0
 15 16  2  0  0  0  0
 16 17  1  0  0  0  0
 17 18  2  0  0  0  0
 17 35  1  0  0  0  0
 18 19  1  0  0  0  0
 18 36  1  0  0  0  0
M  CHG  1   7   1
M  CHG  1  14  -1
M  END
> <s_m_source_file>
AV-unprocessed.smi

> <i_m_source_file_index>
2999

> <i_lp_mmshare_version>
43012

> <i_f3d_flags>
0

> <s_epik_input>
czFbY0hdW2NIXW5jMVtOSF1DKD1PKVtOSF1bQ0gyXVtDQEBIXTJbQ0gyXU4oW0NIMl1bQ0gyXU8yKVtDSF0zW0NIMl1bQ0gyXTM=

> <s_epik_cmdline>
J2VwaWtfcHl0aG9uJywgJy1waCcsICc3LjAnLCAnLXRuJywgJzgnLCAnLW1hJywgJzIwMCcsICctbWV0YWxfYmluZGluZycsICctaW1hZScsICc8aW5maWxlLm1hZT4nLCAnLW9tYWUnLCAnPG91dGZpbGUubWFlPic=

> <r_lp_tautomer_probability>
0.999

> <r_epik_Ionization_Penalty>
7.79196

> <r_epik_Ionization_Penalty_Charging>
6.93299

> <r_epik_Ionization_Penalty_Neutral>
0.858963

> <r_epik_State_Penalty>
7.05108

> <r_epik_Charging_Adjusted_Penalty>
13.9841

> <i_epik_Tot_Q>
0

> <i_epik_Tot_abs_Q>
2

> <r_epik_Metal_State_Penalty>
3.05936

> <b_epik_Metal_Only>
1

> <s_lp_Force_Field>
OPLS_2005

> <r_lp_Energy>
16.0159

> <b_lp_Chiralities_Consistent>
1

> <s_lp_Variant>
AV-unprocessed.smi:2999-10

> <Gold.Version>
5.8.1

> <Gold.Id.Protein>
6NUR|6NUR_protein|mol2

> <Gold.PLP.Fitness>
43.8378

> <Gold.PLP.PLP>
-38.2487

> <Gold.PLP.part.hbond>
-3.0000

> <Gold.PLP.part.metal>
0.0000

> <Gold.PLP.part.buried>
-4.5510

> <Gold.PLP.part.nonpolar>
-30.5055

> <Gold.PLP.part.repulsive>
0.2366

> <Gold.PLP.ligand.clash>
0.0000

> <Gold.PLP.ligand.torsion>
1.9429

> <Gold.PLP.Chemscore.Hbond>
2.7360

> <Gold.PLP.Chemscore.CHOScore>
0.0000

> <Gold.PLP.Chemscore.Metal>
0.0000

> <Gold.Chemscore.Hbonds>
donor molecule, donor type, donor heavy atom, donor atom, acceptor molecule, acceptor atom, score
      P1  H  6896  6907       L1     1  1.00
      P1  H  6934  6947       L1    16  0.99

> <Gold.PLP.Chemscore.Internal.Correction>
1.2670

> <Gold.Rescore>
     Score         DG    S(hbond)    S(metal)    S(lipo)     H(rot)  DE(clash)    DE(int)     intcor
     17.51     -19.33       2.29        0.00      86.84       1.55       0.00       1.83       ----

> <Gold.Chemscore.Fitness>
17.5061

> <Gold.Chemscore.DG>
-19.3317

> <Gold.Chemscore.ZeroCoef>
-5.4800

> <Gold.Chemscore.Hbond>
2.2935

> <Gold.Chemscore.Metal>
0.0000

> <Gold.Chemscore.Lipo>
86.8423

> <Gold.Chemscore.Internal_Hbond>
0.0000

> <Gold.Chemscore.DEClash>
0.0000

> <Gold.Chemscore.DEInternal>
1.8256

> <Gold.Chemscore.Rot>
1.5504

> <Gold.Chemscore.Internal.Correction>
   9.000000E+99

> <Gold.Chemscore.Hbonds>
donor molecule, donor type, donor heavy atom, donor atom, acceptor molecule, acceptor atom, score
      P1  H  6896  6907       L1     1  0.96
      P1  H  6931  6943       L1    16  0.02
      P1  H  6934  6947       L1    16  0.90

> <Gold.Chemscore.Hbond.Weighted>
-7.6602

> <Gold.Chemscore.Metal.Weighted>
-0.0000

> <Gold.Chemscore.Lipo.Weighted>
-10.1605

> <Gold.Chemscore.Internal_Hbond.Weighted>
0.0000

> <Gold.Chemscore.DEClash.Weighted>
0.0000

> <Gold.Chemscore.DEInternal.Weighted>
1.8256

> <Gold.Chemscore.Rot.Weighted>
3.9690

> <Gold.Chemscore.Internal.Correction.Weighted>
   9.000000E+99

> <Gold.Protein.RotatedTorsions>
[ 6907 6896 6895 6894 ] final  -30.24 input  -60.11 | X-H torsion
[ 7974 7965 7964 7962 ] final -100.63 input  175.53 | X-H torsion
[ 8008 7997 7996 7995 ] final   79.25 input   59.86 | X-H torsion
[ 10167 10162 10161 10158 ] final  -64.97 input  -65.29 | X-H torsion
[ 10718 10713 10712 10709 ] final  176.88 input   66.30 | X-H torsion
[ 10763 10752 10751 10750 ] final -114.26 input  -60.55 | X-H torsion
[ 11005 11000 10999 10996 ] final  -88.50 input  -57.11 | X-H torsion

> <Gold.Protein.ActiveResidues>
 VAL166  LYS551  ARG553  GLY616  TRP617  ASP618  TYR619  PRO620  LYS621  CYS622 
 ASP623  PHE694  ASN695  SER759  ASP760  ASP761  ALA762  ILE779  LEU786  VAL792 
 PHE793  MET794  SER795  GLU796  ALA797  LYS798  CYS799  TRP800  GLU811  SER814 

> <Gold.Protein.RotatedAtoms>
  151.1082  135.0011  159.8480 H   0  0  0  0  0  0  0  0  0  0  0  0  # atno 6907 bound_to 6896
  152.5441  134.1868  159.8668 H   0  0  0  0  0  0  0  0  0  0  0  0  # atno 6908 bound_to 6896
  151.1916  133.4619  159.2628 H   0  0  0  0  0  0  0  0  0  0  0  0  # atno 6909 bound_to 6896
  145.2921  140.9355  143.2872 H   0  0  0  0  0  0  0  0  0  0  0  0  # atno 7974 bound_to 7965
  155.8671  140.3451  155.5796 H   0  0  0  0  0  0  0  0  0  0  0  0  # atno 8008 bound_to 7997
  155.7868  140.0866  157.2049 H   0  0  0  0  0  0  0  0  0  0  0  0  # atno 8009 bound_to 7997
  154.4015  140.1490  156.3104 H   0  0  0  0  0  0  0  0  0  0  0  0  # atno 8010 bound_to 7997
  140.5763  143.2322  151.6436 H   0  0  0  0  0  0  0  0  0  0  0  0  # atno 10167 bound_to 10162
  156.9136  130.9918  151.3016 H   0  0  0  0  0  0  0  0  0  0  0  0  # atno 10718 bound_to 10713
  154.8432  135.4424  154.1479 H   0  0  0  0  0  0  0  0  0  0  0  0  # atno 10763 bound_to 10752
  153.2647  135.6939  153.7548 H   0  0  0  0  0  0  0  0  0  0  0  0  # atno 10764 bound_to 10752
  153.6811  135.3403  155.3154 H   0  0  0  0  0  0  0  0  0  0  0  0  # atno 10765 bound_to 10752
  141.1600  133.7574  156.9461 H   0  0  0  0  0  0  0  0  0  0  0  0  # atno 11005 bound_to 11000
  144.9164  139.4465  143.6562 LP  0  0  0  0  0  0  0  0  0  0  0  0  # atno 17320 bound_to 7965
  146.3181  139.8000  142.8967 LP  0  0  0  0  0  0  0  0  0  0  0  0  # atno 17321 bound_to 7965
  139.5144  144.3411  152.0740 LP  0  0  0  0  0  0  0  0  0  0  0  0  # atno 17342 bound_to 10162
  140.2555  144.4124  150.6205 LP  0  0  0  0  0  0  0  0  0  0  0  0  # atno 17343 bound_to 10162
  157.5952  130.8472  149.8718 LP  0  0  0  0  0  0  0  0  0  0  0  0  # atno 17370 bound_to 10713
  156.0524  130.3715  150.1170 LP  0  0  0  0  0  0  0  0  0  0  0  0  # atno 17371 bound_to 10713
  140.1289  134.9369  157.2309 LP  0  0  0  0  0  0  0  0  0  0  0  0  # atno 17394 bound_to 11000
  140.2978  134.3166  155.7298 LP  0  0  0  0  0  0  0  0  0  0  0  0  # atno 17395 bound_to 11000

$$$$
