AV-unprocessed.smi:1831|AV-procd|sdf|7459|dock1
  -GOLD-   22720 9153D 1   1.00000     0.00000
 Structure written by MMmdl.
 41 42  0  0  0  0  0  0  0  0  2 V2000
  150.6302  142.0041  156.5552 C   0  0  0  0  0  0  0  0  0  0  0  0
  150.2381  140.9396  155.5887 C   0  0  0  0  0  0  0  0  0  0  0  0
  151.1164  140.0601  155.0911 N   0  0  0  0  0  0  0  0  0  0  0  0
  150.5249  139.1606  154.2139 N   0  0  0  0  0  0  0  0  0  0  0  0
  149.2160  139.3882  154.0732 C   0  0  0  0  0  0  0  0  0  0  0  0
  148.4806  138.5392  153.2089 N   0  0  0  0  0  0  0  0  0  0  0  0
  147.1682  138.5838  152.9276 C   0  0  0  0  0  0  0  0  0  0  0  0
  146.3744  139.4180  153.3622 O   0  0  0  0  0  0  0  0  0  0  0  0
  146.8152  137.5885  152.1010 N   0  0  0  0  0  0  0  0  0  0  0  0
  145.4677  137.3438  151.5950 C   0  0  0  0  0  0  0  0  0  0  0  0
  145.0054  135.8961  151.8513 C   0  0  1  0  0  0  0  0  0  0  0  0
  143.7116  135.7532  152.6500 C   0  0  0  0  0  0  0  0  0  0  0  0
  143.2554  134.3450  152.2884 C   0  0  0  0  0  0  0  0  0  0  0  0
  143.5852  134.1856  150.8542 N   0  3  2  0  0  0  0  0  0  0  0  0
  143.7632  132.7815  150.3862 C   0  0  0  0  0  0  0  0  0  0  0  0
  145.0214  132.1451  151.0074 C   0  0  0  0  0  0  0  0  0  0  0  0
  143.8542  132.6959  148.8499 C   0  0  0  0  0  0  0  0  0  0  0  0
  144.7220  135.0995  150.5675 C   0  0  0  0  0  0  0  0  0  0  0  0
  148.5864  140.7387  155.0167 S   0  0  0  0  0  0  0  0  0  0  0  0
  151.4806  142.5671  156.1699 H   0  0  0  0  0  0  0  0  0  0  0  0
  150.9074  141.5574  157.5100 H   0  0  0  0  0  0  0  0  0  0  0  0
  149.8015  142.6932  156.7186 H   0  0  0  0  0  0  0  0  0  0  0  0
  149.0147  137.8067  152.7650 H   0  0  0  0  0  0  0  0  0  0  0  0
  147.5360  136.9516  151.7935 H   0  0  0  0  0  0  0  0  0  0  0  0
  144.7590  138.0566  152.0205 H   0  0  0  0  0  0  0  0  0  0  0  0
  145.4821  137.5350  150.5217 H   0  0  0  0  0  0  0  0  0  0  0  0
  145.7905  135.3709  152.3984 H   0  0  0  0  0  0  0  0  0  0  0  0
  143.8552  135.8864  153.7225 H   0  0  0  0  0  0  0  0  0  0  0  0
  142.9718  136.4812  152.3130 H   0  0  0  0  0  0  0  0  0  0  0  0
  143.8153  133.6195  152.8809 H   0  0  0  0  0  0  0  0  0  0  0  0
  142.1925  134.1944  152.4793 H   0  0  0  0  0  0  0  0  0  0  0  0
  142.8922  132.2066  150.7048 H   0  0  0  0  0  0  0  0  0  0  0  0
  145.1583  131.1241  150.6502 H   0  0  0  0  0  0  0  0  0  0  0  0
  144.9666  132.0935  152.0944 H   0  0  0  0  0  0  0  0  0  0  0  0
  145.9183  132.7076  150.7466 H   0  0  0  0  0  0  0  0  0  0  0  0
  144.0248  131.6684  148.5272 H   0  0  0  0  0  0  0  0  0  0  0  0
  144.6760  133.3012  148.4661 H   0  0  0  0  0  0  0  0  0  0  0  0
  142.9372  133.0280  148.3635 H   0  0  0  0  0  0  0  0  0  0  0  0
  144.4308  135.7556  149.7463 H   0  0  0  0  0  0  0  0  0  0  0  0
  145.6212  134.5650  150.2588 H   0  0  0  0  0  0  0  0  0  0  0  0
  142.7958  134.5627  150.3493 H   0  0  0  0  0  0  0  0  0  0  0  0
  1  2  1  0  0  0  0
  1 20  1  0  0  0  0
  1 21  1  0  0  0  0
  1 22  1  0  0  0  0
  2 19  1  0  0  0  0
  2  3  2  0  0  0  0
  3  4  1  0  0  0  0
  4  5  2  0  0  0  0
  5  6  1  0  0  0  0
  5 19  1  0  0  0  0
  6  7  1  0  0  0  0
  6 23  1  0  0  0  0
  7  8  2  0  0  0  0
  7  9  1  0  0  0  0
  9 10  1  0  0  0  0
  9 24  1  0  0  0  0
 10 11  1  0  0  0  0
 10 25  1  0  0  0  0
 10 26  1  0  0  0  0
 11 18  1  0  0  0  0
 11 12  1  0  0  0  0
 11 27  1  0  0  0  0
 12 13  1  0  0  0  0
 12 28  1  0  0  0  0
 12 29  1  0  0  0  0
 13 14  1  0  0  0  0
 13 30  1  0  0  0  0
 13 31  1  0  0  0  0
 14 15  1  0  0  0  0
 14 18  1  0  0  0  0
 14 41  1  0  0  0  0
 15 16  1  0  0  0  0
 15 17  1  0  0  0  0
 15 32  1  0  0  0  0
 16 33  1  0  0  0  0
 16 34  1  0  0  0  0
 16 35  1  0  0  0  0
 17 36  1  0  0  0  0
 17 37  1  0  0  0  0
 17 38  1  0  0  0  0
 18 39  1  0  0  0  0
 18 40  1  0  0  0  0
M  CHG  1  14   1
M  END
> <s_m_source_file>
AV-unprocessed.smi

> <i_m_source_file_index>
1831

> <i_lp_mmshare_version>
43012

> <i_f3d_flags>
0

> <s_epik_input>
W0NIM11jMW5uYyhzMSlbTkhdQyg9TylbTkhdW0NIMl1bQ0BASF0yW0NIMl1bQ0gyXU4oW0NIMl0yKVtDSF0oW0NIM10pW0NIM10=

> <s_epik_cmdline>
J2VwaWtfcHl0aG9uJywgJy1waCcsICc3LjAnLCAnLXRuJywgJzgnLCAnLW1hJywgJzIwMCcsICctbWV0YWxfYmluZGluZycsICctaW1hZScsICc8aW5maWxlLm1hZT4nLCAnLW9tYWUnLCAnPG91dGZpbGUubWFlPic=

> <r_lp_tautomer_probability>
1

> <r_epik_Ionization_Penalty>
0.00080807

> <r_epik_Ionization_Penalty_Charging>
0.000218981

> <r_epik_Ionization_Penalty_Neutral>
0.00058909

> <r_epik_State_Penalty>
-0

> <r_epik_Charging_Adjusted_Penalty>
0.000218981

> <i_epik_Tot_Q>
1

> <i_epik_Tot_abs_Q>
1

> <r_epik_Metal_State_Penalty>
0.236062

> <b_epik_Metal_Only>
0

> <s_lp_Force_Field>
OPLS_2005

> <r_lp_Energy>
28.8187

> <b_lp_Chiralities_Consistent>
1

> <s_lp_Variant>
AV-unprocessed.smi:1831-4

> <Gold.Version>
5.8.1

> <Gold.Id.Protein>
6NUR|6NUR_protein|mol2

> <Gold.PLP.Fitness>
47.2513

> <Gold.PLP.PLP>
-36.3847

> <Gold.PLP.part.hbond>
-5.7071

> <Gold.PLP.part.metal>
0.0000

> <Gold.PLP.part.buried>
-0.4873

> <Gold.PLP.part.nonpolar>
-32.2456

> <Gold.PLP.part.repulsive>
1.0074

> <Gold.PLP.ligand.clash>
0.0000

> <Gold.PLP.ligand.torsion>
0.8172

> <Gold.PLP.Chemscore.Hbond>
4.1440

> <Gold.PLP.Chemscore.CHOScore>
0.0000

> <Gold.PLP.Chemscore.Metal>
0.0000

> <Gold.Chemscore.Hbonds>
donor molecule, donor type, donor heavy atom, donor atom, acceptor molecule, acceptor atom, score
      L1  H     6    23       P1  7948  0.94
      L1  H     9    24       P1  7948  1.00
      L1  H    14    41       P1 10186  2.00
      P1  H  7989  7998       L1     3  0.10

> <Gold.PLP.Chemscore.Internal.Correction>
0.0689

> <Gold.Rescore>
     Score         DG    S(hbond)    S(metal)    S(lipo)     H(rot)  DE(clash)    DE(int)     intcor
     15.81     -18.98       2.48        0.00      78.28       1.54       1.65       1.51       ----

> <Gold.Chemscore.Fitness>
15.8119

> <Gold.Chemscore.DG>
-18.9750

> <Gold.Chemscore.ZeroCoef>
-5.4800

> <Gold.Chemscore.Hbond>
2.4784

> <Gold.Chemscore.Metal>
0.0000

> <Gold.Chemscore.Lipo>
78.2769

> <Gold.Chemscore.Internal_Hbond>
0.0000

> <Gold.Chemscore.DEClash>
1.6515

> <Gold.Chemscore.DEInternal>
1.5116

> <Gold.Chemscore.Rot>
1.5396

> <Gold.Chemscore.Internal.Correction>
   9.000000E+99

> <Gold.Chemscore.Hbonds>
donor molecule, donor type, donor heavy atom, donor atom, acceptor molecule, acceptor atom, score
      L1  H     6    23       P1  7948  0.91
      L1  H     9    24       P1  7948  0.96
      L1  H    14    41       P1 10186  0.53

> <Gold.Chemscore.Hbond.Weighted>
-8.2779

> <Gold.Chemscore.Metal.Weighted>
-0.0000

> <Gold.Chemscore.Lipo.Weighted>
-9.1584

> <Gold.Chemscore.Internal_Hbond.Weighted>
0.0000

> <Gold.Chemscore.DEClash.Weighted>
1.6515

> <Gold.Chemscore.DEInternal.Weighted>
1.5116

> <Gold.Chemscore.Rot.Weighted>
3.9413

> <Gold.Chemscore.Internal.Correction.Weighted>
   9.000000E+99

> <Gold.Protein.RotatedTorsions>
[ 6907 6896 6895 6894 ] final  -54.05 input  -60.11 | X-H torsion
[ 7974 7965 7964 7962 ] final  -99.97 input  175.53 | X-H torsion
[ 8008 7997 7996 7995 ] final -151.89 input   59.86 | X-H torsion
[ 10167 10162 10161 10158 ] final  -15.32 input  -65.29 | X-H torsion
[ 10718 10713 10712 10709 ] final -178.90 input   66.30 | X-H torsion
[ 10763 10752 10751 10750 ] final  123.91 input  -60.55 | X-H torsion
[ 11005 11000 10999 10996 ] final  164.02 input  -57.11 | X-H torsion

> <Gold.Protein.ActiveResidues>
 VAL166  LYS551  ARG553  GLY616  TRP617  ASP618  TYR619  PRO620  LYS621  CYS622 
 ASP623  PHE694  ASN695  SER759  ASP760  ASP761  ALA762  ILE779  LEU786  VAL792 
 PHE793  MET794  SER795  GLU796  ALA797  LYS798  CYS799  TRP800  GLU811  SER814 

> <Gold.Protein.RotatedAtoms>
  150.8372  134.7650  159.6902 H   0  0  0  0  0  0  0  0  0  0  0  0  # atno 6907 bound_to 6896
  152.4467  134.5477  159.9867 H   0  0  0  0  0  0  0  0  0  0  0  0  # atno 6908 bound_to 6896
  151.5624  133.3363  159.3009 H   0  0  0  0  0  0  0  0  0  0  0  0  # atno 6909 bound_to 6896
  145.3006  140.9376  143.2826 H   0  0  0  0  0  0  0  0  0  0  0  0  # atno 7974 bound_to 7965
  155.6465  140.0707  157.2601 H   0  0  0  0  0  0  0  0  0  0  0  0  # atno 8008 bound_to 7997
  154.4172  140.1741  156.1678 H   0  0  0  0  0  0  0  0  0  0  0  0  # atno 8009 bound_to 7997
  155.9813  140.3353  155.6668 H   0  0  0  0  0  0  0  0  0  0  0  0  # atno 8010 bound_to 7997
  140.7216  143.5230  150.9610 H   0  0  0  0  0  0  0  0  0  0  0  0  # atno 10167 bound_to 10162
  156.8511  130.9719  151.3092 H   0  0  0  0  0  0  0  0  0  0  0  0  # atno 10718 bound_to 10713
  153.6530  135.3359  155.3105 H   0  0  0  0  0  0  0  0  0  0  0  0  # atno 10763 bound_to 10752
  154.8533  135.4345  154.1884 H   0  0  0  0  0  0  0  0  0  0  0  0  # atno 10764 bound_to 10752
  153.2832  135.7010  153.7440 H   0  0  0  0  0  0  0  0  0  0  0  0  # atno 10765 bound_to 10752
  140.2417  134.8046  157.3417 H   0  0  0  0  0  0  0  0  0  0  0  0  # atno 11005 bound_to 11000
  144.9097  139.4545  143.6593 LP  0  0  0  0  0  0  0  0  0  0  0  0  # atno 17320 bound_to 7965
  146.3153  139.7898  142.8988 LP  0  0  0  0  0  0  0  0  0  0  0  0  # atno 17321 bound_to 7965
  139.8948  143.6908  152.3140 LP  0  0  0  0  0  0  0  0  0  0  0  0  # atno 17342 bound_to 10162
  139.7237  144.7597  151.0914 LP  0  0  0  0  0  0  0  0  0  0  0  0  # atno 17343 bound_to 10162
  157.6303  130.8724  149.9261 LP  0  0  0  0  0  0  0  0  0  0  0  0  # atno 17370 bound_to 10713
  156.0827  130.3671  150.0548 LP  0  0  0  0  0  0  0  0  0  0  0  0  # atno 17371 bound_to 10713
  140.1647  134.4685  155.7871 LP  0  0  0  0  0  0  0  0  0  0  0  0  # atno 17394 bound_to 11000
  141.2210  133.6916  156.7604 LP  0  0  0  0  0  0  0  0  0  0  0  0  # atno 17395 bound_to 11000

$$$$
