AV-unprocessed.smi:1838|AV-procd|sdf|7483|dock1
  -GOLD-   22720 9183D 1   1.00000     0.00000
 Structure written by MMmdl.
 35 36  0  0  0  0  0  0  0  0  1 V2000
  151.6159  138.2406  154.5469 C   0  0  0  0  0  0  0  0  0  0  0  0
  150.2673  138.2086  154.0923 O   0  0  0  0  0  0  0  0  0  0  0  0
  149.5132  139.3636  154.1798 C   0  0  0  0  0  0  0  0  0  0  0  0
  150.0838  140.4634  154.7329 N   0  0  0  0  0  0  0  0  0  0  0  0
  149.3518  141.5921  154.8208 C   0  0  0  0  0  0  0  0  0  0  0  0
  148.0242  141.6849  154.3664 C   0  0  0  0  0  0  0  0  0  0  0  0
  147.4296  140.5459  153.7926 C   0  0  0  0  0  0  0  0  0  0  0  0
  148.1848  139.3508  153.6917 C   0  0  0  0  0  0  0  0  0  0  0  0
  147.7002  138.1324  153.1347 N   0  0  0  0  0  0  0  0  0  0  0  0
  146.4388  137.6904  152.9905 C   0  0  0  0  0  0  0  0  0  0  0  0
  145.4212  138.2961  153.3238 O   0  0  0  0  0  0  0  0  0  0  0  0
  146.4195  136.4772  152.4206 N   0  0  0  0  0  0  0  0  0  0  0  0
  145.2202  135.6884  152.1445 C   0  0  1  0  0  0  0  0  0  0  0  0
  145.3476  134.9407  150.8038 C   0  0  0  0  0  0  0  0  0  0  0  0
  144.1744  133.9740  150.6207 C   0  0  0  0  0  0  0  0  0  0  0  0
  144.1168  132.9728  151.7858 C   0  0  0  0  0  0  0  0  0  0  0  0
  144.2800  133.6015  153.0977 N   0  0  0  0  0  0  0  0  0  0  0  0
  144.8414  134.7989  153.3422 C   0  0  0  0  0  0  0  0  0  0  0  0
  145.0152  135.2010  154.4916 O   0  0  0  0  0  0  0  0  0  0  0  0
  152.0644  137.2562  154.4144 H   0  0  0  0  0  0  0  0  0  0  0  0
  151.6737  138.4895  155.6077 H   0  0  0  0  0  0  0  0  0  0  0  0
  152.2123  138.9551  153.9775 H   0  0  0  0  0  0  0  0  0  0  0  0
  149.8390  142.4465  155.2670 H   0  0  0  0  0  0  0  0  0  0  0  0
  147.4731  142.6094  154.4561 H   0  0  0  0  0  0  0  0  0  0  0  0
  146.4116  140.6246  153.4482 H   0  0  0  0  0  0  0  0  0  0  0  0
  148.4201  137.5084  152.7999 H   0  0  0  0  0  0  0  0  0  0  0  0
  147.3028  136.0501  152.1827 H   0  0  0  0  0  0  0  0  0  0  0  0
  144.3806  136.3801  152.0516 H   0  0  0  0  0  0  0  0  0  0  0  0
  145.3767  135.6492  149.9752 H   0  0  0  0  0  0  0  0  0  0  0  0
  146.2859  134.3847  150.7724 H   0  0  0  0  0  0  0  0  0  0  0  0
  143.2426  134.5397  150.5762 H   0  0  0  0  0  0  0  0  0  0  0  0
  144.2611  133.4436  149.6720 H   0  0  0  0  0  0  0  0  0  0  0  0
  143.1739  132.4257  151.7657 H   0  0  0  0  0  0  0  0  0  0  0  0
  144.9101  132.2331  151.6719 H   0  0  0  0  0  0  0  0  0  0  0  0
  144.0002  133.0506  153.8965 H   0  0  0  0  0  0  0  0  0  0  0  0
  1  2  1  0  0  0  0
  1 20  1  0  0  0  0
  1 21  1  0  0  0  0
  1 22  1  0  0  0  0
  2  3  1  0  0  0  0
  3  8  1  0  0  0  0
  3  4  2  0  0  0  0
  4  5  1  0  0  0  0
  5  6  2  0  0  0  0
  5 23  1  0  0  0  0
  6  7  1  0  0  0  0
  6 24  1  0  0  0  0
  7  8  2  0  0  0  0
  7 25  1  0  0  0  0
  8  9  1  0  0  0  0
  9 10  1  0  0  0  0
  9 26  1  0  0  0  0
 10 11  2  0  0  0  0
 10 12  1  0  0  0  0
 12 13  1  0  0  0  0
 12 27  1  0  0  0  0
 13 18  1  0  0  0  0
 13 14  1  0  0  0  0
 13 28  1  0  0  0  0
 14 15  1  0  0  0  0
 14 29  1  0  0  0  0
 14 30  1  0  0  0  0
 15 16  1  0  0  0  0
 15 31  1  0  0  0  0
 15 32  1  0  0  0  0
 16 17  1  0  0  0  0
 16 33  1  0  0  0  0
 16 34  1  0  0  0  0
 17 18  1  0  0  0  0
 17 35  1  0  0  0  0
 18 19  2  0  0  0  0
M  END
> <s_m_source_file>
AV-unprocessed.smi

> <i_m_source_file_index>
1838

> <i_lp_mmshare_version>
43012

> <i_f3d_flags>
0

> <s_epik_input>
W0NIM11PYzFuW2NIXVtjSF1bY0hdYzFbTkhdQyg9TylbTkhdW0NAQEhdMltDSDJdW0NIMl1bQ0gyXVtOSF1DMj1P

> <s_epik_cmdline>
J2VwaWtfcHl0aG9uJywgJy1waCcsICc3LjAnLCAnLXRuJywgJzgnLCAnLW1hJywgJzIwMCcsICctbWV0YWxfYmluZGluZycsICctaW1hZScsICc8aW5maWxlLm1hZT4nLCAnLW9tYWUnLCAnPG91dGZpbGUubWFlPic=

> <r_lp_tautomer_probability>
1

> <r_epik_Ionization_Penalty>
8.30645e-05

> <r_epik_Ionization_Penalty_Charging>
0

> <r_epik_Ionization_Penalty_Neutral>
8.30645e-05

> <r_epik_State_Penalty>
-0

> <r_epik_Charging_Adjusted_Penalty>
0

> <i_epik_Tot_Q>
0

> <i_epik_Tot_abs_Q>
0

> <r_epik_Metal_State_Penalty>
-0

> <b_epik_Metal_Only>
0

> <s_lp_Force_Field>
OPLS_2005

> <r_lp_Energy>
12.0006

> <b_lp_Chiralities_Consistent>
1

> <s_lp_Variant>
AV-unprocessed.smi:1838-2

> <Gold.Version>
5.8.1

> <Gold.Id.Protein>
6NUR|6NUR_protein|mol2

> <Gold.PLP.Fitness>
41.8158

> <Gold.PLP.PLP>
-28.2077

> <Gold.PLP.part.hbond>
-4.0339

> <Gold.PLP.part.metal>
0.0000

> <Gold.PLP.part.buried>
-2.1633

> <Gold.PLP.part.nonpolar>
-24.8670

> <Gold.PLP.part.repulsive>
2.0873

> <Gold.PLP.ligand.clash>
0.0000

> <Gold.PLP.ligand.torsion>
0.4641

> <Gold.PLP.Chemscore.Hbond>
3.8785

> <Gold.PLP.Chemscore.CHOScore>
0.9522

> <Gold.PLP.Chemscore.Metal>
0.0000

> <Gold.Chemscore.Hbonds>
donor molecule, donor type, donor heavy atom, donor atom, acceptor molecule, acceptor atom, score
      L1  H     9    26       P1  7948  1.00
      L1  H    12    27       P1  7948  0.99
      L1  H    17    35       P1 10957  0.93
      P1  H  7989  7998       L1     4  0.94
      L1  C     5    23       P1  8028  0.95

> <Gold.PLP.Chemscore.Internal.Correction>
0.0442

> <Gold.Rescore>
     Score         DG    S(hbond)    S(metal)    S(lipo)     H(rot)  DE(clash)    DE(int)     intcor
     17.18     -19.14       3.10        0.00      57.28       1.33       0.61       1.35       ----

> <Gold.Chemscore.Fitness>
17.1752

> <Gold.Chemscore.DG>
-19.1380

> <Gold.Chemscore.ZeroCoef>
-5.4800

> <Gold.Chemscore.Hbond>
3.1015

> <Gold.Chemscore.Metal>
0.0000

> <Gold.Chemscore.Lipo>
57.2778

> <Gold.Chemscore.Internal_Hbond>
0.0000

> <Gold.Chemscore.DEClash>
0.6120

> <Gold.Chemscore.DEInternal>
1.3508

> <Gold.Chemscore.Rot>
1.3292

> <Gold.Chemscore.Internal.Correction>
   9.000000E+99

> <Gold.Chemscore.Hbonds>
donor molecule, donor type, donor heavy atom, donor atom, acceptor molecule, acceptor atom, score
      L1  H     9    26       P1  7948  0.97
      L1  H    12    27       P1  7948  0.93
      L1  H    17    35       P1 10957  0.82
      P1  H  7989  7998       L1     4  0.21

> <Gold.Chemscore.Hbond.Weighted>
-10.3592

> <Gold.Chemscore.Metal.Weighted>
-0.0000

> <Gold.Chemscore.Lipo.Weighted>
-6.7015

> <Gold.Chemscore.Internal_Hbond.Weighted>
0.0000

> <Gold.Chemscore.DEClash.Weighted>
0.6120

> <Gold.Chemscore.DEInternal.Weighted>
1.3508

> <Gold.Chemscore.Rot.Weighted>
3.4027

> <Gold.Chemscore.Internal.Correction.Weighted>
   9.000000E+99

> <Gold.Protein.RotatedTorsions>
[ 6907 6896 6895 6894 ] final  -41.45 input  -60.11 | X-H torsion
[ 7974 7965 7964 7962 ] final  163.59 input  175.53 | X-H torsion
[ 8008 7997 7996 7995 ] final  -23.61 input   59.86 | X-H torsion
[ 10167 10162 10161 10158 ] final  111.21 input  -65.29 | X-H torsion
[ 10718 10713 10712 10709 ] final -101.42 input   66.30 | X-H torsion
[ 10763 10752 10751 10750 ] final  175.38 input  -60.55 | X-H torsion
[ 11005 11000 10999 10996 ] final   64.86 input  -57.11 | X-H torsion

> <Gold.Protein.ActiveResidues>
 VAL166  LYS551  ARG553  GLY616  TRP617  ASP618  TYR619  PRO620  LYS621  CYS622 
 ASP623  PHE694  ASN695  SER759  ASP760  ASP761  ALA762  ILE779  LEU786  VAL792 
 PHE793  MET794  SER795  GLU796  ALA797  LYS798  CYS799  TRP800  GLU811  SER814 

> <Gold.Protein.RotatedAtoms>
  150.9666  134.9046  159.7762 H   0  0  0  0  0  0  0  0  0  0  0  0  # atno 6907 bound_to 6896
  152.5175  134.3599  159.9291 H   0  0  0  0  0  0  0  0  0  0  0  0  # atno 6908 bound_to 6896
  151.3609  133.3849  159.2724 H   0  0  0  0  0  0  0  0  0  0  0  0  # atno 6909 bound_to 6896
  144.7583  139.8204  143.6342 H   0  0  0  0  0  0  0  0  0  0  0  0  # atno 7974 bound_to 7965
  154.4575  140.1976  156.0337 H   0  0  0  0  0  0  0  0  0  0  0  0  # atno 8008 bound_to 7997
  156.0776  140.3276  155.7625 H   0  0  0  0  0  0  0  0  0  0  0  0  # atno 8009 bound_to 7997
  155.5164  140.0566  157.2905 H   0  0  0  0  0  0  0  0  0  0  0  0  # atno 8010 bound_to 7997
  139.6629  144.7128  151.1831 H   0  0  0  0  0  0  0  0  0  0  0  0  # atno 10167 bound_to 10162
  156.0194  130.5372  150.6960 H   0  0  0  0  0  0  0  0  0  0  0  0  # atno 10718 bound_to 10713
  154.4668  135.2769  155.1672 H   0  0  0  0  0  0  0  0  0  0  0  0  # atno 10763 bound_to 10752
  154.3438  135.6164  153.5613 H   0  0  0  0  0  0  0  0  0  0  0  0  # atno 10764 bound_to 10752
  152.9860  135.5795  154.5041 H   0  0  0  0  0  0  0  0  0  0  0  0  # atno 10765 bound_to 10752
  139.9932  134.6559  156.0055 H   0  0  0  0  0  0  0  0  0  0  0  0  # atno 11005 bound_to 11000
  146.1618  139.4735  142.9983 LP  0  0  0  0  0  0  0  0  0  0  0  0  # atno 17320 bound_to 7965
  145.6705  141.0218  143.1660 LP  0  0  0  0  0  0  0  0  0  0  0  0  # atno 17321 bound_to 7965
  140.7587  143.5966  150.8742 LP  0  0  0  0  0  0  0  0  0  0  0  0  # atno 17342 bound_to 10162
  139.9624  143.6148  152.2998 LP  0  0  0  0  0  0  0  0  0  0  0  0  # atno 17343 bound_to 10162
  157.4631  131.0885  151.0724 LP  0  0  0  0  0  0  0  0  0  0  0  0  # atno 17370 bound_to 10713
  157.1206  130.6060  149.5504 LP  0  0  0  0  0  0  0  0  0  0  0  0  # atno 17371 bound_to 10713
  141.1583  133.6541  156.4233 LP  0  0  0  0  0  0  0  0  0  0  0  0  # atno 17394 bound_to 11000
  140.4869  134.6612  157.5194 LP  0  0  0  0  0  0  0  0  0  0  0  0  # atno 17395 bound_to 11000

$$$$
