AV-unprocessed.smi:2999|AV-procd|sdf|11418|dock2
  -GOLD-   2272016343D 1   1.00000     0.00000
 Structure written by MMmdl.
 37 39  0  0  0  0  0  0  0  0  1 V2000
  144.7034  137.2068  152.0226 O   0  0  0  0  0  0  0  0  0  0  0  0
  145.8995  136.9169  151.9772 C   0  0  0  0  0  0  0  0  0  0  0  0
  146.8819  137.7747  152.2878 N   0  0  0  0  0  0  0  0  0  0  0  0
  146.6944  139.1497  152.7416 C   0  0  0  0  0  0  0  0  0  0  0  0
  147.5780  139.4868  153.9554 C   0  0  1  0  0  0  0  0  0  0  0  0
  149.0449  139.0293  153.7983 C   0  0  0  0  0  0  0  0  0  0  0  0
  149.8686  139.4400  154.9290 N   0  0  0  0  0  0  0  0  0  0  0  0
  151.2496  139.0179  154.7488 C   0  0  0  0  0  0  0  0  0  0  0  0
  151.7039  137.7049  155.3319 C   0  0  0  0  0  0  0  0  0  0  0  0
  152.1827  139.0142  155.9319 C   0  0  0  0  0  0  0  0  0  0  0  0
  149.7780  140.8868  155.0755 C   0  0  0  0  0  0  0  0  0  0  0  0
  148.3211  141.3491  155.2390 C   0  0  0  0  0  0  0  0  0  0  0  0
  147.5548  140.9026  154.1247 O   0  0  0  0  0  0  0  0  0  0  0  0
  146.3969  135.7222  151.6129 N   0  0  0  0  0  0  0  0  0  0  0  0
  145.6863  134.5477  151.2516 C   0  0  0  0  0  0  0  0  0  0  0  0
  144.3878  134.5193  150.9293 N   0  0  0  0  0  0  0  0  0  0  0  0
  143.9512  133.2274  150.6252 C   0  0  0  0  0  0  0  0  0  0  0  0
  144.9377  132.2774  150.7215 C   0  0  0  0  0  0  0  0  0  0  0  0
  146.4638  132.9724  151.1983 S   0  0  0  0  0  0  0  0  0  0  0  0
  147.8350  137.4495  152.2163 H   0  0  0  0  0  0  0  0  0  0  0  0
  146.8677  139.8619  151.9332 H   0  0  0  0  0  0  0  0  0  0  0  0
  145.6455  139.2574  153.0190 H   0  0  0  0  0  0  0  0  0  0  0  0
  147.1458  139.0260  154.8456 H   0  0  0  0  0  0  0  0  0  0  0  0
  149.0829  137.9441  153.7019 H   0  0  0  0  0  0  0  0  0  0  0  0
  149.4550  139.4375  152.8729 H   0  0  0  0  0  0  0  0  0  0  0  0
  151.6515  139.3144  153.7810 H   0  0  0  0  0  0  0  0  0  0  0  0
  150.9820  137.1249  155.9041 H   0  0  0  0  0  0  0  0  0  0  0  0
  152.4215  137.1224  154.7581 H   0  0  0  0  0  0  0  0  0  0  0  0
  153.2172  139.3011  155.7551 H   0  0  0  0  0  0  0  0  0  0  0  0
  151.7773  139.2999  156.9007 H   0  0  0  0  0  0  0  0  0  0  0  0
  150.3602  141.2075  155.9403 H   0  0  0  0  0  0  0  0  0  0  0  0
  150.2161  141.3774  154.2050 H   0  0  0  0  0  0  0  0  0  0  0  0
  147.8925  140.9609  156.1642 H   0  0  0  0  0  0  0  0  0  0  0  0
  148.2715  142.4365  155.2932 H   0  0  0  0  0  0  0  0  0  0  0  0
  147.4026  135.6369  151.6118 H   0  0  0  0  0  0  0  0  0  0  0  0
  142.9184  133.0733  150.3502 H   0  0  0  0  0  0  0  0  0  0  0  0
  144.8594  131.2154  150.5413 H   0  0  0  0  0  0  0  0  0  0  0  0
  1  2  2  0  0  0  0
  2  3  1  0  0  0  0
  2 14  1  0  0  0  0
  3  4  1  0  0  0  0
  3 20  1  0  0  0  0
  4  5  1  0  0  0  0
  4 21  1  0  0  0  0
  4 22  1  0  0  0  0
  5 13  1  0  0  0  0
  5  6  1  0  0  0  0
  5 23  1  0  0  0  0
  6  7  1  0  0  0  0
  6 24  1  0  0  0  0
  6 25  1  0  0  0  0
  7  8  1  0  0  0  0
  7 11  1  0  0  0  0
  8 10  1  0  0  0  0
  8  9  1  0  0  0  0
  8 26  1  0  0  0  0
  9 10  1  0  0  0  0
  9 27  1  0  0  0  0
  9 28  1  0  0  0  0
 10 29  1  0  0  0  0
 10 30  1  0  0  0  0
 11 12  1  0  0  0  0
 11 31  1  0  0  0  0
 11 32  1  0  0  0  0
 12 13  1  0  0  0  0
 12 33  1  0  0  0  0
 12 34  1  0  0  0  0
 14 15  1  0  0  0  0
 14 35  1  0  0  0  0
 15 19  1  0  0  0  0
 15 16  2  0  0  0  0
 16 17  1  0  0  0  0
 17 18  2  0  0  0  0
 17 36  1  0  0  0  0
 18 19  1  0  0  0  0
 18 37  1  0  0  0  0
M  END
> <s_m_source_file>
AV-unprocessed.smi

> <i_m_source_file_index>
2999

> <i_lp_mmshare_version>
43012

> <i_f3d_flags>
0

> <s_epik_input>
czFbY0hdW2NIXW5jMVtOSF1DKD1PKVtOSF1bQ0gyXVtDQEBIXTJbQ0gyXU4oW0NIMl1bQ0gyXU8yKVtDSF0zW0NIMl1bQ0gyXTM=

> <s_epik_cmdline>
J2VwaWtfcHl0aG9uJywgJy1waCcsICc3LjAnLCAnLXRuJywgJzgnLCAnLW1hJywgJzIwMCcsICctbWV0YWxfYmluZGluZycsICctaW1hZScsICc8aW5maWxlLm1hZT4nLCAnLW9tYWUnLCAnPG91dGZpbGUubWFlPic=

> <r_lp_tautomer_probability>
0.999

> <r_epik_Ionization_Penalty>
0.0449352

> <r_epik_Ionization_Penalty_Charging>
0

> <r_epik_Ionization_Penalty_Neutral>
0.0449352

> <r_epik_State_Penalty>
0.0379856

> <r_epik_Charging_Adjusted_Penalty>
0.0379856

> <i_epik_Tot_Q>
0

> <i_epik_Tot_abs_Q>
0

> <r_epik_Metal_State_Penalty>
0.0775629

> <b_epik_Metal_Only>
0

> <s_lp_Force_Field>
OPLS_2005

> <r_lp_Energy>
30.84

> <b_lp_Chiralities_Consistent>
1

> <s_lp_Variant>
AV-unprocessed.smi:2999-2

> <Gold.Version>
5.8.1

> <Gold.Id.Protein>
6NUR|6NUR_protein|mol2

> <Gold.PLP.Fitness>
39.3086

> <Gold.PLP.PLP>
-30.7852

> <Gold.PLP.part.hbond>
-2.0000

> <Gold.PLP.part.metal>
0.0000

> <Gold.PLP.part.buried>
-3.0900

> <Gold.PLP.part.nonpolar>
-27.9476

> <Gold.PLP.part.repulsive>
2.1048

> <Gold.PLP.ligand.clash>
0.0000

> <Gold.PLP.ligand.torsion>
0.7953

> <Gold.PLP.Chemscore.Hbond>
2.0000

> <Gold.PLP.Chemscore.CHOScore>
1.0000

> <Gold.PLP.Chemscore.Metal>
0.0000

> <Gold.Chemscore.Hbonds>
donor molecule, donor type, donor heavy atom, donor atom, acceptor molecule, acceptor atom, score
      L1  H     3    20       P1  7948  1.00
      L1  H    14    35       P1  7948  1.00
      L1  C    17    36       P1 10186  1.00

> <Gold.PLP.Chemscore.Internal.Correction>
1.1139

> <Gold.Rescore>
     Score         DG    S(hbond)    S(metal)    S(lipo)     H(rot)  DE(clash)    DE(int)     intcor
     14.62     -16.86       1.96        0.00      75.18       1.55       0.24       2.01       ----

> <Gold.Chemscore.Fitness>
14.6165

> <Gold.Chemscore.DG>
-16.8612

> <Gold.Chemscore.ZeroCoef>
-5.4800

> <Gold.Chemscore.Hbond>
1.9592

> <Gold.Chemscore.Metal>
0.0000

> <Gold.Chemscore.Lipo>
75.1789

> <Gold.Chemscore.Internal_Hbond>
0.0000

> <Gold.Chemscore.DEClash>
0.2387

> <Gold.Chemscore.DEInternal>
2.0060

> <Gold.Chemscore.Rot>
1.5463

> <Gold.Chemscore.Internal.Correction>
   9.000000E+99

> <Gold.Chemscore.Hbonds>
donor molecule, donor type, donor heavy atom, donor atom, acceptor molecule, acceptor atom, score
      L1  H     3    20       P1  7948  0.95
      L1  H    14    35       P1  7948  0.96

> <Gold.Chemscore.Hbond.Weighted>
-6.5437

> <Gold.Chemscore.Metal.Weighted>
-0.0000

> <Gold.Chemscore.Lipo.Weighted>
-8.7959

> <Gold.Chemscore.Internal_Hbond.Weighted>
0.0000

> <Gold.Chemscore.DEClash.Weighted>
0.2387

> <Gold.Chemscore.DEInternal.Weighted>
2.0060

> <Gold.Chemscore.Rot.Weighted>
3.9584

> <Gold.Chemscore.Internal.Correction.Weighted>
   9.000000E+99

> <Gold.Protein.RotatedTorsions>
[ 6907 6896 6895 6894 ] final -166.17 input  -60.11 | X-H torsion
[ 7974 7965 7964 7962 ] final  -44.05 input  175.53 | X-H torsion
[ 8008 7997 7996 7995 ] final   17.81 input   59.86 | X-H torsion
[ 10167 10162 10161 10158 ] final   24.79 input  -65.29 | X-H torsion
[ 10718 10713 10712 10709 ] final  -40.08 input   66.30 | X-H torsion
[ 10763 10752 10751 10750 ] final   66.92 input  -60.55 | X-H torsion
[ 11005 11000 10999 10996 ] final  142.25 input  -57.11 | X-H torsion

> <Gold.Protein.ActiveResidues>
 VAL166  LYS551  ARG553  GLY616  TRP617  ASP618  TYR619  PRO620  LYS621  CYS622 
 ASP623  PHE694  ASN695  SER759  ASP760  ASP761  ALA762  ILE779  LEU786  VAL792 
 PHE793  MET794  SER795  GLU796  ALA797  LYS798  CYS799  TRP800  GLU811  SER814 

> <Gold.Protein.RotatedAtoms>
  151.4393  133.3648  159.2779 H   0  0  0  0  0  0  0  0  0  0  0  0  # atno 6907 bound_to 6896
  150.9169  134.8588  159.7473 H   0  0  0  0  0  0  0  0  0  0  0  0  # atno 6908 bound_to 6896
  152.4962  134.4327  159.9569 H   0  0  0  0  0  0  0  0  0  0  0  0  # atno 6909 bound_to 6896
  145.9959  140.7129  142.9294 H   0  0  0  0  0  0  0  0  0  0  0  0  # atno 7974 bound_to 7965
  154.8968  140.2995  155.5340 H   0  0  0  0  0  0  0  0  0  0  0  0  # atno 8008 bound_to 7997
  156.3019  140.2414  156.3925 H   0  0  0  0  0  0  0  0  0  0  0  0  # atno 8009 bound_to 7997
  154.8562  140.0407  157.1625 H   0  0  0  0  0  0  0  0  0  0  0  0  # atno 8010 bound_to 7997
  140.5159  144.0083  150.6394 H   0  0  0  0  0  0  0  0  0  0  0  0  # atno 10167 bound_to 10162
  156.2853  130.4222  149.8294 H   0  0  0  0  0  0  0  0  0  0  0  0  # atno 10718 bound_to 10713
  153.0162  135.5303  154.6899 H   0  0  0  0  0  0  0  0  0  0  0  0  # atno 10763 bound_to 10752
  154.6036  135.2871  155.0511 H   0  0  0  0  0  0  0  0  0  0  0  0  # atno 10764 bound_to 10752
  154.1559  135.6555  153.5027 H   0  0  0  0  0  0  0  0  0  0  0  0  # atno 10765 bound_to 10752
  140.0463  134.9279  157.0935 H   0  0  0  0  0  0  0  0  0  0  0  0  # atno 11005 bound_to 11000
  144.6903  140.3150  143.7242 LP  0  0  0  0  0  0  0  0  0  0  0  0  # atno 17320 bound_to 7965
  145.7560  139.1809  143.2294 LP  0  0  0  0  0  0  0  0  0  0  0  0  # atno 17321 bound_to 7965
  140.3419  143.3015  152.0579 LP  0  0  0  0  0  0  0  0  0  0  0  0  # atno 17342 bound_to 10162
  139.4909  144.6436  151.6824 LP  0  0  0  0  0  0  0  0  0  0  0  0  # atno 17343 bound_to 10162
  156.5726  130.8431  151.3361 LP  0  0  0  0  0  0  0  0  0  0  0  0  # atno 17370 bound_to 10713
  157.7327  130.9719  150.1940 LP  0  0  0  0  0  0  0  0  0  0  0  0  # atno 17371 bound_to 10713
  140.3989  134.2104  155.7164 LP  0  0  0  0  0  0  0  0  0  0  0  0  # atno 17394 bound_to 11000
  141.1908  133.8208  157.0903 LP  0  0  0  0  0  0  0  0  0  0  0  0  # atno 17395 bound_to 11000

$$$$
