AV-unprocessed.smi:62|AV-procd|sdf|604|dock7
  -GOLD-   2262016493D 1   1.00000     0.00000
 Structure written by MMmdl.
 31 32  0  0  0  0  0  0  0  0  3 V2000
  148.1141  140.9712  154.0911 C   0  0  0  0  0  0  0  0  0  0  0  0
  149.0073  139.8812  154.4205 N   0  0  0  0  0  0  0  0  0  0  0  0
  148.6957  138.6102  154.8425 C   0  0  0  0  0  0  0  0  0  0  0  0
  149.8645  137.9245  155.0319 C   0  0  0  0  0  0  0  0  0  0  0  0
  149.9591  136.4827  155.4801 C   0  0  0  0  0  0  0  0  0  0  0  0
  149.1205  135.6043  154.6306 N   0  3  2  0  0  0  0  0  0  0  0  0
  147.6911  135.5471  155.0174 C   0  0  0  0  0  0  0  0  0  0  0  0
  147.2297  134.0981  154.8002 C   0  0  0  0  0  0  0  0  0  0  0  0
  148.3588  133.4512  153.9993 C   0  0  2  0  0  0  0  0  0  0  0  0
  148.4509  132.0631  154.2407 O   0  0  0  0  0  0  0  0  0  0  0  0
  149.5897  134.2117  154.4825 C   0  0  0  0  0  0  0  0  0  0  0  0
  150.8666  138.9019  154.6997 C   0  0  0  0  0  0  0  0  0  0  0  0
  152.3447  138.6214  154.7637 C   0  0  0  0  0  0  0  0  0  0  0  0
  153.1627  139.5643  154.8181 O   0  0  0  0  0  0  0  0  0  0  0  0
  152.7118  137.4261  154.7588 O   0  5  0  0  0  0  0  0  0  0  0  0
  150.3367  140.0605  154.3300 N   0  0  0  0  0  0  0  0  0  0  0  0
  147.0965  140.5977  153.9729 H   0  0  0  0  0  0  0  0  0  0  0  0
  148.4282  141.4426  153.1591 H   0  0  0  0  0  0  0  0  0  0  0  0
  148.1304  141.7124  154.8905 H   0  0  0  0  0  0  0  0  0  0  0  0
  147.6704  138.2948  154.9695 H   0  0  0  0  0  0  0  0  0  0  0  0
  150.9780  136.1028  155.5282 H   0  0  0  0  0  0  0  0  0  0  0  0
  149.5858  136.4016  156.5018 H   0  0  0  0  0  0  0  0  0  0  0  0
  147.5438  135.8365  156.0592 H   0  0  0  0  0  0  0  0  0  0  0  0
  147.1268  136.2428  154.3960 H   0  0  0  0  0  0  0  0  0  0  0  0
  147.1271  133.6076  155.7698 H   0  0  0  0  0  0  0  0  0  0  0  0
  146.2665  134.0322  154.2935 H   0  0  0  0  0  0  0  0  0  0  0  0
  148.2080  133.6288  152.9335 H   0  0  0  0  0  0  0  0  0  0  0  0
  149.2319  131.7332  153.8224 H   0  0  0  0  0  0  0  0  0  0  0  0
  150.4349  134.1324  153.7978 H   0  0  0  0  0  0  0  0  0  0  0  0
  149.8968  133.8256  155.4552 H   0  0  0  0  0  0  0  0  0  0  0  0
  149.1337  135.9995  153.7015 H   0  0  0  0  0  0  0  0  0  0  0  0
  1  2  1  0  0  0  0
  1 17  1  0  0  0  0
  1 18  1  0  0  0  0
  1 19  1  0  0  0  0
  2 16  1  0  0  0  0
  2  3  1  0  0  0  0
  3  4  2  0  0  0  0
  3 20  1  0  0  0  0
  4  5  1  0  0  0  0
  4 12  1  0  0  0  0
  5  6  1  0  0  0  0
  5 21  1  0  0  0  0
  5 22  1  0  0  0  0
  6 11  1  0  0  0  0
  6  7  1  0  0  0  0
  6 31  1  0  0  0  0
  7  8  1  0  0  0  0
  7 23  1  0  0  0  0
  7 24  1  0  0  0  0
  8  9  1  0  0  0  0
  8 25  1  0  0  0  0
  8 26  1  0  0  0  0
  9 10  1  0  0  0  0
  9 11  1  0  0  0  0
  9 27  1  0  0  0  0
 10 28  1  0  0  0  0
 11 29  1  0  0  0  0
 11 30  1  0  0  0  0
 12 13  1  0  0  0  0
 12 16  2  0  0  0  0
 13 14  2  0  0  0  0
 13 15  1  0  0  0  0
M  CHG  1   6   1
M  CHG  1  15  -1
M  END
> <s_m_source_file>
AV-unprocessed.smi

> <i_m_source_file_index>
62

> <i_lp_mmshare_version>
43012

> <i_f3d_flags>
0

> <s_epik_input>
W0NIM11uMVtjSF1jKGMobjEpQyg9TylbT0hdKVtDSDJdTjJbQ0gyXVtDSDJdW0NAQEhdKFtPSF0pW0NIMl0y

> <s_epik_cmdline>
J2VwaWtfcHl0aG9uJywgJy1waCcsICc3LjAnLCAnLXRuJywgJzgnLCAnLW1hJywgJzIwMCcsICctbWV0YWxfYmluZGluZycsICctaW1hZScsICc8aW5maWxlLm1hZT4nLCAnLW9tYWUnLCAnPG91dGZpbGUubWFlPic=

> <r_epik_Ionization_Penalty>
0.0522993

> <r_epik_Ionization_Penalty_Charging>
0.0522915

> <r_epik_Ionization_Penalty_Neutral>
7.84975e-06

> <r_epik_State_Penalty>
0.0448084

> <r_epik_Charging_Adjusted_Penalty>
0.0970998

> <i_epik_Tot_Q>
0

> <i_epik_Tot_abs_Q>
2

> <r_epik_Metal_State_Penalty>
0.0448097

> <b_epik_Metal_Only>
0

> <s_lp_Force_Field>
OPLS_2005

> <r_lp_Energy>
19.3538

> <b_lp_Chiralities_Consistent>
1

> <s_lp_Variant>
AV-unprocessed.smi:62-4

> <Gold.Version>
5.8.1

> <Gold.Id.Protein>
6NUR|6NUR_protein|mol2

> <Gold.PLP.Fitness>
45.0112

> <Gold.PLP.PLP>
-28.5641

> <Gold.PLP.part.hbond>
-4.7895

> <Gold.PLP.part.metal>
0.0000

> <Gold.PLP.part.buried>
-5.6674

> <Gold.PLP.part.nonpolar>
-19.4240

> <Gold.PLP.part.repulsive>
0.2342

> <Gold.PLP.ligand.clash>
0.0000

> <Gold.PLP.ligand.torsion>
0.5295

> <Gold.PLP.Chemscore.Hbond>
5.8320

> <Gold.PLP.Chemscore.CHOScore>
0.0000

> <Gold.PLP.Chemscore.Metal>
0.0000

> <Gold.Chemscore.Hbonds>
donor molecule, donor type, donor heavy atom, donor atom, acceptor molecule, acceptor atom, score
      L1  H     6    31       P1  7948  2.00
      P1  H  7989  7998       L1    16  1.00
      P1  H  7997  8010       L1    14  2.00
      P1  H 10752 10765       L1    15  0.96

> <Gold.PLP.Chemscore.Internal.Correction>
0.0102

> <Gold.Rescore>
     Score         DG    S(hbond)    S(metal)    S(lipo)     H(rot)  DE(clash)    DE(int)     intcor
     16.09     -17.00       3.34        0.00      42.82       1.81       0.00       0.91       ----

> <Gold.Chemscore.Fitness>
16.0902

> <Gold.Chemscore.DG>
-17.0007

> <Gold.Chemscore.ZeroCoef>
-5.4800

> <Gold.Chemscore.Hbond>
3.3358

> <Gold.Chemscore.Metal>
0.0000

> <Gold.Chemscore.Lipo>
42.8237

> <Gold.Chemscore.Internal_Hbond>
0.0000

> <Gold.Chemscore.DEClash>
0.0004

> <Gold.Chemscore.DEInternal>
0.9101

> <Gold.Chemscore.Rot>
1.8091

> <Gold.Chemscore.Internal.Correction>
   9.000000E+99

> <Gold.Chemscore.Hbonds>
donor molecule, donor type, donor heavy atom, donor atom, acceptor molecule, acceptor atom, score
      L1  H     6    31       P1  7948  0.90
      P1  H  7989  7998       L1    16  0.49
      P1  H  7997  8010       L1    14  1.00
      P1  H 10752 10765       L1    15  0.48

> <Gold.Chemscore.Hbond.Weighted>
-11.1417

> <Gold.Chemscore.Metal.Weighted>
-0.0000

> <Gold.Chemscore.Lipo.Weighted>
-5.0104

> <Gold.Chemscore.Internal_Hbond.Weighted>
0.0000

> <Gold.Chemscore.DEClash.Weighted>
0.0004

> <Gold.Chemscore.DEInternal.Weighted>
0.9101

> <Gold.Chemscore.Rot.Weighted>
4.6314

> <Gold.Chemscore.Internal.Correction.Weighted>
   9.000000E+99

> <Gold.Protein.RotatedTorsions>
[ 6907 6896 6895 6894 ] final  -97.65 input  -60.11 | X-H torsion
[ 7974 7965 7964 7962 ] final  -83.85 input  175.53 | X-H torsion
[ 8008 7997 7996 7995 ] final  108.29 input   59.86 | X-H torsion
[ 10167 10162 10161 10158 ] final -165.46 input  -65.29 | X-H torsion
[ 10718 10713 10712 10709 ] final  -97.05 input   66.30 | X-H torsion
[ 10763 10752 10751 10750 ] final  163.19 input  -60.55 | X-H torsion
[ 11005 11000 10999 10996 ] final -125.47 input  -57.11 | X-H torsion

> <Gold.Protein.ActiveResidues>
 VAL166  LYS551  ARG553  GLY616  TRP617  ASP618  TYR619  PRO620  LYS621  CYS622 
 ASP623  PHE694  ASN695  SER759  ASP760  ASP761  ALA762  ILE779  LEU786  VAL792 
 PHE793  MET794  SER795  GLU796  ALA797  LYS798  CYS799  TRP800  GLU811  SER814 

> <Gold.Protein.RotatedAtoms>
  150.7022  134.1316  159.4071 H   0  0  0  0  0  0  0  0  0  0  0  0  # atno 6907 bound_to 6896
  151.9302  135.0258  160.0538 H   0  0  0  0  0  0  0  0  0  0  0  0  # atno 6908 bound_to 6896
  152.2182  133.4928  159.5184 H   0  0  0  0  0  0  0  0  0  0  0  0  # atno 6909 bound_to 6896
  145.5145  140.9537  143.1689 H   0  0  0  0  0  0  0  0  0  0  0  0  # atno 7974 bound_to 7965
  156.1892  140.3079  155.9298 H   0  0  0  0  0  0  0  0  0  0  0  0  # atno 8008 bound_to 7997
  155.3213  140.0456  157.3056 H   0  0  0  0  0  0  0  0  0  0  0  0  # atno 8009 bound_to 7997
  154.5431  140.2268  155.8617 H   0  0  0  0  0  0  0  0  0  0  0  0  # atno 8010 bound_to 7997
  139.6181  144.0679  152.1907 H   0  0  0  0  0  0  0  0  0  0  0  0  # atno 10167 bound_to 10162
  156.0075  130.5177  150.6317 H   0  0  0  0  0  0  0  0  0  0  0  0  # atno 10718 bound_to 10713
  154.2899  135.2761  155.2659 H   0  0  0  0  0  0  0  0  0  0  0  0  # atno 10763 bound_to 10752
  154.5143  135.5774  153.6633 H   0  0  0  0  0  0  0  0  0  0  0  0  # atno 10764 bound_to 10752
  152.9916  135.6189  154.3063 H   0  0  0  0  0  0  0  0  0  0  0  0  # atno 10765 bound_to 10752
  140.9759  134.0740  157.3818 H   0  0  0  0  0  0  0  0  0  0  0  0  # atno 11005 bound_to 11000
  144.7709  139.6737  143.7195 LP  0  0  0  0  0  0  0  0  0  0  0  0  # atno 17320 bound_to 7965
  146.2145  139.5525  142.9659 LP  0  0  0  0  0  0  0  0  0  0  0  0  # atno 17321 bound_to 7965
  140.0315  144.6077  150.7484 LP  0  0  0  0  0  0  0  0  0  0  0  0  # atno 17342 bound_to 10162
  140.7364  143.2752  151.3762 LP  0  0  0  0  0  0  0  0  0  0  0  0  # atno 17343 bound_to 10162
  157.4114  131.0824  151.1217 LP  0  0  0  0  0  0  0  0  0  0  0  0  # atno 17370 bound_to 10713
  157.1848  130.6325  149.5684 LP  0  0  0  0  0  0  0  0  0  0  0  0  # atno 17371 bound_to 10713
  139.8930  135.0128  156.6878 LP  0  0  0  0  0  0  0  0  0  0  0  0  # atno 17394 bound_to 11000
  140.7259  133.9101  155.8178 LP  0  0  0  0  0  0  0  0  0  0  0  0  # atno 17395 bound_to 11000

$$$$
