AV-unprocessed.smi:107|AV-procd|sdf|1020|dock2
  -GOLD-   2262018 23D 1   1.00000     0.00000
 Structure written by MMmdl.
 31 32  0  0  0  0  0  0  0  0  1 V2000
  150.5992  144.1279  158.5181 C   0  0  0  0  0  0  0  0  0  0  0  0
  151.0894  142.8213  157.9158 C   0  0  0  0  0  0  0  0  0  0  0  0
  150.6075  142.3340  156.7434 C   0  0  0  0  0  0  0  0  0  0  0  0
  151.0333  141.1402  156.1709 N   0  0  0  0  0  0  0  0  0  0  0  0
  150.4893  140.6179  154.8536 C   0  0  1  0  0  0  0  0  0  0  0  0
  149.8218  139.2413  155.0410 C   0  0  0  0  0  0  0  0  0  0  0  0
  148.4229  139.4501  154.4861 C   0  0  2  0  0  0  0  0  0  0  0  0
  148.3603  139.0561  153.1276 O   0  0  0  0  0  0  0  0  0  0  0  0
  148.2139  140.9583  154.6571 C   0  0  2  0  0  0  0  0  0  0  0  0
  147.1391  141.5889  153.7557 C   0  0  0  0  0  0  0  0  0  0  0  0
  145.8591  141.1389  154.1455 O   0  0  0  0  0  0  0  0  0  0  0  0
  149.5052  141.4807  154.3639 O   0  0  0  0  0  0  0  0  0  0  0  0
  152.0412  140.3920  156.8143 C   0  0  0  0  0  0  0  0  0  0  0  0
  152.4840  139.3399  156.3548 O   0  0  0  0  0  0  0  0  0  0  0  0
  152.5333  140.8900  158.0187 N   0  0  0  0  0  0  0  0  0  0  0  0
  152.1221  142.0726  158.6371 C   0  0  0  0  0  0  0  0  0  0  0  0
  152.6304  142.4077  159.7057 O   0  0  0  0  0  0  0  0  0  0  0  0
  153.2503  140.3518  158.4828 H   0  0  0  0  0  0  0  0  0  0  0  0
  149.8622  144.6168  157.8803 H   0  0  0  0  0  0  0  0  0  0  0  0
  151.4303  144.8200  158.6578 H   0  0  0  0  0  0  0  0  0  0  0  0
  150.1357  143.9482  159.4885 H   0  0  0  0  0  0  0  0  0  0  0  0
  149.8540  142.9224  156.2428 H   0  0  0  0  0  0  0  0  0  0  0  0
  151.3388  140.6125  154.1682 H   0  0  0  0  0  0  0  0  0  0  0  0
  150.3852  138.4591  154.5307 H   0  0  0  0  0  0  0  0  0  0  0  0
  149.7688  138.9928  156.1021 H   0  0  0  0  0  0  0  0  0  0  0  0
  147.6802  138.8768  155.0420 H   0  0  0  0  0  0  0  0  0  0  0  0
  148.9699  139.5813  152.6322 H   0  0  0  0  0  0  0  0  0  0  0  0
  147.9799  141.1479  155.7064 H   0  0  0  0  0  0  0  0  0  0  0  0
  147.1824  142.6780  153.7849 H   0  0  0  0  0  0  0  0  0  0  0  0
  147.2906  141.2829  152.7201 H   0  0  0  0  0  0  0  0  0  0  0  0
  145.3773  140.8937  153.3703 H   0  0  0  0  0  0  0  0  0  0  0  0
  1  2  1  0  0  0  0
  1 19  1  0  0  0  0
  1 20  1  0  0  0  0
  1 21  1  0  0  0  0
  2 16  1  0  0  0  0
  2  3  2  0  0  0  0
  3  4  1  0  0  0  0
  3 22  1  0  0  0  0
  4  5  1  0  0  0  0
  4 13  1  0  0  0  0
  5 12  1  0  0  0  0
  5  6  1  0  0  0  0
  5 23  1  0  0  0  0
  6  7  1  0  0  0  0
  6 24  1  0  0  0  0
  6 25  1  0  0  0  0
  7  8  1  0  0  0  0
  7  9  1  0  0  0  0
  7 26  1  0  0  0  0
  8 27  1  0  0  0  0
  9 10  1  0  0  0  0
  9 12  1  0  0  0  0
  9 28  1  0  0  0  0
 10 11  1  0  0  0  0
 10 29  1  0  0  0  0
 10 30  1  0  0  0  0
 11 31  1  0  0  0  0
 13 14  2  0  0  0  0
 13 15  1  0  0  0  0
 15 18  1  0  0  0  0
 15 16  1  0  0  0  0
 16 17  2  0  0  0  0
M  END
> <s_m_source_file>
AV-unprocessed.smi

> <i_m_source_file_index>
107

> <i_lp_mmshare_version>
43012

> <i_f3d_flags>
0

> <s_epik_input>
Tz1jMVtuSF1jKD1PKW4oW2NIXWMxW0NIM10pW0NAQEhdMltDSDJdW0NAQEhdKFtPSF0pW0NASF0oTzIpW0NIMl1bT0hd

> <s_epik_cmdline>
J2VwaWtfcHl0aG9uJywgJy1waCcsICc3LjAnLCAnLXRuJywgJzgnLCAnLW1hJywgJzIwMCcsICctbWV0YWxfYmluZGluZycsICctaW1hZScsICc8aW5maWxlLm1hZT4nLCAnLW9tYWUnLCAnPG91dGZpbGUubWFlPic=

> <r_lp_tautomer_probability>
0.999537

> <r_epik_Ionization_Penalty>
0.00121888

> <r_epik_Ionization_Penalty_Charging>
0.00121876

> <r_epik_Ionization_Penalty_Neutral>
1.19946e-07

> <r_epik_State_Penalty>
0.000805124

> <r_epik_Charging_Adjusted_Penalty>
0.00202389

> <i_epik_Tot_Q>
0

> <i_epik_Tot_abs_Q>
0

> <r_epik_Metal_State_Penalty>
0.662472

> <b_epik_Metal_Only>
0

> <s_epik_Chemistry_Notes>
This compound contains an acetal/aminal-like group ( X-CH(R)-Y where X, Y are N, S, or O) that may be acid/base labile, releasing an aldehyde.

> <s_lp_Force_Field>
OPLS_2005

> <r_lp_Energy>
28.0991

> <b_lp_Chiralities_Consistent>
1

> <s_lp_Variant>
AV-unprocessed.smi:107-8

> <Gold.Version>
5.8.1

> <Gold.Id.Protein>
6NUR|6NUR_protein|mol2

> <Gold.PLP.Fitness>
38.9464

> <Gold.PLP.PLP>
-27.5313

> <Gold.PLP.part.hbond>
-5.6353

> <Gold.PLP.part.metal>
0.0000

> <Gold.PLP.part.buried>
0.1005

> <Gold.PLP.part.nonpolar>
-21.2835

> <Gold.PLP.part.repulsive>
0.2734

> <Gold.PLP.ligand.clash>
0.0000

> <Gold.PLP.ligand.torsion>
0.0291

> <Gold.PLP.Chemscore.Hbond>
2.8207

> <Gold.PLP.Chemscore.CHOScore>
1.0000

> <Gold.PLP.Chemscore.Metal>
0.0000

> <Gold.Chemscore.Hbonds>
donor molecule, donor type, donor heavy atom, donor atom, acceptor molecule, acceptor atom, score
      L1  H     8    27       P1  7957  0.98
      L1  H    11    31       P1 10175  1.00
      P1  H  7997  8009       L1    14  0.54
      P1  H  8011  8017       L1    12  0.27
      L1  C     3    22       P1  8028  1.00

> <Gold.PLP.Chemscore.Internal.Correction>
0.0111

> <Gold.Rescore>
     Score         DG    S(hbond)    S(metal)    S(lipo)     H(rot)  DE(clash)    DE(int)     intcor
      8.59     -11.25       2.12        0.00      48.50       2.73       1.38       1.28       ----

> <Gold.Chemscore.Fitness>
8.5914

> <Gold.Chemscore.DG>
-11.2516

> <Gold.Chemscore.ZeroCoef>
-5.4800

> <Gold.Chemscore.Hbond>
2.1179

> <Gold.Chemscore.Metal>
0.0000

> <Gold.Chemscore.Lipo>
48.5001

> <Gold.Chemscore.Internal_Hbond>
0.0000

> <Gold.Chemscore.DEClash>
1.3812

> <Gold.Chemscore.DEInternal>
1.2789

> <Gold.Chemscore.Rot>
2.7253

> <Gold.Chemscore.Internal.Correction>
   9.000000E+99

> <Gold.Chemscore.Hbonds>
donor molecule, donor type, donor heavy atom, donor atom, acceptor molecule, acceptor atom, score
      L1  H     8    27       P1  7957  0.93
      L1  H    11    31       P1 10175  0.65
      P1  H  7997  8009       L1    14  0.03
      P1  H  8011  8017       L1    12  0.25

> <Gold.Chemscore.Hbond.Weighted>
-7.0739

> <Gold.Chemscore.Metal.Weighted>
-0.0000

> <Gold.Chemscore.Lipo.Weighted>
-5.6745

> <Gold.Chemscore.Internal_Hbond.Weighted>
0.0000

> <Gold.Chemscore.DEClash.Weighted>
1.3812

> <Gold.Chemscore.DEInternal.Weighted>
1.2789

> <Gold.Chemscore.Rot.Weighted>
6.9769

> <Gold.Chemscore.Internal.Correction.Weighted>
   9.000000E+99

> <Gold.Protein.RotatedTorsions>
[ 6907 6896 6895 6894 ] final   18.54 input  -60.11 | X-H torsion
[ 7974 7965 7964 7962 ] final  124.26 input  175.53 | X-H torsion
[ 8008 7997 7996 7995 ] final -152.89 input   59.86 | X-H torsion
[ 10167 10162 10161 10158 ] final  128.35 input  -65.29 | X-H torsion
[ 10718 10713 10712 10709 ] final  -34.79 input   66.30 | X-H torsion
[ 10763 10752 10751 10750 ] final  -57.58 input  -60.55 | X-H torsion
[ 11005 11000 10999 10996 ] final  112.14 input  -57.11 | X-H torsion

> <Gold.Protein.ActiveResidues>
 VAL166  LYS551  ARG553  GLY616  TRP617  ASP618  TYR619  PRO620  LYS621  CYS622 
 ASP623  PHE694  ASN695  SER759  ASP760  ASP761  ALA762  ILE779  LEU786  VAL792 
 PHE793  MET794  SER795  GLU796  ALA797  LYS798  CYS799  TRP800  GLU811  SER814 

> <Gold.Protein.RotatedAtoms>
  151.8668  135.0504  160.0474 H   0  0  0  0  0  0  0  0  0  0  0  0  # atno 6907 bound_to 6896
  152.2619  133.5301  159.5395 H   0  0  0  0  0  0  0  0  0  0  0  0  # atno 6908 bound_to 6896
  150.7120  134.0733  159.3914 H   0  0  0  0  0  0  0  0  0  0  0  0  # atno 6909 bound_to 6896
  145.0865  139.3618  143.4882 H   0  0  0  0  0  0  0  0  0  0  0  0  # atno 7974 bound_to 7965
  155.6623  140.0724  157.2549 H   0  0  0  0  0  0  0  0  0  0  0  0  # atno 8008 bound_to 7997
  154.4140  140.1714  156.1840 H   0  0  0  0  0  0  0  0  0  0  0  0  # atno 8009 bound_to 7997
  155.9687  140.3364  155.6559 H   0  0  0  0  0  0  0  0  0  0  0  0  # atno 8010 bound_to 7997
  139.5532  144.6829  151.4261 H   0  0  0  0  0  0  0  0  0  0  0  0  # atno 10167 bound_to 10162
  156.3464  130.4301  149.7742 H   0  0  0  0  0  0  0  0  0  0  0  0  # atno 10718 bound_to 10713
  154.2247  135.6371  153.5156 H   0  0  0  0  0  0  0  0  0  0  0  0  # atno 10763 bound_to 10752
  152.9961  135.5505  154.6077 H   0  0  0  0  0  0  0  0  0  0  0  0  # atno 10764 bound_to 10752
  154.5545  135.2904  155.0951 H   0  0  0  0  0  0  0  0  0  0  0  0  # atno 10765 bound_to 10752
  139.8920  134.9523  156.6540 H   0  0  0  0  0  0  0  0  0  0  0  0  # atno 11005 bound_to 11000
  146.3531  140.0679  142.8625 LP  0  0  0  0  0  0  0  0  0  0  0  0  # atno 17320 bound_to 7965
  145.1116  140.9409  143.4653 LP  0  0  0  0  0  0  0  0  0  0  0  0  # atno 17321 bound_to 7965
  140.6799  143.8105  150.7107 LP  0  0  0  0  0  0  0  0  0  0  0  0  # atno 17342 bound_to 10162
  140.1555  143.4320  152.2102 LP  0  0  0  0  0  0  0  0  0  0  0  0  # atno 17343 bound_to 10162
  156.4959  130.8106  151.3113 LP  0  0  0  0  0  0  0  0  0  0  0  0  # atno 17370 bound_to 10713
  157.7455  130.9960  150.2765 LP  0  0  0  0  0  0  0  0  0  0  0  0  # atno 17371 bound_to 10713
  140.7498  133.8907  155.8339 LP  0  0  0  0  0  0  0  0  0  0  0  0  # atno 17394 bound_to 11000
  141.0009  134.1151  157.4317 LP  0  0  0  0  0  0  0  0  0  0  0  0  # atno 17395 bound_to 11000

$$$$
