AV-unprocessed.smi:2880|AV-procd|sdf|11052|dock10
  -GOLD-   2272015523D 1   1.00000     0.00000
 Structure written by MMmdl.
 47 48  0  0  0  0  0  0  0  0  1 V2000
  147.1027  135.2558  160.5063 C   0  0  0  0  0  0  0  0  0  0  0  0
  146.3400  134.0433  161.0767 C   0  0  0  0  0  0  0  0  0  0  0  0
  147.3773  133.0282  161.6138 C   0  0  0  0  0  0  0  0  0  0  0  0
  145.4417  134.4984  162.2420 C   0  0  0  0  0  0  0  0  0  0  0  0
  145.4932  133.4646  160.0242 N   0  0  0  0  0  0  0  0  0  0  0  0
  144.6239  132.3906  160.1233 C   0  0  0  0  0  0  0  0  0  0  0  0
  144.0713  132.1757  158.8927 C   0  0  0  0  0  0  0  0  0  0  0  0
  144.6826  133.1708  158.0849 C   0  0  0  0  0  0  0  0  0  0  0  0
  144.3697  133.2795  156.7059 N   0  0  0  0  0  0  0  0  0  0  0  0
  144.7292  134.2591  155.8586 C   0  0  0  0  0  0  0  0  0  0  0  0
  145.3955  135.2495  156.1617 O   0  0  0  0  0  0  0  0  0  0  0  0
  144.2593  134.0275  154.6237 N   0  0  0  0  0  0  0  0  0  0  0  0
  144.4693  134.8735  153.4459 C   0  0  1  0  0  0  0  0  0  0  0  0
  145.8032  134.4987  152.7688 C   0  0  0  0  0  0  0  0  0  0  0  0
  145.7449  133.1182  152.0920 C   0  0  0  0  0  0  0  0  0  0  0  0
  144.5747  133.0344  151.1014 C   0  0  0  0  0  0  0  0  0  0  0  0
  143.2402  133.3856  151.7784 C   0  0  0  0  0  0  0  0  0  0  0  0
  143.2890  134.7802  152.4430 C   0  0  1  0  0  0  0  0  0  0  0  0
  141.9379  135.1722  153.0767 C   0  0  0  0  0  0  0  0  0  0  0  0
  141.5318  134.2102  154.0280 O   0  0  0  0  0  0  0  0  0  0  0  0
  145.5373  133.9307  158.7526 N   0  0  0  0  0  0  0  0  0  0  0  0
  147.7578  135.6995  161.2569 H   0  0  0  0  0  0  0  0  0  0  0  0
  146.4260  136.0404  160.1671 H   0  0  0  0  0  0  0  0  0  0  0  0
  147.7248  134.9672  159.6581 H   0  0  0  0  0  0  0  0  0  0  0  0
  148.0313  132.6652  160.8197 H   0  0  0  0  0  0  0  0  0  0  0  0
  146.8974  132.1627  162.0730 H   0  0  0  0  0  0  0  0  0  0  0  0
  148.0139  133.4803  162.3750 H   0  0  0  0  0  0  0  0  0  0  0  0
  146.0310  134.9299  163.0517 H   0  0  0  0  0  0  0  0  0  0  0  0
  144.8772  133.6620  162.6557 H   0  0  0  0  0  0  0  0  0  0  0  0
  144.7232  135.2544  161.9234 H   0  0  0  0  0  0  0  0  0  0  0  0
  144.4700  131.8681  161.0557 H   0  0  0  0  0  0  0  0  0  0  0  0
  143.3491  131.4220  158.6162 H   0  0  0  0  0  0  0  0  0  0  0  0
  143.8132  132.5297  156.3232 H   0  0  0  0  0  0  0  0  0  0  0  0
  143.7187  133.1878  154.4777 H   0  0  0  0  0  0  0  0  0  0  0  0
  144.5578  135.9131  153.7661 H   0  0  0  0  0  0  0  0  0  0  0  0
  146.0469  135.2524  152.0187 H   0  0  0  0  0  0  0  0  0  0  0  0
  146.6159  134.5239  153.4958 H   0  0  0  0  0  0  0  0  0  0  0  0
  146.6837  132.9193  151.5744 H   0  0  0  0  0  0  0  0  0  0  0  0
  145.6411  132.3385  152.8474 H   0  0  0  0  0  0  0  0  0  0  0  0
  144.7515  133.7174  150.2697 H   0  0  0  0  0  0  0  0  0  0  0  0
  144.5222  132.0332  150.6728 H   0  0  0  0  0  0  0  0  0  0  0  0
  142.4443  133.3502  151.0341 H   0  0  0  0  0  0  0  0  0  0  0  0
  142.9959  132.6256  152.5217 H   0  0  0  0  0  0  0  0  0  0  0  0
  143.4933  135.5088  151.6563 H   0  0  0  0  0  0  0  0  0  0  0  0
  141.9962  136.1485  153.5588 H   0  0  0  0  0  0  0  0  0  0  0  0
  141.1646  135.2368  152.3105 H   0  0  0  0  0  0  0  0  0  0  0  0
  142.1519  133.4972  154.0172 H   0  0  0  0  0  0  0  0  0  0  0  0
  1  2  1  0  0  0  0
  1 22  1  0  0  0  0
  1 23  1  0  0  0  0
  1 24  1  0  0  0  0
  2  3  1  0  0  0  0
  2  4  1  0  0  0  0
  2  5  1  0  0  0  0
  3 25  1  0  0  0  0
  3 26  1  0  0  0  0
  3 27  1  0  0  0  0
  4 28  1  0  0  0  0
  4 29  1  0  0  0  0
  4 30  1  0  0  0  0
  5 21  1  0  0  0  0
  5  6  1  0  0  0  0
  6  7  2  0  0  0  0
  6 31  1  0  0  0  0
  7  8  1  0  0  0  0
  7 32  1  0  0  0  0
  8  9  1  0  0  0  0
  8 21  2  0  0  0  0
  9 10  1  0  0  0  0
  9 33  1  0  0  0  0
 10 11  2  0  0  0  0
 10 12  1  0  0  0  0
 12 13  1  0  0  0  0
 12 34  1  0  0  0  0
 13 18  1  0  0  0  0
 13 14  1  0  0  0  0
 13 35  1  0  0  0  0
 14 15  1  0  0  0  0
 14 36  1  0  0  0  0
 14 37  1  0  0  0  0
 15 16  1  0  0  0  0
 15 38  1  0  0  0  0
 15 39  1  0  0  0  0
 16 17  1  0  0  0  0
 16 40  1  0  0  0  0
 16 41  1  0  0  0  0
 17 18  1  0  0  0  0
 17 42  1  0  0  0  0
 17 43  1  0  0  0  0
 18 19  1  0  0  0  0
 18 44  1  0  0  0  0
 19 20  1  0  0  0  0
 19 45  1  0  0  0  0
 19 46  1  0  0  0  0
 20 47  1  0  0  0  0
M  END
> <s_m_source_file>
AV-unprocessed.smi

> <i_m_source_file_index>
2880

> <i_lp_mmshare_version>
43012

> <i_f3d_flags>
0

> <s_epik_input>
W0NIM11DKFtDSDNdKShbQ0gzXSluMVtjSF1bY0hdYyhuMSlbTkhdQyg9TylbTkhdW0NAQEhdMltDSDJdW0NIMl1bQ0gyXVtDSDJdW0NASF0yW0NIMl1bT0hd

> <s_epik_cmdline>
J2VwaWtfcHl0aG9uJywgJy1waCcsICc3LjAnLCAnLXRuJywgJzgnLCAnLW1hJywgJzIwMCcsICctbWV0YWxfYmluZGluZycsICctaW1hZScsICc8aW5maWxlLm1hZT4nLCAnLW9tYWUnLCAnPG91dGZpbGUubWFlPic=

> <r_lp_tautomer_probability>
1

> <r_epik_Ionization_Penalty>
3.89283e-05

> <r_epik_Ionization_Penalty_Charging>
0

> <r_epik_Ionization_Penalty_Neutral>
3.89283e-05

> <r_epik_State_Penalty>
-0

> <r_epik_Charging_Adjusted_Penalty>
0

> <i_epik_Tot_Q>
0

> <i_epik_Tot_abs_Q>
0

> <r_epik_Metal_State_Penalty>
-0

> <b_epik_Metal_Only>
0

> <s_lp_Force_Field>
OPLS_2005

> <r_lp_Energy>
20.5246

> <b_lp_Chiralities_Consistent>
1

> <s_lp_Variant>
AV-unprocessed.smi:2880-2

> <Gold.Version>
5.8.1

> <Gold.Id.Protein>
6NUR|6NUR_protein|mol2

> <Gold.PLP.Fitness>
38.0992

> <Gold.PLP.PLP>
-27.2669

> <Gold.PLP.part.hbond>
-4.0000

> <Gold.PLP.part.metal>
0.0000

> <Gold.PLP.part.buried>
-5.2008

> <Gold.PLP.part.nonpolar>
-18.7308

> <Gold.PLP.part.repulsive>
0.0180

> <Gold.PLP.ligand.clash>
0.0000

> <Gold.PLP.ligand.torsion>
0.4477

> <Gold.PLP.Chemscore.Hbond>
3.8960

> <Gold.PLP.Chemscore.CHOScore>
0.0000

> <Gold.PLP.Chemscore.Metal>
0.0000

> <Gold.Chemscore.Hbonds>
donor molecule, donor type, donor heavy atom, donor atom, acceptor molecule, acceptor atom, score
      L1  H     9    33       P1 10957  1.00
      L1  H    12    34       P1 10957  1.00
      L1  H    20    47       P1 10957  0.91
      P1  H 11000 11005       L1    20  0.95

> <Gold.PLP.Chemscore.Internal.Correction>
0.0397

> <Gold.Rescore>
     Score         DG    S(hbond)    S(metal)    S(lipo)     H(rot)  DE(clash)    DE(int)     intcor
     16.69     -19.71       3.50        0.00      64.76       1.97       0.00       3.02       ----

> <Gold.Chemscore.Fitness>
16.6907

> <Gold.Chemscore.DG>
-19.7123

> <Gold.Chemscore.ZeroCoef>
-5.4800

> <Gold.Chemscore.Hbond>
3.5005

> <Gold.Chemscore.Metal>
0.0000

> <Gold.Chemscore.Lipo>
64.7586

> <Gold.Chemscore.Internal_Hbond>
0.0000

> <Gold.Chemscore.DEClash>
0.0000

> <Gold.Chemscore.DEInternal>
3.0216

> <Gold.Chemscore.Rot>
1.9672

> <Gold.Chemscore.Internal.Correction>
   9.000000E+99

> <Gold.Chemscore.Hbonds>
donor molecule, donor type, donor heavy atom, donor atom, acceptor molecule, acceptor atom, score
      L1  H     9    33       P1 10957  0.90
      L1  H    12    34       P1 10957  1.00
      L1  H    20    47       P1 10957  0.87
      P1  H 11000 11005       L1    20  0.21

> <Gold.Chemscore.Hbond.Weighted>
-11.6916

> <Gold.Chemscore.Metal.Weighted>
-0.0000

> <Gold.Chemscore.Lipo.Weighted>
-7.5768

> <Gold.Chemscore.Internal_Hbond.Weighted>
0.0000

> <Gold.Chemscore.DEClash.Weighted>
0.0000

> <Gold.Chemscore.DEInternal.Weighted>
3.0216

> <Gold.Chemscore.Rot.Weighted>
5.0360

> <Gold.Chemscore.Internal.Correction.Weighted>
   9.000000E+99

> <Gold.Protein.RotatedTorsions>
[ 6907 6896 6895 6894 ] final  -21.41 input  -60.11 | X-H torsion
[ 7974 7965 7964 7962 ] final   74.12 input  175.53 | X-H torsion
[ 8008 7997 7996 7995 ] final   -8.68 input   59.86 | X-H torsion
[ 10167 10162 10161 10158 ] final  109.92 input  -65.29 | X-H torsion
[ 10718 10713 10712 10709 ] final -173.32 input   66.30 | X-H torsion
[ 10763 10752 10751 10750 ] final  -39.47 input  -60.55 | X-H torsion
[ 11005 11000 10999 10996 ] final   -6.54 input  -57.11 | X-H torsion

> <Gold.Protein.ActiveResidues>
 VAL166  LYS551  ARG553  GLY616  TRP617  ASP618  TYR619  PRO620  LYS621  CYS622 
 ASP623  PHE694  ASN695  SER759  ASP760  ASP761  ALA762  ILE779  LEU786  VAL792 
 PHE793  MET794  SER795  GLU796  ALA797  LYS798  CYS799  TRP800  GLU811  SER814 

> <Gold.Protein.RotatedAtoms>
  151.2337  135.0564  159.8997 H   0  0  0  0  0  0  0  0  0  0  0  0  # atno 6907 bound_to 6896
  152.5402  134.0509  159.8120 H   0  0  0  0  0  0  0  0  0  0  0  0  # atno 6908 bound_to 6896
  151.0692  133.5431  159.2660 H   0  0  0  0  0  0  0  0  0  0  0  0  # atno 6909 bound_to 6896
  145.7322  139.2688  143.1534 H   0  0  0  0  0  0  0  0  0  0  0  0  # atno 7974 bound_to 7965
  154.5718  140.2375  155.8181 H   0  0  0  0  0  0  0  0  0  0  0  0  # atno 8008 bound_to 7997
  156.2112  140.3025  155.9695 H   0  0  0  0  0  0  0  0  0  0  0  0  # atno 8009 bound_to 7997
  155.2699  140.0418  157.2996 H   0  0  0  0  0  0  0  0  0  0  0  0  # atno 8010 bound_to 7997
  139.6728  144.7124  151.1656 H   0  0  0  0  0  0  0  0  0  0  0  0  # atno 10167 bound_to 10162
  156.7685  130.9440  151.3119 H   0  0  0  0  0  0  0  0  0  0  0  0  # atno 10718 bound_to 10713
  153.9300  135.6773  153.4746 H   0  0  0  0  0  0  0  0  0  0  0  0  # atno 10763 bound_to 10752
  153.0984  135.4840  154.8819 H   0  0  0  0  0  0  0  0  0  0  0  0  # atno 10764 bound_to 10752
  154.7433  135.3166  154.8647 H   0  0  0  0  0  0  0  0  0  0  0  0  # atno 10765 bound_to 10752
  140.7031  133.8972  155.8697 H   0  0  0  0  0  0  0  0  0  0  0  0  # atno 11005 bound_to 11000
  146.0526  140.8053  142.9774 LP  0  0  0  0  0  0  0  0  0  0  0  0  # atno 17320 bound_to 7965
  144.6890  140.3076  143.7253 LP  0  0  0  0  0  0  0  0  0  0  0  0  # atno 17321 bound_to 7965
  140.7624  143.5817  150.8888 LP  0  0  0  0  0  0  0  0  0  0  0  0  # atno 17342 bound_to 10162
  139.9484  143.6301  152.3035 LP  0  0  0  0  0  0  0  0  0  0  0  0  # atno 17343 bound_to 10162
  157.6702  130.9044  150.0022 LP  0  0  0  0  0  0  0  0  0  0  0  0  # atno 17370 bound_to 10713
  156.1293  130.3644  149.9758 LP  0  0  0  0  0  0  0  0  0  0  0  0  # atno 17371 bound_to 10713
  141.0147  134.0972  157.4185 LP  0  0  0  0  0  0  0  0  0  0  0  0  # atno 17394 bound_to 11000
  139.8891  135.0103  156.6661 LP  0  0  0  0  0  0  0  0  0  0  0  0  # atno 17395 bound_to 11000

$$$$
