AV-unprocessed.smi:197|AV-procd|sdf|1548|dock3
  -GOLD-   2262019413D 1   1.00000     0.00000
 Structure written by MMmdl.
 54 57  0  0  0  0  0  0  0  0  1 V2000
  152.1835  144.2229  160.7145 C   0  0  0  0  0  0  0  0  0  0  0  0
  153.0936  143.4501  159.9473 O   0  0  0  0  0  0  0  0  0  0  0  0
  153.2959  142.1294  160.4341 C   0  0  0  0  0  0  0  0  0  0  0  0
  153.5043  141.1112  159.2966 C   0  0  0  0  0  0  0  0  0  0  0  0
  153.0751  139.6620  159.6486 C   0  0  2  0  0  0  0  0  0  0  0  0
  153.8505  139.1299  160.8773 C   0  0  0  0  0  0  0  0  0  0  0  0
  153.4702  137.7897  161.1682 O   0  0  0  0  0  0  0  0  0  0  0  0
  153.7663  136.9087  160.0930 C   0  0  0  0  0  0  0  0  0  0  0  0
  152.9664  137.3451  158.8587 C   0  0  0  0  0  0  0  0  0  0  0  0
  153.2671  138.7329  158.5268 N   0  0  0  0  0  0  0  0  0  0  0  0
  152.6987  139.0739  157.3480 C   0  0  0  0  0  0  0  0  0  0  0  0
  153.1547  138.4385  156.2408 N   0  0  0  0  0  0  0  0  0  0  0  0
  152.6467  138.7383  155.0418 C   0  0  0  0  0  0  0  0  0  0  0  0
  151.6945  139.6219  154.7354 N   0  0  0  0  0  0  0  0  0  0  0  0
  151.2220  140.2508  155.8497 C   0  0  0  0  0  0  0  0  0  0  0  0
  151.6635  140.0390  157.1863 C   0  0  0  0  0  0  0  0  0  0  0  0
  150.9525  140.8588  158.0544 N   0  0  0  0  0  0  0  0  0  0  0  0
  150.1479  141.5272  157.2746 C   0  0  0  0  0  0  0  0  0  0  0  0
  150.2340  141.2166  155.9360 N   0  0  0  0  0  0  0  0  0  0  0  0
  149.4609  141.8072  154.8534 C   0  0  0  0  0  0  0  0  0  0  0  0
  147.9308  141.5564  154.9425 C   0  0  1  0  0  0  0  0  0  0  0  0
  147.4036  142.3532  155.9892 O   0  0  0  0  0  0  0  0  0  0  0  0
  147.1751  141.8826  153.6573 C   0  0  0  0  0  0  0  0  0  0  0  0
  147.2644  140.5758  152.8870 C   0  0  0  0  0  0  0  0  0  0  0  0
  147.0558  139.6001  153.8944 O   0  0  0  0  0  0  0  0  0  0  0  0
  147.6261  140.0445  155.1252 C   0  0  2  0  0  0  0  0  0  0  0  0
  146.6327  139.6843  156.2430 C   0  0  0  0  0  0  0  0  0  0  0  0
  152.0571  145.1997  160.2482 H   0  0  0  0  0  0  0  0  0  0  0  0
  152.5422  144.3888  161.7300 H   0  0  0  0  0  0  0  0  0  0  0  0
  151.2038  143.7460  160.7624 H   0  0  0  0  0  0  0  0  0  0  0  0
  154.1404  142.1075  161.1244 H   0  0  0  0  0  0  0  0  0  0  0  0
  152.4250  141.8518  161.0267 H   0  0  0  0  0  0  0  0  0  0  0  0
  152.9652  141.4740  158.4228 H   0  0  0  0  0  0  0  0  0  0  0  0
  154.5548  141.1135  159.0042 H   0  0  0  0  0  0  0  0  0  0  0  0
  152.0160  139.6636  159.9053 H   0  0  0  0  0  0  0  0  0  0  0  0
  154.9282  139.1816  160.7132 H   0  0  0  0  0  0  0  0  0  0  0  0
  153.6349  139.7299  161.7606 H   0  0  0  0  0  0  0  0  0  0  0  0
  154.8377  136.9085  159.8857 H   0  0  0  0  0  0  0  0  0  0  0  0
  153.4944  135.8927  160.3794 H   0  0  0  0  0  0  0  0  0  0  0  0
  153.2079  136.6961  158.0156 H   0  0  0  0  0  0  0  0  0  0  0  0
  151.8982  137.2380  159.0530 H   0  0  0  0  0  0  0  0  0  0  0  0
  153.0630  138.1922  154.2082 H   0  0  0  0  0  0  0  0  0  0  0  0
  149.4589  142.2656  157.6582 H   0  0  0  0  0  0  0  0  0  0  0  0
  149.6689  142.8777  154.8403 H   0  0  0  0  0  0  0  0  0  0  0  0
  149.8471  141.4169  153.9105 H   0  0  0  0  0  0  0  0  0  0  0  0
  147.9886  143.0808  156.1354 H   0  0  0  0  0  0  0  0  0  0  0  0
  146.1253  142.0882  153.8739 H   0  0  0  0  0  0  0  0  0  0  0  0
  147.5631  142.7349  153.1020 H   0  0  0  0  0  0  0  0  0  0  0  0
  146.5186  140.4998  152.0957 H   0  0  0  0  0  0  0  0  0  0  0  0
  148.2528  140.4456  152.4443 H   0  0  0  0  0  0  0  0  0  0  0  0
  148.5509  139.4896  155.2896 H   0  0  0  0  0  0  0  0  0  0  0  0
  147.0173  139.9698  157.2226 H   0  0  0  0  0  0  0  0  0  0  0  0
  146.4489  138.6100  156.2646 H   0  0  0  0  0  0  0  0  0  0  0  0
  145.6727  140.1803  156.0970 H   0  0  0  0  0  0  0  0  0  0  0  0
  1  2  1  0  0  0  0
  1 28  1  0  0  0  0
  1 29  1  0  0  0  0
  1 30  1  0  0  0  0
  2  3  1  0  0  0  0
  3  4  1  0  0  0  0
  3 31  1  0  0  0  0
  3 32  1  0  0  0  0
  4  5  1  0  0  0  0
  4 33  1  0  0  0  0
  4 34  1  0  0  0  0
  5 10  1  0  0  0  0
  5  6  1  0  0  0  0
  5 35  1  0  0  0  0
  6  7  1  0  0  0  0
  6 36  1  0  0  0  0
  6 37  1  0  0  0  0
  7  8  1  0  0  0  0
  8  9  1  0  0  0  0
  8 38  1  0  0  0  0
  8 39  1  0  0  0  0
  9 10  1  0  0  0  0
  9 40  1  0  0  0  0
  9 41  1  0  0  0  0
 10 11  1  0  0  0  0
 11 16  1  0  0  0  0
 11 12  2  0  0  0  0
 12 13  1  0  0  0  0
 13 14  2  0  0  0  0
 13 42  1  0  0  0  0
 14 15  1  0  0  0  0
 15 19  1  0  0  0  0
 15 16  2  0  0  0  0
 16 17  1  0  0  0  0
 17 18  2  0  0  0  0
 18 19  1  0  0  0  0
 18 43  1  0  0  0  0
 19 20  1  0  0  0  0
 20 21  1  0  0  0  0
 20 44  1  0  0  0  0
 20 45  1  0  0  0  0
 21 26  1  0  0  0  0
 21 22  1  0  0  0  0
 21 23  1  0  0  0  0
 22 46  1  0  0  0  0
 23 24  1  0  0  0  0
 23 47  1  0  0  0  0
 23 48  1  0  0  0  0
 24 25  1  0  0  0  0
 24 49  1  0  0  0  0
 24 50  1  0  0  0  0
 25 26  1  0  0  0  0
 26 27  1  0  0  0  0
 26 51  1  0  0  0  0
 27 52  1  0  0  0  0
 27 53  1  0  0  0  0
 27 54  1  0  0  0  0
M  END
> <s_m_source_file>
AV-unprocessed.smi

> <i_m_source_file_index>
197

> <i_lp_mmshare_version>
43012

> <i_f3d_flags>
0

> <s_epik_input>
W0NIM11PW0NIMl1bQ0gyXVtDQEBIXTFbQ0gyXU9bQ0gyXVtDSDJdTjFjKG5bY0hdbjIpYyhjMjMpbltjSF1uM1tDSDJdW0NAQF00KFtPSF0pW0NIMl1bQ0gyXU9bQ0BIXTRbQ0gzXQ==

> <s_epik_cmdline>
J2VwaWtfcHl0aG9uJywgJy1waCcsICc3LjAnLCAnLXRuJywgJzgnLCAnLW1hJywgJzIwMCcsICctbWV0YWxfYmluZGluZycsICctaW1hZScsICc8aW5maWxlLm1hZT4nLCAnLW9tYWUnLCAnPG91dGZpbGUubWFlPic=

> <r_lp_tautomer_probability>
1

> <r_epik_Ionization_Penalty>
0.000106218

> <r_epik_Ionization_Penalty_Charging>
0

> <r_epik_Ionization_Penalty_Neutral>
0.000106218

> <r_epik_State_Penalty>
-0

> <r_epik_Charging_Adjusted_Penalty>
0

> <i_epik_Tot_Q>
0

> <i_epik_Tot_abs_Q>
0

> <r_epik_Metal_State_Penalty>
-0

> <b_epik_Metal_Only>
0

> <s_lp_Force_Field>
OPLS_2005

> <r_lp_Energy>
44.1389

> <b_lp_Chiralities_Consistent>
1

> <s_lp_Variant>
AV-unprocessed.smi:197-5

> <Gold.Version>
5.8.1

> <Gold.Id.Protein>
6NUR|6NUR_protein|mol2

> <Gold.PLP.Fitness>
47.6638

> <Gold.PLP.PLP>
-42.9791

> <Gold.PLP.part.hbond>
-3.1005

> <Gold.PLP.part.metal>
0.0000

> <Gold.PLP.part.buried>
-4.4819

> <Gold.PLP.part.nonpolar>
-35.4162

> <Gold.PLP.part.repulsive>
0.2142

> <Gold.PLP.ligand.clash>
0.0447

> <Gold.PLP.ligand.torsion>
0.7701

> <Gold.PLP.Chemscore.Hbond>
2.0000

> <Gold.PLP.Chemscore.CHOScore>
0.0000

> <Gold.PLP.Chemscore.Metal>
0.0000

> <Gold.Chemscore.Hbonds>
donor molecule, donor type, donor heavy atom, donor atom, acceptor molecule, acceptor atom, score
      L1  H    22    46       P1  8028  1.00
      P1  H  7989  7998       L1    14  1.00

> <Gold.PLP.Chemscore.Internal.Correction>
0.2695

> <Gold.Rescore>
     Score         DG    S(hbond)    S(metal)    S(lipo)     H(rot)  DE(clash)    DE(int)     intcor
      6.74     -11.29       0.73        0.00      90.96       2.84       0.16       4.39       ----

> <Gold.Chemscore.Fitness>
6.7371

> <Gold.Chemscore.DG>
-11.2886

> <Gold.Chemscore.ZeroCoef>
-5.4800

> <Gold.Chemscore.Hbond>
0.7264

> <Gold.Chemscore.Metal>
0.0000

> <Gold.Chemscore.Lipo>
90.9564

> <Gold.Chemscore.Internal_Hbond>
0.0000

> <Gold.Chemscore.DEClash>
0.1615

> <Gold.Chemscore.DEInternal>
4.3900

> <Gold.Chemscore.Rot>
2.8358

> <Gold.Chemscore.Internal.Correction>
   9.000000E+99

> <Gold.Chemscore.Hbonds>
donor molecule, donor type, donor heavy atom, donor atom, acceptor molecule, acceptor atom, score
      L1  H    22    46       P1  8028  0.44
      P1  H  7989  7998       L1    14  0.44

> <Gold.Chemscore.Hbond.Weighted>
-2.4262

> <Gold.Chemscore.Metal.Weighted>
-0.0000

> <Gold.Chemscore.Lipo.Weighted>
-10.6419

> <Gold.Chemscore.Internal_Hbond.Weighted>
0.0000

> <Gold.Chemscore.DEClash.Weighted>
0.1615

> <Gold.Chemscore.DEInternal.Weighted>
4.3900

> <Gold.Chemscore.Rot.Weighted>
7.2596

> <Gold.Chemscore.Internal.Correction.Weighted>
   9.000000E+99

> <Gold.Protein.RotatedTorsions>
[ 6907 6896 6895 6894 ] final   25.09 input  -60.11 | X-H torsion
[ 7974 7965 7964 7962 ] final -175.58 input  175.53 | X-H torsion
[ 8008 7997 7996 7995 ] final  -52.23 input   59.86 | X-H torsion
[ 10167 10162 10161 10158 ] final -154.10 input  -65.29 | X-H torsion
[ 10718 10713 10712 10709 ] final  130.77 input   66.30 | X-H torsion
[ 10763 10752 10751 10750 ] final  -55.71 input  -60.55 | X-H torsion
[ 11005 11000 10999 10996 ] final  177.33 input  -57.11 | X-H torsion

> <Gold.Protein.ActiveResidues>
 VAL166  LYS551  ARG553  GLY616  TRP617  ASP618  TYR619  PRO620  LYS621  CYS622 
 ASP623  PHE694  ASN695  SER759  ASP760  ASP761  ALA762  ILE779  LEU786  VAL792 
 PHE793  MET794  SER795  GLU796  ALA797  LYS798  CYS799  TRP800  GLU811  SER814 

> <Gold.Protein.RotatedAtoms>
  151.9673  135.0094  160.0550 H   0  0  0  0  0  0  0  0  0  0  0  0  # atno 6907 bound_to 6896
  152.1815  133.4705  159.4968 H   0  0  0  0  0  0  0  0  0  0  0  0  # atno 6908 bound_to 6896
  150.6918  134.1745  159.4268 H   0  0  0  0  0  0  0  0  0  0  0  0  # atno 6909 bound_to 6896
  144.7128  140.1300  143.6399 H   0  0  0  0  0  0  0  0  0  0  0  0  # atno 7974 bound_to 7965
  154.4101  140.1229  156.4957 H   0  0  0  0  0  0  0  0  0  0  0  0  # atno 8008 bound_to 7997
  155.6945  140.3495  155.4888 H   0  0  0  0  0  0  0  0  0  0  0  0  # atno 8009 bound_to 7997
  155.9439  140.1092  157.1023 H   0  0  0  0  0  0  0  0  0  0  0  0  # atno 8010 bound_to 7997
  139.7041  143.9214  152.2441 H   0  0  0  0  0  0  0  0  0  0  0  0  # atno 10167 bound_to 10162
  157.5031  131.1095  150.9399 H   0  0  0  0  0  0  0  0  0  0  0  0  # atno 10718 bound_to 10713
  154.1951  135.6420  153.5071 H   0  0  0  0  0  0  0  0  0  0  0  0  # atno 10763 bound_to 10752
  153.0025  135.5438  154.6374 H   0  0  0  0  0  0  0  0  0  0  0  0  # atno 10764 bound_to 10752
  154.5773  135.2922  155.0741 H   0  0  0  0  0  0  0  0  0  0  0  0  # atno 10765 bound_to 10752
  140.3829  134.6931  157.4461 H   0  0  0  0  0  0  0  0  0  0  0  0  # atno 11005 bound_to 11000
  145.9295  139.2597  143.1333 LP  0  0  0  0  0  0  0  0  0  0  0  0  # atno 17320 bound_to 7965
  145.9537  140.8889  143.0246 LP  0  0  0  0  0  0  0  0  0  0  0  0  # atno 17321 bound_to 7965
  139.9065  144.6881  150.8608 LP  0  0  0  0  0  0  0  0  0  0  0  0  # atno 17342 bound_to 10162
  140.7717  143.3475  151.2082 LP  0  0  0  0  0  0  0  0  0  0  0  0  # atno 17343 bound_to 10162
  157.0063  130.5619  149.5316 LP  0  0  0  0  0  0  0  0  0  0  0  0  # atno 17370 bound_to 10713
  156.0241  130.5336  150.8359 LP  0  0  0  0  0  0  0  0  0  0  0  0  # atno 17371 bound_to 10713
  140.0465  134.6192  155.8915 LP  0  0  0  0  0  0  0  0  0  0  0  0  # atno 17394 bound_to 11000
  141.1917  133.6573  156.5470 LP  0  0  0  0  0  0  0  0  0  0  0  0  # atno 17395 bound_to 11000

$$$$
