AV-unprocessed.smi:127|AV-procd|sdf|1154|dock3
  -GOLD-   2262018293D 1   1.00000     0.00000
 Structure written by MMmdl.
 28 29  0  0  0  0  0  0  0  0  2 V2000
  153.0887  139.5907  155.0025 O   0  0  0  0  0  0  0  0  0  0  0  0
  151.8828  139.4244  155.2878 C   0  0  0  0  0  0  0  0  0  0  0  0
  150.9191  139.6095  154.5129 O   0  5  0  0  0  0  0  0  0  0  0  0
  151.5585  138.9585  156.7104 C   0  0  0  0  0  0  0  0  0  0  0  0
  151.8249  139.9823  157.7113 N   0  0  0  0  0  0  0  0  0  0  0  0
  152.7836  139.6923  158.7150 C   0  0  0  0  0  0  0  0  0  0  0  0
  153.2868  138.5745  158.8409 O   0  0  0  0  0  0  0  0  0  0  0  0
  153.1181  140.8181  159.5805 C   0  0  0  0  0  0  0  0  0  0  0  0
  154.0107  140.6522  160.5717 F   0  0  0  0  0  0  0  0  0  0  0  0
  152.5502  142.0301  159.4021 C   0  0  0  0  0  0  0  0  0  0  0  0
  151.6259  142.2910  158.4042 N   0  0  0  0  0  0  0  0  0  0  0  0
  151.0082  143.6609  158.2160 C   0  0  1  0  0  0  0  0  0  0  0  0
  150.1966  144.0659  159.4619 C   0  0  0  0  0  0  0  0  0  0  0  0
  150.7496  145.4381  159.7916 C   0  0  0  0  0  0  0  0  0  0  0  0
  152.1757  145.3358  159.2726 C   0  0  0  0  0  0  0  0  0  0  0  0
  152.0146  144.6202  158.0550 O   0  0  0  0  0  0  0  0  0  0  0  0
  151.2510  141.2618  157.5126 C   0  0  0  0  0  0  0  0  0  0  0  0
  150.4464  141.4835  156.6044 O   0  0  0  0  0  0  0  0  0  0  0  0
  150.5136  138.6555  156.7924 H   0  0  0  0  0  0  0  0  0  0  0  0
  152.1285  138.0650  156.9703 H   0  0  0  0  0  0  0  0  0  0  0  0
  152.8483  142.8176  160.0767 H   0  0  0  0  0  0  0  0  0  0  0  0
  150.4191  143.5954  157.2996 H   0  0  0  0  0  0  0  0  0  0  0  0
  149.1276  144.0727  159.2474 H   0  0  0  0  0  0  0  0  0  0  0  0
  150.3894  143.3716  160.2815 H   0  0  0  0  0  0  0  0  0  0  0  0
  150.2052  146.2052  159.2394 H   0  0  0  0  0  0  0  0  0  0  0  0
  150.6970  145.6762  160.8543 H   0  0  0  0  0  0  0  0  0  0  0  0
  152.6369  146.3097  159.1085 H   0  0  0  0  0  0  0  0  0  0  0  0
  152.8009  144.7689  159.9640 H   0  0  0  0  0  0  0  0  0  0  0  0
  1  2  2  0  0  0  0
  2  3  1  0  0  0  0
  2  4  1  0  0  0  0
  4  5  1  0  0  0  0
  4 19  1  0  0  0  0
  4 20  1  0  0  0  0
  5 17  1  0  0  0  0
  5  6  1  0  0  0  0
  6  7  2  0  0  0  0
  6  8  1  0  0  0  0
  8  9  1  0  0  0  0
  8 10  2  0  0  0  0
 10 11  1  0  0  0  0
 10 21  1  0  0  0  0
 11 12  1  0  0  0  0
 11 17  1  0  0  0  0
 12 16  1  0  0  0  0
 12 13  1  0  0  0  0
 12 22  1  0  0  0  0
 13 14  1  0  0  0  0
 13 23  1  0  0  0  0
 13 24  1  0  0  0  0
 14 15  1  0  0  0  0
 14 25  1  0  0  0  0
 14 26  1  0  0  0  0
 15 16  1  0  0  0  0
 15 27  1  0  0  0  0
 15 28  1  0  0  0  0
 17 18  2  0  0  0  0
M  CHG  1   3  -1
M  END
> <s_m_source_file>
AV-unprocessed.smi

> <i_m_source_file_index>
127

> <i_lp_mmshare_version>
43012

> <i_f3d_flags>
0

> <s_epik_input>
Tz1DKFtPSF0pW0NIMl1uMWMoPU8pYyhGKVtjSF1uKGMxPU8pW0NAQEhdMltDSDJdW0NIMl1bQ0gyXU8y

> <s_epik_cmdline>
J2VwaWtfcHl0aG9uJywgJy1waCcsICc3LjAnLCAnLXRuJywgJzgnLCAnLW1hJywgJzIwMCcsICctbWV0YWxfYmluZGluZycsICctaW1hZScsICc8aW5maWxlLm1hZT4nLCAnLW9tYWUnLCAnPG91dGZpbGUubWFlPic=

> <r_lp_tautomer_probability>
1

> <r_epik_Ionization_Penalty>
0.00125813

> <r_epik_Ionization_Penalty_Charging>
0.00125813

> <r_epik_Ionization_Penalty_Neutral>
6.20402e-12

> <r_epik_State_Penalty>
0.000832915

> <r_epik_Charging_Adjusted_Penalty>
0.00209104

> <i_epik_Tot_Q>
-1

> <i_epik_Tot_abs_Q>
1

> <r_epik_Metal_State_Penalty>
-0

> <b_epik_Metal_Only>
0

> <s_epik_Chemistry_Notes>
This compound contains an acetal/aminal-like group ( X-CH(R)-Y where X, Y are N, S, or O) that may be acid/base labile, releasing an aldehyde.

> <s_lp_Force_Field>
OPLS_2005

> <r_lp_Energy>
23.1331

> <b_lp_Chiralities_Consistent>
1

> <s_lp_Variant>
AV-unprocessed.smi:127-2

> <Gold.Version>
5.8.1

> <Gold.Id.Protein>
6NUR|6NUR_protein|mol2

> <Gold.PLP.Fitness>
45.5257

> <Gold.PLP.PLP>
-36.7491

> <Gold.PLP.part.hbond>
-2.9180

> <Gold.PLP.part.metal>
0.0000

> <Gold.PLP.part.buried>
-5.8433

> <Gold.PLP.part.nonpolar>
-27.8372

> <Gold.PLP.part.repulsive>
0.2756

> <Gold.PLP.ligand.clash>
0.0000

> <Gold.PLP.ligand.torsion>
0.1338

> <Gold.PLP.Chemscore.Hbond>
3.0000

> <Gold.PLP.Chemscore.CHOScore>
0.0000

> <Gold.PLP.Chemscore.Metal>
0.0000

> <Gold.Chemscore.Hbonds>
donor molecule, donor type, donor heavy atom, donor atom, acceptor molecule, acceptor atom, score
      P1  H  7989  7998       L1     3  0.95
      P1  H  7997  8010       L1     1  2.00

> <Gold.PLP.Chemscore.Internal.Correction>
0.0442

> <Gold.Rescore>
     Score         DG    S(hbond)    S(metal)    S(lipo)     H(rot)  DE(clash)    DE(int)     intcor
     12.74     -13.12       1.92        0.00      55.89       2.08       0.21       0.16       ----

> <Gold.Chemscore.Fitness>
12.7435

> <Gold.Chemscore.DG>
-13.1151

> <Gold.Chemscore.ZeroCoef>
-5.4800

> <Gold.Chemscore.Hbond>
1.9198

> <Gold.Chemscore.Metal>
0.0000

> <Gold.Chemscore.Lipo>
55.8874

> <Gold.Chemscore.Internal_Hbond>
0.0000

> <Gold.Chemscore.DEClash>
0.2131

> <Gold.Chemscore.DEInternal>
0.1584

> <Gold.Chemscore.Rot>
2.0765

> <Gold.Chemscore.Internal.Correction>
   9.000000E+99

> <Gold.Chemscore.Hbonds>
donor molecule, donor type, donor heavy atom, donor atom, acceptor molecule, acceptor atom, score
      P1  H  7989  7998       L1     3  0.22
      P1  H  7997  8010       L1     1  1.00

> <Gold.Chemscore.Hbond.Weighted>
-6.4121

> <Gold.Chemscore.Metal.Weighted>
-0.0000

> <Gold.Chemscore.Lipo.Weighted>
-6.5388

> <Gold.Chemscore.Internal_Hbond.Weighted>
0.0000

> <Gold.Chemscore.DEClash.Weighted>
0.2131

> <Gold.Chemscore.DEInternal.Weighted>
0.1584

> <Gold.Chemscore.Rot.Weighted>
5.3159

> <Gold.Chemscore.Internal.Correction.Weighted>
   9.000000E+99

> <Gold.Protein.RotatedTorsions>
[ 6907 6896 6895 6894 ] final  155.85 input  -60.11 | X-H torsion
[ 7974 7965 7964 7962 ] final  173.74 input  175.53 | X-H torsion
[ 8008 7997 7996 7995 ] final  111.63 input   59.86 | X-H torsion
[ 10167 10162 10161 10158 ] final   -3.51 input  -65.29 | X-H torsion
[ 10718 10713 10712 10709 ] final   81.74 input   66.30 | X-H torsion
[ 10763 10752 10751 10750 ] final  120.63 input  -60.55 | X-H torsion
[ 11005 11000 10999 10996 ] final  172.03 input  -57.11 | X-H torsion

> <Gold.Protein.ActiveResidues>
 VAL166  LYS551  ARG553  GLY616  TRP617  ASP618  TYR619  PRO620  LYS621  CYS622 
 ASP623  PHE694  ASN695  SER759  ASP760  ASP761  ALA762  ILE779  LEU786  VAL792 
 PHE793  MET794  SER795  GLU796  ALA797  LYS798  CYS799  TRP800  GLU811  SER814 

> <Gold.Protein.RotatedAtoms>
  152.0381  133.3966  159.4325 H   0  0  0  0  0  0  0  0  0  0  0  0  # atno 6907 bound_to 6896
  150.6877  134.3445  159.4891 H   0  0  0  0  0  0  0  0  0  0  0  0  # atno 6908 bound_to 6896
  152.1240  134.9184  160.0612 H   0  0  0  0  0  0  0  0  0  0  0  0  # atno 6909 bound_to 6896
  144.7237  139.9693  143.6436 H   0  0  0  0  0  0  0  0  0  0  0  0  # atno 7974 bound_to 7965
  156.2137  140.3015  155.9790 H   0  0  0  0  0  0  0  0  0  0  0  0  # atno 8008 bound_to 7997
  155.2660  140.0431  157.3019 H   0  0  0  0  0  0  0  0  0  0  0  0  # atno 8009 bound_to 7997
  154.5736  140.2355  155.8163 H   0  0  0  0  0  0  0  0  0  0  0  0  # atno 8010 bound_to 7997
  140.6893  143.6532  150.8332 H   0  0  0  0  0  0  0  0  0  0  0  0  # atno 10167 bound_to 10162
  157.6840  131.0017  150.2272 H   0  0  0  0  0  0  0  0  0  0  0  0  # atno 10718 bound_to 10713
  153.6016  135.3447  155.2947 H   0  0  0  0  0  0  0  0  0  0  0  0  # atno 10763 bound_to 10752
  154.8635  135.4229  154.2407 H   0  0  0  0  0  0  0  0  0  0  0  0  # atno 10764 bound_to 10752
  153.3237  135.7040  153.7080 H   0  0  0  0  0  0  0  0  0  0  0  0  # atno 10765 bound_to 10752
  140.3254  134.7402  157.4095 H   0  0  0  0  0  0  0  0  0  0  0  0  # atno 11005 bound_to 11000
  146.0575  139.3571  143.0601 LP  0  0  0  0  0  0  0  0  0  0  0  0  # atno 17320 bound_to 7965
  145.8135  140.9714  143.0936 LP  0  0  0  0  0  0  0  0  0  0  0  0  # atno 17321 bound_to 7965
  140.0242  143.5510  152.2787 LP  0  0  0  0  0  0  0  0  0  0  0  0  # atno 17342 bound_to 10162
  139.6279  144.7640  151.2598 LP  0  0  0  0  0  0  0  0  0  0  0  0  # atno 17343 bound_to 10162
  156.2912  130.3746  149.7840 LP  0  0  0  0  0  0  0  0  0  0  0  0  # atno 17370 bound_to 10713
  156.5499  130.8337  151.3296 LP  0  0  0  0  0  0  0  0  0  0  0  0  # atno 17371 bound_to 10713
  140.0906  134.5606  155.8448 LP  0  0  0  0  0  0  0  0  0  0  0  0  # atno 17394 bound_to 11000
  141.2076  133.6666  156.6319 LP  0  0  0  0  0  0  0  0  0  0  0  0  # atno 17395 bound_to 11000

$$$$
