AV-unprocessed.smi:3250|AV-procd|sdf|12426|dock10
  -GOLD-   2272018313D 1   1.00000     0.00000
 Structure written by MMmdl.
 39 40  0  0  0  0  0  0  0  0  2 V2000
  147.8192  138.0710  154.8751 C   0  0  0  0  0  0  0  0  0  0  0  0
  148.4481  136.7112  155.2101 C   0  0  0  0  0  0  0  0  0  0  0  0
  149.7743  136.5236  154.5635 N   0  3  2  0  0  0  0  0  0  0  0  0
  150.3267  135.1573  154.7310 C   0  0  0  0  0  0  0  0  0  0  0  0
  150.9303  134.9701  156.1341 C   0  0  0  0  0  0  0  0  0  0  0  0
  151.9244  135.9624  156.3555 O   0  0  0  0  0  0  0  0  0  0  0  0
  151.3949  137.2845  156.3232 C   0  0  1  0  0  0  0  0  0  0  0  0
  152.5354  138.2627  156.6353 C   0  0  0  0  0  0  0  0  0  0  0  0
  152.0423  139.6162  156.8415 N   0  0  0  0  0  0  0  0  0  0  0  0
  152.3420  140.3883  157.9476 C   0  0  0  0  0  0  0  0  0  0  0  0
  153.3671  139.9596  158.6869 N   0  0  0  0  0  0  0  0  0  0  0  0
  153.6869  140.6933  159.7751 C   0  0  0  0  0  0  0  0  0  0  0  0
  152.9744  141.8588  160.1204 C   0  0  0  0  0  0  0  0  0  0  0  0
  151.9098  142.2203  159.2704 C   0  0  0  0  0  0  0  0  0  0  0  0
  151.1717  143.3512  159.5513 O   0  0  0  0  0  0  0  0  0  0  0  0
  151.8212  144.4274  160.2185 C   0  0  0  0  0  0  0  0  0  0  0  0
  151.5979  141.4755  158.1800 N   0  0  0  0  0  0  0  0  0  0  0  0
  150.7950  137.5421  154.9230 C   0  0  0  0  0  0  0  0  0  0  0  0
  146.8094  138.1351  155.2812 H   0  0  0  0  0  0  0  0  0  0  0  0
  147.7503  138.2193  153.7971 H   0  0  0  0  0  0  0  0  0  0  0  0
  148.3875  138.9008  155.2946 H   0  0  0  0  0  0  0  0  0  0  0  0
  148.5161  136.5788  156.2897 H   0  0  0  0  0  0  0  0  0  0  0  0
  147.7675  135.9380  154.8514 H   0  0  0  0  0  0  0  0  0  0  0  0
  149.5641  134.4036  154.5315 H   0  0  0  0  0  0  0  0  0  0  0  0
  151.1059  135.0087  153.9823 H   0  0  0  0  0  0  0  0  0  0  0  0
  150.1633  135.0215  156.9082 H   0  0  0  0  0  0  0  0  0  0  0  0
  151.3934  133.9863  156.2129 H   0  0  0  0  0  0  0  0  0  0  0  0
  150.6220  137.3911  157.0858 H   0  0  0  0  0  0  0  0  0  0  0  0
  153.0866  137.9346  157.5174 H   0  0  0  0  0  0  0  0  0  0  0  0
  153.2410  138.2804  155.8039 H   0  0  0  0  0  0  0  0  0  0  0  0
  151.3899  139.9998  156.1732 H   0  0  0  0  0  0  0  0  0  0  0  0
  154.5166  140.3484  160.3744 H   0  0  0  0  0  0  0  0  0  0  0  0
  153.2314  142.4442  160.9908 H   0  0  0  0  0  0  0  0  0  0  0  0
  151.1106  145.2396  160.3696 H   0  0  0  0  0  0  0  0  0  0  0  0
  152.6512  144.8192  159.6290 H   0  0  0  0  0  0  0  0  0  0  0  0
  152.1906  144.1242  161.1992 H   0  0  0  0  0  0  0  0  0  0  0  0
  151.5901  137.4961  154.1774 H   0  0  0  0  0  0  0  0  0  0  0  0
  150.3828  138.5483  154.8595 H   0  0  0  0  0  0  0  0  0  0  0  0
  149.5992  136.6290  153.5741 H   0  0  0  0  0  0  0  0  0  0  0  0
  1  2  1  0  0  0  0
  1 19  1  0  0  0  0
  1 20  1  0  0  0  0
  1 21  1  0  0  0  0
  2  3  1  0  0  0  0
  2 22  1  0  0  0  0
  2 23  1  0  0  0  0
  3 18  1  0  0  0  0
  3  4  1  0  0  0  0
  3 39  1  0  0  0  0
  4  5  1  0  0  0  0
  4 24  1  0  0  0  0
  4 25  1  0  0  0  0
  5  6  1  0  0  0  0
  5 26  1  0  0  0  0
  5 27  1  0  0  0  0
  6  7  1  0  0  0  0
  7  8  1  0  0  0  0
  7 18  1  0  0  0  0
  7 28  1  0  0  0  0
  8  9  1  0  0  0  0
  8 29  1  0  0  0  0
  8 30  1  0  0  0  0
  9 10  1  0  0  0  0
  9 31  1  0  0  0  0
 10 17  1  0  0  0  0
 10 11  2  0  0  0  0
 11 12  1  0  0  0  0
 12 13  2  0  0  0  0
 12 32  1  0  0  0  0
 13 14  1  0  0  0  0
 13 33  1  0  0  0  0
 14 15  1  0  0  0  0
 14 17  2  0  0  0  0
 15 16  1  0  0  0  0
 16 34  1  0  0  0  0
 16 35  1  0  0  0  0
 16 36  1  0  0  0  0
 18 37  1  0  0  0  0
 18 38  1  0  0  0  0
M  CHG  1   3   1
M  END
> <s_m_source_file>
AV-unprocessed.smi

> <i_m_source_file_index>
3250

> <i_lp_mmshare_version>
43012

> <i_f3d_flags>
0

> <s_epik_input>
W0NIM11bQ0gyXU4xW0NIMl1bQ0gyXU9bQ0BIXShbQ0gyXTEpW0NIMl1bTkhdYzJuW2NIXVtjSF1jKG4yKU9bQ0gzXQ==

> <s_epik_cmdline>
J2VwaWtfcHl0aG9uJywgJy1waCcsICc3LjAnLCAnLXRuJywgJzgnLCAnLW1hJywgJzIwMCcsICctbWV0YWxfYmluZGluZycsICctaW1hZScsICc8aW5maWxlLm1hZT4nLCAnLW9tYWUnLCAnPG91dGZpbGUubWFlPic=

> <r_lp_tautomer_probability>
1

> <r_epik_Ionization_Penalty>
0.19684

> <r_epik_Ionization_Penalty_Charging>
0.178504

> <r_epik_Ionization_Penalty_Neutral>
0.0183356

> <r_epik_State_Penalty>
0.162939

> <r_epik_Charging_Adjusted_Penalty>
0.341443

> <i_epik_Tot_Q>
1

> <i_epik_Tot_abs_Q>
1

> <r_epik_Metal_State_Penalty>
0.1608

> <b_epik_Metal_Only>
0

> <s_lp_Force_Field>
OPLS_2005

> <r_lp_Energy>
11.5983

> <b_lp_Chiralities_Consistent>
1

> <s_lp_Variant>
AV-unprocessed.smi:3250-2

> <Gold.Version>
5.8.1

> <Gold.Id.Protein>
6NUR|6NUR_protein|mol2

> <Gold.PLP.Fitness>
37.3749

> <Gold.PLP.PLP>
-26.5527

> <Gold.PLP.part.hbond>
-3.0000

> <Gold.PLP.part.metal>
0.0000

> <Gold.PLP.part.buried>
-3.8694

> <Gold.PLP.part.nonpolar>
-19.8988

> <Gold.PLP.part.repulsive>
0.1931

> <Gold.PLP.ligand.clash>
0.0000

> <Gold.PLP.ligand.torsion>
0.5185

> <Gold.PLP.Chemscore.Hbond>
3.9440

> <Gold.PLP.Chemscore.CHOScore>
0.0000

> <Gold.PLP.Chemscore.Metal>
0.0000

> <Gold.Chemscore.Hbonds>
donor molecule, donor type, donor heavy atom, donor atom, acceptor molecule, acceptor atom, score
      L1  H     3    39       P1  7948  2.00
      P1  H  7997  8009       L1    11  0.80
      P1  H 10752 10764       L1     6  0.95

> <Gold.PLP.Chemscore.Internal.Correction>
0.0272

> <Gold.Rescore>
     Score         DG    S(hbond)    S(metal)    S(lipo)     H(rot)  DE(clash)    DE(int)     intcor
     13.85     -14.46       1.91        0.00      59.76       1.71       0.08       0.53       ----

> <Gold.Chemscore.Fitness>
13.8462

> <Gold.Chemscore.DG>
-14.4564

> <Gold.Chemscore.ZeroCoef>
-5.4800

> <Gold.Chemscore.Hbond>
1.9069

> <Gold.Chemscore.Metal>
0.0000

> <Gold.Chemscore.Lipo>
59.7608

> <Gold.Chemscore.Internal_Hbond>
0.0000

> <Gold.Chemscore.DEClash>
0.0787

> <Gold.Chemscore.DEInternal>
0.5315

> <Gold.Chemscore.Rot>
1.7127

> <Gold.Chemscore.Internal.Correction>
   9.000000E+99

> <Gold.Chemscore.Hbonds>
donor molecule, donor type, donor heavy atom, donor atom, acceptor molecule, acceptor atom, score
      L1  H     3    39       P1  7948  0.65
      P1  H  7997  8009       L1    11  0.13
      P1  H 10752 10764       L1     6  0.21

> <Gold.Chemscore.Hbond.Weighted>
-6.3690

> <Gold.Chemscore.Metal.Weighted>
-0.0000

> <Gold.Chemscore.Lipo.Weighted>
-6.9920

> <Gold.Chemscore.Internal_Hbond.Weighted>
0.0000

> <Gold.Chemscore.DEClash.Weighted>
0.0787

> <Gold.Chemscore.DEInternal.Weighted>
0.5315

> <Gold.Chemscore.Rot.Weighted>
4.3846

> <Gold.Chemscore.Internal.Correction.Weighted>
   9.000000E+99

> <Gold.Protein.RotatedTorsions>
[ 6907 6896 6895 6894 ] final -123.16 input  -60.11 | X-H torsion
[ 7974 7965 7964 7962 ] final  -60.15 input  175.53 | X-H torsion
[ 8008 7997 7996 7995 ] final  133.39 input   59.86 | X-H torsion
[ 10167 10162 10161 10158 ] final   -0.18 input  -65.29 | X-H torsion
[ 10718 10713 10712 10709 ] final   11.36 input   66.30 | X-H torsion
[ 10763 10752 10751 10750 ] final  -30.20 input  -60.55 | X-H torsion
[ 11005 11000 10999 10996 ] final  113.99 input  -57.11 | X-H torsion

> <Gold.Protein.ActiveResidues>
 VAL166  LYS551  ARG553  GLY616  TRP617  ASP618  TYR619  PRO620  LYS621  CYS622 
 ASP623  PHE694  ASN695  SER759  ASP760  ASP761  ALA762  ILE779  LEU786  VAL792 
 PHE793  MET794  SER795  GLU796  ALA797  LYS798  CYS799  TRP800  GLU811  SER814 

> <Gold.Protein.RotatedAtoms>
  150.8644  133.7596  159.2981 H   0  0  0  0  0  0  0  0  0  0  0  0  # atno 6907 bound_to 6896
  151.5228  135.1066  159.9892 H   0  0  0  0  0  0  0  0  0  0  0  0  # atno 6908 bound_to 6896
  152.4650  133.7859  159.6931 H   0  0  0  0  0  0  0  0  0  0  0  0  # atno 6909 bound_to 6896
  145.8189  140.8552  143.0143 H   0  0  0  0  0  0  0  0  0  0  0  0  # atno 7974 bound_to 7965
  156.2992  140.2522  156.3245 H   0  0  0  0  0  0  0  0  0  0  0  0  # atno 8008 bound_to 7997
  154.9203  140.0401  157.2013 H   0  0  0  0  0  0  0  0  0  0  0  0  # atno 8009 bound_to 7997
  154.8317  140.2877  155.5722 H   0  0  0  0  0  0  0  0  0  0  0  0  # atno 8010 bound_to 7997
  140.6756  143.6926  150.8016 H   0  0  0  0  0  0  0  0  0  0  0  0  # atno 10167 bound_to 10162
  156.9944  130.6055  149.5689 H   0  0  0  0  0  0  0  0  0  0  0  0  # atno 10718 bound_to 10713
  153.7771  135.6908  153.4895 H   0  0  0  0  0  0  0  0  0  0  0  0  # atno 10763 bound_to 10752
  153.1836  135.4497  155.0058 H   0  0  0  0  0  0  0  0  0  0  0  0  # atno 10764 bound_to 10752
  154.8096  135.3371  154.7276 H   0  0  0  0  0  0  0  0  0  0  0  0  # atno 10765 bound_to 10752
  139.8968  134.9560  156.6823 H   0  0  0  0  0  0  0  0  0  0  0  0  # atno 11005 bound_to 11000
  144.6749  140.0504  143.7479 LP  0  0  0  0  0  0  0  0  0  0  0  0  # atno 17320 bound_to 7965
  145.9696  139.2860  143.1106 LP  0  0  0  0  0  0  0  0  0  0  0  0  # atno 17321 bound_to 7965
  140.0618  143.5147  152.2624 LP  0  0  0  0  0  0  0  0  0  0  0  0  # atno 17342 bound_to 10162
  139.6046  144.7592  151.3091 LP  0  0  0  0  0  0  0  0  0  0  0  0  # atno 17343 bound_to 10162
  156.0195  130.5289  150.8233 LP  0  0  0  0  0  0  0  0  0  0  0  0  # atno 17370 bound_to 10713
  157.5435  131.0941  150.9794 LP  0  0  0  0  0  0  0  0  0  0  0  0  # atno 17371 bound_to 10713
  140.7289  133.9076  155.8198 LP  0  0  0  0  0  0  0  0  0  0  0  0  # atno 17394 bound_to 11000
  141.0168  134.0944  157.4163 LP  0  0  0  0  0  0  0  0  0  0  0  0  # atno 17395 bound_to 11000

$$$$
