AV-unprocessed.smi:37|AV-procd|sdf|332|dock1
  -GOLD-   2262016163D 1   1.00000     0.00000
 Structure written by MMmdl.
 43 44  0  0  0  0  0  0  0  0  2 V2000
  146.6429  134.0261  162.3446 C   0  0  0  0  0  0  0  0  0  0  0  0
  147.4273  135.2554  162.8266 C   0  0  0  0  0  0  0  0  0  0  0  0
  147.6169  136.3239  161.7478 C   0  0  0  0  0  0  0  0  0  0  0  0
  147.2049  137.4778  161.8791 O   0  0  0  0  0  0  0  0  0  0  0  0
  148.2711  135.8442  160.6808 O   0  0  0  0  0  0  0  0  0  0  0  0
  148.8410  136.7387  159.7389 C   0  0  0  0  0  0  0  0  0  0  0  0
  148.1536  136.5415  158.3823 C   0  0  1  0  0  0  0  0  0  0  0  0
  148.1799  137.7436  157.6123 O   0  0  0  0  0  0  0  0  0  0  0  0
  148.4274  137.4595  156.2626 C   0  0  1  0  0  0  0  0  0  0  0  0
  149.7904  137.9958  155.8701 N   0  0  0  0  0  0  0  0  0  0  0  0
  150.9380  137.6357  156.5582 C   0  0  0  0  0  0  0  0  0  0  0  0
  152.1473  138.1155  156.2029 C   0  0  0  0  0  0  0  0  0  0  0  0
  153.2419  137.7465  156.8904 F   0  0  0  0  0  0  0  0  0  0  0  0
  152.2577  139.0347  155.0720 C   0  0  0  0  0  0  0  0  0  0  0  0
  153.3628  139.4721  154.7547 O   0  0  0  0  0  0  0  0  0  0  0  0
  151.1129  139.3702  154.4098 N   0  5  0  0  0  0  0  0  0  0  0  0
  149.8871  138.8845  154.7637 C   0  0  0  0  0  0  0  0  0  0  0  0
  148.8511  139.1742  154.1650 O   0  0  0  0  0  0  0  0  0  0  0  0
  148.3957  135.9354  156.1093 C   0  0  2  0  0  0  0  0  0  0  0  0
  146.5279  135.3614  155.7003 Br  0  0  0  0  0  0  0  0  0  0  0  0
  148.8125  135.4831  157.4987 C   0  0  2  0  0  0  0  0  0  0  0  0
  148.3540  134.1749  157.8119 O   0  0  0  0  0  0  0  0  0  0  0  0
  149.2238  133.1540  157.8958 C   0  0  0  0  0  0  0  0  0  0  0  0
  150.4436  133.2289  157.7483 O   0  0  0  0  0  0  0  0  0  0  0  0
  148.5402  131.8258  158.2108 C   0  0  0  0  0  0  0  0  0  0  0  0
  149.0432  131.2137  159.5249 C   0  0  0  0  0  0  0  0  0  0  0  0
  146.5322  133.3021  163.1519 H   0  0  0  0  0  0  0  0  0  0  0  0
  147.1535  133.5259  161.5209 H   0  0  0  0  0  0  0  0  0  0  0  0
  145.6422  134.2989  162.0077 H   0  0  0  0  0  0  0  0  0  0  0  0
  146.9128  135.7084  163.6745 H   0  0  0  0  0  0  0  0  0  0  0  0
  148.4101  134.9465  163.1836 H   0  0  0  0  0  0  0  0  0  0  0  0
  148.6941  137.7618  160.0869 H   0  0  0  0  0  0  0  0  0  0  0  0
  149.9152  136.5711  159.6517 H   0  0  0  0  0  0  0  0  0  0  0  0
  147.1015  136.2943  158.5346 H   0  0  0  0  0  0  0  0  0  0  0  0
  147.7147  137.9901  155.6292 H   0  0  0  0  0  0  0  0  0  0  0  0
  150.8831  136.9592  157.3960 H   0  0  0  0  0  0  0  0  0  0  0  0
  149.0469  135.5757  155.3120 H   0  0  0  0  0  0  0  0  0  0  0  0
  149.8961  135.5629  157.6026 H   0  0  0  0  0  0  0  0  0  0  0  0
  147.4633  131.9877  158.2650 H   0  0  0  0  0  0  0  0  0  0  0  0
  148.7153  131.1357  157.3852 H   0  0  0  0  0  0  0  0  0  0  0  0
  148.5112  130.2882  159.7453 H   0  0  0  0  0  0  0  0  0  0  0  0
  148.8879  131.8924  160.3642 H   0  0  0  0  0  0  0  0  0  0  0  0
  150.1068  130.9779  159.4752 H   0  0  0  0  0  0  0  0  0  0  0  0
  1  2  1  0  0  0  0
  1 27  1  0  0  0  0
  1 28  1  0  0  0  0
  1 29  1  0  0  0  0
  2  3  1  0  0  0  0
  2 30  1  0  0  0  0
  2 31  1  0  0  0  0
  3  4  2  0  0  0  0
  3  5  1  0  0  0  0
  5  6  1  0  0  0  0
  6  7  1  0  0  0  0
  6 32  1  0  0  0  0
  6 33  1  0  0  0  0
  7 21  1  0  0  0  0
  7  8  1  0  0  0  0
  7 34  1  0  0  0  0
  8  9  1  0  0  0  0
  9 10  1  0  0  0  0
  9 19  1  0  0  0  0
  9 35  1  0  0  0  0
 10 17  1  0  0  0  0
 10 11  1  0  0  0  0
 11 12  2  0  0  0  0
 11 36  1  0  0  0  0
 12 13  1  0  0  0  0
 12 14  1  0  0  0  0
 14 15  2  0  0  0  0
 14 16  1  0  0  0  0
 16 17  1  0  0  0  0
 17 18  2  0  0  0  0
 19 20  1  0  0  0  0
 19 21  1  0  0  0  0
 19 37  1  0  0  0  0
 21 22  1  0  0  0  0
 21 38  1  0  0  0  0
 22 23  1  0  0  0  0
 23 24  2  0  0  0  0
 23 25  1  0  0  0  0
 25 26  1  0  0  0  0
 25 39  1  0  0  0  0
 25 40  1  0  0  0  0
 26 41  1  0  0  0  0
 26 42  1  0  0  0  0
 26 43  1  0  0  0  0
M  CHG  1  16  -1
M  END
> <s_m_source_file>
AV-unprocessed.smi

> <i_m_source_file_index>
37

> <i_lp_mmshare_version>
43012

> <i_f3d_flags>
0

> <s_epik_input>
W0NIM11bQ0gyXUMoPU8pT1tDSDJdW0NAQEhdMU9bQ0BASF0objJbY0hdYyhGKWMoPU8pW25IXWMyPU8pW0NAQEhdKEJyKVtDQEhdMU9DKD1PKVtDSDJdW0NIM10=

> <s_epik_cmdline>
J2VwaWtfcHl0aG9uJywgJy1waCcsICc3LjAnLCAnLXRuJywgJzgnLCAnLW1hJywgJzIwMCcsICctbWV0YWxfYmluZGluZycsICctaW1hZScsICc8aW5maWxlLm1hZT4nLCAnLW9tYWUnLCAnPG91dGZpbGUubWFlPic=

> <r_epik_Ionization_Penalty>
1.08158

> <r_epik_Ionization_Penalty_Charging>
9.05154e-09

> <r_epik_Ionization_Penalty_Neutral>
1.08158

> <r_epik_State_Penalty>
1.13706

> <r_epik_Charging_Adjusted_Penalty>
1.13706

> <i_epik_Tot_Q>
-1

> <i_epik_Tot_abs_Q>
1

> <r_epik_Metal_State_Penalty>
0.00343535

> <b_epik_Metal_Only>
0

> <s_epik_Chemistry_Notes>
This compound has an ester and may undergo hydrolysis at high or low pH. This compound contains an acetal/aminal-like group ( X-CH(R)-Y where X, Y are N, S, or O) that may be acid/base labile, releasing an aldehyde.

> <s_lp_Force_Field>
OPLS_2005

> <r_lp_Energy>
34.595

> <b_lp_Chiralities_Consistent>
1

> <s_lp_Variant>
AV-unprocessed.smi:37-30

> <Gold.Version>
5.8.1

> <Gold.Id.Protein>
6NUR|6NUR_protein|mol2

> <Gold.PLP.Fitness>
42.9885

> <Gold.PLP.PLP>
-32.3456

> <Gold.PLP.part.hbond>
-6.0000

> <Gold.PLP.part.metal>
0.0000

> <Gold.PLP.part.buried>
-5.6725

> <Gold.PLP.part.nonpolar>
-21.4065

> <Gold.PLP.part.repulsive>
0.3085

> <Gold.PLP.ligand.clash>
0.0000

> <Gold.PLP.ligand.torsion>
1.6155

> <Gold.PLP.Chemscore.Hbond>
4.5128

> <Gold.PLP.Chemscore.CHOScore>
0.0000

> <Gold.PLP.Chemscore.Metal>
0.0000

> <Gold.Chemscore.Hbonds>
donor molecule, donor type, donor heavy atom, donor atom, acceptor molecule, acceptor atom, score
      P1  H  6896  6909       L1    24  1.00
      P1  H  6931  6943       L1     4  0.50
      P1  H  6934  6947       L1     4  0.75
      P1  H  7989  7998       L1    16  1.00
      P1  H  7997  8008       L1    15  1.00

> <Gold.PLP.Chemscore.Internal.Correction>
0.3354

> <Gold.Rescore>
     Score         DG    S(hbond)    S(metal)    S(lipo)     H(rot)  DE(clash)    DE(int)     intcor
     14.37     -16.10       4.35        0.00      38.15       3.27       0.00       1.72       ----

> <Gold.Chemscore.Fitness>
14.3724

> <Gold.Chemscore.DG>
-16.0995

> <Gold.Chemscore.ZeroCoef>
-5.4800

> <Gold.Chemscore.Hbond>
4.3469

> <Gold.Chemscore.Metal>
0.0000

> <Gold.Chemscore.Lipo>
38.1546

> <Gold.Chemscore.Internal_Hbond>
0.0000

> <Gold.Chemscore.DEClash>
0.0037

> <Gold.Chemscore.DEInternal>
1.7235

> <Gold.Chemscore.Rot>
3.2669

> <Gold.Chemscore.Internal.Correction>
   9.000000E+99

> <Gold.Chemscore.Hbonds>
donor molecule, donor type, donor heavy atom, donor atom, acceptor molecule, acceptor atom, score
      P1  H  6896  6909       L1    24  0.66
      P1  H  6931  6943       L1     4  0.05
      P1  H  6934  6947       L1     4  0.74
      P1  H  7989  7998       L1    16  0.35
      P1  H  7997  8008       L1    15  0.94

> <Gold.Chemscore.Hbond.Weighted>
-14.5188

> <Gold.Chemscore.Metal.Weighted>
-0.0000

> <Gold.Chemscore.Lipo.Weighted>
-4.4641

> <Gold.Chemscore.Internal_Hbond.Weighted>
0.0000

> <Gold.Chemscore.DEClash.Weighted>
0.0037

> <Gold.Chemscore.DEInternal.Weighted>
1.7235

> <Gold.Chemscore.Rot.Weighted>
8.3634

> <Gold.Chemscore.Internal.Correction.Weighted>
   9.000000E+99

> <Gold.Protein.RotatedTorsions>
[ 6907 6896 6895 6894 ] final  -28.89 input  -60.11 | X-H torsion
[ 7974 7965 7964 7962 ] final  141.79 input  175.53 | X-H torsion
[ 8008 7997 7996 7995 ] final  -25.51 input   59.86 | X-H torsion
[ 10167 10162 10161 10158 ] final   -3.64 input  -65.29 | X-H torsion
[ 10718 10713 10712 10709 ] final   -4.35 input   66.30 | X-H torsion
[ 10763 10752 10751 10750 ] final -170.32 input  -60.55 | X-H torsion
[ 11005 11000 10999 10996 ] final -130.45 input  -57.11 | X-H torsion

> <Gold.Protein.ActiveResidues>
 VAL166  LYS551  ARG553  GLY616  TRP617  ASP618  TYR619  PRO620  LYS621  CYS622 
 ASP623  PHE694  ASN695  SER759  ASP760  ASP761  ALA762  ILE779  LEU786  VAL792 
 PHE793  MET794  SER795  GLU796  ALA797  LYS798  CYS799  TRP800  GLU811  SER814 

> <Gold.Protein.RotatedAtoms>
  151.1267  135.0108  159.8563 H   0  0  0  0  0  0  0  0  0  0  0  0  # atno 6907 bound_to 6896
  152.5450  134.1658  159.8586 H   0  0  0  0  0  0  0  0  0  0  0  0  # atno 6908 bound_to 6896
  151.1721  133.4732  159.2627 H   0  0  0  0  0  0  0  0  0  0  0  0  # atno 6909 bound_to 6896
  144.9065  139.5351  143.5729 H   0  0  0  0  0  0  0  0  0  0  0  0  # atno 7974 bound_to 7965
  154.4472  140.1924  156.0631 H   0  0  0  0  0  0  0  0  0  0  0  0  # atno 8008 bound_to 7997
  156.0568  140.3302  155.7387 H   0  0  0  0  0  0  0  0  0  0  0  0  # atno 8009 bound_to 7997
  155.5473  140.0592  157.2848 H   0  0  0  0  0  0  0  0  0  0  0  0  # atno 8010 bound_to 7997
  140.6898  143.6516  150.8345 H   0  0  0  0  0  0  0  0  0  0  0  0  # atno 10167 bound_to 10162
  156.7625  130.5274  149.5782 H   0  0  0  0  0  0  0  0  0  0  0  0  # atno 10718 bound_to 10713
  154.6428  135.2901  155.0083 H   0  0  0  0  0  0  0  0  0  0  0  0  # atno 10763 bound_to 10752
  154.1203  135.6549  153.4905 H   0  0  0  0  0  0  0  0  0  0  0  0  # atno 10764 bound_to 10752
  153.0335  135.5286  154.7302 H   0  0  0  0  0  0  0  0  0  0  0  0  # atno 10765 bound_to 10752
  140.9344  134.1276  157.4206 H   0  0  0  0  0  0  0  0  0  0  0  0  # atno 11005 bound_to 11000
  146.3136  139.7837  142.9000 LP  0  0  0  0  0  0  0  0  0  0  0  0  # atno 17320 bound_to 7965
  145.3526  141.0310  143.3330 LP  0  0  0  0  0  0  0  0  0  0  0  0  # atno 17321 bound_to 7965
  140.0228  143.5525  152.2793 LP  0  0  0  0  0  0  0  0  0  0  0  0  # atno 17342 bound_to 10162
  139.6289  144.7641  151.2578 LP  0  0  0  0  0  0  0  0  0  0  0  0  # atno 17343 bound_to 10162
  156.1330  130.6191  151.0360 LP  0  0  0  0  0  0  0  0  0  0  0  0  # atno 17370 bound_to 10713
  157.6728  131.0857  150.7570 LP  0  0  0  0  0  0  0  0  0  0  0  0  # atno 17371 bound_to 10713
  139.8804  135.0016  156.6077 LP  0  0  0  0  0  0  0  0  0  0  0  0  # atno 17394 bound_to 11000
  140.7819  133.8653  155.8574 LP  0  0  0  0  0  0  0  0  0  0  0  0  # atno 17395 bound_to 11000

$$$$
