AV-unprocessed.smi:2099|AV-procd|sdf|8572|dock6
  -GOLD-   2272011303D 1   1.00000     0.00000
 Structure written by MMmdl.
 31 32  0  0  0  0  0  0  0  0  2 V2000
  152.4603  141.9754  159.1677 C   0  0  0  0  0  0  0  0  0  0  0  0
  152.1567  140.6695  158.4200 C   0  0  2  0  0  0  0  0  0  0  0  0
  150.7367  140.6809  157.8225 C   0  0  0  0  0  0  0  0  0  0  0  0
  150.4250  139.3713  157.0771 C   0  0  0  0  0  0  0  0  0  0  0  0
  150.6231  138.1296  157.9727 C   0  0  2  0  0  0  0  0  0  0  0  0
  149.6110  138.0593  159.0266 N   0  0  0  0  0  0  0  0  0  0  0  0
  148.8859  136.9830  159.3630 C   0  0  0  0  0  0  0  0  0  0  0  0
  149.0498  135.9173  158.7645 O   0  0  0  0  0  0  0  0  0  0  0  0
  148.0109  137.2105  160.3692 N   0  5  0  0  0  0  0  0  0  0  0  0
  147.4397  136.1769  161.0089 C   0  0  0  0  0  0  0  0  0  0  0  0
  146.8659  135.1543  160.3546 N   0  0  0  0  0  0  0  0  0  0  0  0
  146.3425  134.1882  161.2033 N   0  0  0  0  0  0  0  0  0  0  0  0
  146.5432  134.5052  162.4824 C   0  0  0  0  0  0  0  0  0  0  0  0
  147.3914  136.0103  162.7663 S   0  0  0  0  0  0  0  0  0  0  0  0
  152.0344  138.1279  158.5919 C   0  0  0  0  0  0  0  0  0  0  0  0
  152.3488  139.4416  159.3308 C   0  0  0  0  0  0  0  0  0  0  0  0
  151.7833  142.1152  160.0112 H   0  0  0  0  0  0  0  0  0  0  0  0
  152.3554  142.8384  158.5095 H   0  0  0  0  0  0  0  0  0  0  0  0
  153.4796  141.9786  159.5547 H   0  0  0  0  0  0  0  0  0  0  0  0
  152.8668  140.5903  157.5955 H   0  0  0  0  0  0  0  0  0  0  0  0
  150.0025  140.8341  158.6146 H   0  0  0  0  0  0  0  0  0  0  0  0
  150.6275  141.5224  157.1377 H   0  0  0  0  0  0  0  0  0  0  0  0
  149.4095  139.4015  156.6812 H   0  0  0  0  0  0  0  0  0  0  0  0
  151.0815  139.2920  156.2098 H   0  0  0  0  0  0  0  0  0  0  0  0
  150.5282  137.2343  157.3558 H   0  0  0  0  0  0  0  0  0  0  0  0
  149.4413  138.9077  159.5466 H   0  0  0  0  0  0  0  0  0  0  0  0
  146.1928  133.8470  163.2634 H   0  0  0  0  0  0  0  0  0  0  0  0
  152.1473  137.2814  159.2705 H   0  0  0  0  0  0  0  0  0  0  0  0
  152.7706  137.9807  157.8006 H   0  0  0  0  0  0  0  0  0  0  0  0
  153.3733  139.4118  159.7031 H   0  0  0  0  0  0  0  0  0  0  0  0
  151.7081  139.5299  160.2091 H   0  0  0  0  0  0  0  0  0  0  0  0
  1  2  1  0  0  0  0
  1 17  1  0  0  0  0
  1 18  1  0  0  0  0
  1 19  1  0  0  0  0
  2 16  1  0  0  0  0
  2  3  1  0  0  0  0
  2 20  1  0  0  0  0
  3  4  1  0  0  0  0
  3 21  1  0  0  0  0
  3 22  1  0  0  0  0
  4  5  1  0  0  0  0
  4 23  1  0  0  0  0
  4 24  1  0  0  0  0
  5  6  1  0  0  0  0
  5 15  1  0  0  0  0
  5 25  1  0  0  0  0
  6  7  1  0  0  0  0
  6 26  1  0  0  0  0
  7  8  2  0  0  0  0
  7  9  1  0  0  0  0
  9 10  1  0  0  0  0
 10 14  1  0  0  0  0
 10 11  2  0  0  0  0
 11 12  1  0  0  0  0
 12 13  2  0  0  0  0
 13 14  1  0  0  0  0
 13 27  1  0  0  0  0
 15 16  1  0  0  0  0
 15 28  1  0  0  0  0
 15 29  1  0  0  0  0
 16 30  1  0  0  0  0
 16 31  1  0  0  0  0
M  CHG  1   9  -1
M  END
> <s_m_source_file>
AV-unprocessed.smi

> <i_m_source_file_index>
2099

> <i_lp_mmshare_version>
43012

> <i_f3d_flags>
0

> <s_epik_input>
W0NIM11bQ0BASF0xW0NIMl1bQ0gyXVtDQEhdKFtDSDJdW0NIMl0xKVtOSF1DKD1PKVtOSF1jMm5uW2NIXXMy

> <s_epik_cmdline>
J2VwaWtfcHl0aG9uJywgJy1waCcsICc3LjAnLCAnLXRuJywgJzgnLCAnLW1hJywgJzIwMCcsICctbWV0YWxfYmluZGluZycsICctaW1hZScsICc8aW5maWxlLm1hZT4nLCAnLW9tYWUnLCAnPG91dGZpbGUubWFlPic=

> <r_lp_tautomer_probability>
1

> <r_epik_Ionization_Penalty>
4.54895

> <r_epik_Ionization_Penalty_Charging>
4.4996

> <r_epik_Ionization_Penalty_Neutral>
0.0493438

> <r_epik_State_Penalty>
4.4993

> <r_epik_Charging_Adjusted_Penalty>
8.99891

> <i_epik_Tot_Q>
-1

> <i_epik_Tot_abs_Q>
1

> <r_epik_Metal_State_Penalty>
0.819079

> <b_epik_Metal_Only>
1

> <s_lp_Force_Field>
OPLS_2005

> <r_lp_Energy>
5.8403

> <b_lp_Chiralities_Consistent>
1

> <s_lp_Variant>
AV-unprocessed.smi:2099-4

> <Gold.Version>
5.8.1

> <Gold.Id.Protein>
6NUR|6NUR_protein|mol2

> <Gold.PLP.Fitness>
36.5006

> <Gold.PLP.PLP>
-26.8416

> <Gold.PLP.part.hbond>
-3.0000

> <Gold.PLP.part.metal>
0.0000

> <Gold.PLP.part.buried>
-4.5019

> <Gold.PLP.part.nonpolar>
-21.7169

> <Gold.PLP.part.repulsive>
0.6720

> <Gold.PLP.ligand.clash>
0.0000

> <Gold.PLP.ligand.torsion>
0.6453

> <Gold.PLP.Chemscore.Hbond>
3.6474

> <Gold.PLP.Chemscore.CHOScore>
0.0000

> <Gold.PLP.Chemscore.Metal>
0.0000

> <Gold.Chemscore.Hbonds>
donor molecule, donor type, donor heavy atom, donor atom, acceptor molecule, acceptor atom, score
      P1  H  6896  6908       L1     8  0.20
      P1  H  6931  6943       L1     9  1.12
      P1  H  6934  6947       L1     9  1.39

> <Gold.PLP.Chemscore.Internal.Correction>
0.0072

> <Gold.Rescore>
     Score         DG    S(hbond)    S(metal)    S(lipo)     H(rot)  DE(clash)    DE(int)     intcor
     13.20     -15.20       1.71        0.00      56.20       1.00       0.07       1.93       ----

> <Gold.Chemscore.Fitness>
13.1959

> <Gold.Chemscore.DG>
-15.2004

> <Gold.Chemscore.ZeroCoef>
-5.4800

> <Gold.Chemscore.Hbond>
1.7079

> <Gold.Chemscore.Metal>
0.0000

> <Gold.Chemscore.Lipo>
56.2050

> <Gold.Chemscore.Internal_Hbond>
0.0000

> <Gold.Chemscore.DEClash>
0.0727

> <Gold.Chemscore.DEInternal>
1.9318

> <Gold.Chemscore.Rot>
1.0000

> <Gold.Chemscore.Internal.Correction>
   9.000000E+99

> <Gold.Chemscore.Hbonds>
donor molecule, donor type, donor heavy atom, donor atom, acceptor molecule, acceptor atom, score
      P1  H  6896  6908       L1     8  0.11
      P1  H  6931  6943       L1     9  0.17
      P1  H  6934  6947       L1     9  0.56

> <Gold.Chemscore.Hbond.Weighted>
-5.7044

> <Gold.Chemscore.Metal.Weighted>
-0.0000

> <Gold.Chemscore.Lipo.Weighted>
-6.5760

> <Gold.Chemscore.Internal_Hbond.Weighted>
0.0000

> <Gold.Chemscore.DEClash.Weighted>
0.0727

> <Gold.Chemscore.DEInternal.Weighted>
1.9318

> <Gold.Chemscore.Rot.Weighted>
2.5600

> <Gold.Chemscore.Internal.Correction.Weighted>
   9.000000E+99

> <Gold.Protein.RotatedTorsions>
[ 6907 6896 6895 6894 ] final -159.32 input  -60.11 | X-H torsion
[ 7974 7965 7964 7962 ] final   14.90 input  175.53 | X-H torsion
[ 8008 7997 7996 7995 ] final  109.38 input   59.86 | X-H torsion
[ 10167 10162 10161 10158 ] final  -35.68 input  -65.29 | X-H torsion
[ 10718 10713 10712 10709 ] final  110.84 input   66.30 | X-H torsion
[ 10763 10752 10751 10750 ] final -117.15 input  -60.55 | X-H torsion
[ 11005 11000 10999 10996 ] final   63.61 input  -57.11 | X-H torsion

> <Gold.Protein.ActiveResidues>
 VAL166  LYS551  ARG553  GLY616  TRP617  ASP618  TYR619  PRO620  LYS621  CYS622 
 ASP623  PHE694  ASN695  SER759  ASP760  ASP761  ALA762  ILE779  LEU786  VAL792 
 PHE793  MET794  SER795  GLU796  ALA797  LYS798  CYS799  TRP800  GLU811  SER814 

> <Gold.Protein.RotatedAtoms>
  151.3318  133.3997  159.2663 H   0  0  0  0  0  0  0  0  0  0  0  0  # atno 6907 bound_to 6896
  150.9949  134.9276  159.7931 H   0  0  0  0  0  0  0  0  0  0  0  0  # atno 6908 bound_to 6896
  152.5258  134.3283  159.9226 H   0  0  0  0  0  0  0  0  0  0  0  0  # atno 6909 bound_to 6896
  146.2293  139.8973  142.8545 H   0  0  0  0  0  0  0  0  0  0  0  0  # atno 7974 bound_to 7965
  156.1975  140.3059  155.9457 H   0  0  0  0  0  0  0  0  0  0  0  0  # atno 8008 bound_to 7997
  155.3032  140.0447  157.3048 H   0  0  0  0  0  0  0  0  0  0  0  0  # atno 8009 bound_to 7997
  154.5528  140.2296  155.8467 H   0  0  0  0  0  0  0  0  0  0  0  0  # atno 8010 bound_to 7997
  140.7159  143.3460  151.2255 H   0  0  0  0  0  0  0  0  0  0  0  0  # atno 10167 bound_to 10162
  157.6474  131.0940  150.6661 H   0  0  0  0  0  0  0  0  0  0  0  0  # atno 10718 bound_to 10713
  154.8545  135.4320  154.1933 H   0  0  0  0  0  0  0  0  0  0  0  0  # atno 10763 bound_to 10752
  153.2997  135.6968  153.7221 H   0  0  0  0  0  0  0  0  0  0  0  0  # atno 10764 bound_to 10752
  153.6356  135.3477  155.3030 H   0  0  0  0  0  0  0  0  0  0  0  0  # atno 10765 bound_to 10752
  140.0013  134.6438  155.9926 H   0  0  0  0  0  0  0  0  0  0  0  0  # atno 11005 bound_to 11000
  145.2358  140.9990  143.3964 LP  0  0  0  0  0  0  0  0  0  0  0  0  # atno 17320 bound_to 7965
  144.9492  139.4101  143.6411 LP  0  0  0  0  0  0  0  0  0  0  0  0  # atno 17321 bound_to 7965
  139.6980  143.9581  152.2892 LP  0  0  0  0  0  0  0  0  0  0  0  0  # atno 17342 bound_to 10162
  139.9264  144.6768  150.8407 LP  0  0  0  0  0  0  0  0  0  0  0  0  # atno 17343 bound_to 10162
  156.6976  130.4613  149.5582 LP  0  0  0  0  0  0  0  0  0  0  0  0  # atno 17370 bound_to 10713
  156.1818  130.6503  151.0960 LP  0  0  0  0  0  0  0  0  0  0  0  0  # atno 17371 bound_to 10713
  141.1644  133.6537  156.4428 LP  0  0  0  0  0  0  0  0  0  0  0  0  # atno 17394 bound_to 11000
  140.4723  134.6742  157.5134 LP  0  0  0  0  0  0  0  0  0  0  0  0  # atno 17395 bound_to 11000

$$$$
