#       Name:                AV-unprocessed.smi:1866
#       Creating user name   scv26
#       Creation time:       Fri Mar 27 09:27:29 2020


#       File generated by GOLD software.
#

@<TRIPOS>MOLECULE
AV-unprocessed.smi:1866
    36    37     1
SMALL
NO_CHARGES


@<TRIPOS>ATOM
      1 ****        -6.5637   1.8447   0.7516 C.3            1 S1                 0.0000
      2 ****        -5.1927   1.2901   0.5654 C.2            1 S1                 0.0000
      3 ****        -4.9011  -0.0026   0.7554 N.2            1 S1                 0.0000
      4 ****        -3.5609  -0.2791   0.5238 N.2            1 S1                 0.0000
      5 ****        -2.8791   0.8174   0.1649 C.2            1 S1                 0.0000
      6 ****        -1.4901   0.8215  -0.1306 N.am           1 S1                 0.0000
      7 ****        -0.6337  -0.2152  -0.1229 C.2            1 S1                 0.0000
      8 ****        -0.9274  -1.3799   0.1483 O.2            1 S1                 0.0000
      9 ****         0.6055   0.1775  -0.4519 N.am           1 S1                 0.0000
     10 ****         1.7691  -0.6991  -0.5703 C.3            1 S1                 0.0000
     11 ****         2.3862  -0.9884   0.8113 C.3            1 S1                 0.0000
     12 ****         3.7093  -1.7433   0.6546 C.3            1 S1                 0.0000
     13 ****         4.6908  -0.9342  -0.2088 C.3            1 S1                 0.0000
     14 ****         4.0777  -0.3809  -1.4172 N.am           1 S1                 0.0000
     15 ****         2.7644  -0.1751  -1.6210 C.2            1 S1                 0.0000
     16 ****         2.3545   0.3821  -2.6382 O.2            1 S1                 0.0000
     17 ****        -3.8291   2.2912   0.0818 S.3            1 S1                 0.0000
     18 ****        -7.2992   1.0414   0.8091 H              1 S1                 0.0000
     19 ****        -6.8214   2.4935  -0.0856 H              1 S1                 0.0000
     20 ****        -6.6075   2.4261   1.6727 H              1 S1                 0.0000
     21 ****        -1.1035   1.7200  -0.3787 H              1 S1                 0.0000
     22 ****         0.7552   1.1528  -0.6647 H              1 S1                 0.0000
     23 ****         1.4287  -1.6527  -0.9789 H              1 S1                 0.0000
     24 ****         2.5614  -0.0542   1.3474 H              1 S1                 0.0000
     25 ****         1.6959  -1.5727   1.4208 H              1 S1                 0.0000
     26 ****         4.1486  -1.9503   1.6307 H              1 S1                 0.0000
     27 ****         3.5208  -2.7108   0.1872 H              1 S1                 0.0000
     28 ****         5.0875  -0.1009   0.3722 H              1 S1                 0.0000
     29 ****         5.5432  -1.5529  -0.4903 H              1 S1                 0.0000
     30 ****         4.7116  -0.0662  -2.1376 H              1 S1                 0.0000
     31 ****        -5.5722  -0.6903   1.0325 LP             1 S1                 0.0000
     32 ****        -3.1529  -1.1876   0.6139 LP             1 S1                 0.0000
     33 ****        -1.8694  -1.6153   0.3876 LP             1 S1                 0.0000
     34 ****        -0.2240  -2.0904   0.1292 LP             1 S1                 0.0000
     35 ****         1.3718   0.4958  -2.7846 LP             1 S1                 0.0000
     36 ****         3.0039   0.7213  -3.3188 LP             1 S1                 0.0000
@<TRIPOS>BOND
    1    1    2 1     
    2    1   18 1     
    3    1   19 1     
    4    1   20 1     
    5    2   17 1     
    6    2    3 2     
    7    3    4 1     
    8    4    5 2     
    9    5    6 1     
   10    5   17 1     
   11    6    7 am    
   12    6   21 1     
   13    7    8 2     
   14    7    9 am    
   15    9   10 1     
   16    9   22 1     
   17   10   15 1     
   18   10   11 1     
   19   10   23 1     
   20   11   12 1     
   21   11   24 1     
   22   11   25 1     
   23   12   13 1     
   24   12   26 1     
   25   12   27 1     
   26   13   14 1     
   27   13   28 1     
   28   13   29 1     
   29   14   15 am    
   30   14   30 1     
   31   15   16 2     
   32    3   31 1     
   33    4   32 1     
   34    8   33 1     
   35    8   34 1     
   36   16   35 1     
   37   16   36 1     
@<TRIPOS>SUBSTRUCTURE
      1 S1             1
@<TRIPOS>SET
LONE_PAIRS      STATIC     ATOMS    <user>   **** ""
6 31 32 33 34 35 36
DONOR_HYDROGENS      STATIC     ATOMS    <user>   **** ""
3 21 22 30
ATOM$BLUE        STATIC     ATOMS    COLORGROUP SYSTEM
6 31 32 33 34 35 36
ATOM$RED        STATIC     ATOMS    COLORGROUP SYSTEM
3 21 22 30
