AV-unprocessed.smi:1586|AV-procd|sdf|6385|dock4
  -GOLD-   22720 7 23D 1   1.00000     0.00000
 Structure written by MMmdl.
 45 46  0  0  0  0  0  0  0  0  2 V2000
  151.3653  145.1355  159.4834 C   0  0  0  0  0  0  0  0  0  0  0  0
  152.3388  144.5197  158.4683 C   0  0  0  0  0  0  0  0  0  0  0  0
  152.2372  143.0692  158.3175 N   0  0  0  0  0  0  0  0  0  0  0  0
  152.3758  142.4014  159.6097 C   0  0  0  0  0  0  0  0  0  0  0  0
  152.2859  140.8705  159.4751 C   0  0  0  0  0  0  0  0  0  0  0  0
  151.0100  140.4400  158.8872 N   0  0  0  0  0  0  0  0  0  0  0  0
  150.9083  138.9694  158.7660 C   0  0  2  0  0  0  0  0  0  0  0  0
  151.9347  138.3602  157.7841 C   0  0  0  0  0  0  0  0  0  0  0  0
  149.4996  138.4671  158.3612 C   0  0  0  0  0  0  0  0  0  0  0  0
  149.3386  137.0413  158.6271 N   0  0  0  0  0  0  0  0  0  0  0  0
  148.6114  136.5162  159.6214 C   0  0  0  0  0  0  0  0  0  0  0  0
  148.0096  137.2601  160.3996 O   0  0  0  0  0  0  0  0  0  0  0  0
  148.6285  135.1636  159.6537 N   0  5  0  0  0  0  0  0  0  0  0  0
  147.6556  134.4898  160.2860 C   0  0  0  0  0  0  0  0  0  0  0  0
  146.9262  134.9407  161.4202 C   0  0  0  0  0  0  0  0  0  0  0  0
  146.0800  133.9006  161.6809 C   0  0  0  0  0  0  0  0  0  0  0  0
  145.0312  133.6846  162.7181 C   0  0  0  0  0  0  0  0  0  0  0  0
  146.2820  132.8931  160.7898 O   0  0  0  0  0  0  0  0  0  0  0  0
  147.2959  133.2758  159.9036 N   0  0  0  0  0  0  0  0  0  0  0  0
  150.8663  141.1249  157.5956 C   0  0  0  0  0  0  0  0  0  0  0  0
  150.9607  142.6559  157.7338 C   0  0  0  0  0  0  0  0  0  0  0  0
  151.4287  146.2235  159.4616 H   0  0  0  0  0  0  0  0  0  0  0  0
  151.5854  144.8203  160.5030 H   0  0  0  0  0  0  0  0  0  0  0  0
  150.3348  144.8592  159.2578 H   0  0  0  0  0  0  0  0  0  0  0  0
  152.1418  144.9871  157.5026 H   0  0  0  0  0  0  0  0  0  0  0  0
  153.3612  144.7950  158.7312 H   0  0  0  0  0  0  0  0  0  0  0  0
  153.3350  142.6628  160.0579 H   0  0  0  0  0  0  0  0  0  0  0  0
  151.6051  142.7523  160.2983 H   0  0  0  0  0  0  0  0  0  0  0  0
  153.1192  140.5025  158.8745 H   0  0  0  0  0  0  0  0  0  0  0  0
  152.4072  140.4517  160.4726 H   0  0  0  0  0  0  0  0  0  0  0  0
  151.1200  138.5371  159.7451 H   0  0  0  0  0  0  0  0  0  0  0  0
  151.7579  137.2941  157.6389 H   0  0  0  0  0  0  0  0  0  0  0  0
  152.9569  138.4503  158.1498 H   0  0  0  0  0  0  0  0  0  0  0  0
  151.8828  138.8375  156.8050 H   0  0  0  0  0  0  0  0  0  0  0  0
  148.7369  139.0134  158.9181 H   0  0  0  0  0  0  0  0  0  0  0  0
  149.2912  138.6750  157.3117 H   0  0  0  0  0  0  0  0  0  0  0  0
  149.8117  136.4037  158.0035 H   0  0  0  0  0  0  0  0  0  0  0  0
  147.0082  135.8771  161.9512 H   0  0  0  0  0  0  0  0  0  0  0  0
  144.2890  134.4823  162.6876 H   0  0  0  0  0  0  0  0  0  0  0  0
  145.4726  133.6702  163.7147 H   0  0  0  0  0  0  0  0  0  0  0  0
  144.5141  132.7370  162.5643 H   0  0  0  0  0  0  0  0  0  0  0  0
  151.6247  140.7696  156.8963 H   0  0  0  0  0  0  0  0  0  0  0  0
  149.8979  140.9000  157.1516 H   0  0  0  0  0  0  0  0  0  0  0  0
  150.1333  143.0199  158.3451 H   0  0  0  0  0  0  0  0  0  0  0  0
  150.8382  143.0987  156.7458 H   0  0  0  0  0  0  0  0  0  0  0  0
  1  2  1  0  0  0  0
  1 22  1  0  0  0  0
  1 23  1  0  0  0  0
  1 24  1  0  0  0  0
  2  3  1  0  0  0  0
  2 25  1  0  0  0  0
  2 26  1  0  0  0  0
  3 21  1  0  0  0  0
  3  4  1  0  0  0  0
  4  5  1  0  0  0  0
  4 27  1  0  0  0  0
  4 28  1  0  0  0  0
  5  6  1  0  0  0  0
  5 29  1  0  0  0  0
  5 30  1  0  0  0  0
  6  7  1  0  0  0  0
  6 20  1  0  0  0  0
  7  8  1  0  0  0  0
  7  9  1  0  0  0  0
  7 31  1  0  0  0  0
  8 32  1  0  0  0  0
  8 33  1  0  0  0  0
  8 34  1  0  0  0  0
  9 10  1  0  0  0  0
  9 35  1  0  0  0  0
  9 36  1  0  0  0  0
 10 11  1  0  0  0  0
 10 37  1  0  0  0  0
 11 12  2  0  0  0  0
 11 13  1  0  0  0  0
 13 14  1  0  0  0  0
 14 19  2  0  0  0  0
 14 15  1  0  0  0  0
 15 16  2  0  0  0  0
 15 38  1  0  0  0  0
 16 17  1  0  0  0  0
 16 18  1  0  0  0  0
 17 39  1  0  0  0  0
 17 40  1  0  0  0  0
 17 41  1  0  0  0  0
 18 19  1  0  0  0  0
 20 21  1  0  0  0  0
 20 42  1  0  0  0  0
 20 43  1  0  0  0  0
 21 44  1  0  0  0  0
 21 45  1  0  0  0  0
M  CHG  1  13  -1
M  END
> <s_m_source_file>
AV-unprocessed.smi

> <i_m_source_file_index>
1586

> <i_lp_mmshare_version>
43012

> <i_f3d_flags>
0

> <s_epik_input>
W0NIM11bQ0gyXU4xW0NIMl1bQ0gyXU4oW0NIMl1bQ0gyXTEpW0NASF0oW0NIM10pW0NIMl1bTkhdQyg9TylbTkhdYzJbY0hdYyhbQ0gzXSlvbjI=

> <s_epik_cmdline>
J2VwaWtfcHl0aG9uJywgJy1waCcsICc3LjAnLCAnLXRuJywgJzgnLCAnLW1hJywgJzIwMCcsICctbWV0YWxfYmluZGluZycsICctaW1hZScsICc8aW5maWxlLm1hZT4nLCAnLW9tYWUnLCAnPG91dGZpbGUubWFlPic=

> <r_epik_Ionization_Penalty>
9.09031

> <r_epik_Ionization_Penalty_Charging>
6.65437

> <r_epik_Ionization_Penalty_Neutral>
2.43594

> <r_epik_State_Penalty>
8.41762

> <r_epik_Charging_Adjusted_Penalty>
15.072

> <i_epik_Tot_Q>
-1

> <i_epik_Tot_abs_Q>
1

> <r_epik_Metal_State_Penalty>
4.3436

> <b_epik_Metal_Only>
1

> <s_lp_Force_Field>
OPLS_2005

> <r_lp_Energy>
37.6489

> <b_lp_Chiralities_Consistent>
1

> <s_lp_Variant>
AV-unprocessed.smi:1586-13

> <Gold.Version>
5.8.1

> <Gold.Id.Protein>
6NUR|6NUR_protein|mol2

> <Gold.PLP.Fitness>
45.8471

> <Gold.PLP.PLP>
-36.5513

> <Gold.PLP.part.hbond>
-3.0000

> <Gold.PLP.part.metal>
0.0000

> <Gold.PLP.part.buried>
-4.6717

> <Gold.PLP.part.nonpolar>
-29.9746

> <Gold.PLP.part.repulsive>
0.1835

> <Gold.PLP.ligand.clash>
0.0000

> <Gold.PLP.ligand.torsion>
0.5121

> <Gold.PLP.Chemscore.Hbond>
3.4080

> <Gold.PLP.Chemscore.CHOScore>
0.0000

> <Gold.PLP.Chemscore.Metal>
0.0000

> <Gold.Chemscore.Hbonds>
donor molecule, donor type, donor heavy atom, donor atom, acceptor molecule, acceptor atom, score
      P1  H  6896  6909       L1    13  1.56
      P1  H  6931  6943       L1    12  0.64
      P1  H  6934  6947       L1    12  0.74

> <Gold.PLP.Chemscore.Internal.Correction>
0.0961

> <Gold.Rescore>
     Score         DG    S(hbond)    S(metal)    S(lipo)     H(rot)  DE(clash)    DE(int)     intcor
     17.02     -19.24       2.05        0.00      95.71       1.68       0.19       2.03       ----

> <Gold.Chemscore.Fitness>
17.0214

> <Gold.Chemscore.DG>
-19.2426

> <Gold.Chemscore.ZeroCoef>
-5.4800

> <Gold.Chemscore.Hbond>
2.0547

> <Gold.Chemscore.Metal>
0.0000

> <Gold.Chemscore.Lipo>
95.7084

> <Gold.Chemscore.Internal_Hbond>
0.0000

> <Gold.Chemscore.DEClash>
0.1886

> <Gold.Chemscore.DEInternal>
2.0326

> <Gold.Chemscore.Rot>
1.6788

> <Gold.Chemscore.Internal.Correction>
   9.000000E+99

> <Gold.Chemscore.Hbonds>
donor molecule, donor type, donor heavy atom, donor atom, acceptor molecule, acceptor atom, score
      P1  H  6896  6909       L1    13  0.41
      P1  H  6931  6943       L1    12  0.61
      P1  H  6934  6947       L1    12  0.70

> <Gold.Chemscore.Hbond.Weighted>
-6.8626

> <Gold.Chemscore.Metal.Weighted>
-0.0000

> <Gold.Chemscore.Lipo.Weighted>
-11.1979

> <Gold.Chemscore.Internal_Hbond.Weighted>
0.0000

> <Gold.Chemscore.DEClash.Weighted>
0.1886

> <Gold.Chemscore.DEInternal.Weighted>
2.0326

> <Gold.Chemscore.Rot.Weighted>
4.2978

> <Gold.Chemscore.Internal.Correction.Weighted>
   9.000000E+99

> <Gold.Protein.RotatedTorsions>
[ 6907 6896 6895 6894 ] final   51.66 input  -60.11 | X-H torsion
[ 7974 7965 7964 7962 ] final   -2.04 input  175.53 | X-H torsion
[ 8008 7997 7996 7995 ] final -163.26 input   59.86 | X-H torsion
[ 10167 10162 10161 10158 ] final   -0.45 input  -65.29 | X-H torsion
[ 10718 10713 10712 10709 ] final  129.26 input   66.30 | X-H torsion
[ 10763 10752 10751 10750 ] final   91.42 input  -60.55 | X-H torsion
[ 11005 11000 10999 10996 ] final -153.41 input  -57.11 | X-H torsion

> <Gold.Protein.ActiveResidues>
 VAL166  LYS551  ARG553  GLY616  TRP617  ASP618  TYR619  PRO620  LYS621  CYS622 
 ASP623  PHE694  ASN695  SER759  ASP760  ASP761  ALA762  ILE779  LEU786  VAL792 
 PHE793  MET794  SER795  GLU796  ALA797  LYS798  CYS799  TRP800  GLU811  SER814 

> <Gold.Protein.RotatedAtoms>
  152.3150  134.7451  160.0327 H   0  0  0  0  0  0  0  0  0  0  0  0  # atno 6907 bound_to 6896
  151.7919  133.3355  159.3509 H   0  0  0  0  0  0  0  0  0  0  0  0  # atno 6908 bound_to 6896
  150.7340  134.5765  159.5961 H   0  0  0  0  0  0  0  0  0  0  0  0  # atno 6909 bound_to 6896
  146.2409  140.1512  142.8334 H   0  0  0  0  0  0  0  0  0  0  0  0  # atno 7974 bound_to 7965
  155.8187  140.0916  157.1862 H   0  0  0  0  0  0  0  0  0  0  0  0  # atno 8008 bound_to 7997
  154.3979  140.1441  156.3534 H   0  0  0  0  0  0  0  0  0  0  0  0  # atno 8009 bound_to 7997
  155.8289  140.3443  155.5562 H   0  0  0  0  0  0  0  0  0  0  0  0  # atno 8010 bound_to 7997
  140.6768  143.6893  150.8040 H   0  0  0  0  0  0  0  0  0  0  0  0  # atno 10167 bound_to 10162
  157.5171  131.1097  150.9209 H   0  0  0  0  0  0  0  0  0  0  0  0  # atno 10718 bound_to 10713
  153.2080  135.4398  155.0346 H   0  0  0  0  0  0  0  0  0  0  0  0  # atno 10763 bound_to 10752
  154.8184  135.3326  154.7111 H   0  0  0  0  0  0  0  0  0  0  0  0  # atno 10764 bound_to 10752
  153.7551  135.6995  153.4993 H   0  0  0  0  0  0  0  0  0  0  0  0  # atno 10765 bound_to 10752
  140.7084  134.3860  157.5201 H   0  0  0  0  0  0  0  0  0  0  0  0  # atno 11005 bound_to 11000
  145.0166  140.8759  143.5192 LP  0  0  0  0  0  0  0  0  0  0  0  0  # atno 17320 bound_to 7965
  145.1554  139.2490  143.5419 LP  0  0  0  0  0  0  0  0  0  0  0  0  # atno 17321 bound_to 7965
  140.0588  143.5176  152.2638 LP  0  0  0  0  0  0  0  0  0  0  0  0  # atno 17342 bound_to 10162
  139.6065  144.7597  151.3051 LP  0  0  0  0  0  0  0  0  0  0  0  0  # atno 17343 bound_to 10162
  156.9831  130.5534  149.5297 LP  0  0  0  0  0  0  0  0  0  0  0  0  # atno 17370 bound_to 10713
  156.0327  130.5417  150.8577 LP  0  0  0  0  0  0  0  0  0  0  0  0  # atno 17371 bound_to 10713
  139.8878  134.8873  156.2509 LP  0  0  0  0  0  0  0  0  0  0  0  0  # atno 17394 bound_to 11000
  141.0105  133.7098  156.1104 LP  0  0  0  0  0  0  0  0  0  0  0  0  # atno 17395 bound_to 11000

$$$$
