AV-unprocessed.smi:457|AV-procd|sdf|2619|dock5
  -GOLD-   2262023 23D 1   1.00000     0.00000
 Structure written by MMmdl.
 41 41  0  0  0  0  0  0  0  0  1 V2000
  147.5683  141.0899  153.5955 C   0  0  0  0  0  0  0  0  0  0  0  0
  148.5464  140.6826  154.7015 C   0  0  0  0  0  0  0  0  0  0  0  0
  149.5563  141.7958  155.0281 C   0  0  0  0  0  0  0  0  0  0  0  0
  150.5435  141.3856  156.0068 N   0  0  0  0  0  0  0  0  0  0  0  0
  150.8188  142.0983  157.1775 C   0  0  0  0  0  0  0  0  0  0  0  0
  150.1253  143.2768  157.4063 N   0  0  0  0  0  0  0  0  0  0  0  0
  151.7612  141.6805  158.0721 C   0  0  0  0  0  0  0  0  0  0  0  0
  152.0552  142.3657  159.2484 N   0  0  0  0  0  0  0  0  0  0  0  0
  151.3542  143.5994  159.5983 C   0  0  0  0  0  0  0  0  0  0  0  0
  152.2000  144.8491  159.3199 C   0  0  0  0  0  0  0  0  0  0  0  0
  153.1055  141.9023  160.1537 C   0  0  0  0  0  0  0  0  0  0  0  0
  153.0594  142.6081  161.5164 C   0  0  0  0  0  0  0  0  0  0  0  0
  154.0293  142.0217  162.3675 O   0  0  0  0  0  0  0  0  0  0  0  0
  154.0368  142.5998  163.6610 C   0  0  0  0  0  0  0  0  0  0  0  0
  152.5245  140.4510  157.8269 C   0  0  0  0  0  0  0  0  0  0  0  0
  153.3787  139.9749  158.5740 O   0  0  0  0  0  0  0  0  0  0  0  0
  152.2237  139.8006  156.6328 N   0  0  0  0  0  0  0  0  0  0  0  0
  151.2769  140.2141  155.7025 C   0  0  0  0  0  0  0  0  0  0  0  0
  151.1172  139.5601  154.6711 O   0  0  0  0  0  0  0  0  0  0  0  0
  152.7400  138.9586  156.4232 H   0  0  0  0  0  0  0  0  0  0  0  0
  146.8633  140.2855  153.3846 H   0  0  0  0  0  0  0  0  0  0  0  0
  148.0957  141.3222  152.6700 H   0  0  0  0  0  0  0  0  0  0  0  0
  146.9926  141.9698  153.8842 H   0  0  0  0  0  0  0  0  0  0  0  0
  147.9821  140.4186  155.5966 H   0  0  0  0  0  0  0  0  0  0  0  0
  149.0794  139.7814  154.3967 H   0  0  0  0  0  0  0  0  0  0  0  0
  150.1005  142.1145  154.1397 H   0  0  0  0  0  0  0  0  0  0  0  0
  149.0675  142.6988  155.3984 H   0  0  0  0  0  0  0  0  0  0  0  0
  149.4376  143.6202  156.7514 H   0  0  0  0  0  0  0  0  0  0  0  0
  150.2297  143.7992  158.2640 H   0  0  0  0  0  0  0  0  0  0  0  0
  150.4123  143.6628  159.0543 H   0  0  0  0  0  0  0  0  0  0  0  0
  151.0886  143.5795  160.6560 H   0  0  0  0  0  0  0  0  0  0  0  0
  151.6723  145.7494  159.6345 H   0  0  0  0  0  0  0  0  0  0  0  0
  152.4275  144.9575  158.2597 H   0  0  0  0  0  0  0  0  0  0  0  0
  153.1447  144.8120  159.8632 H   0  0  0  0  0  0  0  0  0  0  0  0
  153.0251  140.8246  160.2938 H   0  0  0  0  0  0  0  0  0  0  0  0
  154.0818  142.0715  159.6974 H   0  0  0  0  0  0  0  0  0  0  0  0
  153.2688  143.6718  161.3928 H   0  0  0  0  0  0  0  0  0  0  0  0
  152.0713  142.5157  161.9682 H   0  0  0  0  0  0  0  0  0  0  0  0
  154.7942  142.1129  164.2752 H   0  0  0  0  0  0  0  0  0  0  0  0
  153.0720  142.4751  164.1550 H   0  0  0  0  0  0  0  0  0  0  0  0
  154.2723  143.6640  163.6158 H   0  0  0  0  0  0  0  0  0  0  0  0
  1  2  1  0  0  0  0
  1 21  1  0  0  0  0
  1 22  1  0  0  0  0
  1 23  1  0  0  0  0
  2  3  1  0  0  0  0
  2 24  1  0  0  0  0
  2 25  1  0  0  0  0
  3  4  1  0  0  0  0
  3 26  1  0  0  0  0
  3 27  1  0  0  0  0
  4 18  1  0  0  0  0
  4  5  1  0  0  0  0
  5  6  1  0  0  0  0
  5  7  2  0  0  0  0
  6 28  1  0  0  0  0
  6 29  1  0  0  0  0
  7  8  1  0  0  0  0
  7 15  1  0  0  0  0
  8  9  1  0  0  0  0
  8 11  1  0  0  0  0
  9 10  1  0  0  0  0
  9 30  1  0  0  0  0
  9 31  1  0  0  0  0
 10 32  1  0  0  0  0
 10 33  1  0  0  0  0
 10 34  1  0  0  0  0
 11 12  1  0  0  0  0
 11 35  1  0  0  0  0
 11 36  1  0  0  0  0
 12 13  1  0  0  0  0
 12 37  1  0  0  0  0
 12 38  1  0  0  0  0
 13 14  1  0  0  0  0
 14 39  1  0  0  0  0
 14 40  1  0  0  0  0
 14 41  1  0  0  0  0
 15 16  2  0  0  0  0
 15 17  1  0  0  0  0
 17 20  1  0  0  0  0
 17 18  1  0  0  0  0
 18 19  2  0  0  0  0
M  END
> <s_m_source_file>
AV-unprocessed.smi

> <i_m_source_file_index>
457

> <i_lp_mmshare_version>
43012

> <i_f3d_flags>
0

> <s_epik_input>
W0NIM11bQ0gyXVtDSDJdbjFjKFtOSDJdKWMoYyg9TylbbkhdYzE9TylOKFtDSDJdW0NIM10pW0NIMl1bQ0gyXU9bQ0gzXQ==

> <s_epik_cmdline>
J2VwaWtfcHl0aG9uJywgJy1waCcsICc3LjAnLCAnLXRuJywgJzgnLCAnLW1hJywgJzIwMCcsICctbWV0YWxfYmluZGluZycsICctaW1hZScsICc8aW5maWxlLm1hZT4nLCAnLW9tYWUnLCAnPG91dGZpbGUubWFlPic=

> <r_lp_tautomer_probability>
1

> <r_epik_Ionization_Penalty>
0.000127086

> <r_epik_Ionization_Penalty_Charging>
2.15301e-06

> <r_epik_Ionization_Penalty_Neutral>
0.000124933

> <r_epik_State_Penalty>
-0

> <r_epik_Charging_Adjusted_Penalty>
2.15301e-06

> <i_epik_Tot_Q>
0

> <i_epik_Tot_abs_Q>
0

> <r_epik_Metal_State_Penalty>
-0

> <b_epik_Metal_Only>
0

> <s_epik_Chemistry_Notes>
This compound has an imine and may undergo hydrolysis.

> <s_lp_Force_Field>
OPLS_2005

> <r_lp_Energy>
18.1381

> <b_lp_Chiralities_Consistent>
1

> <s_lp_Variant>
AV-unprocessed.smi:457-1

> <Gold.Version>
5.8.1

> <Gold.Id.Protein>
6NUR|6NUR_protein|mol2

> <Gold.PLP.Fitness>
52.4531

> <Gold.PLP.PLP>
-45.3698

> <Gold.PLP.part.hbond>
-4.0000

> <Gold.PLP.part.metal>
0.0000

> <Gold.PLP.part.buried>
-2.4026

> <Gold.PLP.part.nonpolar>
-37.6972

> <Gold.PLP.part.repulsive>
0.2538

> <Gold.PLP.ligand.clash>
22.7857

> <Gold.PLP.ligand.torsion>
0.4275

> <Gold.PLP.Chemscore.Hbond>
2.6252

> <Gold.PLP.Chemscore.CHOScore>
0.0000

> <Gold.PLP.Chemscore.Metal>
0.0000

> <Gold.Chemscore.Hbonds>
donor molecule, donor type, donor heavy atom, donor atom, acceptor molecule, acceptor atom, score
      L1  H     6    28       P1  8028  1.00
      P1  H  7989  7998       L1    19  0.85
      P1  H  7997  8008       L1    16  0.74

> <Gold.PLP.Chemscore.Internal.Correction>
22.8484

> <Gold.Rescore>
     Score         DG    S(hbond)    S(metal)    S(lipo)     H(rot)  DE(clash)    DE(int)     intcor
      8.67     -14.41       1.25        0.00      86.94       2.12       0.43       5.31       ----

> <Gold.Chemscore.Fitness>
8.6735

> <Gold.Chemscore.DG>
-14.4057

> <Gold.Chemscore.ZeroCoef>
-5.4800

> <Gold.Chemscore.Hbond>
1.2546

> <Gold.Chemscore.Metal>
0.0000

> <Gold.Chemscore.Lipo>
86.9423

> <Gold.Chemscore.Internal_Hbond>
0.0000

> <Gold.Chemscore.DEClash>
0.4271

> <Gold.Chemscore.DEInternal>
5.3051

> <Gold.Chemscore.Rot>
2.1237

> <Gold.Chemscore.Internal.Correction>
   9.000000E+99

> <Gold.Chemscore.Hbonds>
donor molecule, donor type, donor heavy atom, donor atom, acceptor molecule, acceptor atom, score
      L1  H     6    28       P1  8028  0.94
      P1  H  7989  7998       L1    19  0.15
      P1  H  7997  8008       L1    16  0.10

> <Gold.Chemscore.Hbond.Weighted>
-4.1902

> <Gold.Chemscore.Metal.Weighted>
-0.0000

> <Gold.Chemscore.Lipo.Weighted>
-10.1722

> <Gold.Chemscore.Internal_Hbond.Weighted>
0.0000

> <Gold.Chemscore.DEClash.Weighted>
0.4271

> <Gold.Chemscore.DEInternal.Weighted>
5.3051

> <Gold.Chemscore.Rot.Weighted>
5.4367

> <Gold.Chemscore.Internal.Correction.Weighted>
   9.000000E+99

> <Gold.Protein.RotatedTorsions>
[ 6907 6896 6895 6894 ] final   -4.97 input  -60.11 | X-H torsion
[ 7974 7965 7964 7962 ] final -133.45 input  175.53 | X-H torsion
[ 8008 7997 7996 7995 ] final -107.40 input   59.86 | X-H torsion
[ 10167 10162 10161 10158 ] final -152.53 input  -65.29 | X-H torsion
[ 10718 10713 10712 10709 ] final -128.02 input   66.30 | X-H torsion
[ 10763 10752 10751 10750 ] final   -5.34 input  -60.55 | X-H torsion
[ 11005 11000 10999 10996 ] final  -45.94 input  -57.11 | X-H torsion

> <Gold.Protein.ActiveResidues>
 VAL166  LYS551  ARG553  GLY616  TRP617  ASP618  TYR619  PRO620  LYS621  CYS622 
 ASP623  PHE694  ASN695  SER759  ASP760  ASP761  ALA762  ILE779  LEU786  VAL792 
 PHE793  MET794  SER795  GLU796  ALA797  LYS798  CYS799  TRP800  GLU811  SER814 

> <Gold.Protein.RotatedAtoms>
  151.4891  135.1056  159.9798 H   0  0  0  0  0  0  0  0  0  0  0  0  # atno 6907 bound_to 6896
  152.4748  133.8109  159.7013 H   0  0  0  0  0  0  0  0  0  0  0  0  # atno 6908 bound_to 6896
  150.8779  133.7351  159.2967 H   0  0  0  0  0  0  0  0  0  0  0  0  # atno 6909 bound_to 6896
  144.9192  140.6993  143.4976 H   0  0  0  0  0  0  0  0  0  0  0  0  # atno 7974 bound_to 7965
  154.9287  140.0405  157.2036 H   0  0  0  0  0  0  0  0  0  0  0  0  # atno 8008 bound_to 7997
  154.8182  140.2879  155.5784 H   0  0  0  0  0  0  0  0  0  0  0  0  # atno 8009 bound_to 7997
  156.2977  140.2524  156.3084 H   0  0  0  0  0  0  0  0  0  0  0  0  # atno 8010 bound_to 7997
  139.7174  143.9012  152.2491 H   0  0  0  0  0  0  0  0  0  0  0  0  # atno 10167 bound_to 10162
  156.1911  130.6796  151.0425 H   0  0  0  0  0  0  0  0  0  0  0  0  # atno 10718 bound_to 10713
  153.3972  135.7004  153.6452 H   0  0  0  0  0  0  0  0  0  0  0  0  # atno 10763 bound_to 10752
  153.5000  135.3654  155.2535 H   0  0  0  0  0  0  0  0  0  0  0  0  # atno 10764 bound_to 10752
  154.8707  135.4109  154.3300 H   0  0  0  0  0  0  0  0  0  0  0  0  # atno 10765 bound_to 10752
  141.0547  133.6730  156.3084 H   0  0  0  0  0  0  0  0  0  0  0  0  # atno 11005 bound_to 11000
  145.3324  139.1756  143.4530 LP  0  0  0  0  0  0  0  0  0  0  0  0  # atno 17320 bound_to 7965
  146.3197  140.3355  142.8644 LP  0  0  0  0  0  0  0  0  0  0  0  0  # atno 17321 bound_to 7965
  139.8898  144.6972  150.8783 LP  0  0  0  0  0  0  0  0  0  0  0  0  # atno 17342 bound_to 10162
  140.7746  143.3595  151.1856 LP  0  0  0  0  0  0  0  0  0  0  0  0  # atno 17343 bound_to 10162
  157.6929  131.0804  150.7053 LP  0  0  0  0  0  0  0  0  0  0  0  0  # atno 17370 bound_to 10713
  156.7110  130.4652  149.5547 LP  0  0  0  0  0  0  0  0  0  0  0  0  # atno 17371 bound_to 10713
  140.5986  134.5577  157.5513 LP  0  0  0  0  0  0  0  0  0  0  0  0  # atno 17394 bound_to 11000
  139.9380  134.7839  156.0752 LP  0  0  0  0  0  0  0  0  0  0  0  0  # atno 17395 bound_to 11000

$$$$
