AV-unprocessed.smi:665|AV-procd|sdf|3253|dock10
  -GOLD-   22720 0203D 1   1.00000     0.00000
 Structure written by MMmdl.
 43 44  0  0  0  0  0  0  0  0  1 V2000
  146.1509  130.1784  152.2545 C   0  0  0  0  0  0  0  0  0  0  0  0
  145.6242  131.4325  151.7100 N   0  0  0  0  0  0  0  0  0  0  0  0
  144.5379  131.3504  150.8222 C   0  0  0  0  0  0  0  0  0  0  0  0
  143.9902  132.4456  150.2778 C   0  0  0  0  0  0  0  0  0  0  0  0
  144.5410  133.7335  150.6257 C   0  0  0  0  0  0  0  0  0  0  0  0
  145.5834  133.8369  151.4886 C   0  0  0  0  0  0  0  0  0  0  0  0
  146.1808  135.0481  151.8802 N   0  0  0  0  0  0  0  0  0  0  0  0
  145.6229  136.2620  152.0454 C   0  0  0  0  0  0  0  0  0  0  0  0
  144.4329  136.5342  151.8889 O   0  0  0  0  0  0  0  0  0  0  0  0
  146.5416  137.1581  152.4344 N   0  0  0  0  0  0  0  0  0  0  0  0
  146.2906  138.5624  152.7481 C   0  0  0  0  0  0  0  0  0  0  0  0
  147.1654  139.4648  151.8616 C   0  0  0  0  0  0  0  0  0  0  0  0
  146.9837  140.9508  152.2212 C   0  0  0  0  0  0  0  0  0  0  0  0
  147.2420  141.2602  153.7173 C   0  0  0  0  0  0  0  0  0  0  0  0
  148.7430  141.1293  154.0553 C   0  0  0  0  0  0  0  0  0  0  0  0
  146.8165  142.7128  154.0067 C   0  0  0  0  0  0  0  0  0  0  0  0
  146.3937  140.3062  154.5948 C   0  0  0  0  0  0  0  0  0  0  0  0
  146.5760  138.8204  154.2370 C   0  0  0  0  0  0  0  0  0  0  0  0
  146.1880  132.6233  152.0723 C   0  0  0  0  0  0  0  0  0  0  0  0
  147.1470  132.6650  152.8471 O   0  0  0  0  0  0  0  0  0  0  0  0
  145.6152  129.3018  151.8887 H   0  0  0  0  0  0  0  0  0  0  0  0
  146.0763  130.1731  153.3429 H   0  0  0  0  0  0  0  0  0  0  0  0
  147.2006  130.0534  151.9849 H   0  0  0  0  0  0  0  0  0  0  0  0
  144.1814  130.3520  150.6140 H   0  0  0  0  0  0  0  0  0  0  0  0
  143.1547  132.3673  149.5979 H   0  0  0  0  0  0  0  0  0  0  0  0
  144.0966  134.5986  150.1617 H   0  0  0  0  0  0  0  0  0  0  0  0
  147.1612  134.9734  152.1099 H   0  0  0  0  0  0  0  0  0  0  0  0
  147.4939  136.8393  152.5374 H   0  0  0  0  0  0  0  0  0  0  0  0
  145.2454  138.8136  152.5581 H   0  0  0  0  0  0  0  0  0  0  0  0
  148.2145  139.1833  151.9590 H   0  0  0  0  0  0  0  0  0  0  0  0
  146.9084  139.3123  150.8126 H   0  0  0  0  0  0  0  0  0  0  0  0
  147.6340  141.5608  151.5931 H   0  0  0  0  0  0  0  0  0  0  0  0
  145.9638  141.2408  151.9638 H   0  0  0  0  0  0  0  0  0  0  0  0
  148.9321  141.3602  155.1043 H   0  0  0  0  0  0  0  0  0  0  0  0
  149.3429  141.8168  153.4581 H   0  0  0  0  0  0  0  0  0  0  0  0
  149.1268  140.1262  153.8731 H   0  0  0  0  0  0  0  0  0  0  0  0
  146.9751  142.9724  155.0541 H   0  0  0  0  0  0  0  0  0  0  0  0
  145.7598  142.8716  153.7879 H   0  0  0  0  0  0  0  0  0  0  0  0
  147.3844  143.4214  153.4027 H   0  0  0  0  0  0  0  0  0  0  0  0
  146.6254  140.4589  155.6497 H   0  0  0  0  0  0  0  0  0  0  0  0
  145.3375  140.5560  154.4825 H   0  0  0  0  0  0  0  0  0  0  0  0
  145.9073  138.2157  154.8507 H   0  0  0  0  0  0  0  0  0  0  0  0
  147.5878  138.4990  154.4860 H   0  0  0  0  0  0  0  0  0  0  0  0
  1  2  1  0  0  0  0
  1 21  1  0  0  0  0
  1 22  1  0  0  0  0
  1 23  1  0  0  0  0
  2 19  1  0  0  0  0
  2  3  1  0  0  0  0
  3  4  2  0  0  0  0
  3 24  1  0  0  0  0
  4  5  1  0  0  0  0
  4 25  1  0  0  0  0
  5  6  2  0  0  0  0
  5 26  1  0  0  0  0
  6  7  1  0  0  0  0
  6 19  1  0  0  0  0
  7  8  1  0  0  0  0
  7 27  1  0  0  0  0
  8  9  2  0  0  0  0
  8 10  1  0  0  0  0
 10 11  1  0  0  0  0
 10 28  1  0  0  0  0
 11 18  1  0  0  0  0
 11 12  1  0  0  0  0
 11 29  1  0  0  0  0
 12 13  1  0  0  0  0
 12 30  1  0  0  0  0
 12 31  1  0  0  0  0
 13 14  1  0  0  0  0
 13 32  1  0  0  0  0
 13 33  1  0  0  0  0
 14 15  1  0  0  0  0
 14 16  1  0  0  0  0
 14 17  1  0  0  0  0
 15 34  1  0  0  0  0
 15 35  1  0  0  0  0
 15 36  1  0  0  0  0
 16 37  1  0  0  0  0
 16 38  1  0  0  0  0
 16 39  1  0  0  0  0
 17 18  1  0  0  0  0
 17 40  1  0  0  0  0
 17 41  1  0  0  0  0
 18 42  1  0  0  0  0
 18 43  1  0  0  0  0
 19 20  2  0  0  0  0
M  END
> <s_m_source_file>
AV-unprocessed.smi

> <i_m_source_file_index>
665

> <i_lp_mmshare_version>
43012

> <i_f3d_flags>
0

> <s_epik_input>
W0NIM11uMVtjSF1bY0hdW2NIXWMoYzE9TylbTkhdQyg9TylbTkhdW0NIXShbQ0gyXVtDSDJdMilbQ0gyXVtDSDJdQzIoW0NIM10pW0NIM10=

> <s_epik_cmdline>
J2VwaWtfcHl0aG9uJywgJy1waCcsICc3LjAnLCAnLXRuJywgJzgnLCAnLW1hJywgJzIwMCcsICctbWV0YWxfYmluZGluZycsICctaW1hZScsICc8aW5maWxlLm1hZT4nLCAnLW9tYWUnLCAnPG91dGZpbGUubWFlPic=

> <r_lp_tautomer_probability>
1

> <r_epik_Ionization_Penalty>
2.65253e-05

> <r_epik_Ionization_Penalty_Charging>
5.1221e-06

> <r_epik_Ionization_Penalty_Neutral>
2.14032e-05

> <r_epik_State_Penalty>
-0

> <r_epik_Charging_Adjusted_Penalty>
5.1221e-06

> <i_epik_Tot_Q>
0

> <i_epik_Tot_abs_Q>
0

> <r_epik_Metal_State_Penalty>
-0

> <b_epik_Metal_Only>
0

> <s_lp_Force_Field>
OPLS_2005

> <r_lp_Energy>
25.5106

> <b_lp_Chiralities_Consistent>
1

> <s_lp_Variant>
AV-unprocessed.smi:665-1

> <Gold.Version>
5.8.1

> <Gold.Id.Protein>
6NUR|6NUR_protein|mol2

> <Gold.PLP.Fitness>
39.6498

> <Gold.PLP.PLP>
-35.2098

> <Gold.PLP.part.hbond>
-2.0000

> <Gold.PLP.part.metal>
0.0000

> <Gold.PLP.part.buried>
-0.5941

> <Gold.PLP.part.nonpolar>
-32.8965

> <Gold.PLP.part.repulsive>
0.3924

> <Gold.PLP.ligand.clash>
0.0000

> <Gold.PLP.ligand.torsion>
0.2344

> <Gold.PLP.Chemscore.Hbond>
1.6354

> <Gold.PLP.Chemscore.CHOScore>
0.0000

> <Gold.PLP.Chemscore.Metal>
0.0000

> <Gold.Chemscore.Hbonds>
donor molecule, donor type, donor heavy atom, donor atom, acceptor molecule, acceptor atom, score
      L1  H     7    27       P1  7948  0.49
      L1  H    10    28       P1  7948  0.99

> <Gold.PLP.Chemscore.Internal.Correction>
0.0024

> <Gold.Rescore>
     Score         DG    S(hbond)    S(metal)    S(lipo)     H(rot)  DE(clash)    DE(int)     intcor
     18.22     -19.06       1.76        0.00      87.78       1.00       0.53       0.31       ----

> <Gold.Chemscore.Fitness>
18.2241

> <Gold.Chemscore.DG>
-19.0642

> <Gold.Chemscore.ZeroCoef>
-5.4800

> <Gold.Chemscore.Hbond>
1.7588

> <Gold.Chemscore.Metal>
0.0000

> <Gold.Chemscore.Lipo>
87.7762

> <Gold.Chemscore.Internal_Hbond>
0.0000

> <Gold.Chemscore.DEClash>
0.5313

> <Gold.Chemscore.DEInternal>
0.3088

> <Gold.Chemscore.Rot>
1.0000

> <Gold.Chemscore.Internal.Correction>
   9.000000E+99

> <Gold.Chemscore.Hbonds>
donor molecule, donor type, donor heavy atom, donor atom, acceptor molecule, acceptor atom, score
      L1  H     7    27       P1  7948  0.47
      L1  H    10    28       P1  7948  0.94

> <Gold.Chemscore.Hbond.Weighted>
-5.8744

> <Gold.Chemscore.Metal.Weighted>
-0.0000

> <Gold.Chemscore.Lipo.Weighted>
-10.2698

> <Gold.Chemscore.Internal_Hbond.Weighted>
0.0000

> <Gold.Chemscore.DEClash.Weighted>
0.5313

> <Gold.Chemscore.DEInternal.Weighted>
0.3088

> <Gold.Chemscore.Rot.Weighted>
2.5600

> <Gold.Chemscore.Internal.Correction.Weighted>
   9.000000E+99

> <Gold.Protein.RotatedTorsions>
[ 6907 6896 6895 6894 ] final -126.23 input  -60.11 | X-H torsion
[ 7974 7965 7964 7962 ] final   35.71 input  175.53 | X-H torsion
[ 8008 7997 7996 7995 ] final  -48.39 input   59.86 | X-H torsion
[ 10167 10162 10161 10158 ] final  158.75 input  -65.29 | X-H torsion
[ 10718 10713 10712 10709 ] final -103.24 input   66.30 | X-H torsion
[ 10763 10752 10751 10750 ] final  -10.61 input  -60.55 | X-H torsion
[ 11005 11000 10999 10996 ] final  132.14 input  -57.11 | X-H torsion

> <Gold.Protein.ActiveResidues>
 VAL166  LYS551  ARG553  GLY616  TRP617  ASP618  TYR619  PRO620  LYS621  CYS622 
 ASP623  PHE694  ASN695  SER759  ASP760  ASP761  ALA762  ILE779  LEU786  VAL792 
 PHE793  MET794  SER795  GLU796  ALA797  LYS798  CYS799  TRP800  GLU811  SER814 

> <Gold.Protein.RotatedAtoms>
  150.8948  133.7195  159.2894 H   0  0  0  0  0  0  0  0  0  0  0  0  # atno 6907 bound_to 6896
  151.4733  135.1046  159.9767 H   0  0  0  0  0  0  0  0  0  0  0  0  # atno 6908 bound_to 6896
  152.4842  133.8283  159.7145 H   0  0  0  0  0  0  0  0  0  0  0  0  # atno 6909 bound_to 6896
  146.1264  139.6109  142.9256 H   0  0  0  0  0  0  0  0  0  0  0  0  # atno 7974 bound_to 7965
  154.4028  140.1322  156.4332 H   0  0  0  0  0  0  0  0  0  0  0  0  # atno 8008 bound_to 7997
  155.7531  140.3487  155.5140 H   0  0  0  0  0  0  0  0  0  0  0  0  # atno 8009 bound_to 7997
  155.8930  140.1006  157.1395 H   0  0  0  0  0  0  0  0  0  0  0  0  # atno 8010 bound_to 7997
  139.4828  144.4795  151.8463 H   0  0  0  0  0  0  0  0  0  0  0  0  # atno 10167 bound_to 10162
  156.0258  130.5458  150.7224 H   0  0  0  0  0  0  0  0  0  0  0  0  # atno 10718 bound_to 10713
  153.4717  135.7017  153.5990 H   0  0  0  0  0  0  0  0  0  0  0  0  # atno 10763 bound_to 10752
  153.4241  135.3818  155.2130 H   0  0  0  0  0  0  0  0  0  0  0  0  # atno 10764 bound_to 10752
  154.8725  135.3935  154.4155 H   0  0  0  0  0  0  0  0  0  0  0  0  # atno 10765 bound_to 10752
  139.9772  134.9559  156.9539 H   0  0  0  0  0  0  0  0  0  0  0  0  # atno 11005 bound_to 11000
  145.5357  141.0424  143.2358 LP  0  0  0  0  0  0  0  0  0  0  0  0  # atno 17320 bound_to 7965
  144.7646  139.6875  143.7220 LP  0  0  0  0  0  0  0  0  0  0  0  0  # atno 17321 bound_to 7965
  140.4270  144.2166  150.5887 LP  0  0  0  0  0  0  0  0  0  0  0  0  # atno 17342 bound_to 10162
  140.4817  143.2377  151.8946 LP  0  0  0  0  0  0  0  0  0  0  0  0  # atno 17343 bound_to 10162
  157.4836  131.0904  151.0508 LP  0  0  0  0  0  0  0  0  0  0  0  0  # atno 17370 bound_to 10713
  157.0934  130.5952  149.5444 LP  0  0  0  0  0  0  0  0  0  0  0  0  # atno 17371 bound_to 10713
  140.5170  134.0945  155.7283 LP  0  0  0  0  0  0  0  0  0  0  0  0  # atno 17394 bound_to 11000
  141.1448  133.9074  157.2241 LP  0  0  0  0  0  0  0  0  0  0  0  0  # atno 17395 bound_to 11000

$$$$
