AV-unprocessed.smi:3323|AV-procd|sdf|12780|dock1
  -GOLD-   2272019123D 1   1.00000     0.00000
 Structure written by MMmdl.
 37 38  0  0  0  0  0  0  0  0  1 V2000
  146.2889  138.2063  152.1954 C   0  0  0  0  0  0  0  0  0  0  0  0
  146.9062  139.0108  153.3445 C   0  0  1  0  0  0  0  0  0  0  0  0
  146.8837  140.5269  153.0671 C   0  0  0  0  0  0  0  0  0  0  0  0
  147.4417  141.3306  154.2589 C   0  0  2  0  0  0  0  0  0  0  0  0
  148.9769  141.2402  154.4275 C   0  0  0  0  0  0  0  0  0  0  0  0
  149.4770  142.1449  155.4591 N   0  0  0  0  0  0  0  0  0  0  0  0
  150.3457  141.8196  156.4275 C   0  0  0  0  0  0  0  0  0  0  0  0
  150.8417  140.6997  156.5493 O   0  0  0  0  0  0  0  0  0  0  0  0
  150.6115  142.8767  157.2139 N   0  0  0  0  0  0  0  0  0  0  0  0
  151.4690  142.9462  158.3453 C   0  0  0  0  0  0  0  0  0  0  0  0
  152.1876  141.8452  158.8715 C   0  0  0  0  0  0  0  0  0  0  0  0
  152.9911  142.0405  160.0115 C   0  0  0  0  0  0  0  0  0  0  0  0
  153.0414  143.3247  160.5876 C   0  0  0  0  0  0  0  0  0  0  0  0
  152.3516  144.3794  160.1049 N   0  0  0  0  0  0  0  0  0  0  0  0
  151.5827  144.1846  159.0125 C   0  0  0  0  0  0  0  0  0  0  0  0
  146.6950  140.8891  155.5299 C   0  0  0  0  0  0  0  0  0  0  0  0
  146.7020  139.3580  155.6902 C   0  0  0  0  0  0  0  0  0  0  0  0
  146.1598  138.7407  154.5276 O   0  0  0  0  0  0  0  0  0  0  0  0
  146.8354  138.3695  151.2662 H   0  0  0  0  0  0  0  0  0  0  0  0
  145.2495  138.4891  152.0273 H   0  0  0  0  0  0  0  0  0  0  0  0
  146.3130  137.1381  152.4117 H   0  0  0  0  0  0  0  0  0  0  0  0
  147.9330  138.6706  153.4839 H   0  0  0  0  0  0  0  0  0  0  0  0
  147.4241  140.7562  152.1492 H   0  0  0  0  0  0  0  0  0  0  0  0
  145.8531  140.8359  152.8873 H   0  0  0  0  0  0  0  0  0  0  0  0
  147.2061  142.3822  154.0889 H   0  0  0  0  0  0  0  0  0  0  0  0
  149.2469  140.2287  154.7315 H   0  0  0  0  0  0  0  0  0  0  0  0
  149.4899  141.4094  153.4804 H   0  0  0  0  0  0  0  0  0  0  0  0
  149.1308  143.0929  155.4334 H   0  0  0  0  0  0  0  0  0  0  0  0
  150.1916  143.7518  156.9367 H   0  0  0  0  0  0  0  0  0  0  0  0
  152.1291  140.8593  158.4375 H   0  0  0  0  0  0  0  0  0  0  0  0
  153.5527  141.2222  160.4375 H   0  0  0  0  0  0  0  0  0  0  0  0
  153.6470  143.5079  161.4629 H   0  0  0  0  0  0  0  0  0  0  0  0
  151.0435  145.0504  158.6561 H   0  0  0  0  0  0  0  0  0  0  0  0
  147.1235  141.3643  156.4130 H   0  0  0  0  0  0  0  0  0  0  0  0
  145.6604  141.2298  155.4732 H   0  0  0  0  0  0  0  0  0  0  0  0
  147.7089  138.9835  155.8778 H   0  0  0  0  0  0  0  0  0  0  0  0
  146.0968  139.0724  156.5507 H   0  0  0  0  0  0  0  0  0  0  0  0
  1  2  1  0  0  0  0
  1 19  1  0  0  0  0
  1 20  1  0  0  0  0
  1 21  1  0  0  0  0
  2 18  1  0  0  0  0
  2  3  1  0  0  0  0
  2 22  1  0  0  0  0
  3  4  1  0  0  0  0
  3 23  1  0  0  0  0
  3 24  1  0  0  0  0
  4  5  1  0  0  0  0
  4 16  1  0  0  0  0
  4 25  1  0  0  0  0
  5  6  1  0  0  0  0
  5 26  1  0  0  0  0
  5 27  1  0  0  0  0
  6  7  1  0  0  0  0
  6 28  1  0  0  0  0
  7  8  2  0  0  0  0
  7  9  1  0  0  0  0
  9 10  1  0  0  0  0
  9 29  1  0  0  0  0
 10 15  1  0  0  0  0
 10 11  2  0  0  0  0
 11 12  1  0  0  0  0
 11 30  1  0  0  0  0
 12 13  2  0  0  0  0
 12 31  1  0  0  0  0
 13 14  1  0  0  0  0
 13 32  1  0  0  0  0
 14 15  2  0  0  0  0
 15 33  1  0  0  0  0
 16 17  1  0  0  0  0
 16 34  1  0  0  0  0
 16 35  1  0  0  0  0
 17 18  1  0  0  0  0
 17 36  1  0  0  0  0
 17 37  1  0  0  0  0
M  END
> <s_m_source_file>
AV-unprocessed.smi

> <i_m_source_file_index>
3323

> <i_lp_mmshare_version>
43012

> <i_f3d_flags>
0

> <s_epik_input>
W0NIM11bQ0BASF0xW0NIMl1bQ0BIXShbQ0gyXVtDSDJdTzEpW0NIMl1bTkhdQyg9TylbTkhdYzJbY0hdW2NIXVtjSF1uW2NIXTI=

> <s_epik_cmdline>
J2VwaWtfcHl0aG9uJywgJy1waCcsICc3LjAnLCAnLXRuJywgJzgnLCAnLW1hJywgJzIwMCcsICctbWV0YWxfYmluZGluZycsICctaW1hZScsICc8aW5maWxlLm1hZT4nLCAnLW9tYWUnLCAnPG91dGZpbGUubWFlPic=

> <r_epik_Ionization_Penalty>
0.00485293

> <r_epik_Ionization_Penalty_Charging>
0

> <r_epik_Ionization_Penalty_Neutral>
0.00485293

> <r_epik_State_Penalty>
0.00349083

> <r_epik_Charging_Adjusted_Penalty>
0.00349083

> <i_epik_Tot_Q>
0

> <i_epik_Tot_abs_Q>
0

> <r_epik_Metal_State_Penalty>
-0

> <b_epik_Metal_Only>
0

> <s_lp_Force_Field>
OPLS_2005

> <r_lp_Energy>
13.6237

> <b_lp_Chiralities_Consistent>
1

> <s_lp_Variant>
AV-unprocessed.smi:3323-4

> <Gold.Version>
5.8.1

> <Gold.Id.Protein>
6NUR|6NUR_protein|mol2

> <Gold.PLP.Fitness>
42.0665

> <Gold.PLP.PLP>
-36.4129

> <Gold.PLP.part.hbond>
-2.0000

> <Gold.PLP.part.metal>
0.0000

> <Gold.PLP.part.buried>
-2.7842

> <Gold.PLP.part.nonpolar>
-32.0335

> <Gold.PLP.part.repulsive>
0.4115

> <Gold.PLP.ligand.clash>
0.0000

> <Gold.PLP.ligand.torsion>
0.0916

> <Gold.PLP.Chemscore.Hbond>
1.9440

> <Gold.PLP.Chemscore.CHOScore>
0.0000

> <Gold.PLP.Chemscore.Metal>
0.0000

> <Gold.Chemscore.Hbonds>
donor molecule, donor type, donor heavy atom, donor atom, acceptor molecule, acceptor atom, score
      L1  H     6    28       P1  8028  1.00
      L1  H     9    29       P1  8028  0.90

> <Gold.PLP.Chemscore.Internal.Correction>
0.0048

> <Gold.Rescore>
     Score         DG    S(hbond)    S(metal)    S(lipo)     H(rot)  DE(clash)    DE(int)     intcor
     18.98     -20.44       1.95        0.00      98.98       1.23       0.11       1.36       ----

> <Gold.Chemscore.Fitness>
18.9789

> <Gold.Chemscore.DG>
-20.4425

> <Gold.Chemscore.ZeroCoef>
-5.4800

> <Gold.Chemscore.Hbond>
1.9530

> <Gold.Chemscore.Metal>
0.0000

> <Gold.Chemscore.Lipo>
98.9840

> <Gold.Chemscore.Internal_Hbond>
0.0000

> <Gold.Chemscore.DEClash>
0.1063

> <Gold.Chemscore.DEInternal>
1.3573

> <Gold.Chemscore.Rot>
1.2273

> <Gold.Chemscore.Internal.Correction>
   9.000000E+99

> <Gold.Chemscore.Hbonds>
donor molecule, donor type, donor heavy atom, donor atom, acceptor molecule, acceptor atom, score
      L1  H     6    28       P1  8028  1.00
      L1  H     9    29       P1  8028  0.83

> <Gold.Chemscore.Hbond.Weighted>
-6.5232

> <Gold.Chemscore.Metal.Weighted>
-0.0000

> <Gold.Chemscore.Lipo.Weighted>
-11.5811

> <Gold.Chemscore.Internal_Hbond.Weighted>
0.0000

> <Gold.Chemscore.DEClash.Weighted>
0.1063

> <Gold.Chemscore.DEInternal.Weighted>
1.3573

> <Gold.Chemscore.Rot.Weighted>
3.1418

> <Gold.Chemscore.Internal.Correction.Weighted>
   9.000000E+99

> <Gold.Protein.RotatedTorsions>
[ 6907 6896 6895 6894 ] final  143.55 input  -60.11 | X-H torsion
[ 7974 7965 7964 7962 ] final  118.81 input  175.53 | X-H torsion
[ 8008 7997 7996 7995 ] final -115.61 input   59.86 | X-H torsion
[ 10167 10162 10161 10158 ] final  140.83 input  -65.29 | X-H torsion
[ 10718 10713 10712 10709 ] final   95.73 input   66.30 | X-H torsion
[ 10763 10752 10751 10750 ] final   -7.71 input  -60.55 | X-H torsion
[ 11005 11000 10999 10996 ] final  158.40 input  -57.11 | X-H torsion

> <Gold.Protein.ActiveResidues>
 VAL166  LYS551  ARG553  GLY616  TRP617  ASP618  TYR619  PRO620  LYS621  CYS622 
 ASP623  PHE694  ASN695  SER759  ASP760  ASP761  ALA762  ILE779  LEU786  VAL792 
 PHE793  MET794  SER795  GLU796  ALA797  LYS798  CYS799  TRP800  GLU811  SER814 

> <Gold.Protein.RotatedAtoms>
  152.2049  133.4868  159.5078 H   0  0  0  0  0  0  0  0  0  0  0  0  # atno 6907 bound_to 6896
  150.6977  134.1542  159.4161 H   0  0  0  0  0  0  0  0  0  0  0  0  # atno 6908 bound_to 6896
  151.9461  135.0191  160.0589 H   0  0  0  0  0  0  0  0  0  0  0  0  # atno 6909 bound_to 6896
  145.1507  139.3212  143.4568 H   0  0  0  0  0  0  0  0  0  0  0  0  # atno 7974 bound_to 7965
  155.0547  140.0393  157.2556 H   0  0  0  0  0  0  0  0  0  0  0  0  # atno 8008 bound_to 7997
  154.7108  140.2692  155.6607 H   0  0  0  0  0  0  0  0  0  0  0  0  # atno 8009 bound_to 7997
  156.2789  140.2722  156.1749 H   0  0  0  0  0  0  0  0  0  0  0  0  # atno 8010 bound_to 7997
  139.5037  144.6210  151.6052 H   0  0  0  0  0  0  0  0  0  0  0  0  # atno 10167 bound_to 10162
  157.6935  131.0555  150.4384 H   0  0  0  0  0  0  0  0  0  0  0  0  # atno 10718 bound_to 10713
  153.4302  135.7012  153.6236 H   0  0  0  0  0  0  0  0  0  0  0  0  # atno 10763 bound_to 10752
  153.4654  135.3727  155.2362 H   0  0  0  0  0  0  0  0  0  0  0  0  # atno 10764 bound_to 10752
  154.8725  135.4030  154.3684 H   0  0  0  0  0  0  0  0  0  0  0  0  # atno 10765 bound_to 10752
  140.1862  134.8440  157.2860 H   0  0  0  0  0  0  0  0  0  0  0  0  # atno 11005 bound_to 11000
  146.3495  140.1580  142.8591 LP  0  0  0  0  0  0  0  0  0  0  0  0  # atno 17320 bound_to 7965
  145.0434  140.8962  143.5039 LP  0  0  0  0  0  0  0  0  0  0  0  0  # atno 17321 bound_to 7965
  140.5912  143.9777  150.6326 LP  0  0  0  0  0  0  0  0  0  0  0  0  # atno 17342 bound_to 10162
  140.2958  143.3294  152.1019 LP  0  0  0  0  0  0  0  0  0  0  0  0  # atno 17343 bound_to 10162
  156.4744  130.4060  149.6498 LP  0  0  0  0  0  0  0  0  0  0  0  0  # atno 17370 bound_to 10713
  156.3567  130.7460  151.2427 LP  0  0  0  0  0  0  0  0  0  0  0  0  # atno 17371 bound_to 10713
  140.2211  134.4022  155.7565 LP  0  0  0  0  0  0  0  0  0  0  0  0  # atno 17394 bound_to 11000
  141.2225  133.7166  156.8492 LP  0  0  0  0  0  0  0  0  0  0  0  0  # atno 17395 bound_to 11000

$$$$
