#       Name:                AV-unprocessed.smi:3273
#       Creating user name   scv26
#       Creation time:       Fri Mar 27 18:43:29 2020


#       File generated by GOLD software.
#

@<TRIPOS>MOLECULE
AV-unprocessed.smi:3273
    44    45     1
SMALL
NO_CHARGES


@<TRIPOS>ATOM
      1 ****        -2.7028  -2.2815  -0.0418 C.3            1 S1                 0.0000
      2 ****        -1.1646  -2.2131  -0.1271 C.3            1 S1                 0.0000
      3 ****        -0.6045  -3.6466  -0.1959 C.3            1 S1                 0.0000
      4 ****        -0.5516  -1.3720   1.0336 C.3            1 S1                 0.0000
      5 ****         0.9996  -1.3616   1.0383 C.3            1 S1                 0.0000
      6 ****         1.5624  -0.7655  -0.1714 N.am           1 S1                 0.0000
      7 ****         1.9792   0.5046  -0.2902 C.2            1 S1                 0.0000
      8 ****         1.9922   1.3052   0.6449 O.2            1 S1                 0.0000
      9 ****         2.4337   0.9446  -1.6816 C.3            1 S1                 0.0000
     10 ****         1.5043   1.9894  -2.2742 C.3            1 S1                 0.0000
     11 ****         2.0395   3.1007  -3.1477 C.3            1 S1                 0.0000
     12 ****         1.5057   3.4167  -1.7723 C.3            1 S1                 0.0000
     13 ****        -1.0984   0.0334   1.0954 C.2            1 S1                 0.0000
     14 ****        -1.4961   0.8803   0.0952 C.2            1 S1                 0.0000
     15 ****        -1.8652   2.0749   0.7699 C.2            1 S1                 0.0000
     16 ****        -1.7094   1.9850   2.0780 N.2            1 S1                 0.0000
     17 ****        -1.2331   0.7380   2.2807 N.pl3          1 S1                 0.0000
     18 ****        -0.9386   0.3124   3.6363 C.3            1 S1                 0.0000
     19 ****        -3.0254  -2.7323   0.8972 H              1 S1                 0.0000
     20 ****        -3.1144  -2.8816  -0.8537 H              1 S1                 0.0000
     21 ****        -3.1668  -1.2984  -0.1124 H              1 S1                 0.0000
     22 ****        -0.9164  -1.7283  -1.0722 H              1 S1                 0.0000
     23 ****        -0.7329  -4.1694   0.7524 H              1 S1                 0.0000
     24 ****         0.4552  -3.6582  -0.4486 H              1 S1                 0.0000
     25 ****        -1.1120  -4.2292  -0.9653 H              1 S1                 0.0000
     26 ****        -0.8492  -1.8782   1.9525 H              1 S1                 0.0000
     27 ****         1.3658  -0.8403   1.9235 H              1 S1                 0.0000
     28 ****         1.3940  -2.3723   1.1321 H              1 S1                 0.0000
     29 ****         1.5949  -1.3513  -0.9932 H              1 S1                 0.0000
     30 ****         3.4414   1.3545  -1.6032 H              1 S1                 0.0000
     31 ****         2.4896   0.0919  -2.3596 H              1 S1                 0.0000
     32 ****         0.5299   1.5929  -2.5545 H              1 S1                 0.0000
     33 ****         3.1162   3.1616  -3.2925 H              1 S1                 0.0000
     34 ****         1.4368   3.4004  -4.0025 H              1 S1                 0.0000
     35 ****         0.5455   3.9243  -1.7064 H              1 S1                 0.0000
     36 ****         2.2284   3.6854  -1.0042 H              1 S1                 0.0000
     37 ****        -1.5110   0.6793  -0.9657 H              1 S1                 0.0000
     38 ****        -2.2343   2.9990   0.3505 H              1 S1                 0.0000
     39 ****         0.1226   0.0832   3.7292 H              1 S1                 0.0000
     40 ****        -1.5209  -0.5768   3.8781 H              1 S1                 0.0000
     41 ****        -1.1895   1.0984   4.3498 H              1 S1                 0.0000
     42 ****         1.6811   1.0202   1.5515 LP             1 S1                 0.0000
     43 ****         2.3139   2.2406   0.4978 LP             1 S1                 0.0000
     44 ****        -1.9015   2.6850   2.7658 LP             1 S1                 0.0000
@<TRIPOS>BOND
    1    1    2 1     
    2    1   19 1     
    3    1   20 1     
    4    1   21 1     
    5    2    3 1     
    6    2    4 1     
    7    2   22 1     
    8    3   23 1     
    9    3   24 1     
   10    3   25 1     
   11    4    5 1     
   12    4   13 1     
   13    4   26 1     
   14    5    6 1     
   15    5   27 1     
   16    5   28 1     
   17    6    7 am    
   18    6   29 1     
   19    7    8 2     
   20    7    9 1     
   21    9   10 1     
   22    9   30 1     
   23    9   31 1     
   24   10   12 1     
   25   10   11 1     
   26   10   32 1     
   27   11   12 1     
   28   11   33 1     
   29   11   34 1     
   30   12   35 1     
   31   12   36 1     
   32   13   17 1     
   33   13   14 2     
   34   14   15 1     
   35   14   37 1     
   36   15   16 2     
   37   15   38 1     
   38   16   17 1     
   39   17   18 1     
   40   18   39 1     
   41   18   40 1     
   42   18   41 1     
   43    8   42 1     
   44    8   43 1     
   45   16   44 1     
@<TRIPOS>SUBSTRUCTURE
      1 S1             1
@<TRIPOS>SET
LONE_PAIRS      STATIC     ATOMS    <user>   **** ""
3 42 43 44
DONOR_HYDROGENS      STATIC     ATOMS    <user>   **** ""
1 29
ATOM$BLUE        STATIC     ATOMS    COLORGROUP SYSTEM
3 42 43 44
ATOM$RED        STATIC     ATOMS    COLORGROUP SYSTEM
1 29
