#       Name:                AV-unprocessed.smi:1209
#       Creating user name   scv26
#       Creation time:       Fri Mar 27 04:12:14 2020


#       File generated by GOLD software.
#

@<TRIPOS>MOLECULE
AV-unprocessed.smi:1209
    55    57     1
SMALL
NO_CHARGES


@<TRIPOS>ATOM
      1 ****        -1.6259   6.0471   0.9911 C.3            1 S1                 0.0000
      2 ****        -2.1868   4.6693   0.9012 C.2            1 S1                 0.0000
      3 ****        -1.6686   3.4770   0.4821 C.2            1 S1                 0.0000
      4 ****        -2.7430   2.5627   0.6605 C.2            1 S1                 0.0000
      5 ****        -2.7678   1.0874   0.3696 C.3            1 S1                 0.0000
      6 ****        -2.8090   0.8215  -1.0918 N.4            1 S1                 1.0000
      7 ****        -4.1148   1.1732  -1.6987 C.3            1 S1                 0.0000
      8 ****        -2.3861  -0.5578  -1.4458 C.3            1 S1                 0.0000
      9 ****        -0.8527  -0.7142  -1.4593 C.3            1 S1                 0.0000
     10 ****        -0.3238   0.0770  -2.5058 O.3            1 S1                 0.0000
     11 ****        -0.4268  -2.1801  -1.6661 C.3            1 S1                 0.0000
     12 ****         1.0152  -2.3439  -1.6310 N.pl3          1 S1                 0.0000
     13 ****         1.8366  -2.5802  -2.6722 C.2            1 S1                 0.0000
     14 ****         3.1356  -2.6898  -2.4091 N.2            1 S1                 0.0000
     15 ****         3.1595  -2.5121  -1.0364 C.ar           1 S1                 0.0000
     16 ****         4.2415  -2.5113  -0.1293 C.ar           1 S1                 0.0000
     17 ****         4.0287  -2.3039   1.2524 C.ar           1 S1                 0.0000
     18 ****         5.2216  -2.3073   2.1918 C.3            1 S1                 0.0000
     19 ****         2.7155  -2.0965   1.7463 C.ar           1 S1                 0.0000
     20 ****         2.4627  -1.8729   3.2266 C.3            1 S1                 0.0000
     21 ****         1.6233  -2.0954   0.8540 C.ar           1 S1                 0.0000
     22 ****         1.8486  -2.2982  -0.5189 C.ar           1 S1                 0.0000
     23 ****        -3.8173   3.1575   1.1524 N.2            1 S1                 0.0000
     24 ****        -3.4718   4.5045   1.3076 O.3            1 S1                 0.0000
     25 ****        -0.6948   6.1263   0.4296 H              1 S1                 0.0000
     26 ****        -1.4198   6.3124   2.0281 H              1 S1                 0.0000
     27 ****        -2.3264   6.7783   0.5873 H              1 S1                 0.0000
     28 ****        -0.6741   3.2889   0.1054 H              1 S1                 0.0000
     29 ****        -1.8812   0.6351   0.8119 H              1 S1                 0.0000
     30 ****        -3.6188   0.6038   0.8528 H              1 S1                 0.0000
     31 ****        -4.9115   0.5425  -1.3019 H              1 S1                 0.0000
     32 ****        -4.0842   1.0441  -2.7811 H              1 S1                 0.0000
     33 ****        -4.3761   2.2141  -1.5081 H              1 S1                 0.0000
     34 ****        -2.8405  -1.2614  -0.7463 H              1 S1                 0.0000
     35 ****        -2.7678  -0.8256  -2.4327 H              1 S1                 0.0000
     36 ****        -0.4265  -0.3577  -0.5222 H              1 S1                 0.0000
     37 ****         0.6165  -0.0240  -2.5132 H              1 S1                 0.0000
     38 ****        -0.8557  -2.8108  -0.8864 H              1 S1                 0.0000
     39 ****        -0.8027  -2.5596  -2.6175 H              1 S1                 0.0000
     40 ****         1.4613  -2.6714  -3.6813 H              1 S1                 0.0000
     41 ****         5.2414  -2.6712  -0.5053 H              1 S1                 0.0000
     42 ****         5.1210  -3.0992   2.9344 H              1 S1                 0.0000
     43 ****         5.3017  -1.3522   2.7114 H              1 S1                 0.0000
     44 ****         6.1540  -2.4723   1.6509 H              1 S1                 0.0000
     45 ****         1.4004  -1.7395   3.4333 H              1 S1                 0.0000
     46 ****         2.9855  -0.9809   3.5720 H              1 S1                 0.0000
     47 ****         2.8115  -2.7266   3.8080 H              1 S1                 0.0000
     48 ****         0.6184  -1.9395   1.2172 H              1 S1                 0.0000
     49 ****        -2.1274   1.4334  -1.5185 H              1 S1                 0.0000
     50 ****        -0.5586   1.0372  -2.3543 LP             1 S1                 0.0000
     51 ****        -0.7022  -0.2247  -3.3809 LP             1 S1                 0.0000
     52 ****         3.8953  -2.8567  -3.0376 LP             1 S1                 0.0000
     53 ****        -4.6959   2.7319   1.3689 LP             1 S1                 0.0000
     54 ****        -4.0771   5.0742   0.7517 LP             1 S1                 0.0000
     55 ****        -3.5577   4.7662   2.2689 LP             1 S1                 0.0000
@<TRIPOS>BOND
    1    1    2 1     
    2    1   25 1     
    3    1   26 1     
    4    1   27 1     
    5    2   24 1     
    6    2    3 2     
    7    3    4 1     
    8    3   28 1     
    9    4    5 1     
   10    4   23 2     
   11    5    6 1     
   12    5   29 1     
   13    5   30 1     
   14    6    7 1     
   15    6    8 1     
   16    6   49 1     
   17    7   31 1     
   18    7   32 1     
   19    7   33 1     
   20    8    9 1     
   21    8   34 1     
   22    8   35 1     
   23    9   10 1     
   24    9   11 1     
   25    9   36 1     
   26   10   37 1     
   27   11   12 1     
   28   11   38 1     
   29   11   39 1     
   30   12   22 1     
   31   12   13 1     
   32   13   14 2     
   33   13   40 1     
   34   14   15 1     
   35   15   22 ar    
   36   15   16 ar    
   37   16   17 ar    
   38   16   41 1     
   39   17   18 1     
   40   17   19 ar    
   41   18   42 1     
   42   18   43 1     
   43   18   44 1     
   44   19   20 1     
   45   19   21 ar    
   46   20   45 1     
   47   20   46 1     
   48   20   47 1     
   49   21   22 ar    
   50   21   48 1     
   51   23   24 1     
   52   10   50 1     
   53   10   51 1     
   54   14   52 1     
   55   23   53 1     
   56   24   54 1     
   57   24   55 1     
@<TRIPOS>SUBSTRUCTURE
      1 S1             1
@<TRIPOS>SET
LONE_PAIRS      STATIC     ATOMS    <user>   **** ""
6 50 51 52 53 54 55
DONOR_HYDROGENS      STATIC     ATOMS    <user>   **** ""
2 49 37
ATOM$BLUE        STATIC     ATOMS    COLORGROUP SYSTEM
6 50 51 52 53 54 55
ATOM$RED        STATIC     ATOMS    COLORGROUP SYSTEM
2 49 37
