AV-unprocessed.smi:1762|AV-procd|sdf|7117|dock2
  -GOLD-   22720 8343D 1   1.00000     0.00000
 Structure written by MMmdl.
 53 54  0  0  0  0  0  0  0  0  2 V2000
  153.1867  138.6281  154.6420 C   0  0  0  0  0  0  0  0  0  0  0  0
  151.8848  137.8799  154.3340 C   0  0  2  0  0  0  0  0  0  0  0  0
  150.6696  138.8236  154.2888 C   0  0  0  0  0  0  0  0  0  0  0  0
  149.4084  138.0669  154.0411 N   0  3  2  0  0  0  0  0  0  0  0  0
  148.2085  138.9607  153.8885 C   0  0  1  0  0  0  0  0  0  0  0  0
  146.8971  138.1569  154.0265 C   0  0  0  0  0  0  0  0  0  0  0  0
  146.0486  138.4940  154.8533 O   0  0  0  0  0  0  0  0  0  0  0  0
  146.7477  137.1015  153.2119 N   0  0  0  0  0  0  0  0  0  0  0  0
  145.5805  136.2299  153.1840 C   0  0  0  0  0  0  0  0  0  0  0  0
  145.0599  136.0745  151.7484 C   0  0  0  0  0  0  0  0  0  0  0  0
  145.1437  134.6411  151.2581 C   0  0  0  0  0  0  0  0  0  0  0  0
  143.9724  133.8903  151.0216 C   0  0  0  0  0  0  0  0  0  0  0  0
  144.1059  132.5671  150.5583 C   0  0  0  0  0  0  0  0  0  0  0  0
  145.3983  132.0488  150.3496 C   0  0  0  0  0  0  0  0  0  0  0  0
  146.5048  132.8799  150.6151 C   0  0  0  0  0  0  0  0  0  0  0  0
  146.3878  134.1497  151.0602 N   0  0  0  0  0  0  0  0  0  0  0  0
  148.1998  140.1993  154.8480 C   0  0  0  0  0  0  0  0  0  0  0  0
  147.9595  139.8433  156.3302 C   0  0  0  0  0  0  0  0  0  0  0  0
  147.2227  141.3067  154.4060 C   0  0  0  0  0  0  0  0  0  0  0  0
  149.2787  136.9981  155.0706 C   0  0  0  0  0  0  0  0  0  0  0  0
  150.5360  136.1083  155.1111 C   0  0  2  0  0  0  0  0  0  0  0  0
  150.4569  135.0489  156.2160 C   0  0  0  0  0  0  0  0  0  0  0  0
  151.6785  136.9162  155.3573 O   0  0  0  0  0  0  0  0  0  0  0  0
  153.3987  139.3789  153.8801 H   0  0  0  0  0  0  0  0  0  0  0  0
  154.0325  137.9407  154.6739 H   0  0  0  0  0  0  0  0  0  0  0  0
  153.1331  139.1349  155.6059 H   0  0  0  0  0  0  0  0  0  0  0  0
  151.9950  137.3737  153.3733 H   0  0  0  0  0  0  0  0  0  0  0  0
  150.5846  139.3685  155.2306 H   0  0  0  0  0  0  0  0  0  0  0  0
  150.8455  139.5675  153.5122 H   0  0  0  0  0  0  0  0  0  0  0  0
  148.2497  139.3505  152.8693 H   0  0  0  0  0  0  0  0  0  0  0  0
  147.4889  136.8930  152.5585 H   0  0  0  0  0  0  0  0  0  0  0  0
  145.8579  135.2573  153.5928 H   0  0  0  0  0  0  0  0  0  0  0  0
  144.7897  136.6329  153.8193 H   0  0  0  0  0  0  0  0  0  0  0  0
  144.0222  136.4072  151.6901 H   0  0  0  0  0  0  0  0  0  0  0  0
  145.6269  136.7178  151.0741 H   0  0  0  0  0  0  0  0  0  0  0  0
  142.9938  134.3158  151.1892 H   0  0  0  0  0  0  0  0  0  0  0  0
  143.2329  131.9615  150.3655 H   0  0  0  0  0  0  0  0  0  0  0  0
  145.5386  131.0384  149.9943 H   0  0  0  0  0  0  0  0  0  0  0  0
  147.5102  132.5153  150.4651 H   0  0  0  0  0  0  0  0  0  0  0  0
  149.1752  140.6788  154.7812 H   0  0  0  0  0  0  0  0  0  0  0  0
  146.9481  139.4720  156.4970 H   0  0  0  0  0  0  0  0  0  0  0  0
  148.0893  140.7207  156.9645 H   0  0  0  0  0  0  0  0  0  0  0  0
  148.6520  139.0815  156.6869 H   0  0  0  0  0  0  0  0  0  0  0  0
  146.1808  141.0097  154.5276 H   0  0  0  0  0  0  0  0  0  0  0  0
  147.3759  141.5737  153.3600 H   0  0  0  0  0  0  0  0  0  0  0  0
  147.3691  142.2113  154.9969 H   0  0  0  0  0  0  0  0  0  0  0  0
  149.1017  137.4532  156.0464 H   0  0  0  0  0  0  0  0  0  0  0  0
  148.4347  136.3448  154.8595 H   0  0  0  0  0  0  0  0  0  0  0  0
  150.6551  135.5988  154.1530 H   0  0  0  0  0  0  0  0  0  0  0  0
  149.5986  134.3925  156.0708 H   0  0  0  0  0  0  0  0  0  0  0  0
  150.3629  135.5102  157.1998 H   0  0  0  0  0  0  0  0  0  0  0  0
  151.3519  134.4265  156.2243 H   0  0  0  0  0  0  0  0  0  0  0  0
  149.5198  137.5969  153.1536 H   0  0  0  0  0  0  0  0  0  0  0  0
  1  2  1  0  0  0  0
  1 24  1  0  0  0  0
  1 25  1  0  0  0  0
  1 26  1  0  0  0  0
  2 23  1  0  0  0  0
  2  3  1  0  0  0  0
  2 27  1  0  0  0  0
  3  4  1  0  0  0  0
  3 28  1  0  0  0  0
  3 29  1  0  0  0  0
  4  5  1  0  0  0  0
  4 20  1  0  0  0  0
  4 53  1  0  0  0  0
  5  6  1  0  0  0  0
  5 17  1  0  0  0  0
  5 30  1  0  0  0  0
  6  7  2  0  0  0  0
  6  8  1  0  0  0  0
  8  9  1  0  0  0  0
  8 31  1  0  0  0  0
  9 10  1  0  0  0  0
  9 32  1  0  0  0  0
  9 33  1  0  0  0  0
 10 11  1  0  0  0  0
 10 34  1  0  0  0  0
 10 35  1  0  0  0  0
 11 16  1  0  0  0  0
 11 12  2  0  0  0  0
 12 13  1  0  0  0  0
 12 36  1  0  0  0  0
 13 14  2  0  0  0  0
 13 37  1  0  0  0  0
 14 15  1  0  0  0  0
 14 38  1  0  0  0  0
 15 16  2  0  0  0  0
 15 39  1  0  0  0  0
 17 18  1  0  0  0  0
 17 19  1  0  0  0  0
 17 40  1  0  0  0  0
 18 41  1  0  0  0  0
 18 42  1  0  0  0  0
 18 43  1  0  0  0  0
 19 44  1  0  0  0  0
 19 45  1  0  0  0  0
 19 46  1  0  0  0  0
 20 21  1  0  0  0  0
 20 47  1  0  0  0  0
 20 48  1  0  0  0  0
 21 22  1  0  0  0  0
 21 23  1  0  0  0  0
 21 49  1  0  0  0  0
 22 50  1  0  0  0  0
 22 51  1  0  0  0  0
 22 52  1  0  0  0  0
M  CHG  1   4   1
M  END
> <s_m_source_file>
AV-unprocessed.smi

> <i_m_source_file_index>
1762

> <i_lp_mmshare_version>
43012

> <i_f3d_flags>
0

> <s_epik_input>
W0NIM11bQ0BASF0xW0NIMl1OKFtDSDJdW0NASF0oTzEpW0NIM10pW0NAQEhdKFtDSF0oW0NIM10pW0NIM10pQyg9TylbTkhdW0NIMl1bQ0gyXWMyW2NIXVtjSF1bY0hdW2NIXW4y

> <s_epik_cmdline>
J2VwaWtfcHl0aG9uJywgJy1waCcsICc3LjAnLCAnLXRuJywgJzgnLCAnLW1hJywgJzIwMCcsICctbWV0YWxfYmluZGluZycsICctaW1hZScsICc8aW5maWxlLm1hZT4nLCAnLW9tYWUnLCAnPG91dGZpbGUubWFlPic=

> <r_epik_Ionization_Penalty>
2.27005

> <r_epik_Ionization_Penalty_Charging>
2.24983

> <r_epik_Ionization_Penalty_Neutral>
0.0202209

> <r_epik_State_Penalty>
2.40228

> <r_epik_Charging_Adjusted_Penalty>
4.65211

> <i_epik_Tot_Q>
1

> <i_epik_Tot_abs_Q>
1

> <r_epik_Metal_State_Penalty>
2.40762

> <b_epik_Metal_Only>
0

> <s_lp_Force_Field>
OPLS_2005

> <r_lp_Energy>
21.958

> <b_lp_Chiralities_Consistent>
1

> <s_lp_Variant>
AV-unprocessed.smi:1762-19

> <Gold.Version>
5.8.1

> <Gold.Id.Protein>
6NUR|6NUR_protein|mol2

> <Gold.PLP.Fitness>
51.3331

> <Gold.PLP.PLP>
-38.4809

> <Gold.PLP.part.hbond>
-3.0000

> <Gold.PLP.part.metal>
0.0000

> <Gold.PLP.part.buried>
-4.6589

> <Gold.PLP.part.nonpolar>
-32.1657

> <Gold.PLP.part.repulsive>
0.4177

> <Gold.PLP.ligand.clash>
0.0000

> <Gold.PLP.ligand.torsion>
1.0950

> <Gold.PLP.Chemscore.Hbond>
3.9000

> <Gold.PLP.Chemscore.CHOScore>
1.0000

> <Gold.PLP.Chemscore.Metal>
0.0000

> <Gold.Chemscore.Hbonds>
donor molecule, donor type, donor heavy atom, donor atom, acceptor molecule, acceptor atom, score
      L1  H     4    53       P1  7948  2.00
      L1  H     8    31       P1  7948  1.00
      P1  H 10752 10764       L1    23  0.85
      L1  C    15    39       P1 10747  1.00

> <Gold.PLP.Chemscore.Internal.Correction>
0.3422

> <Gold.Rescore>
     Score         DG    S(hbond)    S(metal)    S(lipo)     H(rot)  DE(clash)    DE(int)     intcor
     17.99     -20.48       1.99        0.00     107.93       1.66       0.03       2.46       ----

> <Gold.Chemscore.Fitness>
17.9879

> <Gold.Chemscore.DG>
-20.4821

> <Gold.Chemscore.ZeroCoef>
-5.4800

> <Gold.Chemscore.Hbond>
1.9860

> <Gold.Chemscore.Metal>
0.0000

> <Gold.Chemscore.Lipo>
107.9271

> <Gold.Chemscore.Internal_Hbond>
0.0000

> <Gold.Chemscore.DEClash>
0.0345

> <Gold.Chemscore.DEInternal>
2.4597

> <Gold.Chemscore.Rot>
1.6635

> <Gold.Chemscore.Internal.Correction>
   9.000000E+99

> <Gold.Chemscore.Hbonds>
donor molecule, donor type, donor heavy atom, donor atom, acceptor molecule, acceptor atom, score
      L1  H     4    53       P1  7948  0.82
      L1  H     8    31       P1  7948  1.00
      P1  H 10752 10764       L1    23  0.04

> <Gold.Chemscore.Hbond.Weighted>
-6.6332

> <Gold.Chemscore.Metal.Weighted>
-0.0000

> <Gold.Chemscore.Lipo.Weighted>
-12.6275

> <Gold.Chemscore.Internal_Hbond.Weighted>
0.0000

> <Gold.Chemscore.DEClash.Weighted>
0.0345

> <Gold.Chemscore.DEInternal.Weighted>
2.4597

> <Gold.Chemscore.Rot.Weighted>
4.2586

> <Gold.Chemscore.Internal.Correction.Weighted>
   9.000000E+99

> <Gold.Protein.RotatedTorsions>
[ 6907 6896 6895 6894 ] final   80.31 input  -60.11 | X-H torsion
[ 7974 7965 7964 7962 ] final  -55.86 input  175.53 | X-H torsion
[ 8008 7997 7996 7995 ] final  156.62 input   59.86 | X-H torsion
[ 10167 10162 10161 10158 ] final  -94.36 input  -65.29 | X-H torsion
[ 10718 10713 10712 10709 ] final  -75.13 input   66.30 | X-H torsion
[ 10763 10752 10751 10750 ] final  -40.44 input  -60.55 | X-H torsion
[ 11005 11000 10999 10996 ] final   86.78 input  -57.11 | X-H torsion

> <Gold.Protein.ActiveResidues>
 VAL166  LYS551  ARG553  GLY616  TRP617  ASP618  TYR619  PRO620  LYS621  CYS622 
 ASP623  PHE694  ASN695  SER759  ASP760  ASP761  ALA762  ILE779  LEU786  VAL792 
 PHE793  MET794  SER795  GLU796  ALA797  LYS798  CYS799  TRP800  GLU811  SER814 

> <Gold.Protein.RotatedAtoms>
  152.5230  134.3377  159.9205 H   0  0  0  0  0  0  0  0  0  0  0  0  # atno 6907 bound_to 6896
  151.3326  133.3988  159.2671 H   0  0  0  0  0  0  0  0  0  0  0  0  # atno 6908 bound_to 6896
  150.9868  134.9229  159.7934 H   0  0  0  0  0  0  0  0  0  0  0  0  # atno 6909 bound_to 6896
  145.8694  140.8227  142.9896 H   0  0  0  0  0  0  0  0  0  0  0  0  # atno 7974 bound_to 7965
  156.2412  140.1907  156.6983 H   0  0  0  0  0  0  0  0  0  0  0  0  # atno 8008 bound_to 7997
  154.6200  140.0610  156.9630 H   0  0  0  0  0  0  0  0  0  0  0  0  # atno 8009 bound_to 7997
  155.1876  140.3281  155.4366 H   0  0  0  0  0  0  0  0  0  0  0  0  # atno 8010 bound_to 7997
  140.3153  143.3081  152.0105 H   0  0  0  0  0  0  0  0  0  0  0  0  # atno 10167 bound_to 10162
  156.0218  130.4433  150.2996 H   0  0  0  0  0  0  0  0  0  0  0  0  # atno 10718 bound_to 10713
  153.9460  135.6756  153.4744 H   0  0  0  0  0  0  0  0  0  0  0  0  # atno 10763 bound_to 10752
  153.0908  135.4875  154.8683 H   0  0  0  0  0  0  0  0  0  0  0  0  # atno 10764 bound_to 10752
  154.7351  135.3147  154.8783 H   0  0  0  0  0  0  0  0  0  0  0  0  # atno 10765 bound_to 10752
  139.8936  134.8378  156.2768 H   0  0  0  0  0  0  0  0  0  0  0  0  # atno 11005 bound_to 11000
  144.6726  140.1215  143.7449 LP  0  0  0  0  0  0  0  0  0  0  0  0  # atno 17320 bound_to 7965
  145.9155  139.2513  143.1412 LP  0  0  0  0  0  0  0  0  0  0  0  0  # atno 17321 bound_to 7965
  139.4885  144.6353  151.6987 LP  0  0  0  0  0  0  0  0  0  0  0  0  # atno 17342 bound_to 10162
  140.5532  144.0391  150.6136 LP  0  0  0  0  0  0  0  0  0  0  0  0  # atno 17343 bound_to 10162
  157.1099  131.0218  151.3052 LP  0  0  0  0  0  0  0  0  0  0  0  0  # atno 17370 bound_to 10713
  157.4713  130.7710  149.7326 LP  0  0  0  0  0  0  0  0  0  0  0  0  # atno 17371 bound_to 10713
  141.0065  133.7121  156.1042 LP  0  0  0  0  0  0  0  0  0  0  0  0  # atno 17394 bound_to 11000
  140.7427  134.4132  157.5552 LP  0  0  0  0  0  0  0  0  0  0  0  0  # atno 17395 bound_to 11000

$$$$
