AV-unprocessed.smi:1467|AV-procd|sdf|5955|dock5
  -GOLD-   22720 6 43D 1   1.00000     0.00000
 Structure written by MMmdl.
 40 41  0  0  0  0  0  0  0  0  1 V2000
  152.6038  138.1519  155.0500 C   0  0  0  0  0  0  0  0  0  0  0  0
  151.9399  139.5154  154.8471 C   0  0  0  0  0  0  0  0  0  0  0  0
  152.6488  140.4572  154.4919 O   0  0  0  0  0  0  0  0  0  0  0  0
  150.6092  139.6421  155.0639 N   0  0  0  0  0  0  0  0  0  0  0  0
  149.6894  138.5609  155.4306 C   0  0  0  0  0  0  0  0  0  0  0  0
  148.6690  138.3641  154.2925 C   0  0  0  0  0  0  0  0  0  0  0  0
  147.9230  139.6068  154.0561 N   0  0  0  0  0  0  0  0  0  0  0  0
  146.9643  139.4495  152.9636 C   0  0  0  0  0  0  0  0  0  0  0  0
  145.9470  138.3240  153.2361 C   0  0  0  0  0  0  0  0  0  0  0  0
  146.3179  137.0981  152.5400 N   0  0  0  0  0  0  0  0  0  0  0  0
  145.4651  136.1198  152.2037 C   0  0  0  0  0  0  0  0  0  0  0  0
  144.2594  136.1545  152.4499 O   0  0  0  0  0  0  0  0  0  0  0  0
  146.0969  135.1152  151.5751 N   0  0  0  0  0  0  0  0  0  0  0  0
  145.5228  133.9165  151.0824 C   0  0  0  0  0  0  0  0  0  0  0  0
  146.1507  132.6719  150.7827 C   0  0  0  0  0  0  0  0  0  0  0  0
  145.2703  131.7853  150.3396 N   0  0  0  0  0  0  0  0  0  0  0  0
  144.0923  132.4488  150.3528 N   0  0  0  0  0  0  0  0  0  0  0  0
  144.2007  133.7477  150.7984 C   0  0  0  0  0  0  0  0  0  0  0  0
  148.8552  140.6871  153.7175 C   0  0  0  0  0  0  0  0  0  0  0  0
  149.8750  140.8927  154.8541 C   0  0  0  0  0  0  0  0  0  0  0  0
  143.2333  132.0059  150.0588 H   0  0  0  0  0  0  0  0  0  0  0  0
  152.1753  137.4094  154.3765 H   0  0  0  0  0  0  0  0  0  0  0  0
  152.4816  137.8116  156.0785 H   0  0  0  0  0  0  0  0  0  0  0  0
  153.6730  138.2102  154.8437 H   0  0  0  0  0  0  0  0  0  0  0  0
  150.1881  137.6146  155.6334 H   0  0  0  0  0  0  0  0  0  0  0  0
  149.1748  138.8258  156.3555 H   0  0  0  0  0  0  0  0  0  0  0  0
  149.1797  138.0526  153.3798 H   0  0  0  0  0  0  0  0  0  0  0  0
  147.9889  137.5597  154.5691 H   0  0  0  0  0  0  0  0  0  0  0  0
  146.4088  140.3816  152.8474 H   0  0  0  0  0  0  0  0  0  0  0  0
  147.4918  139.2821  152.0231 H   0  0  0  0  0  0  0  0  0  0  0  0
  145.8522  138.1118  154.3012 H   0  0  0  0  0  0  0  0  0  0  0  0
  144.9581  138.6238  152.8883 H   0  0  0  0  0  0  0  0  0  0  0  0
  147.2918  136.9878  152.2983 H   0  0  0  0  0  0  0  0  0  0  0  0
  147.0914  135.2178  151.4362 H   0  0  0  0  0  0  0  0  0  0  0  0
  147.1868  132.3794  150.8664 H   0  0  0  0  0  0  0  0  0  0  0  0
  143.3541  134.4145  150.8711 H   0  0  0  0  0  0  0  0  0  0  0  0
  149.3731  140.4580  152.7845 H   0  0  0  0  0  0  0  0  0  0  0  0
  148.3006  141.6125  153.5580 H   0  0  0  0  0  0  0  0  0  0  0  0
  149.3646  141.1737  155.7765 H   0  0  0  0  0  0  0  0  0  0  0  0
  150.5298  141.7293  154.6075 H   0  0  0  0  0  0  0  0  0  0  0  0
  1  2  1  0  0  0  0
  1 22  1  0  0  0  0
  1 23  1  0  0  0  0
  1 24  1  0  0  0  0
  2  3  2  0  0  0  0
  2  4  1  0  0  0  0
  4 20  1  0  0  0  0
  4  5  1  0  0  0  0
  5  6  1  0  0  0  0
  5 25  1  0  0  0  0
  5 26  1  0  0  0  0
  6  7  1  0  0  0  0
  6 27  1  0  0  0  0
  6 28  1  0  0  0  0
  7  8  1  0  0  0  0
  7 19  1  0  0  0  0
  8  9  1  0  0  0  0
  8 29  1  0  0  0  0
  8 30  1  0  0  0  0
  9 10  1  0  0  0  0
  9 31  1  0  0  0  0
  9 32  1  0  0  0  0
 10 11  1  0  0  0  0
 10 33  1  0  0  0  0
 11 12  2  0  0  0  0
 11 13  1  0  0  0  0
 13 14  1  0  0  0  0
 13 34  1  0  0  0  0
 14 18  2  0  0  0  0
 14 15  1  0  0  0  0
 15 16  2  0  0  0  0
 15 35  1  0  0  0  0
 16 17  1  0  0  0  0
 17 21  1  0  0  0  0
 17 18  1  0  0  0  0
 18 36  1  0  0  0  0
 19 20  1  0  0  0  0
 19 37  1  0  0  0  0
 19 38  1  0  0  0  0
 20 39  1  0  0  0  0
 20 40  1  0  0  0  0
M  END
> <s_m_source_file>
AV-unprocessed.smi

> <i_m_source_file_index>
1467

> <i_lp_mmshare_version>
43012

> <i_f3d_flags>
0

> <s_epik_input>
W0NIM11DKD1PKU4xW0NIMl1bQ0gyXU4oW0NIMl1bQ0gyXTEpW0NIMl1bQ0gyXVtOSF1DKD1PKVtOSF1jMltjSF1uW25IXVtjSF0y

> <s_epik_cmdline>
J2VwaWtfcHl0aG9uJywgJy1waCcsICc3LjAnLCAnLXRuJywgJzgnLCAnLW1hJywgJzIwMCcsICctbWV0YWxfYmluZGluZycsICctaW1hZScsICc8aW5maWxlLm1hZT4nLCAnLW9tYWUnLCAnPG91dGZpbGUubWFlPic=

> <r_lp_tautomer_probability>
0.5

> <r_epik_Ionization_Penalty>
0.251012

> <r_epik_Ionization_Penalty_Charging>
0

> <r_epik_Ionization_Penalty_Neutral>
0.251012

> <r_epik_State_Penalty>
0.242297

> <r_epik_Charging_Adjusted_Penalty>
0.242297

> <i_epik_Tot_Q>
0

> <i_epik_Tot_abs_Q>
0

> <r_epik_Metal_State_Penalty>
0.242296

> <b_epik_Metal_Only>
0

> <s_lp_Force_Field>
OPLS_2005

> <r_lp_Energy>
35.2163

> <b_lp_Chiralities_Consistent>
1

> <s_lp_Variant>
AV-unprocessed.smi:1467-1

> <Gold.Version>
5.8.1

> <Gold.Id.Protein>
6NUR|6NUR_protein|mol2

> <Gold.PLP.Fitness>
42.3806

> <Gold.PLP.PLP>
-27.6284

> <Gold.PLP.part.hbond>
-4.0000

> <Gold.PLP.part.metal>
0.0000

> <Gold.PLP.part.buried>
0.5298

> <Gold.PLP.part.nonpolar>
-25.4330

> <Gold.PLP.part.repulsive>
0.6953

> <Gold.PLP.ligand.clash>
0.0000

> <Gold.PLP.ligand.torsion>
0.5429

> <Gold.PLP.Chemscore.Hbond>
3.4777

> <Gold.PLP.Chemscore.CHOScore>
1.7955

> <Gold.PLP.Chemscore.Metal>
0.0000

> <Gold.Chemscore.Hbonds>
donor molecule, donor type, donor heavy atom, donor atom, acceptor molecule, acceptor atom, score
      L1  H    10    33       P1  7948  1.00
      L1  H    13    34       P1  7948  0.80
      P1  H  7989  7998       L1     3  0.11
      P1  H  7997  8009       L1     3  0.26
      L1  C    15    35       P1 10747  1.00
      L1  C    18    36       P1 10186  0.62

> <Gold.PLP.Chemscore.Internal.Correction>
0.0184

> <Gold.Rescore>
     Score         DG    S(hbond)    S(metal)    S(lipo)     H(rot)  DE(clash)    DE(int)     intcor
     15.72     -17.43       2.88        0.00      57.37       1.72       0.03       1.68       ----

> <Gold.Chemscore.Fitness>
15.7176

> <Gold.Chemscore.DG>
-17.4312

> <Gold.Chemscore.ZeroCoef>
-5.4800

> <Gold.Chemscore.Hbond>
2.8844

> <Gold.Chemscore.Metal>
0.0000

> <Gold.Chemscore.Lipo>
57.3691

> <Gold.Chemscore.Internal_Hbond>
0.0000

> <Gold.Chemscore.DEClash>
0.0321

> <Gold.Chemscore.DEInternal>
1.6815

> <Gold.Chemscore.Rot>
1.7167

> <Gold.Chemscore.Internal.Correction>
   9.000000E+99

> <Gold.Chemscore.Hbonds>
donor molecule, donor type, donor heavy atom, donor atom, acceptor molecule, acceptor atom, score
      L1  H    10    33       P1  7948  1.00
      L1  H    13    34       P1  7948  0.69
      P1  H  7989  7998       L1     3  0.01
      P1  H  7997  8009       L1     3  0.05

> <Gold.Chemscore.Hbond.Weighted>
-9.6337

> <Gold.Chemscore.Metal.Weighted>
-0.0000

> <Gold.Chemscore.Lipo.Weighted>
-6.7122

> <Gold.Chemscore.Internal_Hbond.Weighted>
0.0000

> <Gold.Chemscore.DEClash.Weighted>
0.0321

> <Gold.Chemscore.DEInternal.Weighted>
1.6815

> <Gold.Chemscore.Rot.Weighted>
4.3947

> <Gold.Chemscore.Internal.Correction.Weighted>
   9.000000E+99

> <Gold.Protein.RotatedTorsions>
[ 6907 6896 6895 6894 ] final -128.86 input  -60.11 | X-H torsion
[ 7974 7965 7964 7962 ] final   89.26 input  175.53 | X-H torsion
[ 8008 7997 7996 7995 ] final -143.82 input   59.86 | X-H torsion
[ 10167 10162 10161 10158 ] final    2.05 input  -65.29 | X-H torsion
[ 10718 10713 10712 10709 ] final   70.31 input   66.30 | X-H torsion
[ 10763 10752 10751 10750 ] final   72.46 input  -60.55 | X-H torsion
[ 11005 11000 10999 10996 ] final  -37.45 input  -57.11 | X-H torsion

> <Gold.Protein.ActiveResidues>
 VAL166  LYS551  ARG553  GLY616  TRP617  ASP618  TYR619  PRO620  LYS621  CYS622 
 ASP623  PHE694  ASN695  SER759  ASP760  ASP761  ALA762  ILE779  LEU786  VAL792 
 PHE793  MET794  SER795  GLU796  ALA797  LYS798  CYS799  TRP800  GLU811  SER814 

> <Gold.Protein.RotatedAtoms>
  150.9225  133.6864  159.2828 H   0  0  0  0  0  0  0  0  0  0  0  0  # atno 6907 bound_to 6896
  151.4313  135.1008  159.9653 H   0  0  0  0  0  0  0  0  0  0  0  0  # atno 6908 bound_to 6896
  152.4986  133.8654  159.7326 H   0  0  0  0  0  0  0  0  0  0  0  0  # atno 6909 bound_to 6896
  145.5347  139.2285  143.2599 H   0  0  0  0  0  0  0  0  0  0  0  0  # atno 7974 bound_to 7965
  155.5168  140.0588  157.2914 H   0  0  0  0  0  0  0  0  0  0  0  0  # atno 8008 bound_to 7997
  154.4532  140.1959  156.0404 H   0  0  0  0  0  0  0  0  0  0  0  0  # atno 8009 bound_to 7997
  156.0746  140.3255  155.7622 H   0  0  0  0  0  0  0  0  0  0  0  0  # atno 8010 bound_to 7997
  140.6654  143.7194  150.7816 H   0  0  0  0  0  0  0  0  0  0  0  0  # atno 10167 bound_to 10162
  157.6393  130.9471  150.0633 H   0  0  0  0  0  0  0  0  0  0  0  0  # atno 10718 bound_to 10713
  153.0460  135.5099  154.7747 H   0  0  0  0  0  0  0  0  0  0  0  0  # atno 10763 bound_to 10752
  154.6646  135.2944  154.9824 H   0  0  0  0  0  0  0  0  0  0  0  0  # atno 10764 bound_to 10752
  154.0663  135.6684  153.4871 H   0  0  0  0  0  0  0  0  0  0  0  0  # atno 10765 bound_to 10752
  140.9952  133.6984  156.1922 H   0  0  0  0  0  0  0  0  0  0  0  0  # atno 11005 bound_to 11000
  146.2021  140.6164  142.9097 LP  0  0  0  0  0  0  0  0  0  0  0  0  # atno 17320 bound_to 7965
  144.7608  140.5417  143.6737 LP  0  0  0  0  0  0  0  0  0  0  0  0  # atno 17321 bound_to 7965
  140.0871  143.4913  152.2499 LP  0  0  0  0  0  0  0  0  0  0  0  0  # atno 17342 bound_to 10162
  139.5900  144.7546  151.3423 LP  0  0  0  0  0  0  0  0  0  0  0  0  # atno 17343 bound_to 10162
  156.1659  130.3645  149.9233 LP  0  0  0  0  0  0  0  0  0  0  0  0  # atno 17370 bound_to 10713
  156.7219  130.9010  151.3619 LP  0  0  0  0  0  0  0  0  0  0  0  0  # atno 17371 bound_to 10713
  140.6976  134.4598  157.5587 LP  0  0  0  0  0  0  0  0  0  0  0  0  # atno 17394 bound_to 11000
  139.9011  134.8553  156.1891 LP  0  0  0  0  0  0  0  0  0  0  0  0  # atno 17395 bound_to 11000

$$$$
