#       Name:                AV-unprocessed.smi:287
#       Creating user name   scv26
#       Creation time:       Thu Mar 26 21:54:06 2020


#       File generated by GOLD software.
#

@<TRIPOS>MOLECULE
AV-unprocessed.smi:287
    70    73     1
SMALL
NO_CHARGES


@<TRIPOS>ATOM
      1 ****        -1.9431   3.4595   4.2499 C.3            1 S1                 0.0000
      2 ****        -2.4286   3.3561   2.8448 C.2            1 S1                 0.0000
      3 ****        -3.0318   2.3667   2.1247 C.2            1 S1                 0.0000
      4 ****        -3.2458   2.8687   0.8059 C.2            1 S1                 0.0000
      5 ****        -3.8931   2.1170  -0.3495 C.3            1 S1                 0.0000
      6 ****        -5.4225   2.1489  -0.1978 C.3            1 S1                 0.0000
      7 ****        -3.6254   2.7110  -1.6053 O.3            1 S1                 0.0000
      8 ****        -3.4012   0.6553  -0.4598 C.3            1 S1                 0.0000
      9 ****        -1.9524   0.5326  -0.3343 N.pl3          1 S1                 0.0000
     10 ****        -1.3708  -0.6847  -0.3354 C.ar           1 S1                 0.0000
     11 ****        -2.1130  -1.8158  -0.4627 N.ar           1 S1                 0.0000
     12 ****        -1.5147  -3.0113  -0.4621 C.ar           1 S1                 0.0000
     13 ****        -0.2145  -3.2945  -0.3505 N.ar           1 S1                 0.0000
     14 ****         0.5321  -2.1592  -0.2239 C.ar           1 S1                 0.0000
     15 ****         0.0346  -0.8274  -0.2067 C.ar           1 S1                 0.0000
     16 ****         1.0884   0.0660  -0.0637 N.2            1 S1                 0.0000
     17 ****         2.1461  -0.6989  -0.0059 C.2            1 S1                 0.0000
     18 ****         1.8995  -2.0527  -0.1006 N.pl3          1 S1                 0.0000
     19 ****         2.8613  -3.1964  -0.0806 C.3            1 S1                 0.0000
     20 ****         4.0948  -2.7119   0.3677 O.3            1 S1                 0.0000
     21 ****         5.1009  -2.8620  -0.6341 C.3            1 S1                 0.0000
     22 ****         6.0748  -1.6744  -0.5870 C.3            1 S1                 0.0000
     23 ****         7.0372  -1.8773   0.4249 O.3            1 S1                 0.0000
     24 ****         4.3029  -2.9446  -1.9354 C.3            1 S1                 0.0000
     25 ****         5.0047  -3.5760  -2.9888 O.3            1 S1                 0.0000
     26 ****         3.0626  -3.7148  -1.5100 C.3            1 S1                 0.0000
     27 ****         3.2443  -5.1193  -1.5170 O.3            1 S1                 0.0000
     28 ****        -2.7655   4.1558   0.8396 C.2            1 S1                 0.0000
     29 ****        -2.6888   5.2604  -0.1621 C.3            1 S1                 0.0000
     30 ****        -2.2617   4.4564   2.0691 O.3            1 S1                 0.0000
     31 ****         2.4199  -3.9146   0.6117 H              1 S1                 0.0000
     32 ****         5.6219  -3.8071  -0.4678 H              1 S1                 0.0000
     33 ****         4.0112  -1.9419  -2.2527 H              1 S1                 0.0000
     34 ****         2.2035  -3.4835  -2.1415 H              1 S1                 0.0000
     35 ****        -2.0052   2.4954   4.7548 H              1 S1                 0.0000
     36 ****        -2.5412   4.1756   4.8134 H              1 S1                 0.0000
     37 ****        -0.9039   3.7878   4.2772 H              1 S1                 0.0000
     38 ****        -3.2852   1.3861   2.4995 H              1 S1                 0.0000
     39 ****        -5.7361   1.6801   0.7357 H              1 S1                 0.0000
     40 ****        -5.9166   1.6177  -1.0124 H              1 S1                 0.0000
     41 ****        -5.7998   3.1726  -0.1935 H              1 S1                 0.0000
     42 ****        -4.0490   2.1975  -2.2759 H              1 S1                 0.0000
     43 ****        -3.8461   0.0754   0.3503 H              1 S1                 0.0000
     44 ****        -3.7411   0.2001  -1.3914 H              1 S1                 0.0000
     45 ****        -1.4393   1.3980  -0.2420 H              1 S1                 0.0000
     46 ****        -2.1716  -3.8620  -0.5683 H              1 S1                 0.0000
     47 ****         3.1387  -0.2883   0.1047 H              1 S1                 0.0000
     48 ****         6.6097  -1.5910  -1.5335 H              1 S1                 0.0000
     49 ****         5.5495  -0.7324  -0.4290 H              1 S1                 0.0000
     50 ****         7.6398  -1.1494   0.4165 H              1 S1                 0.0000
     51 ****         5.1886  -4.4666  -2.7300 H              1 S1                 0.0000
     52 ****         2.4487  -5.5252  -1.2075 H              1 S1                 0.0000
     53 ****        -3.6501   5.4033  -0.6553 H              1 S1                 0.0000
     54 ****        -1.9446   5.0374  -0.9265 H              1 S1                 0.0000
     55 ****        -2.4139   6.2035   0.3106 H              1 S1                 0.0000
     56 ****        -2.6387   2.7286  -1.7667 LP             1 S1                 0.0000
     57 ****        -3.9823   3.6450  -1.6197 LP             1 S1                 0.0000
     58 ****        -3.1066  -1.7540  -0.5568 LP             1 S1                 0.0000
     59 ****         0.1638  -4.2202  -0.3587 LP             1 S1                 0.0000
     60 ****         1.0472   1.0640  -0.0160 LP             1 S1                 0.0000
     61 ****         4.3683  -3.2206   1.1840 LP             1 S1                 0.0000
     62 ****         4.0020  -1.7425   0.5946 LP             1 S1                 0.0000
     63 ****         7.5337  -2.7281   0.2524 LP             1 S1                 0.0000
     64 ****         6.5846  -1.9301   1.3150 LP             1 S1                 0.0000
     65 ****         5.8614  -3.0906  -3.1633 LP             1 S1                 0.0000
     66 ****         4.4452  -3.5732  -3.8176 LP             1 S1                 0.0000
     67 ****         4.0045  -5.3644  -0.9153 LP             1 S1                 0.0000
     68 ****         3.4419  -5.4295  -2.4469 LP             1 S1                 0.0000
     69 ****        -1.2901   4.6815   1.9966 LP             1 S1                 0.0000
     70 ****        -2.7552   5.2321   2.4624 LP             1 S1                 0.0000
@<TRIPOS>BOND
    1    1    2 1     
    2    1   35 1     
    3    1   36 1     
    4    1   37 1     
    5    2   30 1     
    6    2    3 2     
    7    3    4 1     
    8    3   38 1     
    9    4    5 1     
   10    4   28 2     
   11    5    6 1     
   12    5    7 1     
   13    5    8 1     
   14    6   39 1     
   15    6   40 1     
   16    6   41 1     
   17    7   42 1     
   18    8    9 1     
   19    8   43 1     
   20    8   44 1     
   21    9   10 1     
   22    9   45 1     
   23   10   15 ar    
   24   10   11 ar    
   25   11   12 ar    
   26   12   13 ar    
   27   12   46 1     
   28   13   14 ar    
   29   14   18 1     
   30   14   15 ar    
   31   15   16 1     
   32   16   17 2     
   33   17   18 1     
   34   17   47 1     
   35   18   19 1     
   36   19   31 1     
   37   19   26 1     
   38   19   20 1     
   39   20   21 1     
   40   21   32 1     
   41   21   22 1     
   42   21   24 1     
   43   22   23 1     
   44   22   48 1     
   45   22   49 1     
   46   23   50 1     
   47   24   33 1     
   48   24   25 1     
   49   24   26 1     
   50   25   51 1     
   51   26   34 1     
   52   26   27 1     
   53   27   52 1     
   54   28   29 1     
   55   28   30 1     
   56   29   53 1     
   57   29   54 1     
   58   29   55 1     
   59    7   56 1     
   60    7   57 1     
   61   11   58 1     
   62   13   59 1     
   63   16   60 1     
   64   20   61 1     
   65   20   62 1     
   66   23   63 1     
   67   23   64 1     
   68   25   65 1     
   69   25   66 1     
   70   27   67 1     
   71   27   68 1     
   72   30   69 1     
   73   30   70 1     
@<TRIPOS>SUBSTRUCTURE
      1 S1             1
@<TRIPOS>SET
LONE_PAIRS      STATIC     ATOMS    <user>   **** ""
15 56 57 58 59 60 61 62 63 64 65 66 67 68 69 70
DONOR_HYDROGENS      STATIC     ATOMS    <user>   **** ""
5 42 45 50 51 52
ATOM$BLUE        STATIC     ATOMS    COLORGROUP SYSTEM
15 56 57 58 59 60 61 62 63 64 65 66 67 68 69 70
ATOM$RED        STATIC     ATOMS    COLORGROUP SYSTEM
5 42 45 50 51 52
