AV-unprocessed.smi:2299|AV-procd|sdf|9229|dock4
  -GOLD-   2272012443D 1   1.00000     0.00000
 Structure written by MMmdl.
 43 44  0  0  0  0  0  0  0  0  2 V2000
  145.8612  143.2989  153.8374 C   0  0  0  0  0  0  0  0  0  0  0  0
  145.7890  142.2148  154.9225 C   0  0  0  0  0  0  0  0  0  0  0  0
  146.3408  142.7257  156.2634 C   0  0  0  0  0  0  0  0  0  0  0  0
  146.4679  140.9495  154.4738 C   0  0  0  0  0  0  0  0  0  0  0  0
  145.8702  139.7591  154.3329 N   0  3  0  0  0  0  0  0  0  0  0  0
  146.7717  138.8102  153.9374 C   0  0  0  0  0  0  0  0  0  0  0  0
  147.9831  139.4424  153.8512 C   0  0  0  0  0  0  0  0  0  0  0  0
  147.7720  140.7532  154.1992 N   0  0  0  0  0  0  0  0  0  0  0  0
  148.8028  141.7997  154.2520 C   0  0  0  0  0  0  0  0  0  0  0  0
  149.9332  141.4069  155.2038 C   0  0  0  0  0  0  0  0  0  0  0  0
  150.4585  140.2976  155.1130 O   0  0  0  0  0  0  0  0  0  0  0  0
  150.2834  142.3199  156.1239 N   0  0  0  0  0  0  0  0  0  0  0  0
  151.2960  142.1349  157.1656 C   0  0  1  0  0  0  0  0  0  0  0  0
  151.3929  143.4604  157.9556 C   0  0  0  0  0  0  0  0  0  0  0  0
  152.7192  143.6396  158.7140 C   0  0  0  0  0  0  0  0  0  0  0  0
  152.9576  142.6303  159.8468 C   0  0  0  0  0  0  0  0  0  0  0  0
  153.0561  141.1737  159.3634 C   0  0  0  0  0  0  0  0  0  0  0  0
  151.7472  140.6010  159.0765 N   0  0  0  0  0  0  0  0  0  0  0  0
  150.8846  140.9947  158.1272 C   0  0  0  0  0  0  0  0  0  0  0  0
  149.7819  140.4557  158.0271 O   0  0  0  0  0  0  0  0  0  0  0  0
  145.4099  142.9580  152.9054 H   0  0  0  0  0  0  0  0  0  0  0  0
  146.8938  143.5770  153.6236 H   0  0  0  0  0  0  0  0  0  0  0  0
  145.3313  144.2000  154.1473 H   0  0  0  0  0  0  0  0  0  0  0  0
  144.7427  141.9586  155.0858 H   0  0  0  0  0  0  0  0  0  0  0  0
  146.2535  141.9641  157.0391 H   0  0  0  0  0  0  0  0  0  0  0  0
  145.7907  143.6035  156.6033 H   0  0  0  0  0  0  0  0  0  0  0  0
  147.3918  143.0067  156.1861 H   0  0  0  0  0  0  0  0  0  0  0  0
  146.4914  137.7830  153.7549 H   0  0  0  0  0  0  0  0  0  0  0  0
  148.9579  139.0663  153.5759 H   0  0  0  0  0  0  0  0  0  0  0  0
  149.1936  141.9855  153.2518 H   0  0  0  0  0  0  0  0  0  0  0  0
  148.3249  142.7240  154.5804 H   0  0  0  0  0  0  0  0  0  0  0  0
  149.7934  143.2026  156.1255 H   0  0  0  0  0  0  0  0  0  0  0  0
  152.2543  141.9033  156.6968 H   0  0  0  0  0  0  0  0  0  0  0  0
  151.3114  144.2955  157.2580 H   0  0  0  0  0  0  0  0  0  0  0  0
  150.5500  143.5695  158.6405 H   0  0  0  0  0  0  0  0  0  0  0  0
  153.5497  143.5964  158.0081 H   0  0  0  0  0  0  0  0  0  0  0  0
  152.7431  144.6443  159.1370 H   0  0  0  0  0  0  0  0  0  0  0  0
  153.8924  142.8936  160.3430 H   0  0  0  0  0  0  0  0  0  0  0  0
  152.1800  142.7242  160.6062 H   0  0  0  0  0  0  0  0  0  0  0  0
  153.7108  141.0878  158.4949 H   0  0  0  0  0  0  0  0  0  0  0  0
  153.5068  140.5660  160.1483 H   0  0  0  0  0  0  0  0  0  0  0  0
  151.4518  139.8464  159.6792 H   0  0  0  0  0  0  0  0  0  0  0  0
  144.8845  139.5912  154.4910 H   0  0  0  0  0  0  0  0  0  0  0  0
  1  2  1  0  0  0  0
  1 21  1  0  0  0  0
  1 22  1  0  0  0  0
  1 23  1  0  0  0  0
  2  3  1  0  0  0  0
  2  4  1  0  0  0  0
  2 24  1  0  0  0  0
  3 25  1  0  0  0  0
  3 26  1  0  0  0  0
  3 27  1  0  0  0  0
  4  8  1  0  0  0  0
  4  5  2  0  0  0  0
  5  6  1  0  0  0  0
  5 43  1  0  0  0  0
  6  7  2  0  0  0  0
  6 28  1  0  0  0  0
  7  8  1  0  0  0  0
  7 29  1  0  0  0  0
  8  9  1  0  0  0  0
  9 10  1  0  0  0  0
  9 30  1  0  0  0  0
  9 31  1  0  0  0  0
 10 11  2  0  0  0  0
 10 12  1  0  0  0  0
 12 13  1  0  0  0  0
 12 32  1  0  0  0  0
 13 19  1  0  0  0  0
 13 14  1  0  0  0  0
 13 33  1  0  0  0  0
 14 15  1  0  0  0  0
 14 34  1  0  0  0  0
 14 35  1  0  0  0  0
 15 16  1  0  0  0  0
 15 36  1  0  0  0  0
 15 37  1  0  0  0  0
 16 17  1  0  0  0  0
 16 38  1  0  0  0  0
 16 39  1  0  0  0  0
 17 18  1  0  0  0  0
 17 40  1  0  0  0  0
 17 41  1  0  0  0  0
 18 19  1  0  0  0  0
 18 42  1  0  0  0  0
 19 20  2  0  0  0  0
M  CHG  1   5   1
M  END
> <s_m_source_file>
AV-unprocessed.smi

> <i_m_source_file_index>
2299

> <i_lp_mmshare_version>
43012

> <i_f3d_flags>
0

> <s_epik_input>
W0NIM11bQ0hdKFtDSDNdKWMxbltjSF1bY0hdbjFbQ0gyXUMoPU8pW05IXVtDQEBIXTJbQ0gyXVtDSDJdW0NIMl1bQ0gyXVtOSF1DMj1P

> <s_epik_cmdline>
J2VwaWtfcHl0aG9uJywgJy1waCcsICc3LjAnLCAnLXRuJywgJzgnLCAnLW1hJywgJzIwMCcsICctbWV0YWxfYmluZGluZycsICctaW1hZScsICc8aW5maWxlLm1hZT4nLCAnLW9tYWUnLCAnPG91dGZpbGUubWFlPic=

> <r_lp_tautomer_probability>
1

> <r_epik_Ionization_Penalty>
0.292878

> <r_epik_Ionization_Penalty_Charging>
0

> <r_epik_Ionization_Penalty_Neutral>
0.292878

> <r_epik_State_Penalty>
0.286008

> <r_epik_Charging_Adjusted_Penalty>
0.286008

> <i_epik_Tot_Q>
1

> <i_epik_Tot_abs_Q>
1

> <r_epik_Metal_State_Penalty>
0.563502

> <b_epik_Metal_Only>
0

> <s_lp_Force_Field>
OPLS_2005

> <r_lp_Energy>
15.0936

> <b_lp_Chiralities_Consistent>
1

> <s_lp_Variant>
AV-unprocessed.smi:2299-2

> <Gold.Version>
5.8.1

> <Gold.Id.Protein>
6NUR|6NUR_protein|mol2

> <Gold.PLP.Fitness>
45.4070

> <Gold.PLP.PLP>
-37.6223

> <Gold.PLP.part.hbond>
-3.0000

> <Gold.PLP.part.metal>
0.0000

> <Gold.PLP.part.buried>
-2.7070

> <Gold.PLP.part.nonpolar>
-32.1646

> <Gold.PLP.part.repulsive>
0.3231

> <Gold.PLP.ligand.clash>
0.0000

> <Gold.PLP.ligand.torsion>
0.1302

> <Gold.PLP.Chemscore.Hbond>
2.0000

> <Gold.PLP.Chemscore.CHOScore>
0.6636

> <Gold.PLP.Chemscore.Metal>
0.0000

> <Gold.Chemscore.Hbonds>
donor molecule, donor type, donor heavy atom, donor atom, acceptor molecule, acceptor atom, score
      L1  H    12    32       P1  8028  1.00
      P1  H  7989  7998       L1    11  0.54
      L1  C     7    29       P1  7957  0.36

> <Gold.PLP.Chemscore.Internal.Correction>
0.0542

> <Gold.Rescore>
     Score         DG    S(hbond)    S(metal)    S(lipo)     H(rot)  DE(clash)    DE(int)     intcor
     14.66     -16.26       1.61        0.00      84.36       1.75       0.15       1.45       ----

> <Gold.Chemscore.Fitness>
14.6589

> <Gold.Chemscore.DG>
-16.2556

> <Gold.Chemscore.ZeroCoef>
-5.4800

> <Gold.Chemscore.Hbond>
1.6132

> <Gold.Chemscore.Metal>
0.0000

> <Gold.Chemscore.Lipo>
84.3567

> <Gold.Chemscore.Internal_Hbond>
0.0000

> <Gold.Chemscore.DEClash>
0.1477

> <Gold.Chemscore.DEInternal>
1.4490

> <Gold.Chemscore.Rot>
1.7508

> <Gold.Chemscore.Internal.Correction>
   9.000000E+99

> <Gold.Chemscore.Hbonds>
donor molecule, donor type, donor heavy atom, donor atom, acceptor molecule, acceptor atom, score
      L1  H    12    32       P1  8028  1.00
      P1  H  7989  7998       L1    11  0.04

> <Gold.Chemscore.Hbond.Weighted>
-5.3879

> <Gold.Chemscore.Metal.Weighted>
-0.0000

> <Gold.Chemscore.Lipo.Weighted>
-9.8697

> <Gold.Chemscore.Internal_Hbond.Weighted>
0.0000

> <Gold.Chemscore.DEClash.Weighted>
0.1477

> <Gold.Chemscore.DEInternal.Weighted>
1.4490

> <Gold.Chemscore.Rot.Weighted>
4.4821

> <Gold.Chemscore.Internal.Correction.Weighted>
   9.000000E+99

> <Gold.Protein.RotatedTorsions>
[ 6907 6896 6895 6894 ] final  -88.01 input  -60.11 | X-H torsion
[ 7974 7965 7964 7962 ] final  -89.19 input  175.53 | X-H torsion
[ 8008 7997 7996 7995 ] final  -44.16 input   59.86 | X-H torsion
[ 10167 10162 10161 10158 ] final  119.84 input  -65.29 | X-H torsion
[ 10718 10713 10712 10709 ] final  -80.62 input   66.30 | X-H torsion
[ 10763 10752 10751 10750 ] final   11.29 input  -60.55 | X-H torsion
[ 11005 11000 10999 10996 ] final -123.01 input  -57.11 | X-H torsion

> <Gold.Protein.ActiveResidues>
 VAL166  LYS551  ARG553  GLY616  TRP617  ASP618  TYR619  PRO620  LYS621  CYS622 
 ASP623  PHE694  ASN695  SER759  ASP760  ASP761  ALA762  ILE779  LEU786  VAL792 
 PHE793  MET794  SER795  GLU796  ALA797  LYS798  CYS799  TRP800  GLU811  SER814 

> <Gold.Protein.RotatedAtoms>
  150.6867  134.2807  159.4625 H   0  0  0  0  0  0  0  0  0  0  0  0  # atno 6907 bound_to 6896
  152.0721  134.9524  160.0583 H   0  0  0  0  0  0  0  0  0  0  0  0  # atno 6908 bound_to 6896
  152.0910  133.4165  159.4580 H   0  0  0  0  0  0  0  0  0  0  0  0  # atno 6909 bound_to 6896
  145.4431  140.9559  143.2064 H   0  0  0  0  0  0  0  0  0  0  0  0  # atno 7974 bound_to 7965
  154.3997  140.1429  156.3637 H   0  0  0  0  0  0  0  0  0  0  0  0  # atno 8008 bound_to 7997
  155.8157  140.3471  155.5463 H   0  0  0  0  0  0  0  0  0  0  0  0  # atno 8009 bound_to 7997
  155.8340  140.0916  157.1765 H   0  0  0  0  0  0  0  0  0  0  0  0  # atno 8010 bound_to 7997
  139.6020  144.7059  151.3040 H   0  0  0  0  0  0  0  0  0  0  0  0  # atno 10167 bound_to 10162
  156.0066  130.4580  150.3828 H   0  0  0  0  0  0  0  0  0  0  0  0  # atno 10718 bound_to 10713
  153.1942  135.6847  153.8313 H   0  0  0  0  0  0  0  0  0  0  0  0  # atno 10763 bound_to 10752
  153.7602  135.3211  155.3337 H   0  0  0  0  0  0  0  0  0  0  0  0  # atno 10764 bound_to 10752
  154.8135  135.4701  154.0678 H   0  0  0  0  0  0  0  0  0  0  0  0  # atno 10765 bound_to 10752
  140.9951  134.0483  157.3607 H   0  0  0  0  0  0  0  0  0  0  0  0  # atno 11005 bound_to 11000
  144.8109  139.5964  143.7030 LP  0  0  0  0  0  0  0  0  0  0  0  0  # atno 17320 bound_to 7965
  146.2545  139.6273  142.9404 LP  0  0  0  0  0  0  0  0  0  0  0  0  # atno 17321 bound_to 7965
  140.7257  143.7011  150.7844 LP  0  0  0  0  0  0  0  0  0  0  0  0  # atno 17342 bound_to 10162
  140.0589  143.5175  152.2637 LP  0  0  0  0  0  0  0  0  0  0  0  0  # atno 17343 bound_to 10162
  157.1907  131.0414  151.2701 LP  0  0  0  0  0  0  0  0  0  0  0  0  # atno 17370 bound_to 10713
  157.4063  130.7361  149.6805 LP  0  0  0  0  0  0  0  0  0  0  0  0  # atno 17371 bound_to 10713
  139.9011  135.0164  156.7271 LP  0  0  0  0  0  0  0  0  0  0  0  0  # atno 17394 bound_to 11000
  140.6978  133.9333  155.8005 LP  0  0  0  0  0  0  0  0  0  0  0  0  # atno 17395 bound_to 11000

$$$$
