AV-unprocessed.smi:160|AV-procd|sdf|1362|dock10
  -GOLD-   2262019 73D 1   1.00000     0.00000
 Structure written by MMmdl.
 28 29  0  0  0  0  0  0  0  0  2 V2000
  151.8539  137.1047  154.2283 N   0  5  0  0  0  0  0  0  0  0  0  0
  152.1709  138.3242  154.7155 C   0  0  0  0  0  0  0  0  0  0  0  0
  153.2849  138.6921  155.0872 O   0  0  0  0  0  0  0  0  0  0  0  0
  151.0120  139.2898  154.7922 C   0  0  0  0  0  0  0  0  0  0  0  0
  151.2186  140.6018  155.1206 N   0  0  0  0  0  0  0  0  0  0  0  0
  149.9661  141.0339  155.0664 C   0  0  0  0  0  0  0  0  0  0  0  0
  149.0746  140.0914  154.7480 N   0  0  0  0  0  0  0  0  0  0  0  0
  147.5905  140.1898  154.5838 C   0  0  1  0  0  0  0  0  0  0  0  0
  147.3036  140.0194  153.2283 O   0  0  0  0  0  0  0  0  0  0  0  0
  146.2524  139.0717  153.0570 C   0  0  1  0  0  0  0  0  0  0  0  0
  146.3415  138.3935  151.6784 C   0  0  0  0  0  0  0  0  0  0  0  0
  147.6768  138.0295  151.3998 O   0  0  0  0  0  0  0  0  0  0  0  0
  146.3903  138.1362  154.2667 C   0  0  1  0  0  0  0  0  0  0  0  0
  147.3482  137.1211  154.0213 O   0  0  0  0  0  0  0  0  0  0  0  0
  146.8218  139.1029  155.3627 C   0  0  1  0  0  0  0  0  0  0  0  0
  147.5260  138.4785  156.4237 O   0  0  0  0  0  0  0  0  0  0  0  0
  149.7469  138.9307  154.5528 N   0  0  0  0  0  0  0  0  0  0  0  0
  147.3473  141.2014  154.9109 H   0  0  0  0  0  0  0  0  0  0  0  0
  145.3024  139.6012  153.1531 H   0  0  0  0  0  0  0  0  0  0  0  0
  145.4449  137.6519  154.5126 H   0  0  0  0  0  0  0  0  0  0  0  0
  145.9327  139.5807  155.7765 H   0  0  0  0  0  0  0  0  0  0  0  0
  151.3869  137.0503  153.3152 H   0  0  0  0  0  0  0  0  0  0  0  0
  149.6920  142.0589  155.2680 H   0  0  0  0  0  0  0  0  0  0  0  0
  145.6912  137.5196  151.6242 H   0  0  0  0  0  0  0  0  0  0  0  0
  146.0241  139.0850  150.8972 H   0  0  0  0  0  0  0  0  0  0  0  0
  147.8456  137.1885  151.7960 H   0  0  0  0  0  0  0  0  0  0  0  0
  147.8934  137.3936  153.2987 H   0  0  0  0  0  0  0  0  0  0  0  0
  146.9319  137.9073  156.8855 H   0  0  0  0  0  0  0  0  0  0  0  0
  1  2  1  0  0  0  0
  1 22  1  0  0  0  0
  2  3  2  0  0  0  0
  2  4  1  0  0  0  0
  4 17  2  0  0  0  0
  4  5  1  0  0  0  0
  5  6  2  0  0  0  0
  6  7  1  0  0  0  0
  6 23  1  0  0  0  0
  7  8  1  0  0  0  0
  7 17  1  0  0  0  0
  8 18  1  0  0  0  0
  8 15  1  0  0  0  0
  8  9  1  0  0  0  0
  9 10  1  0  0  0  0
 10 19  1  0  0  0  0
 10 11  1  0  0  0  0
 10 13  1  0  0  0  0
 11 12  1  0  0  0  0
 11 24  1  0  0  0  0
 11 25  1  0  0  0  0
 12 26  1  0  0  0  0
 13 20  1  0  0  0  0
 13 14  1  0  0  0  0
 13 15  1  0  0  0  0
 14 27  1  0  0  0  0
 15 21  1  0  0  0  0
 15 16  1  0  0  0  0
 16 28  1  0  0  0  0
M  CHG  1   1  -1
M  END
> <s_m_source_file>
AV-unprocessed.smi

> <i_m_source_file_index>
160

> <i_lp_mmshare_version>
43012

> <i_f3d_flags>
0

> <s_epik_input>
W05IMl1DKD1PKWMxbltjSF1uKG4xKVtDQEBIXTJPW0NASF0oW0NIMl1bT0hdKVtDQEBIXShbT0hdKVtDQEhdMltPSF0=

> <s_epik_cmdline>
J2VwaWtfcHl0aG9uJywgJy1waCcsICc3LjAnLCAnLXRuJywgJzgnLCAnLW1hJywgJzIwMCcsICctbWV0YWxfYmluZGluZycsICctaW1hZScsICc8aW5maWxlLm1hZT4nLCAnLW9tYWUnLCAnPG91dGZpbGUubWFlPic=

> <r_lp_tautomer_probability>
1

> <r_epik_Ionization_Penalty>
6.6993

> <r_epik_Ionization_Penalty_Charging>
6.6993

> <r_epik_Ionization_Penalty_Neutral>
6.01698e-06

> <r_epik_State_Penalty>
6.69929

> <r_epik_Charging_Adjusted_Penalty>
13.3986

> <i_epik_Tot_Q>
-1

> <i_epik_Tot_abs_Q>
1

> <r_epik_Metal_State_Penalty>
2.62798

> <b_epik_Metal_Only>
1

> <s_epik_Chemistry_Notes>
This compound contains an acetal/aminal-like group ( X-CH(R)-Y where X, Y are N, S, or O) that may be acid/base labile, releasing an aldehyde.

> <s_lp_Force_Field>
OPLS_2005

> <r_lp_Energy>
51.4857

> <b_lp_Chiralities_Consistent>
1

> <s_lp_Variant>
AV-unprocessed.smi:160-20

> <Gold.Version>
5.8.1

> <Gold.Id.Protein>
6NUR|6NUR_protein|mol2

> <Gold.PLP.Fitness>
42.4445

> <Gold.PLP.PLP>
-23.3485

> <Gold.PLP.part.hbond>
-7.0806

> <Gold.PLP.part.metal>
0.0000

> <Gold.PLP.part.buried>
2.5845

> <Gold.PLP.part.nonpolar>
-18.2650

> <Gold.PLP.part.repulsive>
0.5203

> <Gold.PLP.ligand.clash>
0.0000

> <Gold.PLP.ligand.torsion>
0.2933

> <Gold.PLP.Chemscore.Hbond>
6.2304

> <Gold.PLP.Chemscore.CHOScore>
0.3290

> <Gold.PLP.Chemscore.Metal>
0.0000

> <Gold.Chemscore.Hbonds>
donor molecule, donor type, donor heavy atom, donor atom, acceptor molecule, acceptor atom, score
      L1  H     1    22       P1  7949  0.72
      L1  H    12    26       P1  7948  0.55
      L1  H    14    27       P1  7948  0.48
      P1  H  7954  7966       L1    12  1.00
      P1  H  7989  7998       L1     5  0.36
      P1  H  7997  8010       L1     3  0.93
      P1  H 10752 10764       L1     1  2.00
      L1  C     6    23       P1  8028  0.32

> <Gold.PLP.Chemscore.Internal.Correction>
0.0045

> <Gold.Rescore>
     Score         DG    S(hbond)    S(metal)    S(lipo)     H(rot)  DE(clash)    DE(int)     intcor
      7.97     -10.20       4.00        0.00      14.64       4.04       0.18       2.05       ----

> <Gold.Chemscore.Fitness>
7.9712

> <Gold.Chemscore.DG>
-10.1986

> <Gold.Chemscore.ZeroCoef>
-5.4800

> <Gold.Chemscore.Hbond>
3.9965

> <Gold.Chemscore.Metal>
0.0000

> <Gold.Chemscore.Lipo>
14.6432

> <Gold.Chemscore.Internal_Hbond>
0.0000

> <Gold.Chemscore.DEClash>
0.1782

> <Gold.Chemscore.DEInternal>
2.0492

> <Gold.Chemscore.Rot>
4.0403

> <Gold.Chemscore.Internal.Correction>
   9.000000E+99

> <Gold.Chemscore.Hbonds>
donor molecule, donor type, donor heavy atom, donor atom, acceptor molecule, acceptor atom, score
      L1  H     1    22       P1  7949  0.55
      L1  H    12    26       P1  7948  0.55
      L1  H    14    27       P1  7948  0.46
      P1  H  7954  7966       L1    12  0.43
      P1  H  7997  8010       L1     3  0.84
      P1  H 10752 10764       L1     1  0.34

> <Gold.Chemscore.Hbond.Weighted>
-13.3484

> <Gold.Chemscore.Metal.Weighted>
-0.0000

> <Gold.Chemscore.Lipo.Weighted>
-1.7133

> <Gold.Chemscore.Internal_Hbond.Weighted>
0.0000

> <Gold.Chemscore.DEClash.Weighted>
0.1782

> <Gold.Chemscore.DEInternal.Weighted>
2.0492

> <Gold.Chemscore.Rot.Weighted>
10.3431

> <Gold.Chemscore.Internal.Correction.Weighted>
   9.000000E+99

> <Gold.Protein.RotatedTorsions>
[ 6907 6896 6895 6894 ] final  171.24 input  -60.11 | X-H torsion
[ 7974 7965 7964 7962 ] final  -38.13 input  175.53 | X-H torsion
[ 8008 7997 7996 7995 ] final   97.43 input   59.86 | X-H torsion
[ 10167 10162 10161 10158 ] final  103.56 input  -65.29 | X-H torsion
[ 10718 10713 10712 10709 ] final  -99.18 input   66.30 | X-H torsion
[ 10763 10752 10751 10750 ] final  -86.25 input  -60.55 | X-H torsion
[ 11005 11000 10999 10996 ] final -163.38 input  -57.11 | X-H torsion

> <Gold.Protein.ActiveResidues>
 VAL166  LYS551  ARG553  GLY616  TRP617  ASP618  TYR619  PRO620  LYS621  CYS622 
 ASP623  PHE694  ASN695  SER759  ASP760  ASP761  ALA762  ILE779  LEU786  VAL792 
 PHE793  MET794  SER795  GLU796  ALA797  LYS798  CYS799  TRP800  GLU811  SER814 

> <Gold.Protein.RotatedAtoms>
  151.8034  133.3372  159.3533 H   0  0  0  0  0  0  0  0  0  0  0  0  # atno 6907 bound_to 6896
  150.7351  134.5732  159.5910 H   0  0  0  0  0  0  0  0  0  0  0  0  # atno 6908 bound_to 6896
  152.3127  134.7479  160.0384 H   0  0  0  0  0  0  0  0  0  0  0  0  # atno 6909 bound_to 6896
  146.0514  140.6476  142.9040 H   0  0  0  0  0  0  0  0  0  0  0  0  # atno 7974 bound_to 7965
  156.0901  140.3258  155.7804 H   0  0  0  0  0  0  0  0  0  0  0  0  # atno 8008 bound_to 7997
  155.5011  140.0569  157.2956 H   0  0  0  0  0  0  0  0  0  0  0  0  # atno 8009 bound_to 7997
  154.4632  140.1977  156.0204 H   0  0  0  0  0  0  0  0  0  0  0  0  # atno 8010 bound_to 7997
  139.7252  144.7049  151.0809 H   0  0  0  0  0  0  0  0  0  0  0  0  # atno 10167 bound_to 10162
  156.0127  130.5271  150.6632 H   0  0  0  0  0  0  0  0  0  0  0  0  # atno 10718 bound_to 10713
  154.6203  135.5456  153.7568 H   0  0  0  0  0  0  0  0  0  0  0  0  # atno 10763 bound_to 10752
  153.0235  135.6411  154.1449 H   0  0  0  0  0  0  0  0  0  0  0  0  # atno 10764 bound_to 10752
  154.1384  135.2910  155.3147 H   0  0  0  0  0  0  0  0  0  0  0  0  # atno 10765 bound_to 10752
  140.5987  134.4970  157.5202 H   0  0  0  0  0  0  0  0  0  0  0  0  # atno 11005 bound_to 11000
  144.7124  140.4089  143.7070 LP  0  0  0  0  0  0  0  0  0  0  0  0  # atno 17320 bound_to 7965
  145.6718  139.1600  143.2750 LP  0  0  0  0  0  0  0  0  0  0  0  0  # atno 17321 bound_to 7965
  140.7761  143.5114  150.9648 LP  0  0  0  0  0  0  0  0  0  0  0  0  # atno 17342 bound_to 10162
  139.8802  143.7082  152.3158 LP  0  0  0  0  0  0  0  0  0  0  0  0  # atno 17343 bound_to 10162
  157.4370  131.0856  151.0982 LP  0  0  0  0  0  0  0  0  0  0  0  0  # atno 17370 bound_to 10713
  157.1537  130.6195  149.5590 LP  0  0  0  0  0  0  0  0  0  0  0  0  # atno 17371 bound_to 10713
  139.9242  134.8089  156.1119 LP  0  0  0  0  0  0  0  0  0  0  0  0  # atno 17394 bound_to 11000
  141.0887  133.6723  156.2492 LP  0  0  0  0  0  0  0  0  0  0  0  0  # atno 17395 bound_to 11000

$$$$
