AV-unprocessed.smi:1965|AV-procd|sdf|7934|dock9
  -GOLD-   2272010103D 1   1.00000     0.00000
 Structure written by MMmdl.
 37 39  0  0  0  0  0  0  0  0  2 V2000
  145.6010  137.3137  154.6104 O   0  0  0  0  0  0  0  0  0  0  0  0
  146.5613  137.0211  153.9003 C   0  0  0  0  0  0  0  0  0  0  0  0
  147.4585  137.9565  153.5221 N   0  0  0  0  0  0  0  0  0  0  0  0
  147.5444  139.3526  153.7974 C   0  0  0  0  0  0  0  0  0  0  0  0
  146.5206  140.2151  153.7542 N   0  0  0  0  0  0  0  0  0  0  0  0
  146.9114  141.5166  154.0790 C   0  0  0  0  0  0  0  0  0  0  0  0
  148.2470  141.6302  154.3726 C   0  0  0  0  0  0  0  0  0  0  0  0
  149.0705  140.0988  154.2505 S   0  0  0  0  0  0  0  0  0  0  0  0
  146.7792  135.7725  153.4565 N   0  0  0  0  0  0  0  0  0  0  0  0
  145.9356  134.6136  153.7287 C   0  0  2  0  0  0  0  0  0  0  0  0
  146.6237  133.5724  154.6292 C   0  0  0  0  0  0  0  0  0  0  0  0
  146.1888  132.2012  154.0755 C   0  0  0  0  0  0  0  0  0  0  0  0
  145.2276  132.5022  152.9975 N   0  3  2  0  0  0  0  0  0  0  0  0
  145.0546  131.4785  151.9439 C   0  0  0  0  0  0  0  0  0  0  0  0
  143.9553  131.9378  150.9652 C   0  0  0  0  0  0  0  0  0  0  0  0
  144.2353  133.3501  150.4125 C   0  0  0  0  0  0  0  0  0  0  0  0
  144.5009  134.3520  151.5529 C   0  0  0  0  0  0  0  0  0  0  0  0
  145.6195  133.8146  152.4620 C   0  0  1  0  0  0  0  0  0  0  0  0
  148.2163  137.6003  152.9577 H   0  0  0  0  0  0  0  0  0  0  0  0
  146.1718  142.3037  154.0776 H   0  0  0  0  0  0  0  0  0  0  0  0
  148.7940  142.5183  154.6525 H   0  0  0  0  0  0  0  0  0  0  0  0
  147.5939  135.6193  152.8788 H   0  0  0  0  0  0  0  0  0  0  0  0
  145.0039  134.9203  154.2091 H   0  0  0  0  0  0  0  0  0  0  0  0
  147.7104  133.6601  154.5826 H   0  0  0  0  0  0  0  0  0  0  0  0
  146.3301  133.7013  155.6715 H   0  0  0  0  0  0  0  0  0  0  0  0
  147.0524  131.6709  153.6711 H   0  0  0  0  0  0  0  0  0  0  0  0
  145.7300  131.5706  154.8374 H   0  0  0  0  0  0  0  0  0  0  0  0
  145.9973  131.3248  151.4163 H   0  0  0  0  0  0  0  0  0  0  0  0
  144.7797  130.5266  152.3993 H   0  0  0  0  0  0  0  0  0  0  0  0
  143.8650  131.2265  150.1438 H   0  0  0  0  0  0  0  0  0  0  0  0
  142.9929  131.9381  151.4787 H   0  0  0  0  0  0  0  0  0  0  0  0
  145.1031  133.3148  149.7526 H   0  0  0  0  0  0  0  0  0  0  0  0
  143.3968  133.6885  149.8029 H   0  0  0  0  0  0  0  0  0  0  0  0
  144.7801  135.3202  151.1367 H   0  0  0  0  0  0  0  0  0  0  0  0
  143.5890  134.5096  152.1303 H   0  0  0  0  0  0  0  0  0  0  0  0
  146.5350  133.6923  151.8779 H   0  0  0  0  0  0  0  0  0  0  0  0
  144.3299  132.6329  153.4414 H   0  0  0  0  0  0  0  0  0  0  0  0
  1  2  2  0  0  0  0
  2  3  1  0  0  0  0
  2  9  1  0  0  0  0
  3  4  1  0  0  0  0
  3 19  1  0  0  0  0
  4  8  1  0  0  0  0
  4  5  2  0  0  0  0
  5  6  1  0  0  0  0
  6  7  2  0  0  0  0
  6 20  1  0  0  0  0
  7  8  1  0  0  0  0
  7 21  1  0  0  0  0
  9 10  1  0  0  0  0
  9 22  1  0  0  0  0
 10 18  1  0  0  0  0
 10 11  1  0  0  0  0
 10 23  1  0  0  0  0
 11 12  1  0  0  0  0
 11 24  1  0  0  0  0
 11 25  1  0  0  0  0
 12 13  1  0  0  0  0
 12 26  1  0  0  0  0
 12 27  1  0  0  0  0
 13 18  1  0  0  0  0
 13 14  1  0  0  0  0
 13 37  1  0  0  0  0
 14 15  1  0  0  0  0
 14 28  1  0  0  0  0
 14 29  1  0  0  0  0
 15 16  1  0  0  0  0
 15 30  1  0  0  0  0
 15 31  1  0  0  0  0
 16 17  1  0  0  0  0
 16 32  1  0  0  0  0
 16 33  1  0  0  0  0
 17 18  1  0  0  0  0
 17 34  1  0  0  0  0
 17 35  1  0  0  0  0
 18 36  1  0  0  0  0
M  CHG  1  13   1
M  END
> <s_m_source_file>
AV-unprocessed.smi

> <i_m_source_file_index>
1965

> <i_lp_mmshare_version>
43012

> <i_f3d_flags>
0

> <s_epik_input>
czFbY0hdW2NIXW5jMVtOSF1DKD1PKVtOSF1bQ0BIXShbQ0gyXVtDSDJdMilbQ0BASF0oTjIzKVtDSDJdW0NIMl1bQ0gyXVtDSDJdMw==

> <s_epik_cmdline>
J2VwaWtfcHl0aG9uJywgJy1waCcsICc3LjAnLCAnLXRuJywgJzgnLCAnLW1hJywgJzIwMCcsICctbWV0YWxfYmluZGluZycsICctaW1hZScsICc8aW5maWxlLm1hZT4nLCAnLW9tYWUnLCAnPG91dGZpbGUubWFlPic=

> <r_lp_tautomer_probability>
1

> <r_epik_Ionization_Penalty>
0.00125962

> <r_epik_Ionization_Penalty_Charging>
0.00107044

> <r_epik_Ionization_Penalty_Neutral>
0.000189176

> <r_epik_State_Penalty>
-0

> <r_epik_Charging_Adjusted_Penalty>
0.00107044

> <i_epik_Tot_Q>
1

> <i_epik_Tot_abs_Q>
1

> <r_epik_Metal_State_Penalty>
0.0179285

> <b_epik_Metal_Only>
0

> <s_lp_Force_Field>
OPLS_2005

> <r_lp_Energy>
35.2759

> <b_lp_Chiralities_Consistent>
1

> <s_lp_Variant>
AV-unprocessed.smi:1965-3

> <Gold.Version>
5.8.1

> <Gold.Id.Protein>
6NUR|6NUR_protein|mol2

> <Gold.PLP.Fitness>
35.2505

> <Gold.PLP.PLP>
-25.1455

> <Gold.PLP.part.hbond>
-2.4867

> <Gold.PLP.part.metal>
0.0000

> <Gold.PLP.part.buried>
-4.5420

> <Gold.PLP.part.nonpolar>
-20.1251

> <Gold.PLP.part.repulsive>
0.2402

> <Gold.PLP.ligand.clash>
0.0000

> <Gold.PLP.ligand.torsion>
0.4647

> <Gold.PLP.Chemscore.Hbond>
2.6750

> <Gold.PLP.Chemscore.CHOScore>
1.0000

> <Gold.PLP.Chemscore.Metal>
0.0000

> <Gold.Chemscore.Hbonds>
donor molecule, donor type, donor heavy atom, donor atom, acceptor molecule, acceptor atom, score
      L1  H     3    19       P1  7948  1.00
      L1  H     9    22       P1  7948  1.00
      L1  H    13    37       P1 10957  0.64
      L1  C     7    21       P1  8028  1.00

> <Gold.PLP.Chemscore.Internal.Correction>
0.0094

> <Gold.Rescore>
     Score         DG    S(hbond)    S(metal)    S(lipo)     H(rot)  DE(clash)    DE(int)     intcor
     17.14     -17.59       2.42        0.00      56.29       1.00       0.00       0.45       ----

> <Gold.Chemscore.Fitness>
17.1388

> <Gold.Chemscore.DG>
-17.5897

> <Gold.Chemscore.ZeroCoef>
-5.4800

> <Gold.Chemscore.Hbond>
2.4204

> <Gold.Chemscore.Metal>
0.0000

> <Gold.Chemscore.Lipo>
56.2868

> <Gold.Chemscore.Internal_Hbond>
0.0000

> <Gold.Chemscore.DEClash>
0.0004

> <Gold.Chemscore.DEInternal>
0.4505

> <Gold.Chemscore.Rot>
1.0000

> <Gold.Chemscore.Internal.Correction>
   9.000000E+99

> <Gold.Chemscore.Hbonds>
donor molecule, donor type, donor heavy atom, donor atom, acceptor molecule, acceptor atom, score
      L1  H     3    19       P1  7948  0.95
      L1  H     9    22       P1  7948  0.97
      L1  H    13    37       P1 10957  0.11

> <Gold.Chemscore.Hbond.Weighted>
-8.0841

> <Gold.Chemscore.Metal.Weighted>
-0.0000

> <Gold.Chemscore.Lipo.Weighted>
-6.5856

> <Gold.Chemscore.Internal_Hbond.Weighted>
0.0000

> <Gold.Chemscore.DEClash.Weighted>
0.0004

> <Gold.Chemscore.DEInternal.Weighted>
0.4505

> <Gold.Chemscore.Rot.Weighted>
2.5600

> <Gold.Chemscore.Internal.Correction.Weighted>
   9.000000E+99

> <Gold.Protein.RotatedTorsions>
[ 6907 6896 6895 6894 ] final  -10.02 input  -60.11 | X-H torsion
[ 7974 7965 7964 7962 ] final -123.01 input  175.53 | X-H torsion
[ 8008 7997 7996 7995 ] final  -63.56 input   59.86 | X-H torsion
[ 10167 10162 10161 10158 ] final   99.49 input  -65.29 | X-H torsion
[ 10718 10713 10712 10709 ] final  -62.57 input   66.30 | X-H torsion
[ 10763 10752 10751 10750 ] final   93.21 input  -60.55 | X-H torsion
[ 11005 11000 10999 10996 ] final  162.43 input  -57.11 | X-H torsion

> <Gold.Protein.ActiveResidues>
 VAL166  LYS551  ARG553  GLY616  TRP617  ASP618  TYR619  PRO620  LYS621  CYS622 
 ASP623  PHE694  ASN695  SER759  ASP760  ASP761  ALA762  ILE779  LEU786  VAL792 
 PHE793  MET794  SER795  GLU796  ALA797  LYS798  CYS799  TRP800  GLU811  SER814 

> <Gold.Protein.RotatedAtoms>
  151.4086  135.0981  159.9577 H   0  0  0  0  0  0  0  0  0  0  0  0  # atno 6907 bound_to 6896
  152.5027  133.8819  159.7361 H   0  0  0  0  0  0  0  0  0  0  0  0  # atno 6908 bound_to 6896
  150.9309  133.6711  159.2839 H   0  0  0  0  0  0  0  0  0  0  0  0  # atno 6909 bound_to 6896
  145.0232  140.8006  143.4368 H   0  0  0  0  0  0  0  0  0  0  0  0  # atno 7974 bound_to 7965
  154.4561  140.0972  156.6762 H   0  0  0  0  0  0  0  0  0  0  0  0  # atno 8008 bound_to 7997
  155.5133  140.3477  155.4374 H   0  0  0  0  0  0  0  0  0  0  0  0  # atno 8009 bound_to 7997
  156.0780  140.1366  156.9736 H   0  0  0  0  0  0  0  0  0  0  0  0  # atno 8010 bound_to 7997
  139.7612  144.6953  151.0289 H   0  0  0  0  0  0  0  0  0  0  0  0  # atno 10167 bound_to 10162
  156.0847  130.4210  150.1154 H   0  0  0  0  0  0  0  0  0  0  0  0  # atno 10718 bound_to 10713
  153.2277  135.4334  155.0560 H   0  0  0  0  0  0  0  0  0  0  0  0  # atno 10763 bound_to 10752
  154.8281  135.3372  154.6833 H   0  0  0  0  0  0  0  0  0  0  0  0  # atno 10764 bound_to 10752
  153.7262  135.7014  153.5056 H   0  0  0  0  0  0  0  0  0  0  0  0  # atno 10765 bound_to 10752
  140.2257  134.8162  157.3266 H   0  0  0  0  0  0  0  0  0  0  0  0  # atno 11005 bound_to 11000
  145.1867  139.2322  143.5264 LP  0  0  0  0  0  0  0  0  0  0  0  0  # atno 17320 bound_to 7965
  146.3488  140.1654  142.8590 LP  0  0  0  0  0  0  0  0  0  0  0  0  # atno 17321 bound_to 7965
  140.7807  143.4695  151.0166 LP  0  0  0  0  0  0  0  0  0  0  0  0  # atno 17342 bound_to 10162
  139.8381  143.7601  152.3180 LP  0  0  0  0  0  0  0  0  0  0  0  0  # atno 17343 bound_to 10162
  156.9177  130.9672  151.3553 LP  0  0  0  0  0  0  0  0  0  0  0  0  # atno 17370 bound_to 10713
  157.5977  130.8489  149.8753 LP  0  0  0  0  0  0  0  0  0  0  0  0  # atno 17371 bound_to 10713
  140.1803  134.4498  155.7776 LP  0  0  0  0  0  0  0  0  0  0  0  0  # atno 17394 bound_to 11000
  141.2221  133.6980  156.7857 LP  0  0  0  0  0  0  0  0  0  0  0  0  # atno 17395 bound_to 11000

$$$$
