AV-unprocessed.smi:2872|AV-procd|sdf|11034|dock8
  -GOLD-   2272015503D 1   1.00000     0.00000
 Structure written by MMmdl.
 39 41  0  0  0  0  0  0  0  0  1 V2000
  151.4633  137.1220  159.3906 O   0  0  0  0  0  0  0  0  0  0  0  0
  150.7037  137.6071  158.5538 C   0  0  0  0  0  0  0  0  0  0  0  0
  151.0373  138.5882  157.7030 N   0  0  0  0  0  0  0  0  0  0  0  0
  152.3431  139.2368  157.6405 C   0  0  0  0  0  0  0  0  0  0  0  0
  152.3903  140.3486  158.6482 C   0  0  0  0  0  0  0  0  0  0  0  0
  152.9892  140.2049  159.8310 N   0  0  0  0  0  0  0  0  0  0  0  0
  152.8044  141.4411  160.4187 C   0  0  0  0  0  0  0  0  0  0  0  0
  153.2098  141.9280  161.6818 C   0  0  0  0  0  0  0  0  0  0  0  0
  152.9075  143.2506  162.0675 C   0  0  0  0  0  0  0  0  0  0  0  0
  152.1974  144.1035  161.1978 C   0  0  0  0  0  0  0  0  0  0  0  0
  151.7827  143.6376  159.9353 C   0  0  0  0  0  0  0  0  0  0  0  0
  152.0859  142.3163  159.5558 C   0  0  0  0  0  0  0  0  0  0  0  0
  151.8326  141.5634  158.4141 N   0  0  0  0  0  0  0  0  0  0  0  0
  151.1257  142.0177  157.2273 C   0  0  0  0  0  0  0  0  0  0  0  0
  149.7541  141.3450  157.0998 C   0  0  0  0  0  0  0  0  0  0  0  0
  149.3371  141.4173  155.7439 O   0  0  0  0  0  0  0  0  0  0  0  0
  148.0659  141.8790  155.4775 C   0  0  0  0  0  0  0  0  0  0  0  0
  147.7177  142.0502  154.1214 C   0  0  0  0  0  0  0  0  0  0  0  0
  146.4407  142.5196  153.7581 C   0  0  0  0  0  0  0  0  0  0  0  0
  145.4937  142.8237  154.7532 C   0  0  0  0  0  0  0  0  0  0  0  0
  145.8263  142.6558  156.1101 C   0  0  0  0  0  0  0  0  0  0  0  0
  147.1038  142.1864  156.4734 C   0  0  0  0  0  0  0  0  0  0  0  0
  149.6592  137.2942  158.4013 H   0  0  0  0  0  0  0  0  0  0  0  0
  150.3341  138.9144  157.0562 H   0  0  0  0  0  0  0  0  0  0  0  0
  153.1464  138.5240  157.8354 H   0  0  0  0  0  0  0  0  0  0  0  0
  152.5097  139.6302  156.6379 H   0  0  0  0  0  0  0  0  0  0  0  0
  153.7551  141.2829  162.3547 H   0  0  0  0  0  0  0  0  0  0  0  0
  153.2230  143.6130  163.0349 H   0  0  0  0  0  0  0  0  0  0  0  0
  151.9711  145.1155  161.5003 H   0  0  0  0  0  0  0  0  0  0  0  0
  151.2396  144.2882  159.2664 H   0  0  0  0  0  0  0  0  0  0  0  0
  151.0207  143.1021  157.2578 H   0  0  0  0  0  0  0  0  0  0  0  0
  151.7360  141.7942  156.3517 H   0  0  0  0  0  0  0  0  0  0  0  0
  149.8244  140.3037  157.4183 H   0  0  0  0  0  0  0  0  0  0  0  0
  149.0326  141.8508  157.7433 H   0  0  0  0  0  0  0  0  0  0  0  0
  148.4387  141.8196  153.3508 H   0  0  0  0  0  0  0  0  0  0  0  0
  146.1881  142.6463  152.7157 H   0  0  0  0  0  0  0  0  0  0  0  0
  144.5140  143.1845  154.4763 H   0  0  0  0  0  0  0  0  0  0  0  0
  145.0998  142.8873  156.8750 H   0  0  0  0  0  0  0  0  0  0  0  0
  147.3205  142.0704  157.5243 H   0  0  0  0  0  0  0  0  0  0  0  0
  1  2  2  0  0  0  0
  2  3  1  0  0  0  0
  2 23  1  0  0  0  0
  3  4  1  0  0  0  0
  3 24  1  0  0  0  0
  4  5  1  0  0  0  0
  4 25  1  0  0  0  0
  4 26  1  0  0  0  0
  5 13  1  0  0  0  0
  5  6  2  0  0  0  0
  6  7  1  0  0  0  0
  7 12  2  0  0  0  0
  7  8  1  0  0  0  0
  8  9  2  0  0  0  0
  8 27  1  0  0  0  0
  9 10  1  0  0  0  0
  9 28  1  0  0  0  0
 10 11  2  0  0  0  0
 10 29  1  0  0  0  0
 11 12  1  0  0  0  0
 11 30  1  0  0  0  0
 12 13  1  0  0  0  0
 13 14  1  0  0  0  0
 14 15  1  0  0  0  0
 14 31  1  0  0  0  0
 14 32  1  0  0  0  0
 15 16  1  0  0  0  0
 15 33  1  0  0  0  0
 15 34  1  0  0  0  0
 16 17  1  0  0  0  0
 17 22  1  0  0  0  0
 17 18  2  0  0  0  0
 18 19  1  0  0  0  0
 18 35  1  0  0  0  0
 19 20  2  0  0  0  0
 19 36  1  0  0  0  0
 20 21  1  0  0  0  0
 20 37  1  0  0  0  0
 21 22  2  0  0  0  0
 21 38  1  0  0  0  0
 22 39  1  0  0  0  0
M  END
> <s_m_source_file>
AV-unprocessed.smi

> <i_m_source_file_index>
2872

> <i_lp_mmshare_version>
43012

> <i_f3d_flags>
0

> <s_epik_input>
Tz1bQ0hdW05IXVtDSDJdYyhuMSluKGMoYzEyKVtjSF1bY0hdW2NIXVtjSF0yKVtDSDJdW0NIMl1PYzNbY0hdW2NIXVtjSF1bY0hdW2NIXTM=

> <s_epik_cmdline>
J2VwaWtfcHl0aG9uJywgJy1waCcsICc3LjAnLCAnLXRuJywgJzgnLCAnLW1hJywgJzIwMCcsICctbWV0YWxfYmluZGluZycsICctaW1hZScsICc8aW5maWxlLm1hZT4nLCAnLW9tYWUnLCAnPG91dGZpbGUubWFlPic=

> <r_lp_tautomer_probability>
1

> <r_epik_Ionization_Penalty>
0.0659793

> <r_epik_Ionization_Penalty_Charging>
0

> <r_epik_Ionization_Penalty_Neutral>
0.0659793

> <r_epik_State_Penalty>
0.0575748

> <r_epik_Charging_Adjusted_Penalty>
0.0575748

> <i_epik_Tot_Q>
0

> <i_epik_Tot_abs_Q>
0

> <r_epik_Metal_State_Penalty>
0.0517641

> <b_epik_Metal_Only>
0

> <s_lp_Force_Field>
OPLS_2005

> <r_lp_Energy>
12.8976

> <b_lp_Chiralities_Consistent>
1

> <s_lp_Variant>
AV-unprocessed.smi:2872-1

> <Gold.Version>
5.8.1

> <Gold.Id.Protein>
6NUR|6NUR_protein|mol2

> <Gold.PLP.Fitness>
46.9962

> <Gold.PLP.PLP>
-46.0329

> <Gold.PLP.part.hbond>
-1.0000

> <Gold.PLP.part.metal>
0.0000

> <Gold.PLP.part.buried>
-5.8259

> <Gold.PLP.part.nonpolar>
-38.4156

> <Gold.PLP.part.repulsive>
0.1228

> <Gold.PLP.ligand.clash>
0.0000

> <Gold.PLP.ligand.torsion>
1.0414

> <Gold.PLP.Chemscore.Hbond>
1.0000

> <Gold.PLP.Chemscore.CHOScore>
0.0000

> <Gold.PLP.Chemscore.Metal>
0.0000

> <Gold.Chemscore.Hbonds>
donor molecule, donor type, donor heavy atom, donor atom, acceptor molecule, acceptor atom, score
      P1  H  6896  6908       L1     1  0.98

> <Gold.PLP.Chemscore.Internal.Correction>
0.0460

> <Gold.Rescore>
     Score         DG    S(hbond)    S(metal)    S(lipo)     H(rot)  DE(clash)    DE(int)     intcor
     14.78     -15.93       0.98        0.00     114.24       2.42       0.10       1.05       ----

> <Gold.Chemscore.Fitness>
14.7762

> <Gold.Chemscore.DG>
-15.9316

> <Gold.Chemscore.ZeroCoef>
-5.4800

> <Gold.Chemscore.Hbond>
0.9825

> <Gold.Chemscore.Metal>
0.0000

> <Gold.Chemscore.Lipo>
114.2430

> <Gold.Chemscore.Internal_Hbond>
0.0000

> <Gold.Chemscore.DEClash>
0.1008

> <Gold.Chemscore.DEInternal>
1.0546

> <Gold.Chemscore.Rot>
2.4205

> <Gold.Chemscore.Internal.Correction>
   9.000000E+99

> <Gold.Chemscore.Hbonds>
donor molecule, donor type, donor heavy atom, donor atom, acceptor molecule, acceptor atom, score
      P1  H  6896  6908       L1     1  0.92

> <Gold.Chemscore.Hbond.Weighted>
-3.2817

> <Gold.Chemscore.Metal.Weighted>
-0.0000

> <Gold.Chemscore.Lipo.Weighted>
-13.3664

> <Gold.Chemscore.Internal_Hbond.Weighted>
0.0000

> <Gold.Chemscore.DEClash.Weighted>
0.1008

> <Gold.Chemscore.DEInternal.Weighted>
1.0546

> <Gold.Chemscore.Rot.Weighted>
6.1965

> <Gold.Chemscore.Internal.Correction.Weighted>
   9.000000E+99

> <Gold.Protein.RotatedTorsions>
[ 6907 6896 6895 6894 ] final -120.99 input  -60.11 | X-H torsion
[ 7974 7965 7964 7962 ] final  -78.41 input  175.53 | X-H torsion
[ 8008 7997 7996 7995 ] final   82.88 input   59.86 | X-H torsion
[ 10167 10162 10161 10158 ] final   55.63 input  -65.29 | X-H torsion
[ 10718 10713 10712 10709 ] final -120.59 input   66.30 | X-H torsion
[ 10763 10752 10751 10750 ] final  -68.55 input  -60.55 | X-H torsion
[ 11005 11000 10999 10996 ] final  -39.65 input  -57.11 | X-H torsion

> <Gold.Protein.ActiveResidues>
 VAL166  LYS551  ARG553  GLY616  TRP617  ASP618  TYR619  PRO620  LYS621  CYS622 
 ASP623  PHE694  ASN695  SER759  ASP760  ASP761  ALA762  ILE779  LEU786  VAL792 
 PHE793  MET794  SER795  GLU796  ALA797  LYS798  CYS799  TRP800  GLU811  SER814 

> <Gold.Protein.RotatedAtoms>
  150.8443  133.7886  159.3048 H   0  0  0  0  0  0  0  0  0  0  0  0  # atno 6907 bound_to 6896
  151.5578  135.1064  159.9975 H   0  0  0  0  0  0  0  0  0  0  0  0  # atno 6908 bound_to 6896
  152.4500  133.7568  159.6781 H   0  0  0  0  0  0  0  0  0  0  0  0  # atno 6909 bound_to 6896
  145.5868  140.9437  143.1314 H   0  0  0  0  0  0  0  0  0  0  0  0  # atno 7974 bound_to 7965
  155.9165  140.3424  155.6139 H   0  0  0  0  0  0  0  0  0  0  0  0  # atno 8008 bound_to 7997
  155.7325  140.0797  157.2301 H   0  0  0  0  0  0  0  0  0  0  0  0  # atno 8009 bound_to 7997
  154.4063  140.1585  156.2511 H   0  0  0  0  0  0  0  0  0  0  0  0  # atno 8010 bound_to 7997
  140.2174  144.3825  150.6464 H   0  0  0  0  0  0  0  0  0  0  0  0  # atno 10167 bound_to 10162
  156.1270  130.6366  150.9558 H   0  0  0  0  0  0  0  0  0  0  0  0  # atno 10718 bound_to 10713
  154.3906  135.6053  153.5841 H   0  0  0  0  0  0  0  0  0  0  0  0  # atno 10763 bound_to 10752
  152.9787  135.5883  154.4302 H   0  0  0  0  0  0  0  0  0  0  0  0  # atno 10764 bound_to 10752
  154.4086  135.2844  155.2029 H   0  0  0  0  0  0  0  0  0  0  0  0  # atno 10765 bound_to 10752
  141.0118  133.6904  156.2216 H   0  0  0  0  0  0  0  0  0  0  0  0  # atno 11005 bound_to 11000
  144.7369  139.7560  143.7326 LP  0  0  0  0  0  0  0  0  0  0  0  0  # atno 17320 bound_to 7965
  146.1676  139.4814  142.9948 LP  0  0  0  0  0  0  0  0  0  0  0  0  # atno 17321 bound_to 7965
  140.6280  143.2183  151.6556 LP  0  0  0  0  0  0  0  0  0  0  0  0  # atno 17342 bound_to 10162
  139.5157  144.3370  152.0775 LP  0  0  0  0  0  0  0  0  0  0  0  0  # atno 17343 bound_to 10162
  157.6451  131.0905  150.8171 LP  0  0  0  0  0  0  0  0  0  0  0  0  # atno 17370 bound_to 10713
  156.8260  130.5000  149.5337 LP  0  0  0  0  0  0  0  0  0  0  0  0  # atno 17371 bound_to 10713
  140.6721  134.4856  157.5587 LP  0  0  0  0  0  0  0  0  0  0  0  0  # atno 17394 bound_to 11000
  139.9094  134.8378  156.1584 LP  0  0  0  0  0  0  0  0  0  0  0  0  # atno 17395 bound_to 11000

$$$$
