AV-unprocessed.smi:99|AV-procd|sdf|892|dock8
  -GOLD-   2262017383D 1   1.00000     0.00000
 Structure written by MMmdl.
 52 55  0  0  0  0  0  0  0  0  2 V2000
  143.4734  135.4774  153.1633 O   0  0  0  0  0  0  0  0  0  0  0  0
  144.6185  135.2277  152.7811 C   0  0  0  0  0  0  0  0  0  0  0  0
  145.7209  135.7890  153.3123 O   0  0  0  0  0  0  0  0  0  0  0  0
  145.6015  136.7595  154.3414 C   0  0  0  0  0  0  0  0  0  0  0  0
  146.9417  136.9289  155.0700 C   0  0  1  0  0  0  0  0  0  0  0  0
  147.9036  137.4584  154.1673 O   0  0  0  0  0  0  0  0  0  0  0  0
  148.3859  138.6929  154.5978 C   0  0  2  0  0  0  0  0  0  0  0  0
  149.9002  138.6266  154.6217 N   0  0  0  0  0  0  0  0  0  0  0  0
  150.5160  137.4047  154.4148 C   0  0  0  0  0  0  0  0  0  0  0  0
  151.8581  137.2742  154.4532 C   0  0  0  0  0  0  0  0  0  0  0  0
  152.6839  138.4456  154.7290 C   0  0  0  0  0  0  0  0  0  0  0  0
  153.9070  138.3221  154.7461 O   0  0  0  0  0  0  0  0  0  0  0  0
  152.0549  139.6336  154.9590 N   0  5  0  0  0  0  0  0  0  0  0  0
  150.6966  139.7670  154.9302 C   0  0  0  0  0  0  0  0  0  0  0  0
  150.1298  140.8329  155.1628 O   0  0  0  0  0  0  0  0  0  0  0  0
  147.7811  139.0297  155.9741 C   0  0  1  0  0  0  0  0  0  0  0  0
  147.0084  140.2120  155.9369 O   0  0  0  0  0  0  0  0  0  0  0  0
  146.8695  137.8474  156.2973 C   0  0  2  0  0  0  0  0  0  0  0  0
  147.3294  137.1498  157.4486 O   0  0  0  0  0  0  0  0  0  0  0  0
  147.1251  137.6416  158.6880 C   0  0  0  0  0  0  0  0  0  0  0  0
  146.8293  138.8162  158.9178 O   0  0  0  0  0  0  0  0  0  0  0  0
  147.2981  136.6120  159.7523 C   0  0  0  0  0  0  0  0  0  0  0  0
  147.5590  135.2712  159.3851 C   0  0  0  0  0  0  0  0  0  0  0  0
  147.7248  134.2774  160.3695 C   0  0  0  0  0  0  0  0  0  0  0  0
  147.6290  134.6122  161.7328 C   0  0  0  0  0  0  0  0  0  0  0  0
  147.3670  135.9420  162.1107 C   0  0  0  0  0  0  0  0  0  0  0  0
  147.2024  136.9374  161.1280 C   0  0  0  0  0  0  0  0  0  0  0  0
  144.9282  134.2743  151.6770 C   0  0  0  0  0  0  0  0  0  0  0  0
  146.2780  134.0166  151.3417 C   0  0  0  0  0  0  0  0  0  0  0  0
  146.6009  133.1191  150.3053 C   0  0  0  0  0  0  0  0  0  0  0  0
  145.5780  132.4706  149.5898 C   0  0  0  0  0  0  0  0  0  0  0  0
  144.2313  132.7198  149.9126 C   0  0  0  0  0  0  0  0  0  0  0  0
  143.9064  133.6157  150.9497 C   0  0  0  0  0  0  0  0  0  0  0  0
  145.2993  137.7150  153.9098 H   0  0  0  0  0  0  0  0  0  0  0  0
  144.8241  136.4586  155.0448 H   0  0  0  0  0  0  0  0  0  0  0  0
  147.2929  135.9384  155.3627 H   0  0  0  0  0  0  0  0  0  0  0  0
  148.1363  139.4405  153.8435 H   0  0  0  0  0  0  0  0  0  0  0  0
  149.9168  136.5292  154.2131 H   0  0  0  0  0  0  0  0  0  0  0  0
  152.3187  136.3118  154.2853 H   0  0  0  0  0  0  0  0  0  0  0  0
  148.5674  139.1631  156.7183 H   0  0  0  0  0  0  0  0  0  0  0  0
  147.5967  140.9490  155.8716 H   0  0  0  0  0  0  0  0  0  0  0  0
  145.8387  138.1706  156.4552 H   0  0  0  0  0  0  0  0  0  0  0  0
  147.6357  134.9906  158.3445 H   0  0  0  0  0  0  0  0  0  0  0  0
  147.9248  133.2570  160.0774 H   0  0  0  0  0  0  0  0  0  0  0  0
  147.7547  133.8497  162.4875 H   0  0  0  0  0  0  0  0  0  0  0  0
  147.2898  136.2008  163.1565 H   0  0  0  0  0  0  0  0  0  0  0  0
  146.9978  137.9476  161.4525 H   0  0  0  0  0  0  0  0  0  0  0  0
  147.0807  134.5031  151.8768 H   0  0  0  0  0  0  0  0  0  0  0  0
  147.6352  132.9284  150.0598 H   0  0  0  0  0  0  0  0  0  0  0  0
  145.8263  131.7829  148.7947 H   0  0  0  0  0  0  0  0  0  0  0  0
  143.4447  132.2226  149.3645 H   0  0  0  0  0  0  0  0  0  0  0  0
  142.8628  133.7856  151.1708 H   0  0  0  0  0  0  0  0  0  0  0  0
  1  2  2  0  0  0  0
  2  3  1  0  0  0  0
  2 28  1  0  0  0  0
  3  4  1  0  0  0  0
  4  5  1  0  0  0  0
  4 34  1  0  0  0  0
  4 35  1  0  0  0  0
  5 18  1  0  0  0  0
  5  6  1  0  0  0  0
  5 36  1  0  0  0  0
  6  7  1  0  0  0  0
  7  8  1  0  0  0  0
  7 16  1  0  0  0  0
  7 37  1  0  0  0  0
  8 14  1  0  0  0  0
  8  9  1  0  0  0  0
  9 10  2  0  0  0  0
  9 38  1  0  0  0  0
 10 11  1  0  0  0  0
 10 39  1  0  0  0  0
 11 12  2  0  0  0  0
 11 13  1  0  0  0  0
 13 14  1  0  0  0  0
 14 15  2  0  0  0  0
 16 17  1  0  0  0  0
 16 18  1  0  0  0  0
 16 40  1  0  0  0  0
 17 41  1  0  0  0  0
 18 19  1  0  0  0  0
 18 42  1  0  0  0  0
 19 20  1  0  0  0  0
 20 21  2  0  0  0  0
 20 22  1  0  0  0  0
 22 27  1  0  0  0  0
 22 23  2  0  0  0  0
 23 24  1  0  0  0  0
 23 43  1  0  0  0  0
 24 25  2  0  0  0  0
 24 44  1  0  0  0  0
 25 26  1  0  0  0  0
 25 45  1  0  0  0  0
 26 27  2  0  0  0  0
 26 46  1  0  0  0  0
 27 47  1  0  0  0  0
 28 33  1  0  0  0  0
 28 29  2  0  0  0  0
 29 30  1  0  0  0  0
 29 48  1  0  0  0  0
 30 31  2  0  0  0  0
 30 49  1  0  0  0  0
 31 32  1  0  0  0  0
 31 50  1  0  0  0  0
 32 33  2  0  0  0  0
 32 51  1  0  0  0  0
 33 52  1  0  0  0  0
M  CHG  1  13  -1
M  END
> <s_m_source_file>
AV-unprocessed.smi

> <i_m_source_file_index>
99

> <i_lp_mmshare_version>
43012

> <i_f3d_flags>
0

> <s_epik_input>
W2NIXTFbY0hdW2NIXVtjSF1bY0hdYzFDKD1PKU9bQ0gyXVtDQEBIXTJPW0NAQEhdKG4zW2NIXVtjSF1jKD1PKVtuSF1jMz1PKVtDQEBIXShbT0hdKVtDQEhdMk9DKD1PKWM0W2NIXVtjSF1bY0hdW2NIXVtjSF00

> <s_epik_cmdline>
J2VwaWtfcHl0aG9uJywgJy1waCcsICc3LjAnLCAnLXRuJywgJzgnLCAnLW1hJywgJzIwMCcsICctbWV0YWxfYmluZGluZycsICctaW1hZScsICc8aW5maWxlLm1hZT4nLCAnLW9tYWUnLCAnPG91dGZpbGUubWFlPic=

> <r_lp_tautomer_probability>
1

> <r_epik_Ionization_Penalty>
2.89159

> <r_epik_Ionization_Penalty_Charging>
2.1077e-08

> <r_epik_Ionization_Penalty_Neutral>
2.89159

> <r_epik_State_Penalty>
2.88671

> <r_epik_Charging_Adjusted_Penalty>
2.88671

> <i_epik_Tot_Q>
-1

> <i_epik_Tot_abs_Q>
1

> <r_epik_Metal_State_Penalty>
0.0727308

> <b_epik_Metal_Only>
1

> <s_epik_Chemistry_Notes>
This compound has an ester and may undergo hydrolysis at high or low pH. This compound contains an acetal/aminal-like group ( X-CH(R)-Y where X, Y are N, S, or O) that may be acid/base labile, releasing an aldehyde.

> <s_lp_Force_Field>
OPLS_2005

> <r_lp_Energy>
36.8261

> <b_lp_Chiralities_Consistent>
1

> <s_lp_Variant>
AV-unprocessed.smi:99-28

> <Gold.Version>
5.8.1

> <Gold.Id.Protein>
6NUR|6NUR_protein|mol2

> <Gold.PLP.Fitness>
54.5694

> <Gold.PLP.PLP>
-46.4097

> <Gold.PLP.part.hbond>
-3.0000

> <Gold.PLP.part.metal>
0.0000

> <Gold.PLP.part.buried>
-7.3695

> <Gold.PLP.part.nonpolar>
-37.4675

> <Gold.PLP.part.repulsive>
0.6366

> <Gold.PLP.ligand.clash>
0.0000

> <Gold.PLP.ligand.torsion>
0.5175

> <Gold.PLP.Chemscore.Hbond>
2.2773

> <Gold.PLP.Chemscore.CHOScore>
0.7208

> <Gold.PLP.Chemscore.Metal>
0.0000

> <Gold.Chemscore.Hbonds>
donor molecule, donor type, donor heavy atom, donor atom, acceptor molecule, acceptor atom, score
      P1  H  6934  6947       L1    21  0.16
      P1  H  7997  8010       L1    12  0.35
      L1  C     9    38       P1  7948  0.76

> <Gold.PLP.Chemscore.Internal.Correction>
0.2006

> <Gold.Rescore>
     Score         DG    S(hbond)    S(metal)    S(lipo)     H(rot)  DE(clash)    DE(int)     intcor
     13.40     -14.16       1.55        0.00      98.39       3.13       0.27       0.49       ----

> <Gold.Chemscore.Fitness>
13.3956

> <Gold.Chemscore.DG>
-14.1598

> <Gold.Chemscore.ZeroCoef>
-5.4800

> <Gold.Chemscore.Hbond>
1.5549

> <Gold.Chemscore.Metal>
0.0000

> <Gold.Chemscore.Lipo>
98.3853

> <Gold.Chemscore.Internal_Hbond>
0.0000

> <Gold.Chemscore.DEClash>
0.2710

> <Gold.Chemscore.DEInternal>
0.4932

> <Gold.Chemscore.Rot>
3.1346

> <Gold.Chemscore.Internal.Correction>
   9.000000E+99

> <Gold.Chemscore.Hbonds>
donor molecule, donor type, donor heavy atom, donor atom, acceptor molecule, acceptor atom, score
      P1  H  6934  6947       L1    21  0.09
      P1  H  7997  8010       L1    12  0.10

> <Gold.Chemscore.Hbond.Weighted>
-5.1933

> <Gold.Chemscore.Metal.Weighted>
-0.0000

> <Gold.Chemscore.Lipo.Weighted>
-11.5111

> <Gold.Chemscore.Internal_Hbond.Weighted>
0.0000

> <Gold.Chemscore.DEClash.Weighted>
0.2710

> <Gold.Chemscore.DEInternal.Weighted>
0.4932

> <Gold.Chemscore.Rot.Weighted>
8.0246

> <Gold.Chemscore.Internal.Correction.Weighted>
   9.000000E+99

> <Gold.Protein.RotatedTorsions>
[ 6907 6896 6895 6894 ] final  -85.35 input  -60.11 | X-H torsion
[ 7974 7965 7964 7962 ] final -161.56 input  175.53 | X-H torsion
[ 8008 7997 7996 7995 ] final  104.67 input   59.86 | X-H torsion
[ 10167 10162 10161 10158 ] final -114.44 input  -65.29 | X-H torsion
[ 10718 10713 10712 10709 ] final -129.36 input   66.30 | X-H torsion
[ 10763 10752 10751 10750 ] final  -59.15 input  -60.55 | X-H torsion
[ 11005 11000 10999 10996 ] final  151.93 input  -57.11 | X-H torsion

> <Gold.Protein.ActiveResidues>
 VAL166  LYS551  ARG553  GLY616  TRP617  ASP618  TYR619  PRO620  LYS621  CYS622 
 ASP623  PHE694  ASN695  SER759  ASP760  ASP761  ALA762  ILE779  LEU786  VAL792 
 PHE793  MET794  SER795  GLU796  ALA797  LYS798  CYS799  TRP800  GLU811  SER814 

> <Gold.Protein.RotatedAtoms>
  150.6871  134.3217  159.4789 H   0  0  0  0  0  0  0  0  0  0  0  0  # atno 6907 bound_to 6896
  152.1092  134.9284  160.0576 H   0  0  0  0  0  0  0  0  0  0  0  0  # atno 6908 bound_to 6896
  152.0533  133.3994  159.4423 H   0  0  0  0  0  0  0  0  0  0  0  0  # atno 6909 bound_to 6896
  144.7387  140.3380  143.6140 H   0  0  0  0  0  0  0  0  0  0  0  0  # atno 7974 bound_to 7965
  156.1593  140.3144  155.8779 H   0  0  0  0  0  0  0  0  0  0  0  0  # atno 8008 bound_to 7997
  155.3815  140.0488  157.3060 H   0  0  0  0  0  0  0  0  0  0  0  0  # atno 8009 bound_to 7997
  154.5131  140.2171  155.9129 H   0  0  0  0  0  0  0  0  0  0  0  0  # atno 8010 bound_to 7997
  140.1009  143.4613  152.1812 H   0  0  0  0  0  0  0  0  0  0  0  0  # atno 10167 bound_to 10162
  156.2039  130.6875  151.0571 H   0  0  0  0  0  0  0  0  0  0  0  0  # atno 10718 bound_to 10713
  154.2493  135.6329  153.5234 H   0  0  0  0  0  0  0  0  0  0  0  0  # atno 10763 bound_to 10752
  152.9915  135.5561  154.5825 H   0  0  0  0  0  0  0  0  0  0  0  0  # atno 10764 bound_to 10752
  154.5349  135.2891  155.1122 H   0  0  0  0  0  0  0  0  0  0  0  0  # atno 10765 bound_to 10752
  140.1263  134.8831  157.2141 H   0  0  0  0  0  0  0  0  0  0  0  0  # atno 11005 bound_to 11000
  145.7404  139.1762  143.2379 LP  0  0  0  0  0  0  0  0  0  0  0  0  # atno 17320 bound_to 7965
  146.1138  140.7395  142.9490 LP  0  0  0  0  0  0  0  0  0  0  0  0  # atno 17321 bound_to 7965
  139.5672  144.7442  151.3991 LP  0  0  0  0  0  0  0  0  0  0  0  0  # atno 17342 bound_to 10162
  140.6978  143.7706  150.7354 LP  0  0  0  0  0  0  0  0  0  0  0  0  # atno 17343 bound_to 10162
  157.7001  131.0779  150.6847 LP  0  0  0  0  0  0  0  0  0  0  0  0  # atno 17370 bound_to 10713
  156.6905  130.4593  149.5601 LP  0  0  0  0  0  0  0  0  0  0  0  0  # atno 17371 bound_to 10713
  140.2900  134.3251  155.7318 LP  0  0  0  0  0  0  0  0  0  0  0  0  # atno 17394 bound_to 11000
  141.2162  133.7529  156.9489 LP  0  0  0  0  0  0  0  0  0  0  0  0  # atno 17395 bound_to 11000

$$$$
