AV-unprocessed.smi:2124|AV-procd|sdf|8668|dock2
  -GOLD-   2272011413D 1   1.00000     0.00000
 Structure written by MMmdl.
 46 48  0  0  0  0  0  0  0  0  2 V2000
  145.5615  144.1938  153.3977 C   0  0  0  0  0  0  0  0  0  0  0  0
  146.4005  143.0336  153.8896 C   0  0  0  0  0  0  0  0  0  0  0  0
  145.8882  142.1957  154.7082 N   0  0  0  0  0  0  0  0  0  0  0  0
  146.6618  141.1164  155.1676 C   0  0  0  0  0  0  0  0  0  0  0  0
  145.9733  140.1718  156.1371 C   0  0  0  0  0  0  0  0  0  0  0  0
  147.9506  140.9458  154.7554 C   0  0  0  0  0  0  0  0  0  0  0  0
  148.8342  139.7903  155.2268 C   0  0  0  0  0  0  0  0  0  0  0  0
  150.1808  140.1730  155.8465 C   0  0  0  0  0  0  0  0  0  0  0  0
  151.2329  139.9871  155.2341 O   0  0  0  0  0  0  0  0  0  0  0  0
  150.1292  140.7057  157.0770 N   0  0  0  0  0  0  0  0  0  0  0  0
  151.2830  141.1407  157.8615 C   0  0  2  0  0  0  0  0  0  0  0  0
  151.2757  140.4086  159.2161 C   0  0  0  0  0  0  0  0  0  0  0  0
  151.2615  142.6801  158.0279 C   0  0  1  0  0  0  0  0  0  0  0  0
  150.0020  143.2041  158.7608 C   0  0  0  0  0  0  0  0  0  0  0  0
  150.5830  144.0452  159.9109 C   0  0  2  0  0  0  0  0  0  0  0  0
  151.2341  145.3177  159.3402 C   0  0  0  0  0  0  0  0  0  0  0  0
  152.5079  144.7718  158.6688 C   0  0  0  0  0  0  0  0  0  0  0  0
  152.3986  143.2542  158.9133 C   0  0  1  0  0  0  0  0  0  0  0  0
  151.7960  143.2177  160.3136 C   0  0  0  0  0  0  0  0  0  0  0  0
  148.5014  141.9298  153.8065 C   0  0  0  0  0  0  0  0  0  0  0  0
  149.6533  141.8129  153.3901 O   0  0  0  0  0  0  0  0  0  0  0  0
  147.6906  142.9541  153.4152 N   0  5  0  0  0  0  0  0  0  0  0  0
  144.5120  144.0591  153.6630 H   0  0  0  0  0  0  0  0  0  0  0  0
  145.6288  144.2801  152.3127 H   0  0  0  0  0  0  0  0  0  0  0  0
  145.9112  145.1259  153.8421 H   0  0  0  0  0  0  0  0  0  0  0  0
  146.4491  140.2182  157.1168 H   0  0  0  0  0  0  0  0  0  0  0  0
  146.0217  139.1449  155.7745 H   0  0  0  0  0  0  0  0  0  0  0  0
  144.9214  140.4321  156.2614 H   0  0  0  0  0  0  0  0  0  0  0  0
  148.2933  139.1599  155.9332 H   0  0  0  0  0  0  0  0  0  0  0  0
  149.0337  139.1411  154.3740 H   0  0  0  0  0  0  0  0  0  0  0  0
  149.2205  140.8247  157.5008 H   0  0  0  0  0  0  0  0  0  0  0  0
  152.1945  140.8660  157.3276 H   0  0  0  0  0  0  0  0  0  0  0  0
  152.1411  140.6742  159.8224 H   0  0  0  0  0  0  0  0  0  0  0  0
  151.2995  139.3268  159.0797 H   0  0  0  0  0  0  0  0  0  0  0  0
  150.3815  140.6499  159.7917 H   0  0  0  0  0  0  0  0  0  0  0  0
  151.3208  143.1260  157.0336 H   0  0  0  0  0  0  0  0  0  0  0  0
  149.3539  143.7872  158.1054 H   0  0  0  0  0  0  0  0  0  0  0  0
  149.4065  142.3872  159.1703 H   0  0  0  0  0  0  0  0  0  0  0  0
  149.8709  144.2394  160.7136 H   0  0  0  0  0  0  0  0  0  0  0  0
  150.5806  145.8353  158.6371 H   0  0  0  0  0  0  0  0  0  0  0  0
  151.4900  146.0163  160.1377 H   0  0  0  0  0  0  0  0  0  0  0  0
  152.5624  145.0231  157.6091 H   0  0  0  0  0  0  0  0  0  0  0  0
  153.3972  145.1777  159.1525 H   0  0  0  0  0  0  0  0  0  0  0  0
  153.3563  142.7423  158.8170 H   0  0  0  0  0  0  0  0  0  0  0  0
  152.4205  143.7026  161.0661 H   0  0  0  0  0  0  0  0  0  0  0  0
  151.5435  142.2126  160.6548 H   0  0  0  0  0  0  0  0  0  0  0  0
  1  2  1  0  0  0  0
  1 23  1  0  0  0  0
  1 24  1  0  0  0  0
  1 25  1  0  0  0  0
  2 22  1  0  0  0  0
  2  3  2  0  0  0  0
  3  4  1  0  0  0  0
  4  5  1  0  0  0  0
  4  6  2  0  0  0  0
  5 26  1  0  0  0  0
  5 27  1  0  0  0  0
  5 28  1  0  0  0  0
  6  7  1  0  0  0  0
  6 20  1  0  0  0  0
  7  8  1  0  0  0  0
  7 29  1  0  0  0  0
  7 30  1  0  0  0  0
  8  9  2  0  0  0  0
  8 10  1  0  0  0  0
 10 11  1  0  0  0  0
 10 31  1  0  0  0  0
 11 12  1  0  0  0  0
 11 13  1  0  0  0  0
 11 32  1  0  0  0  0
 12 33  1  0  0  0  0
 12 34  1  0  0  0  0
 12 35  1  0  0  0  0
 13 18  1  0  0  0  0
 13 14  1  0  0  0  0
 13 36  1  0  0  0  0
 14 15  1  0  0  0  0
 14 37  1  0  0  0  0
 14 38  1  0  0  0  0
 15 19  1  0  0  0  0
 15 16  1  0  0  0  0
 15 39  1  0  0  0  0
 16 17  1  0  0  0  0
 16 40  1  0  0  0  0
 16 41  1  0  0  0  0
 17 18  1  0  0  0  0
 17 42  1  0  0  0  0
 17 43  1  0  0  0  0
 18 19  1  0  0  0  0
 18 44  1  0  0  0  0
 19 45  1  0  0  0  0
 19 46  1  0  0  0  0
 20 21  2  0  0  0  0
 20 22  1  0  0  0  0
M  CHG  1  22  -1
M  END
> <s_m_source_file>
AV-unprocessed.smi

> <i_m_source_file_index>
2124

> <i_lp_mmshare_version>
43012

> <i_f3d_flags>
0

> <s_epik_input>
W0NIM11jMW5jKFtDSDNdKWMoYyg9TylbbkhdMSlbQ0gyXUMoPU8pW05IXVtDQEhdKFtDSDNdKVtDQEhdKFtDSDJdW0NASF0yMylbQ0BIXShbQ0gyXTMpW0NIMl1bQ0gyXTI=

> <s_epik_cmdline>
J2VwaWtfcHl0aG9uJywgJy1waCcsICc3LjAnLCAnLXRuJywgJzgnLCAnLW1hJywgJzIwMCcsICctbWV0YWxfYmluZGluZycsICctaW1hZScsICc8aW5maWxlLm1hZT4nLCAnLW9tYWUnLCAnPG91dGZpbGUubWFlPic=

> <r_lp_tautomer_probability>
0.839158

> <r_epik_Ionization_Penalty>
6.63797

> <r_epik_Ionization_Penalty_Charging>
7.48558e-08

> <r_epik_Ionization_Penalty_Neutral>
6.63797

> <r_epik_State_Penalty>
4.49496

> <r_epik_Charging_Adjusted_Penalty>
4.49496

> <i_epik_Tot_Q>
-1

> <i_epik_Tot_abs_Q>
1

> <r_epik_Metal_State_Penalty>
0.841241

> <b_epik_Metal_Only>
1

> <s_lp_Force_Field>
OPLS_2005

> <r_lp_Energy>
55.6811

> <b_lp_Chiralities_Consistent>
1

> <s_lp_Variant>
AV-unprocessed.smi:2124-19

> <Gold.Version>
5.8.1

> <Gold.Id.Protein>
6NUR|6NUR_protein|mol2

> <Gold.PLP.Fitness>
45.9493

> <Gold.PLP.PLP>
-41.2963

> <Gold.PLP.part.hbond>
-2.8655

> <Gold.PLP.part.metal>
0.0000

> <Gold.PLP.part.buried>
-6.1902

> <Gold.PLP.part.nonpolar>
-31.9809

> <Gold.PLP.part.repulsive>
1.5700

> <Gold.PLP.ligand.clash>
0.0000

> <Gold.PLP.ligand.torsion>
0.2211

> <Gold.PLP.Chemscore.Hbond>
1.6880

> <Gold.PLP.Chemscore.CHOScore>
0.0000

> <Gold.PLP.Chemscore.Metal>
0.0000

> <Gold.Chemscore.Hbonds>
donor molecule, donor type, donor heavy atom, donor atom, acceptor molecule, acceptor atom, score
      P1  H  7989  7998       L1     9  1.00
      P1  H  8011  8017       L1    21  0.16
      P1  H  8022  8030       L1    22  0.51

> <Gold.PLP.Chemscore.Internal.Correction>
0.0312

> <Gold.Rescore>
     Score         DG    S(hbond)    S(metal)    S(lipo)     H(rot)  DE(clash)    DE(int)     intcor
     18.36     -19.55       1.72        0.00     106.20       1.61       0.26       0.93       ----

> <Gold.Chemscore.Fitness>
18.3630

> <Gold.Chemscore.DG>
-19.5522

> <Gold.Chemscore.ZeroCoef>
-5.4800

> <Gold.Chemscore.Hbond>
1.7234

> <Gold.Chemscore.Metal>
0.0000

> <Gold.Chemscore.Lipo>
106.1960

> <Gold.Chemscore.Internal_Hbond>
0.0000

> <Gold.Chemscore.DEClash>
0.2604

> <Gold.Chemscore.DEInternal>
0.9287

> <Gold.Chemscore.Rot>
1.6051

> <Gold.Chemscore.Internal.Correction>
   9.000000E+99

> <Gold.Chemscore.Hbonds>
donor molecule, donor type, donor heavy atom, donor atom, acceptor molecule, acceptor atom, score
      P1  H  7989  7998       L1     9  0.96
      P1  H  8011  8017       L1    21  0.12
      P1  H  8022  8030       L1    22  0.28

> <Gold.Chemscore.Hbond.Weighted>
-5.7562

> <Gold.Chemscore.Metal.Weighted>
-0.0000

> <Gold.Chemscore.Lipo.Weighted>
-12.4249

> <Gold.Chemscore.Internal_Hbond.Weighted>
0.0000

> <Gold.Chemscore.DEClash.Weighted>
0.2604

> <Gold.Chemscore.DEInternal.Weighted>
0.9287

> <Gold.Chemscore.Rot.Weighted>
4.1090

> <Gold.Chemscore.Internal.Correction.Weighted>
   9.000000E+99

> <Gold.Protein.RotatedTorsions>
[ 6907 6896 6895 6894 ] final  -10.59 input  -60.11 | X-H torsion
[ 7974 7965 7964 7962 ] final  166.95 input  175.53 | X-H torsion
[ 8008 7997 7996 7995 ] final -130.66 input   59.86 | X-H torsion
[ 10167 10162 10161 10158 ] final   30.49 input  -65.29 | X-H torsion
[ 10718 10713 10712 10709 ] final   16.89 input   66.30 | X-H torsion
[ 10763 10752 10751 10750 ] final  -55.20 input  -60.55 | X-H torsion
[ 11005 11000 10999 10996 ] final  159.69 input  -57.11 | X-H torsion

> <Gold.Protein.ActiveResidues>
 VAL166  LYS551  ARG553  GLY616  TRP617  ASP618  TYR619  PRO620  LYS621  CYS622 
 ASP623  PHE694  ASN695  SER759  ASP760  ASP761  ALA762  ILE779  LEU786  VAL792 
 PHE793  MET794  SER795  GLU796  ALA797  LYS798  CYS799  TRP800  GLU811  SER814 

> <Gold.Protein.RotatedAtoms>
  151.3996  135.0969  159.9551 H   0  0  0  0  0  0  0  0  0  0  0  0  # atno 6907 bound_to 6896
  152.5054  133.8901  159.7400 H   0  0  0  0  0  0  0  0  0  0  0  0  # atno 6908 bound_to 6896
  150.9372  133.6642  159.2826 H   0  0  0  0  0  0  0  0  0  0  0  0  # atno 6909 bound_to 6896
  144.7442  139.8690  143.6387 H   0  0  0  0  0  0  0  0  0  0  0  0  # atno 7974 bound_to 7965
  155.2994  140.0452  157.3028 H   0  0  0  0  0  0  0  0  0  0  0  0  # atno 8008 bound_to 7997
  154.5495  140.2313  155.8475 H   0  0  0  0  0  0  0  0  0  0  0  0  # atno 8009 bound_to 7997
  156.1954  140.3039  155.9424 H   0  0  0  0  0  0  0  0  0  0  0  0  # atno 8010 bound_to 7997
  140.4673  144.0816  150.6228 H   0  0  0  0  0  0  0  0  0  0  0  0  # atno 10167 bound_to 10162
  157.0743  130.6361  149.5812 H   0  0  0  0  0  0  0  0  0  0  0  0  # atno 10718 bound_to 10713
  154.1870  135.6434  153.5049 H   0  0  0  0  0  0  0  0  0  0  0  0  # atno 10763 bound_to 10752
  153.0044  135.5419  154.6455 H   0  0  0  0  0  0  0  0  0  0  0  0  # atno 10764 bound_to 10752
  154.5834  135.2927  155.0682 H   0  0  0  0  0  0  0  0  0  0  0  0  # atno 10765 bound_to 10752
  140.1986  134.8354  157.2992 H   0  0  0  0  0  0  0  0  0  0  0  0  # atno 11005 bound_to 11000
  146.1293  139.4326  143.0178 LP  0  0  0  0  0  0  0  0  0  0  0  0  # atno 17320 bound_to 7965
  145.7187  141.0082  143.1414 LP  0  0  0  0  0  0  0  0  0  0  0  0  # atno 17321 bound_to 7965
  140.4020  143.2699  151.9936 LP  0  0  0  0  0  0  0  0  0  0  0  0  # atno 17342 bound_to 10162
  139.4813  144.5989  151.7641 LP  0  0  0  0  0  0  0  0  0  0  0  0  # atno 17343 bound_to 10162
  155.9941  130.5005  150.7409 LP  0  0  0  0  0  0  0  0  0  0  0  0  # atno 17370 bound_to 10713
  157.4853  131.0906  151.0490 LP  0  0  0  0  0  0  0  0  0  0  0  0  # atno 17371 bound_to 10713
  140.2079  134.4174  155.7628 LP  0  0  0  0  0  0  0  0  0  0  0  0  # atno 17394 bound_to 11000
  141.2227  133.7104  156.8291 LP  0  0  0  0  0  0  0  0  0  0  0  0  # atno 17395 bound_to 11000

$$$$
