AV-unprocessed.smi:3048|AV-procd|sdf|11627|dock6
  -GOLD-   2272017 13D 1   1.00000     0.00000
 Structure written by MMmdl.
 37 38  0  0  0  0  0  0  0  0  1 V2000
  146.9654  141.1799  154.1783 C   0  0  0  0  0  0  0  0  0  0  0  0
  148.3450  140.6344  154.4099 C   0  0  0  0  0  0  0  0  0  0  0  0
  149.5022  141.3405  154.8457 C   0  0  0  0  0  0  0  0  0  0  0  0
  150.5679  140.5648  154.9539 N   0  0  0  0  0  0  0  0  0  0  0  0
  150.1324  139.3403  154.5889 N   0  0  0  0  0  0  0  0  0  0  0  0
  151.0513  138.2160  154.5899 C   0  0  0  0  0  0  0  0  0  0  0  0
  152.5073  138.6492  154.8246 C   0  0  0  0  0  0  0  0  0  0  0  0
  152.6365  139.4928  156.0093 N   0  0  0  0  0  0  0  0  0  0  0  0
  151.8105  139.0540  157.1287 C   0  0  0  0  0  0  0  0  0  0  0  0
  152.0754  139.9077  158.3770 C   0  0  2  0  0  0  0  0  0  0  0  0
  151.6743  141.3792  158.1556 C   0  0  0  0  0  0  0  0  0  0  0  0
  152.0372  142.2285  159.3793 C   0  0  0  0  0  0  0  0  0  0  0  0
  153.5153  142.0271  159.7296 C   0  0  0  0  0  0  0  0  0  0  0  0
  153.8338  140.5295  159.8609 C   0  0  0  0  0  0  0  0  0  0  0  0
  153.4723  139.8518  158.6615 O   0  0  0  0  0  0  0  0  0  0  0  0
  148.7939  139.3530  154.2581 C   0  0  0  0  0  0  0  0  0  0  0  0
  146.9579  142.2700  154.1680 H   0  0  0  0  0  0  0  0  0  0  0  0
  146.2719  140.8614  154.9567 H   0  0  0  0  0  0  0  0  0  0  0  0
  146.5554  140.8479  153.2243 H   0  0  0  0  0  0  0  0  0  0  0  0
  149.5977  142.3887  155.0871 H   0  0  0  0  0  0  0  0  0  0  0  0
  150.7403  137.4915  155.3446 H   0  0  0  0  0  0  0  0  0  0  0  0
  150.9680  137.7146  153.6252 H   0  0  0  0  0  0  0  0  0  0  0  0
  153.1233  137.7571  154.9423 H   0  0  0  0  0  0  0  0  0  0  0  0
  152.8855  139.1726  153.9456 H   0  0  0  0  0  0  0  0  0  0  0  0
  152.4101  140.4544  155.7745 H   0  0  0  0  0  0  0  0  0  0  0  0
  150.7529  139.1018  156.8665 H   0  0  0  0  0  0  0  0  0  0  0  0
  152.0312  138.0090  157.3497 H   0  0  0  0  0  0  0  0  0  0  0  0
  151.5101  139.5034  159.2190 H   0  0  0  0  0  0  0  0  0  0  0  0
  152.1853  141.7715  157.2754 H   0  0  0  0  0  0  0  0  0  0  0  0
  150.6051  141.4549  157.9556 H   0  0  0  0  0  0  0  0  0  0  0  0
  151.8316  143.2818  159.1868 H   0  0  0  0  0  0  0  0  0  0  0  0
  151.4157  141.9363  160.2266 H   0  0  0  0  0  0  0  0  0  0  0  0
  154.1399  142.4645  158.9499 H   0  0  0  0  0  0  0  0  0  0  0  0
  153.7587  142.5486  160.6556 H   0  0  0  0  0  0  0  0  0  0  0  0
  154.9000  140.3873  160.0373 H   0  0  0  0  0  0  0  0  0  0  0  0
  153.3094  140.0921  160.7115 H   0  0  0  0  0  0  0  0  0  0  0  0
  148.2777  138.4580  153.9434 H   0  0  0  0  0  0  0  0  0  0  0  0
  1  2  1  0  0  0  0
  1 17  1  0  0  0  0
  1 18  1  0  0  0  0
  1 19  1  0  0  0  0
  2 16  2  0  0  0  0
  2  3  1  0  0  0  0
  3  4  2  0  0  0  0
  3 20  1  0  0  0  0
  4  5  1  0  0  0  0
  5  6  1  0  0  0  0
  5 16  1  0  0  0  0
  6  7  1  0  0  0  0
  6 21  1  0  0  0  0
  6 22  1  0  0  0  0
  7  8  1  0  0  0  0
  7 23  1  0  0  0  0
  7 24  1  0  0  0  0
  8  9  1  0  0  0  0
  8 25  1  0  0  0  0
  9 10  1  0  0  0  0
  9 26  1  0  0  0  0
  9 27  1  0  0  0  0
 10 15  1  0  0  0  0
 10 11  1  0  0  0  0
 10 28  1  0  0  0  0
 11 12  1  0  0  0  0
 11 29  1  0  0  0  0
 11 30  1  0  0  0  0
 12 13  1  0  0  0  0
 12 31  1  0  0  0  0
 12 32  1  0  0  0  0
 13 14  1  0  0  0  0
 13 33  1  0  0  0  0
 13 34  1  0  0  0  0
 14 15  1  0  0  0  0
 14 35  1  0  0  0  0
 14 36  1  0  0  0  0
 16 37  1  0  0  0  0
M  END
> <s_m_source_file>
AV-unprocessed.smi

> <i_m_source_file_index>
3048

> <i_lp_mmshare_version>
43012

> <i_f3d_flags>
0

> <s_epik_input>
W0NIM11jMVtjSF1ubihbY0hdMSlbQ0gyXVtDSDJdW05IXVtDSDJdW0NAQEhdMltDSDJdW0NIMl1bQ0gyXVtDSDJdTzI=

> <s_epik_cmdline>
J2VwaWtfcHl0aG9uJywgJy1waCcsICc3LjAnLCAnLXRuJywgJzgnLCAnLW1hJywgJzIwMCcsICctbWV0YWxfYmluZGluZycsICctaW1hZScsICc8aW5maWxlLm1hZT4nLCAnLW9tYWUnLCAnPG91dGZpbGUubWFlPic=

> <r_lp_tautomer_probability>
1

> <r_epik_Ionization_Penalty>
2.52229

> <r_epik_Ionization_Penalty_Charging>
0

> <r_epik_Ionization_Penalty_Neutral>
2.52229

> <r_epik_State_Penalty>
2.68614

> <r_epik_Charging_Adjusted_Penalty>
2.68614

> <i_epik_Tot_Q>
0

> <i_epik_Tot_abs_Q>
0

> <r_epik_Metal_State_Penalty>
2.68365

> <b_epik_Metal_Only>
0

> <s_lp_Force_Field>
OPLS_2005

> <r_lp_Energy>
12.7025

> <b_lp_Chiralities_Consistent>
1

> <s_lp_Variant>
AV-unprocessed.smi:3048-3

> <Gold.Version>
5.8.1

> <Gold.Id.Protein>
6NUR|6NUR_protein|mol2

> <Gold.PLP.Fitness>
45.2953

> <Gold.PLP.PLP>
-36.7038

> <Gold.PLP.part.hbond>
-3.0000

> <Gold.PLP.part.metal>
0.0000

> <Gold.PLP.part.buried>
-2.7401

> <Gold.PLP.part.nonpolar>
-30.6764

> <Gold.PLP.part.repulsive>
0.0884

> <Gold.PLP.ligand.clash>
0.0000

> <Gold.PLP.ligand.torsion>
0.1924

> <Gold.PLP.Chemscore.Hbond>
1.9760

> <Gold.PLP.Chemscore.CHOScore>
1.0000

> <Gold.PLP.Chemscore.Metal>
0.0000

> <Gold.Chemscore.Hbonds>
donor molecule, donor type, donor heavy atom, donor atom, acceptor molecule, acceptor atom, score
      P1  H  7989  7998       L1     4  0.88
      P1  H  7997  8009       L1    15  1.00
      L1  C     3    20       P1  8028  1.00

> <Gold.PLP.Chemscore.Internal.Correction>
0.0482

> <Gold.Rescore>
     Score         DG    S(hbond)    S(metal)    S(lipo)     H(rot)  DE(clash)    DE(int)     intcor
     17.76     -17.99       1.67        0.00      92.82       1.54       0.06       0.17       ----

> <Gold.Chemscore.Fitness>
17.7576

> <Gold.Chemscore.DG>
-17.9887

> <Gold.Chemscore.ZeroCoef>
-5.4800

> <Gold.Chemscore.Hbond>
1.6748

> <Gold.Chemscore.Metal>
0.0000

> <Gold.Chemscore.Lipo>
92.8209

> <Gold.Chemscore.Internal_Hbond>
0.0000

> <Gold.Chemscore.DEClash>
0.0649

> <Gold.Chemscore.DEInternal>
0.1662

> <Gold.Chemscore.Rot>
1.5411

> <Gold.Chemscore.Internal.Correction>
   9.000000E+99

> <Gold.Chemscore.Hbonds>
donor molecule, donor type, donor heavy atom, donor atom, acceptor molecule, acceptor atom, score
      P1  H  7989  7998       L1     4  0.10
      P1  H  7997  8009       L1    15  0.82

> <Gold.Chemscore.Hbond.Weighted>
-5.5939

> <Gold.Chemscore.Metal.Weighted>
-0.0000

> <Gold.Chemscore.Lipo.Weighted>
-10.8600

> <Gold.Chemscore.Internal_Hbond.Weighted>
0.0000

> <Gold.Chemscore.DEClash.Weighted>
0.0649

> <Gold.Chemscore.DEInternal.Weighted>
0.1662

> <Gold.Chemscore.Rot.Weighted>
3.9452

> <Gold.Chemscore.Internal.Correction.Weighted>
   9.000000E+99

> <Gold.Protein.RotatedTorsions>
[ 6907 6896 6895 6894 ] final  -75.76 input  -60.11 | X-H torsion
[ 7974 7965 7964 7962 ] final  -80.84 input  175.53 | X-H torsion
[ 8008 7997 7996 7995 ] final  151.81 input   59.86 | X-H torsion
[ 10167 10162 10161 10158 ] final -155.03 input  -65.29 | X-H torsion
[ 10718 10713 10712 10709 ] final -133.07 input   66.30 | X-H torsion
[ 10763 10752 10751 10750 ] final  160.69 input  -60.55 | X-H torsion
[ 11005 11000 10999 10996 ] final  155.73 input  -57.11 | X-H torsion

> <Gold.Protein.ActiveResidues>
 VAL166  LYS551  ARG553  GLY616  TRP617  ASP618  TYR619  PRO620  LYS621  CYS622 
 ASP623  PHE694  ASN695  SER759  ASP760  ASP761  ALA762  ILE779  LEU786  VAL792 
 PHE793  MET794  SER795  GLU796  ALA797  LYS798  CYS799  TRP800  GLU811  SER814 

> <Gold.Protein.RotatedAtoms>
  150.7048  134.4673  159.5408 H   0  0  0  0  0  0  0  0  0  0  0  0  # atno 6907 bound_to 6896
  152.2336  134.8295  160.0479 H   0  0  0  0  0  0  0  0  0  0  0  0  # atno 6908 bound_to 6896
  151.9102  133.3524  159.3898 H   0  0  0  0  0  0  0  0  0  0  0  0  # atno 6909 bound_to 6896
  145.5546  140.9491  143.1480 H   0  0  0  0  0  0  0  0  0  0  0  0  # atno 7974 bound_to 7965
  156.2657  140.2037  156.6235 H   0  0  0  0  0  0  0  0  0  0  0  0  # atno 8008 bound_to 7997
  154.6739  140.0547  157.0219 H   0  0  0  0  0  0  0  0  0  0  0  0  # atno 8009 bound_to 7997
  155.1098  140.3214  155.4527 H   0  0  0  0  0  0  0  0  0  0  0  0  # atno 8010 bound_to 7997
  139.6964  143.9335  152.2409 H   0  0  0  0  0  0  0  0  0  0  0  0  # atno 10167 bound_to 10162
  156.2411  130.7096  151.0957 H   0  0  0  0  0  0  0  0  0  0  0  0  # atno 10718 bound_to 10713
  154.2513  135.2771  155.2815 H   0  0  0  0  0  0  0  0  0  0  0  0  # atno 10763 bound_to 10752
  154.5462  135.5688  153.6886 H   0  0  0  0  0  0  0  0  0  0  0  0  # atno 10764 bound_to 10752
  152.9980  135.6263  154.2660 H   0  0  0  0  0  0  0  0  0  0  0  0  # atno 10765 bound_to 10752
  140.1609  134.8610  157.2573 H   0  0  0  0  0  0  0  0  0  0  0  0  # atno 11005 bound_to 11000
  144.7512  139.7188  143.7272 LP  0  0  0  0  0  0  0  0  0  0  0  0  # atno 17320 bound_to 7965
  146.1893  139.5125  142.9815 LP  0  0  0  0  0  0  0  0  0  0  0  0  # atno 17321 bound_to 7965
  139.9165  144.6825  150.8506 LP  0  0  0  0  0  0  0  0  0  0  0  0  # atno 17342 bound_to 10162
  140.7697  143.3405  151.2217 LP  0  0  0  0  0  0  0  0  0  0  0  0  # atno 17343 bound_to 10162
  157.7175  131.0701  150.6268 LP  0  0  0  0  0  0  0  0  0  0  0  0  # atno 17370 bound_to 10713
  156.6341  130.4440  149.5776 LP  0  0  0  0  0  0  0  0  0  0  0  0  # atno 17371 bound_to 10713
  140.2491  134.3704  155.7449 LP  0  0  0  0  0  0  0  0  0  0  0  0  # atno 17394 bound_to 11000
  141.2209  133.7307  156.8908 LP  0  0  0  0  0  0  0  0  0  0  0  0  # atno 17395 bound_to 11000

$$$$
