AV-unprocessed.smi:3245|AV-procd|sdf|12407|dock8
  -GOLD-   2272018283D 1   1.00000     0.00000
 Structure written by MMmdl.
 35 36  0  0  0  0  0  0  0  0  3 V2000
  146.4066  139.2373  154.2582 C   0  0  0  0  0  0  0  0  0  0  0  0
  146.9630  138.0943  153.3989 C   0  0  1  0  0  0  0  0  0  0  0  0
  146.2194  138.0157  152.0477 C   0  0  0  0  0  0  0  0  0  0  0  0
  145.4810  136.7769  151.8797 N   0  0  0  0  0  0  0  0  0  0  0  0
  145.4842  135.9142  150.8040 C   0  0  0  0  0  0  0  0  0  0  0  0
  144.6130  134.9033  151.0929 C   0  0  0  0  0  0  0  0  0  0  0  0
  144.1219  135.2379  152.3857 C   0  0  0  0  0  0  0  0  0  0  0  0
  144.6460  136.3585  152.8555 N   0  0  0  0  0  0  0  0  0  0  0  0
  148.4171  138.2906  153.1994 N   0  3  0  0  0  0  0  0  0  0  0  0
  149.1940  138.4778  154.4413 C   0  0  0  0  0  0  0  0  0  0  0  0
  150.5439  139.1467  154.1490 C   0  0  0  0  0  0  0  0  0  0  0  0
  151.5520  138.7411  155.1312 N   0  0  0  0  0  0  0  0  0  0  0  0
  152.1344  137.5391  155.1630 C   0  0  0  0  0  0  0  0  0  0  0  0
  151.9343  136.5828  154.4140 O   0  0  0  0  0  0  0  0  0  0  0  0
  153.1295  137.5462  156.2997 C   0  0  0  0  0  0  0  0  0  0  0  0
  152.9925  138.8878  156.8210 N   0  5  0  0  0  0  0  0  0  0  0  0
  152.0556  139.5379  156.0930 C   0  0  0  0  0  0  0  0  0  0  0  0
  151.6841  140.7019  156.2408 O   0  0  0  0  0  0  0  0  0  0  0  0
  145.3416  139.1017  154.4491 H   0  0  0  0  0  0  0  0  0  0  0  0
  146.5355  140.2033  153.7685 H   0  0  0  0  0  0  0  0  0  0  0  0
  146.9095  139.2836  155.2248 H   0  0  0  0  0  0  0  0  0  0  0  0
  146.7992  137.1662  153.9497 H   0  0  0  0  0  0  0  0  0  0  0  0
  145.5101  138.8400  151.9633 H   0  0  0  0  0  0  0  0  0  0  0  0
  146.9199  138.1260  151.2180 H   0  0  0  0  0  0  0  0  0  0  0  0
  146.0930  136.0928  149.9300 H   0  0  0  0  0  0  0  0  0  0  0  0
  144.3612  134.0548  150.4741 H   0  0  0  0  0  0  0  0  0  0  0  0
  143.4032  134.7054  152.9910 H   0  0  0  0  0  0  0  0  0  0  0  0
  148.7789  137.4864  152.7066 H   0  0  0  0  0  0  0  0  0  0  0  0
  148.6114  139.0829  155.1370 H   0  0  0  0  0  0  0  0  0  0  0  0
  149.3613  137.5148  154.9230 H   0  0  0  0  0  0  0  0  0  0  0  0
  150.8832  138.8821  153.1459 H   0  0  0  0  0  0  0  0  0  0  0  0
  150.4319  140.2323  154.1477 H   0  0  0  0  0  0  0  0  0  0  0  0
  152.8709  136.7736  157.0247 H   0  0  0  0  0  0  0  0  0  0  0  0
  154.1286  137.3316  155.9194 H   0  0  0  0  0  0  0  0  0  0  0  0
  148.5567  139.1099  152.6257 H   0  0  0  0  0  0  0  0  0  0  0  0
  1  2  1  0  0  0  0
  1 19  1  0  0  0  0
  1 20  1  0  0  0  0
  1 21  1  0  0  0  0
  2  3  1  0  0  0  0
  2  9  1  0  0  0  0
  2 22  1  0  0  0  0
  3  4  1  0  0  0  0
  3 23  1  0  0  0  0
  3 24  1  0  0  0  0
  4  8  1  0  0  0  0
  4  5  1  0  0  0  0
  5  6  2  0  0  0  0
  5 25  1  0  0  0  0
  6  7  1  0  0  0  0
  6 26  1  0  0  0  0
  7  8  2  0  0  0  0
  7 27  1  0  0  0  0
  9 10  1  0  0  0  0
  9 28  1  0  0  0  0
  9 35  1  0  0  0  0
 10 11  1  0  0  0  0
 10 29  1  0  0  0  0
 10 30  1  0  0  0  0
 11 12  1  0  0  0  0
 11 31  1  0  0  0  0
 11 32  1  0  0  0  0
 12 17  1  0  0  0  0
 12 13  1  0  0  0  0
 13 14  2  0  0  0  0
 13 15  1  0  0  0  0
 15 16  1  0  0  0  0
 15 33  1  0  0  0  0
 15 34  1  0  0  0  0
 16 17  1  0  0  0  0
 17 18  2  0  0  0  0
M  CHG  1   9   1
M  CHG  1  16  -1
M  END
> <s_m_source_file>
AV-unprocessed.smi

> <i_m_source_file_index>
3245

> <i_lp_mmshare_version>
43012

> <i_f3d_flags>
0

> <s_epik_input>
bjFbY0hdW2NIXVtjSF1uMVtDSDJdW0NAQEhdKFtDSDNdKVtOSF1bQ0gyXVtDSDJdTjJDKD1PKVtDSDJdW05IXUMyPU8=

> <s_epik_cmdline>
J2VwaWtfcHl0aG9uJywgJy1waCcsICc3LjAnLCAnLXRuJywgJzgnLCAnLW1hJywgJzIwMCcsICctbWV0YWxfYmluZGluZycsICctaW1hZScsICc8aW5maWxlLm1hZT4nLCAnLW9tYWUnLCAnPG91dGZpbGUubWFlPic=

> <r_lp_tautomer_probability>
1

> <r_epik_Ionization_Penalty>
5.1873

> <r_epik_Ionization_Penalty_Charging>
5.18729

> <r_epik_Ionization_Penalty_Neutral>
3.83745e-06

> <r_epik_State_Penalty>
5.18822

> <r_epik_Charging_Adjusted_Penalty>
10.3755

> <i_epik_Tot_Q>
0

> <i_epik_Tot_abs_Q>
2

> <r_epik_Metal_State_Penalty>
1.25934

> <b_epik_Metal_Only>
1

> <s_lp_Force_Field>
OPLS_2005

> <r_lp_Energy>
10.2516

> <b_lp_Chiralities_Consistent>
1

> <s_lp_Variant>
AV-unprocessed.smi:3245-6

> <Gold.Version>
5.8.1

> <Gold.Id.Protein>
6NUR|6NUR_protein|mol2

> <Gold.PLP.Fitness>
47.9611

> <Gold.PLP.PLP>
-29.7085

> <Gold.PLP.part.hbond>
-4.0000

> <Gold.PLP.part.metal>
0.0000

> <Gold.PLP.part.buried>
0.7285

> <Gold.PLP.part.nonpolar>
-26.8581

> <Gold.PLP.part.repulsive>
0.3534

> <Gold.PLP.ligand.clash>
0.0000

> <Gold.PLP.ligand.torsion>
1.2693

> <Gold.PLP.Chemscore.Hbond>
5.9120

> <Gold.PLP.Chemscore.CHOScore>
0.9923

> <Gold.PLP.Chemscore.Metal>
0.0000

> <Gold.Chemscore.Hbonds>
donor molecule, donor type, donor heavy atom, donor atom, acceptor molecule, acceptor atom, score
      L1  H     9    28       P1  7948  1.85
      L1  H     9    35       P1  7957  0.96
      P1  H  7997  8009       L1    16  1.30
      P1  H 10752 10764       L1    14  0.59
      L1  C     5    25       P1  7921  0.81

> <Gold.PLP.Chemscore.Internal.Correction>
0.0782

> <Gold.Rescore>
     Score         DG    S(hbond)    S(metal)    S(lipo)     H(rot)  DE(clash)    DE(int)     intcor
     13.08     -14.92       2.91        0.00      55.81       2.66       0.48       1.36       ----

> <Gold.Chemscore.Fitness>
13.0806

> <Gold.Chemscore.DG>
-14.9225

> <Gold.Chemscore.ZeroCoef>
-5.4800

> <Gold.Chemscore.Hbond>
2.9108

> <Gold.Chemscore.Metal>
0.0000

> <Gold.Chemscore.Lipo>
55.8130

> <Gold.Chemscore.Internal_Hbond>
0.0000

> <Gold.Chemscore.DEClash>
0.4781

> <Gold.Chemscore.DEInternal>
1.3638

> <Gold.Chemscore.Rot>
2.6601

> <Gold.Chemscore.Internal.Correction>
   9.000000E+99

> <Gold.Chemscore.Hbonds>
donor molecule, donor type, donor heavy atom, donor atom, acceptor molecule, acceptor atom, score
      L1  H     9    28       P1  7948  0.89
      L1  H     9    35       P1  7957  0.87
      P1  H  7997  8009       L1    16  0.05
      P1  H 10752 10764       L1    14  0.54

> <Gold.Chemscore.Hbond.Weighted>
-9.7222

> <Gold.Chemscore.Metal.Weighted>
-0.0000

> <Gold.Chemscore.Lipo.Weighted>
-6.5301

> <Gold.Chemscore.Internal_Hbond.Weighted>
0.0000

> <Gold.Chemscore.DEClash.Weighted>
0.4781

> <Gold.Chemscore.DEInternal.Weighted>
1.3638

> <Gold.Chemscore.Rot.Weighted>
6.8098

> <Gold.Chemscore.Internal.Correction.Weighted>
   9.000000E+99

> <Gold.Protein.RotatedTorsions>
[ 6907 6896 6895 6894 ] final   73.76 input  -60.11 | X-H torsion
[ 7974 7965 7964 7962 ] final   23.19 input  175.53 | X-H torsion
[ 8008 7997 7996 7995 ] final -160.94 input   59.86 | X-H torsion
[ 10167 10162 10161 10158 ] final -113.11 input  -65.29 | X-H torsion
[ 10718 10713 10712 10709 ] final  112.96 input   66.30 | X-H torsion
[ 10763 10752 10751 10750 ] final  -72.95 input  -60.55 | X-H torsion
[ 11005 11000 10999 10996 ] final  -10.79 input  -57.11 | X-H torsion

> <Gold.Protein.ActiveResidues>
 VAL166  LYS551  ARG553  GLY616  TRP617  ASP618  TYR619  PRO620  LYS621  CYS622 
 ASP623  PHE694  ASN695  SER759  ASP760  ASP761  ALA762  ILE779  LEU786  VAL792 
 PHE793  MET794  SER795  GLU796  ALA797  LYS798  CYS799  TRP800  GLU811  SER814 

> <Gold.Protein.RotatedAtoms>
  152.4941  134.4372  159.9531 H   0  0  0  0  0  0  0  0  0  0  0  0  # atno 6907 bound_to 6896
  151.4354  133.3652  159.2782 H   0  0  0  0  0  0  0  0  0  0  0  0  # atno 6908 bound_to 6896
  150.9125  134.8565  159.7494 H   0  0  0  0  0  0  0  0  0  0  0  0  # atno 6909 bound_to 6896
  146.1995  139.7779  142.8772 H   0  0  0  0  0  0  0  0  0  0  0  0  # atno 7974 bound_to 7965
  155.7848  140.0870  157.2040 H   0  0  0  0  0  0  0  0  0  0  0  0  # atno 8008 bound_to 7997
  154.3988  140.1501  156.3152 H   0  0  0  0  0  0  0  0  0  0  0  0  # atno 8009 bound_to 7997
  155.8617  140.3430  155.5764 H   0  0  0  0  0  0  0  0  0  0  0  0  # atno 8010 bound_to 7997
  140.1154  143.4491  152.1726 H   0  0  0  0  0  0  0  0  0  0  0  0  # atno 10167 bound_to 10162
  157.6364  131.0976  150.6971 H   0  0  0  0  0  0  0  0  0  0  0  0  # atno 10718 bound_to 10713
  154.4528  135.5913  153.6203 H   0  0  0  0  0  0  0  0  0  0  0  0  # atno 10763 bound_to 10752
  152.9815  135.6025  154.3583 H   0  0  0  0  0  0  0  0  0  0  0  0  # atno 10764 bound_to 10752
  154.3447  135.2841  155.2383 H   0  0  0  0  0  0  0  0  0  0  0  0  # atno 10765 bound_to 10752
  140.7484  133.8612  155.9025 H   0  0  0  0  0  0  0  0  0  0  0  0  # atno 11005 bound_to 11000
  145.3530  141.0311  143.3327 LP  0  0  0  0  0  0  0  0  0  0  0  0  # atno 17320 bound_to 7965
  144.8653  139.5117  143.6793 LP  0  0  0  0  0  0  0  0  0  0  0  0  # atno 17321 bound_to 7965
  139.5597  144.7397  151.4191 LP  0  0  0  0  0  0  0  0  0  0  0  0  # atno 17342 bound_to 10162
  140.6902  143.7879  150.7245 LP  0  0  0  0  0  0  0  0  0  0  0  0  # atno 17343 bound_to 10162
  156.7302  130.4707  149.5501 LP  0  0  0  0  0  0  0  0  0  0  0  0  # atno 17370 bound_to 10713
  156.1607  130.6372  151.0715 LP  0  0  0  0  0  0  0  0  0  0  0  0  # atno 17371 bound_to 10713
  140.9773  134.1452  157.4525 LP  0  0  0  0  0  0  0  0  0  0  0  0  # atno 17394 bound_to 11000
  139.8792  134.9999  156.5979 LP  0  0  0  0  0  0  0  0  0  0  0  0  # atno 17395 bound_to 11000

$$$$
