AV-unprocessed.smi:770|AV-procd|sdf|3679|dock9
  -GOLD-   22720 1 93D 1   1.00000     0.00000
 Structure written by MMmdl.
 37 38  0  0  0  0  0  0  0  0  1 V2000
  149.0960  132.0159  153.5263 C   0  0  0  0  0  0  0  0  0  0  0  0
  149.4132  132.9468  154.2501 C   0  0  0  0  0  0  0  0  0  0  0  0
  149.7786  134.0869  155.1091 C   0  0  0  0  0  0  0  0  0  0  0  0
  149.9939  135.3130  154.3493 N   0  0  0  0  0  0  0  0  0  0  0  0
  150.8444  136.2911  154.6923 C   0  0  0  0  0  0  0  0  0  0  0  0
  151.5979  136.2388  155.6646 O   0  0  0  0  0  0  0  0  0  0  0  0
  150.7411  137.3493  153.8747 N   0  0  0  0  0  0  0  0  0  0  0  0
  151.4274  138.6268  154.0567 C   0  0  0  0  0  0  0  0  0  0  0  0
  150.5684  139.6473  154.8315 C   0  0  0  0  0  0  0  0  0  0  0  0
  151.1282  140.0007  156.1790 C   0  0  0  0  0  0  0  0  0  0  0  0
  151.7617  139.1547  157.0563 C   0  0  0  0  0  0  0  0  0  0  0  0
  152.3311  139.9932  158.4728 S   0  0  0  0  0  0  0  0  0  0  0  0
  151.6573  141.4828  157.8188 C   0  0  0  0  0  0  0  0  0  0  0  0
  151.7558  142.6967  158.4918 N   0  0  0  0  0  0  0  0  0  0  0  0
  151.3490  144.0016  157.9801 C   0  0  0  0  0  0  0  0  0  0  0  0
  151.3676  144.9847  159.1478 C   0  0  0  0  0  0  0  0  0  0  0  0
  152.4675  144.4189  160.0245 C   0  0  0  0  0  0  0  0  0  0  0  0
  152.2950  142.9141  159.8306 C   0  0  0  0  0  0  0  0  0  0  0  0
  151.0606  141.3204  156.6353 N   0  0  0  0  0  0  0  0  0  0  0  0
  148.8140  131.2074  152.8901 H   0  0  0  0  0  0  0  0  0  0  0  0
  149.0009  134.2211  155.8625 H   0  0  0  0  0  0  0  0  0  0  0  0
  150.6974  133.8303  155.6364 H   0  0  0  0  0  0  0  0  0  0  0  0
  149.4161  135.4491  153.5328 H   0  0  0  0  0  0  0  0  0  0  0  0
  150.0942  137.2890  153.1020 H   0  0  0  0  0  0  0  0  0  0  0  0
  152.3819  138.4794  154.5650 H   0  0  0  0  0  0  0  0  0  0  0  0
  151.6681  139.0259  153.0713 H   0  0  0  0  0  0  0  0  0  0  0  0
  150.4593  140.5496  154.2289 H   0  0  0  0  0  0  0  0  0  0  0  0
  149.5599  139.2482  154.9458 H   0  0  0  0  0  0  0  0  0  0  0  0
  151.9499  138.0976  156.9429 H   0  0  0  0  0  0  0  0  0  0  0  0
  152.0602  144.3076  157.2122 H   0  0  0  0  0  0  0  0  0  0  0  0
  150.3622  143.9532  157.5190 H   0  0  0  0  0  0  0  0  0  0  0  0
  151.5516  146.0130  158.8360 H   0  0  0  0  0  0  0  0  0  0  0  0
  150.4152  144.9532  159.6787 H   0  0  0  0  0  0  0  0  0  0  0  0
  153.4415  144.7352  159.6482 H   0  0  0  0  0  0  0  0  0  0  0  0
  152.3877  144.7268  161.0673 H   0  0  0  0  0  0  0  0  0  0  0  0
  151.5867  142.5146  160.5572 H   0  0  0  0  0  0  0  0  0  0  0  0
  153.2418  142.3896  159.9642 H   0  0  0  0  0  0  0  0  0  0  0  0
  1  2  3  0  0  0  0
  1 20  1  0  0  0  0
  2  3  1  0  0  0  0
  3  4  1  0  0  0  0
  3 21  1  0  0  0  0
  3 22  1  0  0  0  0
  4  5  1  0  0  0  0
  4 23  1  0  0  0  0
  5  6  2  0  0  0  0
  5  7  1  0  0  0  0
  7  8  1  0  0  0  0
  7 24  1  0  0  0  0
  8  9  1  0  0  0  0
  8 25  1  0  0  0  0
  8 26  1  0  0  0  0
  9 10  1  0  0  0  0
  9 27  1  0  0  0  0
  9 28  1  0  0  0  0
 10 19  1  0  0  0  0
 10 11  2  0  0  0  0
 11 12  1  0  0  0  0
 11 29  1  0  0  0  0
 12 13  1  0  0  0  0
 13 14  1  0  0  0  0
 13 19  2  0  0  0  0
 14 18  1  0  0  0  0
 14 15  1  0  0  0  0
 15 16  1  0  0  0  0
 15 30  1  0  0  0  0
 15 31  1  0  0  0  0
 16 17  1  0  0  0  0
 16 32  1  0  0  0  0
 16 33  1  0  0  0  0
 17 18  1  0  0  0  0
 17 34  1  0  0  0  0
 17 35  1  0  0  0  0
 18 36  1  0  0  0  0
 18 37  1  0  0  0  0
M  END
> <s_m_source_file>
AV-unprocessed.smi

> <i_m_source_file_index>
770

> <i_lp_mmshare_version>
43012

> <i_f3d_flags>
0

> <s_epik_input>
W0NIXSNDW0NIMl1bTkhdQyg9TylbTkhdW0NIMl1bQ0gyXWMxW2NIXXNjKG4xKU4yW0NIMl1bQ0gyXVtDSDJdW0NIMl0y

> <s_epik_cmdline>
J2VwaWtfcHl0aG9uJywgJy1waCcsICc3LjAnLCAnLXRuJywgJzgnLCAnLW1hJywgJzIwMCcsICctbWV0YWxfYmluZGluZycsICctaW1hZScsICc8aW5maWxlLm1hZT4nLCAnLW9tYWUnLCAnPG91dGZpbGUubWFlPic=

> <r_epik_Ionization_Penalty>
0.174338

> <r_epik_Ionization_Penalty_Charging>
0

> <r_epik_Ionization_Penalty_Neutral>
0.174338

> <r_epik_State_Penalty>
0.163676

> <r_epik_Charging_Adjusted_Penalty>
0.163676

> <i_epik_Tot_Q>
0

> <i_epik_Tot_abs_Q>
0

> <r_epik_Metal_State_Penalty>
0.126089

> <b_epik_Metal_Only>
0

> <s_lp_Force_Field>
OPLS_2005

> <r_lp_Energy>
12.0865

> <b_lp_Chiralities_Consistent>
1

> <s_lp_Variant>
AV-unprocessed.smi:770-1

> <Gold.Version>
5.8.1

> <Gold.Id.Protein>
6NUR|6NUR_protein|mol2

> <Gold.PLP.Fitness>
48.6273

> <Gold.PLP.PLP>
-41.7322

> <Gold.PLP.part.hbond>
-4.2437

> <Gold.PLP.part.metal>
0.0000

> <Gold.PLP.part.buried>
-3.6803

> <Gold.PLP.part.nonpolar>
-33.4685

> <Gold.PLP.part.repulsive>
0.2376

> <Gold.PLP.ligand.clash>
0.0000

> <Gold.PLP.ligand.torsion>
1.0592

> <Gold.PLP.Chemscore.Hbond>
3.0000

> <Gold.PLP.Chemscore.CHOScore>
0.0000

> <Gold.PLP.Chemscore.Metal>
0.0000

> <Gold.Chemscore.Hbonds>
donor molecule, donor type, donor heavy atom, donor atom, acceptor molecule, acceptor atom, score
      L1  H     4    23       P1  7948  0.95
      L1  H     7    24       P1  7948  0.80
      P1  H 10752 10764       L1     6  1.00

> <Gold.PLP.Chemscore.Internal.Correction>
0.0135

> <Gold.Rescore>
     Score         DG    S(hbond)    S(metal)    S(lipo)     H(rot)  DE(clash)    DE(int)     intcor
     16.98     -18.41       1.76        0.00      98.13       1.73       0.37       1.06       ----

> <Gold.Chemscore.Fitness>
16.9755

> <Gold.Chemscore.DG>
-18.4121

> <Gold.Chemscore.ZeroCoef>
-5.4800

> <Gold.Chemscore.Hbond>
1.7580

> <Gold.Chemscore.Metal>
0.0000

> <Gold.Chemscore.Lipo>
98.1265

> <Gold.Chemscore.Internal_Hbond>
0.0000

> <Gold.Chemscore.DEClash>
0.3734

> <Gold.Chemscore.DEInternal>
1.0632

> <Gold.Chemscore.Rot>
1.7267

> <Gold.Chemscore.Internal.Correction>
   9.000000E+99

> <Gold.Chemscore.Hbonds>
donor molecule, donor type, donor heavy atom, donor atom, acceptor molecule, acceptor atom, score
      L1  H     4    23       P1  7948  0.21
      L1  H     7    24       P1  7948  0.11
      P1  H 10752 10764       L1     6  0.50

> <Gold.Chemscore.Hbond.Weighted>
-5.8717

> <Gold.Chemscore.Metal.Weighted>
-0.0000

> <Gold.Chemscore.Lipo.Weighted>
-11.4808

> <Gold.Chemscore.Internal_Hbond.Weighted>
0.0000

> <Gold.Chemscore.DEClash.Weighted>
0.3734

> <Gold.Chemscore.DEInternal.Weighted>
1.0632

> <Gold.Chemscore.Rot.Weighted>
4.4204

> <Gold.Chemscore.Internal.Correction.Weighted>
   9.000000E+99

> <Gold.Protein.RotatedTorsions>
[ 6907 6896 6895 6894 ] final  -46.98 input  -60.11 | X-H torsion
[ 7974 7965 7964 7962 ] final -141.01 input  175.53 | X-H torsion
[ 8008 7997 7996 7995 ] final  -35.68 input   59.86 | X-H torsion
[ 10167 10162 10161 10158 ] final   20.02 input  -65.29 | X-H torsion
[ 10718 10713 10712 10709 ] final   29.40 input   66.30 | X-H torsion
[ 10763 10752 10751 10750 ] final  -29.14 input  -60.55 | X-H torsion
[ 11005 11000 10999 10996 ] final  -17.39 input  -57.11 | X-H torsion

> <Gold.Protein.ActiveResidues>
 VAL166  LYS551  ARG553  GLY616  TRP617  ASP618  TYR619  PRO620  LYS621  CYS622 
 ASP623  PHE694  ASN695  SER759  ASP760  ASP761  ALA762  ILE779  LEU786  VAL792 
 PHE793  MET794  SER795  GLU796  ALA797  LYS798  CYS799  TRP800  GLU811  SER814 

> <Gold.Protein.RotatedAtoms>
  150.9055  134.8470  159.7389 H   0  0  0  0  0  0  0  0  0  0  0  0  # atno 6907 bound_to 6896
  152.4916  134.4437  159.9562 H   0  0  0  0  0  0  0  0  0  0  0  0  # atno 6908 bound_to 6896
  151.4485  133.3585  159.2827 H   0  0  0  0  0  0  0  0  0  0  0  0  # atno 6909 bound_to 6896
  144.8552  140.6131  143.5364 H   0  0  0  0  0  0  0  0  0  0  0  0  # atno 7974 bound_to 7965
  154.4090  140.1651  156.2251 H   0  0  0  0  0  0  0  0  0  0  0  0  # atno 8008 bound_to 7997
  155.9331  140.3413  155.6242 H   0  0  0  0  0  0  0  0  0  0  0  0  # atno 8009 bound_to 7997
  155.7082  140.0753  157.2373 H   0  0  0  0  0  0  0  0  0  0  0  0  # atno 8010 bound_to 7997
  140.5535  143.9466  150.6594 H   0  0  0  0  0  0  0  0  0  0  0  0  # atno 10167 bound_to 10162
  157.2461  130.7092  149.6382 H   0  0  0  0  0  0  0  0  0  0  0  0  # atno 10718 bound_to 10713
  153.7597  135.6920  153.4928 H   0  0  0  0  0  0  0  0  0  0  0  0  # atno 10763 bound_to 10752
  153.1946  135.4458  155.0191 H   0  0  0  0  0  0  0  0  0  0  0  0  # atno 10764 bound_to 10752
  154.8157  135.3398  154.7113 H   0  0  0  0  0  0  0  0  0  0  0  0  # atno 10765 bound_to 10752
  140.8163  133.8102  155.9614 H   0  0  0  0  0  0  0  0  0  0  0  0  # atno 11005 bound_to 11000
  145.4420  139.1534  143.3965 LP  0  0  0  0  0  0  0  0  0  0  0  0  # atno 17320 bound_to 7965
  146.2817  140.4541  142.8773 LP  0  0  0  0  0  0  0  0  0  0  0  0  # atno 17321 bound_to 7965
  140.2898  143.3332  152.1073 LP  0  0  0  0  0  0  0  0  0  0  0  0  # atno 17342 bound_to 10162
  139.5037  144.6762  151.6123 LP  0  0  0  0  0  0  0  0  0  0  0  0  # atno 17343 bound_to 10162
  155.9668  130.4442  150.5454 LP  0  0  0  0  0  0  0  0  0  0  0  0  # atno 17370 bound_to 10713
  157.3328  131.0702  151.1848 LP  0  0  0  0  0  0  0  0  0  0  0  0  # atno 17371 bound_to 10713
  140.9145  134.2218  157.4965 LP  0  0  0  0  0  0  0  0  0  0  0  0  # atno 17394 bound_to 11000
  139.8711  134.9765  156.4924 LP  0  0  0  0  0  0  0  0  0  0  0  0  # atno 17395 bound_to 11000

$$$$
