#       Name:                AV-unprocessed.smi:72
#       Creating user name   scv26
#       Creation time:       Thu Mar 26 17:09:29 2020


#       File generated by GOLD software.
#

@<TRIPOS>MOLECULE
AV-unprocessed.smi:72
    41    42     1
SMALL
NO_CHARGES


@<TRIPOS>ATOM
      1 ****        -5.0842  -0.4411   0.2472 N.pl3          1 S1                 0.0000
      2 ****        -3.7116  -0.5725   0.2563 C.2            1 S1                 0.0000
      3 ****        -2.9801   0.5635   0.6286 N.2            1 S1                 0.0000
      4 ****        -1.6901   0.4460   0.6389 C.2            1 S1                 0.0000
      5 ****        -1.0439  -0.8059   0.2807 N.am           1 S1                 0.0000
      6 ****         0.4656  -0.9727   0.2789 C.3            1 S1                 0.0000
      7 ****         1.0551   0.0006   1.0938 O.3            1 S1                 0.0000
      8 ****         1.7442   0.9612   0.2972 C.3            1 S1                 0.0000
      9 ****         2.8503   1.6274   1.1298 C.3            1 S1                 0.0000
     10 ****         2.3058   2.6691   1.9119 O.3            1 S1                 0.0000
     11 ****         2.2708   0.0944  -0.8459 C.3            1 S1                 0.0000
     12 ****         2.6786   0.8469  -1.9734 O.3            1 S1                 0.0000
     13 ****         1.0955  -0.8370  -1.1282 C.3            1 S1                 0.0000
     14 ****         0.2101  -0.3005  -2.1003 O.3            1 S1                 0.0000
     15 ****        -1.8495  -1.9171  -0.0907 C.2            1 S1                 0.0000
     16 ****        -1.3214  -2.9819  -0.4117 O.2            1 S1                 0.0000
     17 ****        -3.2375  -1.7370  -0.0824 N.2            1 S1                 0.0000
     18 ****         0.6544  -1.9416   0.7442 H              1 S1                 0.0000
     19 ****         1.0428   1.7003  -0.0952 H              1 S1                 0.0000
     20 ****         3.1163  -0.4978  -0.4922 H              1 S1                 0.0000
     21 ****         1.4333  -1.8148  -1.4728 H              1 S1                 0.0000
     22 ****        -5.7106  -1.1917  -0.0045 H              1 S1                 0.0000
     23 ****        -5.5635   0.4123   0.4943 H              1 S1                 0.0000
     24 ****        -1.0250   1.2654   0.9113 H              1 S1                 0.0000
     25 ****         3.3616   0.9027   1.7642 H              1 S1                 0.0000
     26 ****         3.6002   2.0699   0.4735 H              1 S1                 0.0000
     27 ****         3.0039   3.0711   2.4058 H              1 S1                 0.0000
     28 ****         2.8658   0.2487  -2.6805 H              1 S1                 0.0000
     29 ****        -0.5372  -0.8744  -2.1739 H              1 S1                 0.0000
     30 ****        -3.4313   1.4216   0.8740 LP             1 S1                 0.0000
     31 ****         1.7035  -0.4384   1.7158 LP             1 S1                 0.0000
     32 ****         0.3438   0.4614   1.6247 LP             1 S1                 0.0000
     33 ****         1.6205   2.2975   2.5382 LP             1 S1                 0.0000
     34 ****         1.8789   3.3498   1.3165 LP             1 S1                 0.0000
     35 ****         3.4995   1.3723  -1.7495 LP             1 S1                 0.0000
     36 ****         1.9466   1.4718  -2.2448 LP             1 S1                 0.0000
     37 ****         0.6758  -0.2381  -2.9830 LP             1 S1                 0.0000
     38 ****        -0.0905   0.6102  -1.8169 LP             1 S1                 0.0000
     39 ****        -0.3249  -3.0659  -0.4114 LP             1 S1                 0.0000
     40 ****        -1.8889  -3.7628  -0.6727 LP             1 S1                 0.0000
     41 ****        -3.8515  -2.4861  -0.3311 LP             1 S1                 0.0000
@<TRIPOS>BOND
    1    1    2 1     
    2    1   22 1     
    3    1   23 1     
    4    2   17 2     
    5    2    3 1     
    6    3    4 2     
    7    4    5 1     
    8    4   24 1     
    9    5    6 1     
   10    5   15 am    
   11    6   18 1     
   12    6   13 1     
   13    6    7 1     
   14    7    8 1     
   15    8   19 1     
   16    8    9 1     
   17    8   11 1     
   18    9   10 1     
   19    9   25 1     
   20    9   26 1     
   21   10   27 1     
   22   11   20 1     
   23   11   12 1     
   24   11   13 1     
   25   12   28 1     
   26   13   21 1     
   27   13   14 1     
   28   14   29 1     
   29   15   16 2     
   30   15   17 1     
   31    3   30 1     
   32    7   31 1     
   33    7   32 1     
   34   10   33 1     
   35   10   34 1     
   36   12   35 1     
   37   12   36 1     
   38   14   37 1     
   39   14   38 1     
   40   16   39 1     
   41   16   40 1     
   42   17   41 1     
@<TRIPOS>SUBSTRUCTURE
      1 S1             1
@<TRIPOS>SET
LONE_PAIRS      STATIC     ATOMS    <user>   **** ""
12 30 31 32 33 34 35 36 37 38 39 40 41
DONOR_HYDROGENS      STATIC     ATOMS    <user>   **** ""
5 22 23 27 28 29
ATOM$BLUE        STATIC     ATOMS    COLORGROUP SYSTEM
12 30 31 32 33 34 35 36 37 38 39 40 41
ATOM$RED        STATIC     ATOMS    COLORGROUP SYSTEM
5 22 23 27 28 29
