AV-unprocessed.smi:2069|AV-procd|sdf|8437|dock10
  -GOLD-   2272011133D 1   1.00000     0.00000
 Structure written by MMmdl.
 38 39  0  0  0  0  0  0  0  0  3 V2000
  152.8829  139.8277  159.9382 C   0  0  0  0  0  0  0  0  0  0  0  0
  152.5055  139.7583  158.4982 C   0  0  0  0  0  0  0  0  0  0  0  0
  153.2618  139.1489  157.5820 N   0  0  0  0  0  0  0  0  0  0  0  0
  152.7040  139.2188  156.3135 N   0  0  0  0  0  0  0  0  0  0  0  0
  151.5435  139.8891  156.2854 C   0  0  0  0  0  0  0  0  0  0  0  0
  150.8435  140.0694  155.1531 N   0  5  0  0  0  0  0  0  0  0  0  0
  149.4945  140.1471  155.1990 C   0  0  0  0  0  0  0  0  0  0  0  0
  148.8066  140.3770  156.1962 O   0  0  0  0  0  0  0  0  0  0  0  0
  148.9033  139.9435  154.0149 N   0  0  0  0  0  0  0  0  0  0  0  0
  147.4643  139.9708  153.7801 C   0  0  0  0  0  0  0  0  0  0  0  0
  146.9581  138.6847  153.0752 C   0  0  2  0  0  0  0  0  0  0  0  0
  147.2183  138.7727  151.5521 C   0  0  0  0  0  0  0  0  0  0  0  0
  145.5111  138.3934  153.3496 N   0  3  0  0  0  0  0  0  0  0  0  0
  145.0054  137.2111  152.5978 C   0  0  0  0  0  0  0  0  0  0  0  0
  143.5092  136.9759  152.8614 C   0  0  0  0  0  0  0  0  0  0  0  0
  143.2919  136.8057  154.2533 O   0  0  0  0  0  0  0  0  0  0  0  0
  143.6584  137.9695  154.9773 C   0  0  0  0  0  0  0  0  0  0  0  0
  145.1585  138.2532  154.7905 C   0  0  0  0  0  0  0  0  0  0  0  0
  151.0321  140.4752  157.8682 S   0  0  0  0  0  0  0  0  0  0  0  0
  153.6360  140.6012  160.0882 H   0  0  0  0  0  0  0  0  0  0  0  0
  153.2889  138.8715  160.2691 H   0  0  0  0  0  0  0  0  0  0  0  0
  152.0104  140.0649  160.5472 H   0  0  0  0  0  0  0  0  0  0  0  0
  149.4995  139.7591  153.2212 H   0  0  0  0  0  0  0  0  0  0  0  0
  147.0018  140.0888  154.7602 H   0  0  0  0  0  0  0  0  0  0  0  0
  147.2100  140.8504  153.1862 H   0  0  0  0  0  0  0  0  0  0  0  0
  147.5417  137.8525  153.4729 H   0  0  0  0  0  0  0  0  0  0  0  0
  148.2593  139.0038  151.3273 H   0  0  0  0  0  0  0  0  0  0  0  0
  146.6063  139.5494  151.0927 H   0  0  0  0  0  0  0  0  0  0  0  0
  147.0142  137.8369  151.0354 H   0  0  0  0  0  0  0  0  0  0  0  0
  145.1367  137.3385  151.5255 H   0  0  0  0  0  0  0  0  0  0  0  0
  145.5739  136.3254  152.8859 H   0  0  0  0  0  0  0  0  0  0  0  0
  142.9095  137.8047  152.4815 H   0  0  0  0  0  0  0  0  0  0  0  0
  143.1750  136.0776  152.3420 H   0  0  0  0  0  0  0  0  0  0  0  0
  143.0577  138.8206  154.6519 H   0  0  0  0  0  0  0  0  0  0  0  0
  143.4367  137.8109  156.0327 H   0  0  0  0  0  0  0  0  0  0  0  0
  145.7511  137.4527  155.2364 H   0  0  0  0  0  0  0  0  0  0  0  0
  145.3783  139.1692  155.3369 H   0  0  0  0  0  0  0  0  0  0  0  0
  144.9948  139.1951  153.0167 H   0  0  0  0  0  0  0  0  0  0  0  0
  1  2  1  0  0  0  0
  1 20  1  0  0  0  0
  1 21  1  0  0  0  0
  1 22  1  0  0  0  0
  2 19  1  0  0  0  0
  2  3  2  0  0  0  0
  3  4  1  0  0  0  0
  4  5  2  0  0  0  0
  5  6  1  0  0  0  0
  5 19  1  0  0  0  0
  6  7  1  0  0  0  0
  7  8  2  0  0  0  0
  7  9  1  0  0  0  0
  9 10  1  0  0  0  0
  9 23  1  0  0  0  0
 10 11  1  0  0  0  0
 10 24  1  0  0  0  0
 10 25  1  0  0  0  0
 11 12  1  0  0  0  0
 11 13  1  0  0  0  0
 11 26  1  0  0  0  0
 12 27  1  0  0  0  0
 12 28  1  0  0  0  0
 12 29  1  0  0  0  0
 13 18  1  0  0  0  0
 13 14  1  0  0  0  0
 13 38  1  0  0  0  0
 14 15  1  0  0  0  0
 14 30  1  0  0  0  0
 14 31  1  0  0  0  0
 15 16  1  0  0  0  0
 15 32  1  0  0  0  0
 15 33  1  0  0  0  0
 16 17  1  0  0  0  0
 17 18  1  0  0  0  0
 17 34  1  0  0  0  0
 17 35  1  0  0  0  0
 18 36  1  0  0  0  0
 18 37  1  0  0  0  0
M  CHG  1   6  -1
M  CHG  1  13   1
M  END
> <s_m_source_file>
AV-unprocessed.smi

> <i_m_source_file_index>
2069

> <i_lp_mmshare_version>
43012

> <i_f3d_flags>
0

> <s_epik_input>
W0NIM11jMW5uYyhzMSlbTkhdQyg9TylbTkhdW0NIMl1bQ0BIXShbQ0gzXSlOMltDSDJdW0NIMl1PW0NIMl1bQ0gyXTI=

> <s_epik_cmdline>
J2VwaWtfcHl0aG9uJywgJy1waCcsICc3LjAnLCAnLXRuJywgJzgnLCAnLW1hJywgJzIwMCcsICctbWV0YWxfYmluZGluZycsICctaW1hZScsICc8aW5maWxlLm1hZT4nLCAnLW9tYWUnLCAnPG91dGZpbGUubWFlPic=

> <r_lp_tautomer_probability>
1

> <r_epik_Ionization_Penalty>
3.53072

> <r_epik_Ionization_Penalty_Charging>
3.4216

> <r_epik_Ionization_Penalty_Neutral>
0.109115

> <r_epik_State_Penalty>
3.61496

> <r_epik_Charging_Adjusted_Penalty>
7.03656

> <i_epik_Tot_Q>
0

> <i_epik_Tot_abs_Q>
2

> <r_epik_Metal_State_Penalty>
1.13918

> <b_epik_Metal_Only>
1

> <s_lp_Force_Field>
OPLS_2005

> <r_lp_Energy>
13.5119

> <b_lp_Chiralities_Consistent>
1

> <s_lp_Variant>
AV-unprocessed.smi:2069-7

> <Gold.Version>
5.8.1

> <Gold.Id.Protein>
6NUR|6NUR_protein|mol2

> <Gold.PLP.Fitness>
43.7962

> <Gold.PLP.PLP>
-29.8728

> <Gold.PLP.part.hbond>
-4.7423

> <Gold.PLP.part.metal>
0.0000

> <Gold.PLP.part.buried>
-1.6771

> <Gold.PLP.part.nonpolar>
-23.1977

> <Gold.PLP.part.repulsive>
0.2946

> <Gold.PLP.ligand.clash>
0.0000

> <Gold.PLP.ligand.torsion>
0.5589

> <Gold.PLP.Chemscore.Hbond>
4.9913

> <Gold.PLP.Chemscore.CHOScore>
0.0000

> <Gold.PLP.Chemscore.Metal>
0.0000

> <Gold.Chemscore.Hbonds>
donor molecule, donor type, donor heavy atom, donor atom, acceptor molecule, acceptor atom, score
      L1  H     9    23       P1  7957  0.73
      L1  H    13    38       P1 10175  2.00
      P1  H  7989  7998       L1     6  1.00
      P1  H  7997  8010       L1     3  0.35

> <Gold.PLP.Chemscore.Internal.Correction>
0.0674

> <Gold.Rescore>
     Score         DG    S(hbond)    S(metal)    S(lipo)     H(rot)  DE(clash)    DE(int)     intcor
     15.79     -17.84       3.09        0.00      52.81       1.62       0.05       2.01       ----

> <Gold.Chemscore.Fitness>
15.7913

> <Gold.Chemscore.DG>
-17.8448

> <Gold.Chemscore.ZeroCoef>
-5.4800

> <Gold.Chemscore.Hbond>
3.0930

> <Gold.Chemscore.Metal>
0.0000

> <Gold.Chemscore.Lipo>
52.8140

> <Gold.Chemscore.Internal_Hbond>
0.0000

> <Gold.Chemscore.DEClash>
0.0477

> <Gold.Chemscore.DEInternal>
2.0057

> <Gold.Chemscore.Rot>
1.6192

> <Gold.Chemscore.Internal.Correction>
   9.000000E+99

> <Gold.Chemscore.Hbonds>
donor molecule, donor type, donor heavy atom, donor atom, acceptor molecule, acceptor atom, score
      L1  H     9    23       P1  7957  0.71
      L1  H    13    38       P1 10175  1.00
      P1  H  7989  7998       L1     6  0.84
      P1  H  7997  8010       L1     3  0.01

> <Gold.Chemscore.Hbond.Weighted>
-10.3308

> <Gold.Chemscore.Metal.Weighted>
-0.0000

> <Gold.Chemscore.Lipo.Weighted>
-6.1792

> <Gold.Chemscore.Internal_Hbond.Weighted>
0.0000

> <Gold.Chemscore.DEClash.Weighted>
0.0477

> <Gold.Chemscore.DEInternal.Weighted>
2.0057

> <Gold.Chemscore.Rot.Weighted>
4.1452

> <Gold.Chemscore.Internal.Correction.Weighted>
   9.000000E+99

> <Gold.Protein.RotatedTorsions>
[ 6907 6896 6895 6894 ] final   78.61 input  -60.11 | X-H torsion
[ 7974 7965 7964 7962 ] final   87.19 input  175.53 | X-H torsion
[ 8008 7997 7996 7995 ] final   37.97 input   59.86 | X-H torsion
[ 10167 10162 10161 10158 ] final  -18.47 input  -65.29 | X-H torsion
[ 10718 10713 10712 10709 ] final   23.50 input   66.30 | X-H torsion
[ 10763 10752 10751 10750 ] final  152.17 input  -60.55 | X-H torsion
[ 11005 11000 10999 10996 ] final  147.06 input  -57.11 | X-H torsion

> <Gold.Protein.ActiveResidues>
 VAL166  LYS551  ARG553  GLY616  TRP617  ASP618  TYR619  PRO620  LYS621  CYS622 
 ASP623  PHE694  ASN695  SER759  ASP760  ASP761  ALA762  ILE779  LEU786  VAL792 
 PHE793  MET794  SER795  GLU796  ALA797  LYS798  CYS799  TRP800  GLU811  SER814 

> <Gold.Protein.RotatedAtoms>
  152.5166  134.3638  159.9293 H   0  0  0  0  0  0  0  0  0  0  0  0  # atno 6907 bound_to 6896
  151.3591  133.3890  159.2695 H   0  0  0  0  0  0  0  0  0  0  0  0  # atno 6908 bound_to 6896
  150.9666  134.9065  159.7821 H   0  0  0  0  0  0  0  0  0  0  0  0  # atno 6909 bound_to 6896
  145.5623  139.2305  143.2453 H   0  0  0  0  0  0  0  0  0  0  0  0  # atno 7974 bound_to 7965
  155.2125  140.3324  155.4327 H   0  0  0  0  0  0  0  0  0  0  0  0  # atno 8008 bound_to 7997
  156.2365  140.1874  156.7154 H   0  0  0  0  0  0  0  0  0  0  0  0  # atno 8009 bound_to 7997
  154.6068  140.0615  156.9428 H   0  0  0  0  0  0  0  0  0  0  0  0  # atno 8010 bound_to 7997
  140.7259  143.4913  150.9988 H   0  0  0  0  0  0  0  0  0  0  0  0  # atno 10167 bound_to 10162
  157.1669  130.6742  149.6064 H   0  0  0  0  0  0  0  0  0  0  0  0  # atno 10718 bound_to 10713
  154.1157  135.2836  155.3220 H   0  0  0  0  0  0  0  0  0  0  0  0  # atno 10763 bound_to 10752
  154.6458  135.5386  153.7847 H   0  0  0  0  0  0  0  0  0  0  0  0  # atno 10764 bound_to 10752
  153.0330  135.6498  154.1313 H   0  0  0  0  0  0  0  0  0  0  0  0  # atno 10765 bound_to 10752
  140.0844  134.9078  157.1552 H   0  0  0  0  0  0  0  0  0  0  0  0  # atno 11005 bound_to 11000
  146.1843  140.6448  142.9175 LP  0  0  0  0  0  0  0  0  0  0  0  0  # atno 17320 bound_to 7965
  144.7477  140.5111  143.6824 LP  0  0  0  0  0  0  0  0  0  0  0  0  # atno 17321 bound_to 7965
  139.8617  143.7306  152.3173 LP  0  0  0  0  0  0  0  0  0  0  0  0  # atno 17342 bound_to 10162
  139.7523  144.7530  151.0487 LP  0  0  0  0  0  0  0  0  0  0  0  0  # atno 17343 bound_to 10162
  155.9744  130.4692  150.6388 LP  0  0  0  0  0  0  0  0  0  0  0  0  # atno 17370 bound_to 10713
  157.4080  131.0819  151.1247 LP  0  0  0  0  0  0  0  0  0  0  0  0  # atno 17371 bound_to 10713
  140.3441  134.2671  155.7208 LP  0  0  0  0  0  0  0  0  0  0  0  0  # atno 17394 bound_to 11000
  141.2058  133.7851  157.0215 LP  0  0  0  0  0  0  0  0  0  0  0  0  # atno 17395 bound_to 11000

$$$$
