AV-unprocessed.smi:2737|AV-procd|sdf|10547|dock3
  -GOLD-   2272014593D 1   1.00000     0.00000
 Structure written by MMmdl.
 43 44  0  0  0  0  0  0  0  0  1 V2000
  146.3798  137.0687  162.1210 C   0  0  0  0  0  0  0  0  0  0  0  0
  147.2407  137.3179  161.0135 O   0  0  0  0  0  0  0  0  0  0  0  0
  147.3898  136.2816  160.0350 C   0  0  0  0  0  0  0  0  0  0  0  0
  147.6905  134.9209  160.7011 C   0  0  0  0  0  0  0  0  0  0  0  0
  146.0375  136.2238  159.3074 C   0  0  0  0  0  0  0  0  0  0  0  0
  148.4715  136.6981  159.0735 C   0  0  0  0  0  0  0  0  0  0  0  0
  148.4832  137.7904  158.3101 N   0  0  0  0  0  0  0  0  0  0  0  0
  149.7389  137.7386  157.7858 C   0  0  0  0  0  0  0  0  0  0  0  0
  150.2541  138.7503  156.8131 C   0  0  0  0  0  0  0  0  0  0  0  0
  151.2977  139.6494  157.4775 C   0  0  0  0  0  0  0  0  0  0  0  0
  152.2811  139.1508  158.0247 O   0  0  0  0  0  0  0  0  0  0  0  0
  151.0720  140.9718  157.4229 N   0  0  0  0  0  0  0  0  0  0  0  0
  151.9260  141.9994  158.0109 C   0  0  0  0  0  0  0  0  0  0  0  0
  151.9164  141.8614  159.5453 C   0  0  0  0  0  0  0  0  0  0  0  0
  152.7649  142.9559  160.2133 C   0  0  0  0  0  0  0  0  0  0  0  0
  152.3020  144.3581  159.7865 C   0  0  0  0  0  0  0  0  0  0  0  0
  152.3108  144.5032  158.2567 C   0  0  0  0  0  0  0  0  0  0  0  0
  151.4630  143.4095  157.5870 C   0  0  0  0  0  0  0  0  0  0  0  0
  150.4943  136.7270  158.1948 N   0  0  0  0  0  0  0  0  0  0  0  0
  149.6623  136.0471  159.0949 O   0  0  0  0  0  0  0  0  0  0  0  0
  146.4810  137.8821  162.8394 H   0  0  0  0  0  0  0  0  0  0  0  0
  146.6231  136.1409  162.6391 H   0  0  0  0  0  0  0  0  0  0  0  0
  145.3335  137.0368  161.8171 H   0  0  0  0  0  0  0  0  0  0  0  0
  147.6970  134.1172  159.9640 H   0  0  0  0  0  0  0  0  0  0  0  0
  146.9358  134.6728  161.4476 H   0  0  0  0  0  0  0  0  0  0  0  0
  148.6643  134.9087  161.1909 H   0  0  0  0  0  0  0  0  0  0  0  0
  146.0483  135.4819  158.5081 H   0  0  0  0  0  0  0  0  0  0  0  0
  145.7883  137.1871  158.8603 H   0  0  0  0  0  0  0  0  0  0  0  0
  145.2314  135.9606  159.9929 H   0  0  0  0  0  0  0  0  0  0  0  0
  150.6982  138.2456  155.9537 H   0  0  0  0  0  0  0  0  0  0  0  0
  149.4259  139.3505  156.4337 H   0  0  0  0  0  0  0  0  0  0  0  0
  150.2367  141.2899  156.9530 H   0  0  0  0  0  0  0  0  0  0  0  0
  152.9499  141.8452  157.6644 H   0  0  0  0  0  0  0  0  0  0  0  0
  150.8921  141.9230  159.9163 H   0  0  0  0  0  0  0  0  0  0  0  0
  152.2910  140.8787  159.8352 H   0  0  0  0  0  0  0  0  0  0  0  0
  152.7090  142.8596  161.2980 H   0  0  0  0  0  0  0  0  0  0  0  0
  153.8133  142.8196  159.9447 H   0  0  0  0  0  0  0  0  0  0  0  0
  151.2958  144.5420  160.1652 H   0  0  0  0  0  0  0  0  0  0  0  0
  152.9451  145.1152  160.2358 H   0  0  0  0  0  0  0  0  0  0  0  0
  151.9375  145.4879  157.9744 H   0  0  0  0  0  0  0  0  0  0  0  0
  153.3363  144.4450  157.8901 H   0  0  0  0  0  0  0  0  0  0  0  0
  151.5219  143.5181  156.5035 H   0  0  0  0  0  0  0  0  0  0  0  0
  150.4148  143.5506  157.8545 H   0  0  0  0  0  0  0  0  0  0  0  0
  1  2  1  0  0  0  0
  1 21  1  0  0  0  0
  1 22  1  0  0  0  0
  1 23  1  0  0  0  0
  2  3  1  0  0  0  0
  3  4  1  0  0  0  0
  3  5  1  0  0  0  0
  3  6  1  0  0  0  0
  4 24  1  0  0  0  0
  4 25  1  0  0  0  0
  4 26  1  0  0  0  0
  5 27  1  0  0  0  0
  5 28  1  0  0  0  0
  5 29  1  0  0  0  0
  6 20  1  0  0  0  0
  6  7  2  0  0  0  0
  7  8  1  0  0  0  0
  8  9  1  0  0  0  0
  8 19  2  0  0  0  0
  9 10  1  0  0  0  0
  9 30  1  0  0  0  0
  9 31  1  0  0  0  0
 10 11  2  0  0  0  0
 10 12  1  0  0  0  0
 12 13  1  0  0  0  0
 12 32  1  0  0  0  0
 13 18  1  0  0  0  0
 13 14  1  0  0  0  0
 13 33  1  0  0  0  0
 14 15  1  0  0  0  0
 14 34  1  0  0  0  0
 14 35  1  0  0  0  0
 15 16  1  0  0  0  0
 15 36  1  0  0  0  0
 15 37  1  0  0  0  0
 16 17  1  0  0  0  0
 16 38  1  0  0  0  0
 16 39  1  0  0  0  0
 17 18  1  0  0  0  0
 17 40  1  0  0  0  0
 17 41  1  0  0  0  0
 18 42  1  0  0  0  0
 18 43  1  0  0  0  0
 19 20  1  0  0  0  0
M  END
> <s_m_source_file>
AV-unprocessed.smi

> <i_m_source_file_index>
2737

> <i_lp_mmshare_version>
43012

> <i_f3d_flags>
0

> <s_epik_input>
W0NIM11PQyhbQ0gzXSkoW0NIM10pYzFuYyhubzEpW0NIMl1DKD1PKVtOSF1bQ0hdMltDSDJdW0NIMl1bQ0gyXVtDSDJdW0NIMl0y

> <s_epik_cmdline>
J2VwaWtfcHl0aG9uJywgJy1waCcsICc3LjAnLCAnLXRuJywgJzgnLCAnLW1hJywgJzIwMCcsICctbWV0YWxfYmluZGluZycsICctaW1hZScsICc8aW5maWxlLm1hZT4nLCAnLW9tYWUnLCAnPG91dGZpbGUubWFlPic=

> <r_lp_tautomer_probability>
1

> <r_epik_Ionization_Penalty>
6.23621e-08

> <r_epik_Ionization_Penalty_Charging>
0

> <r_epik_Ionization_Penalty_Neutral>
6.23621e-08

> <r_epik_State_Penalty>
-0

> <r_epik_Charging_Adjusted_Penalty>
0

> <i_epik_Tot_Q>
0

> <i_epik_Tot_abs_Q>
0

> <r_epik_Metal_State_Penalty>
-0

> <b_epik_Metal_Only>
0

> <s_lp_Force_Field>
OPLS_2005

> <r_lp_Energy>
12.1287

> <b_lp_Chiralities_Consistent>
1

> <s_lp_Variant>
AV-unprocessed.smi:2737-1

> <Gold.Version>
5.8.1

> <Gold.Id.Protein>
6NUR|6NUR_protein|mol2

> <Gold.PLP.Fitness>
43.8861

> <Gold.PLP.PLP>
-36.1697

> <Gold.PLP.part.hbond>
-3.3935

> <Gold.PLP.part.metal>
0.0000

> <Gold.PLP.part.buried>
-5.4127

> <Gold.PLP.part.nonpolar>
-26.9167

> <Gold.PLP.part.repulsive>
0.0516

> <Gold.PLP.ligand.clash>
0.0000

> <Gold.PLP.ligand.torsion>
0.5141

> <Gold.PLP.Chemscore.Hbond>
2.8400

> <Gold.PLP.Chemscore.CHOScore>
0.0000

> <Gold.PLP.Chemscore.Metal>
0.0000

> <Gold.Chemscore.Hbonds>
donor molecule, donor type, donor heavy atom, donor atom, acceptor molecule, acceptor atom, score
      P1  H  6896  6908       L1    20  1.00
      P1  H  6931  6943       L1     2  0.43
      P1  H  6934  6947       L1     2  1.00

> <Gold.PLP.Chemscore.Internal.Correction>
0.2246

> <Gold.Rescore>
     Score         DG    S(hbond)    S(metal)    S(lipo)     H(rot)  DE(clash)    DE(int)     intcor
     17.54     -19.36       2.28        0.00      94.34       1.86       0.27       1.54       ----

> <Gold.Chemscore.Fitness>
17.5442

> <Gold.Chemscore.DG>
-19.3559

> <Gold.Chemscore.ZeroCoef>
-5.4800

> <Gold.Chemscore.Hbond>
2.2751

> <Gold.Chemscore.Metal>
0.0000

> <Gold.Chemscore.Lipo>
94.3395

> <Gold.Chemscore.Internal_Hbond>
0.0000

> <Gold.Chemscore.DEClash>
0.2703

> <Gold.Chemscore.DEInternal>
1.5414

> <Gold.Chemscore.Rot>
1.8596

> <Gold.Chemscore.Internal.Correction>
   9.000000E+99

> <Gold.Chemscore.Hbonds>
donor molecule, donor type, donor heavy atom, donor atom, acceptor molecule, acceptor atom, score
      P1  H  6896  6908       L1    20  0.30
      P1  H  6931  6943       L1     2  0.21
      P1  H  6934  6947       L1     2  0.30

> <Gold.Chemscore.Hbond.Weighted>
-7.5987

> <Gold.Chemscore.Metal.Weighted>
-0.0000

> <Gold.Chemscore.Lipo.Weighted>
-11.0377

> <Gold.Chemscore.Internal_Hbond.Weighted>
0.0000

> <Gold.Chemscore.DEClash.Weighted>
0.2703

> <Gold.Chemscore.DEInternal.Weighted>
1.5414

> <Gold.Chemscore.Rot.Weighted>
4.7605

> <Gold.Chemscore.Internal.Correction.Weighted>
   9.000000E+99

> <Gold.Protein.RotatedTorsions>
[ 6907 6896 6895 6894 ] final  179.31 input  -60.11 | X-H torsion
[ 7974 7965 7964 7962 ] final -163.42 input  175.53 | X-H torsion
[ 8008 7997 7996 7995 ] final   34.86 input   59.86 | X-H torsion
[ 10167 10162 10161 10158 ] final   43.58 input  -65.29 | X-H torsion
[ 10718 10713 10712 10709 ] final  -56.40 input   66.30 | X-H torsion
[ 10763 10752 10751 10750 ] final  -57.75 input  -60.55 | X-H torsion
[ 11005 11000 10999 10996 ] final  -77.06 input  -57.11 | X-H torsion

> <Gold.Protein.ActiveResidues>
 VAL166  LYS551  ARG553  GLY616  TRP617  ASP618  TYR619  PRO620  LYS621  CYS622 
 ASP623  PHE694  ASN695  SER759  ASP760  ASP761  ALA762  ILE779  LEU786  VAL792 
 PHE793  MET794  SER795  GLU796  ALA797  LYS798  CYS799  TRP800  GLU811  SER814 

> <Gold.Protein.RotatedAtoms>
  151.6737  133.3313  159.3202 H   0  0  0  0  0  0  0  0  0  0  0  0  # atno 6907 bound_to 6896
  150.7856  134.6841  159.6469 H   0  0  0  0  0  0  0  0  0  0  0  0  # atno 6908 bound_to 6896
  152.3924  134.6423  160.0154 H   0  0  0  0  0  0  0  0  0  0  0  0  # atno 6909 bound_to 6896
  144.7326  140.3109  143.6188 H   0  0  0  0  0  0  0  0  0  0  0  0  # atno 7974 bound_to 7965
  155.1617  140.3284  155.4410 H   0  0  0  0  0  0  0  0  0  0  0  0  # atno 8008 bound_to 7997
  156.2540  140.1959  156.6675 H   0  0  0  0  0  0  0  0  0  0  0  0  # atno 8009 bound_to 7997
  154.6400  140.0571  156.9820 H   0  0  0  0  0  0  0  0  0  0  0  0  # atno 8010 bound_to 7997
  140.3429  144.2447  150.6153 H   0  0  0  0  0  0  0  0  0  0  0  0  # atno 10167 bound_to 10162
  156.1291  130.4160  150.0301 H   0  0  0  0  0  0  0  0  0  0  0  0  # atno 10718 bound_to 10713
  154.2274  135.6367  153.5164 H   0  0  0  0  0  0  0  0  0  0  0  0  # atno 10763 bound_to 10752
  152.9956  135.5511  154.6050 H   0  0  0  0  0  0  0  0  0  0  0  0  # atno 10764 bound_to 10752
  154.5524  135.2902  155.0970 H   0  0  0  0  0  0  0  0  0  0  0  0  # atno 10765 bound_to 10752
  141.1658  133.7007  156.7763 H   0  0  0  0  0  0  0  0  0  0  0  0  # atno 11005 bound_to 11000
  145.7666  139.1842  143.2237 LP  0  0  0  0  0  0  0  0  0  0  0  0  # atno 17320 bound_to 7965
  146.0944  140.7617  142.9579 LP  0  0  0  0  0  0  0  0  0  0  0  0  # atno 17321 bound_to 7965
  140.5292  143.2247  151.8266 LP  0  0  0  0  0  0  0  0  0  0  0  0  # atno 17342 bound_to 10162
  139.4838  144.4742  151.9388 LP  0  0  0  0  0  0  0  0  0  0  0  0  # atno 17343 bound_to 10162
  156.8218  130.9361  151.3641 LP  0  0  0  0  0  0  0  0  0  0  0  0  # atno 17370 bound_to 10713
  157.6471  130.8853  149.9559 LP  0  0  0  0  0  0  0  0  0  0  0  0  # atno 17371 bound_to 10713
  140.2427  134.8601  157.3589 LP  0  0  0  0  0  0  0  0  0  0  0  0  # atno 17394 bound_to 11000
  140.1780  134.4525  155.7790 LP  0  0  0  0  0  0  0  0  0  0  0  0  # atno 17395 bound_to 11000

$$$$
