AV-unprocessed.smi:904|AV-procd|sdf|4098|dock9
  -GOLD-   22720 1593D 1   1.00000     0.00000
 Structure written by MMmdl.
 42 43  0  0  0  0  0  0  0  0  1 V2000
  151.8805  140.3164  156.3198 C   0  0  0  0  0  0  0  0  0  0  0  0
  152.2804  140.8156  157.6792 C   0  0  0  0  0  0  0  0  0  0  0  0
  153.2622  140.2093  158.3257 N   0  0  0  0  0  0  0  0  0  0  0  0
  153.3823  140.8876  159.4845 N   0  0  0  0  0  0  0  0  0  0  0  0
  154.3866  140.4777  160.4468 C   0  0  0  0  0  0  0  0  0  0  0  0
  152.4785  141.9288  159.5676 C   0  0  0  0  0  0  0  0  0  0  0  0
  152.4170  142.8393  160.7515 C   0  0  0  0  0  0  0  0  0  0  0  0
  151.7402  141.9124  158.4144 C   0  0  0  0  0  0  0  0  0  0  0  0
  150.6209  142.8359  158.0034 C   0  0  0  0  0  0  0  0  0  0  0  0
  149.4577  142.0174  157.4444 C   0  0  0  0  0  0  0  0  0  0  0  0
  148.7024  141.4174  158.2091 O   0  0  0  0  0  0  0  0  0  0  0  0
  149.3254  142.0060  156.1089 N   0  0  0  0  0  0  0  0  0  0  0  0
  148.2745  141.3182  155.3669 C   0  0  2  0  0  0  0  0  0  0  0  0
  148.3860  139.7920  155.5548 C   0  0  0  0  0  0  0  0  0  0  0  0
  147.3299  139.0424  154.7238 C   0  0  0  0  0  0  0  0  0  0  0  0
  147.3774  139.4267  153.2329 C   0  0  2  0  0  0  0  0  0  0  0  0
  148.5510  138.9108  152.6365 O   0  0  0  0  0  0  0  0  0  0  0  0
  147.3138  140.9535  153.0387 C   0  0  0  0  0  0  0  0  0  0  0  0
  148.3715  141.6925  153.8770 C   0  0  0  0  0  0  0  0  0  0  0  0
  152.3570  140.9044  155.5352 H   0  0  0  0  0  0  0  0  0  0  0  0
  150.8022  140.3829  156.1769 H   0  0  0  0  0  0  0  0  0  0  0  0
  152.1662  139.2741  156.1740 H   0  0  0  0  0  0  0  0  0  0  0  0
  153.9408  140.4115  161.4395 H   0  0  0  0  0  0  0  0  0  0  0  0
  155.1941  141.2099  160.4661 H   0  0  0  0  0  0  0  0  0  0  0  0
  154.7976  139.5023  160.1825 H   0  0  0  0  0  0  0  0  0  0  0  0
  151.8055  143.7172  160.5433 H   0  0  0  0  0  0  0  0  0  0  0  0
  153.4123  143.1883  161.0273 H   0  0  0  0  0  0  0  0  0  0  0  0
  151.9868  142.3256  161.6113 H   0  0  0  0  0  0  0  0  0  0  0  0
  150.2673  143.4358  158.8426 H   0  0  0  0  0  0  0  0  0  0  0  0
  150.9501  143.5489  157.2469 H   0  0  0  0  0  0  0  0  0  0  0  0
  149.9956  142.5299  155.5651 H   0  0  0  0  0  0  0  0  0  0  0  0
  147.3025  141.6504  155.7368 H   0  0  0  0  0  0  0  0  0  0  0  0
  149.3829  139.4560  155.2659 H   0  0  0  0  0  0  0  0  0  0  0  0
  148.2687  139.5331  156.6076 H   0  0  0  0  0  0  0  0  0  0  0  0
  147.4546  137.9655  154.8420 H   0  0  0  0  0  0  0  0  0  0  0  0
  146.3406  139.2776  155.1187 H   0  0  0  0  0  0  0  0  0  0  0  0
  146.5324  138.9673  152.7190 H   0  0  0  0  0  0  0  0  0  0  0  0
  148.7809  139.4593  151.9018 H   0  0  0  0  0  0  0  0  0  0  0  0
  147.4274  141.2061  151.9840 H   0  0  0  0  0  0  0  0  0  0  0  0
  146.3240  141.3072  153.3298 H   0  0  0  0  0  0  0  0  0  0  0  0
  148.2478  142.7691  153.7540 H   0  0  0  0  0  0  0  0  0  0  0  0
  149.3669  141.4537  153.4994 H   0  0  0  0  0  0  0  0  0  0  0  0
  1  2  1  0  0  0  0
  1 20  1  0  0  0  0
  1 21  1  0  0  0  0
  1 22  1  0  0  0  0
  2  8  1  0  0  0  0
  2  3  2  0  0  0  0
  3  4  1  0  0  0  0
  4  5  1  0  0  0  0
  4  6  1  0  0  0  0
  5 23  1  0  0  0  0
  5 24  1  0  0  0  0
  5 25  1  0  0  0  0
  6  7  1  0  0  0  0
  6  8  2  0  0  0  0
  7 26  1  0  0  0  0
  7 27  1  0  0  0  0
  7 28  1  0  0  0  0
  8  9  1  0  0  0  0
  9 10  1  0  0  0  0
  9 29  1  0  0  0  0
  9 30  1  0  0  0  0
 10 11  2  0  0  0  0
 10 12  1  0  0  0  0
 12 13  1  0  0  0  0
 12 31  1  0  0  0  0
 13 19  1  0  0  0  0
 13 14  1  0  0  0  0
 13 32  1  0  0  0  0
 14 15  1  0  0  0  0
 14 33  1  0  0  0  0
 14 34  1  0  0  0  0
 15 16  1  0  0  0  0
 15 35  1  0  0  0  0
 15 36  1  0  0  0  0
 16 17  1  0  0  0  0
 16 18  1  0  0  0  0
 16 37  1  0  0  0  0
 17 38  1  0  0  0  0
 18 19  1  0  0  0  0
 18 39  1  0  0  0  0
 18 40  1  0  0  0  0
 19 41  1  0  0  0  0
 19 42  1  0  0  0  0
M  END
> <s_m_source_file>
AV-unprocessed.smi

> <i_m_source_file_index>
904

> <i_lp_mmshare_version>
43012

> <i_f3d_flags>
0

> <s_epik_input>
W0NIM11jMW5uKFtDSDNdKWMoW0NIM10pYzFbQ0gyXUMoPU8pW05IXVtDQEBIXTJbQ0gyXVtDSDJdW0NAQEhdKFtPSF0pW0NIMl1bQ0gyXTI=

> <s_epik_cmdline>
J2VwaWtfcHl0aG9uJywgJy1waCcsICc3LjAnLCAnLXRuJywgJzgnLCAnLW1hJywgJzIwMCcsICctbWV0YWxfYmluZGluZycsICctaW1hZScsICc8aW5maWxlLm1hZT4nLCAnLW9tYWUnLCAnPG91dGZpbGUubWFlPic=

> <r_lp_tautomer_probability>
1

> <r_epik_Ionization_Penalty>
0.00340889

> <r_epik_Ionization_Penalty_Charging>
0

> <r_epik_Ionization_Penalty_Neutral>
0.00340889

> <r_epik_State_Penalty>
0.00241397

> <r_epik_Charging_Adjusted_Penalty>
0.00241397

> <i_epik_Tot_Q>
0

> <i_epik_Tot_abs_Q>
0

> <r_epik_Metal_State_Penalty>
-0

> <b_epik_Metal_Only>
0

> <s_lp_Force_Field>
OPLS_2005

> <r_lp_Energy>
4.71478

> <b_lp_Chiralities_Consistent>
1

> <s_lp_Variant>
AV-unprocessed.smi:904-2

> <Gold.Version>
5.8.1

> <Gold.Id.Protein>
6NUR|6NUR_protein|mol2

> <Gold.PLP.Fitness>
41.2121

> <Gold.PLP.PLP>
-36.1057

> <Gold.PLP.part.hbond>
-4.2435

> <Gold.PLP.part.metal>
0.0000

> <Gold.PLP.part.buried>
-4.0426

> <Gold.PLP.part.nonpolar>
-27.0786

> <Gold.PLP.part.repulsive>
0.1301

> <Gold.PLP.ligand.clash>
0.0000

> <Gold.PLP.ligand.torsion>
0.4365

> <Gold.PLP.Chemscore.Hbond>
1.9920

> <Gold.PLP.Chemscore.CHOScore>
0.0000

> <Gold.PLP.Chemscore.Metal>
0.0000

> <Gold.Chemscore.Hbonds>
donor molecule, donor type, donor heavy atom, donor atom, acceptor molecule, acceptor atom, score
      L1  H    17    38       P1  7957  0.26
      P1  H  7997  8008       L1     3  0.96

> <Gold.PLP.Chemscore.Internal.Correction>
0.0035

> <Gold.Rescore>
     Score         DG    S(hbond)    S(metal)    S(lipo)     H(rot)  DE(clash)    DE(int)     intcor
     15.84     -16.21       1.60        0.00      86.30       1.84       0.02       0.35       ----

> <Gold.Chemscore.Fitness>
15.8373

> <Gold.Chemscore.DG>
-16.2120

> <Gold.Chemscore.ZeroCoef>
-5.4800

> <Gold.Chemscore.Hbond>
1.6007

> <Gold.Chemscore.Metal>
0.0000

> <Gold.Chemscore.Lipo>
86.3020

> <Gold.Chemscore.Internal_Hbond>
0.0000

> <Gold.Chemscore.DEClash>
0.0234

> <Gold.Chemscore.DEInternal>
0.3512

> <Gold.Chemscore.Rot>
1.8406

> <Gold.Chemscore.Internal.Correction>
   9.000000E+99

> <Gold.Chemscore.Hbonds>
donor molecule, donor type, donor heavy atom, donor atom, acceptor molecule, acceptor atom, score
      L1  H    17    38       P1  7957  0.26
      P1  H  7997  8008       L1     3  0.41

> <Gold.Chemscore.Hbond.Weighted>
-5.3465

> <Gold.Chemscore.Metal.Weighted>
-0.0000

> <Gold.Chemscore.Lipo.Weighted>
-10.0973

> <Gold.Chemscore.Internal_Hbond.Weighted>
0.0000

> <Gold.Chemscore.DEClash.Weighted>
0.0234

> <Gold.Chemscore.DEInternal.Weighted>
0.3512

> <Gold.Chemscore.Rot.Weighted>
4.7118

> <Gold.Chemscore.Internal.Correction.Weighted>
   9.000000E+99

> <Gold.Protein.RotatedTorsions>
[ 6907 6896 6895 6894 ] final   43.23 input  -60.11 | X-H torsion
[ 7974 7965 7964 7962 ] final  -67.28 input  175.53 | X-H torsion
[ 8008 7997 7996 7995 ] final  -86.83 input   59.86 | X-H torsion
[ 10167 10162 10161 10158 ] final -116.96 input  -65.29 | X-H torsion
[ 10718 10713 10712 10709 ] final -175.30 input   66.30 | X-H torsion
[ 10763 10752 10751 10750 ] final   15.70 input  -60.55 | X-H torsion
[ 11005 11000 10999 10996 ] final  -72.57 input  -57.11 | X-H torsion

> <Gold.Protein.ActiveResidues>
 VAL166  LYS551  ARG553  GLY616  TRP617  ASP618  TYR619  PRO620  LYS621  CYS622 
 ASP623  PHE694  ASN695  SER759  ASP760  ASP761  ALA762  ILE779  LEU786  VAL792 
 PHE793  MET794  SER795  GLU796  ALA797  LYS798  CYS799  TRP800  GLU811  SER814 

> <Gold.Protein.RotatedAtoms>
  152.2177  134.8442  160.0489 H   0  0  0  0  0  0  0  0  0  0  0  0  # atno 6907 bound_to 6896
  151.9237  133.3587  159.3914 H   0  0  0  0  0  0  0  0  0  0  0  0  # atno 6908 bound_to 6896
  150.6992  134.4534  159.5391 H   0  0  0  0  0  0  0  0  0  0  0  0  # atno 6909 bound_to 6896
  145.7312  140.8996  143.0579 H   0  0  0  0  0  0  0  0  0  0  0  0  # atno 7974 bound_to 7965
  154.6564  140.0573  157.0013 H   0  0  0  0  0  0  0  0  0  0  0  0  # atno 8008 bound_to 7997
  155.1294  140.3255  155.4459 H   0  0  0  0  0  0  0  0  0  0  0  0  # atno 8009 bound_to 7997
  156.2599  140.1983  156.6414 H   0  0  0  0  0  0  0  0  0  0  0  0  # atno 8010 bound_to 7997
  140.0736  143.4854  152.1966 H   0  0  0  0  0  0  0  0  0  0  0  0  # atno 10167 bound_to 10162
  156.7978  130.9541  151.3119 H   0  0  0  0  0  0  0  0  0  0  0  0  # atno 10718 bound_to 10713
  153.1500  135.6776  153.8896 H   0  0  0  0  0  0  0  0  0  0  0  0  # atno 10763 bound_to 10752
  153.8325  135.3116  155.3421 H   0  0  0  0  0  0  0  0  0  0  0  0  # atno 10764 bound_to 10752
  154.7855  135.4864  154.0023 H   0  0  0  0  0  0  0  0  0  0  0  0  # atno 10765 bound_to 10752
  141.1610  133.6851  156.7079 H   0  0  0  0  0  0  0  0  0  0  0  0  # atno 11005 bound_to 11000
  144.6892  139.9334  143.7472 LP  0  0  0  0  0  0  0  0  0  0  0  0  # atno 17320 bound_to 7965
  146.0535  139.3534  143.0624 LP  0  0  0  0  0  0  0  0  0  0  0  0  # atno 17321 bound_to 7965
  139.5821  144.7515  151.3613 LP  0  0  0  0  0  0  0  0  0  0  0  0  # atno 17342 bound_to 10162
  140.7113  143.7382  150.7572 LP  0  0  0  0  0  0  0  0  0  0  0  0  # atno 17343 bound_to 10162
  157.6569  130.8932  149.9747 LP  0  0  0  0  0  0  0  0  0  0  0  0  # atno 17370 bound_to 10713
  156.1120  130.3649  150.0033 LP  0  0  0  0  0  0  0  0  0  0  0  0  # atno 17371 bound_to 10713
  140.2909  134.8241  157.4016 LP  0  0  0  0  0  0  0  0  0  0  0  0  # atno 17394 bound_to 11000
  140.1347  134.5049  155.8077 LP  0  0  0  0  0  0  0  0  0  0  0  0  # atno 17395 bound_to 11000

$$$$
