AV-unprocessed.smi:3326|AV-procd|sdf|12785|dock7
  -GOLD-   2272019133D 1   1.00000     0.00000
 Structure written by MMmdl.
 30 31  0  0  0  0  0  0  0  0  1 V2000
  152.5538  145.4111  160.0540 F   0  0  0  0  0  0  0  0  0  0  0  0
  152.2614  144.4933  159.1316 C   0  0  0  0  0  0  0  0  0  0  0  0
  150.9548  144.5670  158.8760 F   0  0  0  0  0  0  0  0  0  0  0  0
  152.9376  144.7924  158.0223 F   0  0  0  0  0  0  0  0  0  0  0  0
  152.6225  143.0856  159.6002 C   0  0  0  0  0  0  0  0  0  0  0  0
  153.2732  142.8899  160.8398 C   0  0  0  0  0  0  0  0  0  0  0  0
  153.5925  141.5840  161.2538 C   0  0  0  0  0  0  0  0  0  0  0  0
  153.2482  140.5147  160.4085 C   0  0  0  0  0  0  0  0  0  0  0  0
  152.6278  140.6833  159.2232 N   0  0  0  0  0  0  0  0  0  0  0  0
  152.3162  141.9394  158.8205 C   0  0  0  0  0  0  0  0  0  0  0  0
  151.6740  142.0904  157.5799 N   0  0  0  0  0  0  0  0  0  0  0  0
  151.2700  140.9323  156.7916 C   0  0  0  0  0  0  0  0  0  0  0  0
  150.3078  141.3114  155.6544 C   0  0  2  0  0  0  0  0  0  0  0  0
  148.9031  141.6616  156.1360 C   0  0  0  0  0  0  0  0  0  0  0  0
  148.0892  141.4316  154.8827 C   0  0  0  0  0  0  0  0  0  0  0  0
  148.7755  140.2114  154.2714 C   0  0  0  0  0  0  0  0  0  0  0  0
  150.1075  140.2040  154.7809 O   0  0  0  0  0  0  0  0  0  0  0  0
  153.5289  143.7245  161.4754 H   0  0  0  0  0  0  0  0  0  0  0  0
  154.0892  141.4072  162.1963 H   0  0  0  0  0  0  0  0  0  0  0  0
  153.4772  139.4977  160.6905 H   0  0  0  0  0  0  0  0  0  0  0  0
  151.2061  142.9647  157.3886 H   0  0  0  0  0  0  0  0  0  0  0  0
  152.1658  140.4683  156.3784 H   0  0  0  0  0  0  0  0  0  0  0  0
  150.8146  140.1840  157.4409 H   0  0  0  0  0  0  0  0  0  0  0  0
  150.6993  142.1462  155.0706 H   0  0  0  0  0  0  0  0  0  0  0  0
  148.5826  140.9759  156.9220 H   0  0  0  0  0  0  0  0  0  0  0  0
  148.8256  142.6805  156.5163 H   0  0  0  0  0  0  0  0  0  0  0  0
  147.0293  141.2705  155.0811 H   0  0  0  0  0  0  0  0  0  0  0  0
  148.1852  142.2888  154.2148 H   0  0  0  0  0  0  0  0  0  0  0  0
  148.2803  139.2921  154.5853 H   0  0  0  0  0  0  0  0  0  0  0  0
  148.7700  140.2433  153.1813 H   0  0  0  0  0  0  0  0  0  0  0  0
  1  2  1  0  0  0  0
  2  3  1  0  0  0  0
  2  4  1  0  0  0  0
  2  5  1  0  0  0  0
  5 10  1  0  0  0  0
  5  6  2  0  0  0  0
  6  7  1  0  0  0  0
  6 18  1  0  0  0  0
  7  8  2  0  0  0  0
  7 19  1  0  0  0  0
  8  9  1  0  0  0  0
  8 20  1  0  0  0  0
  9 10  2  0  0  0  0
 10 11  1  0  0  0  0
 11 12  1  0  0  0  0
 11 21  1  0  0  0  0
 12 13  1  0  0  0  0
 12 22  1  0  0  0  0
 12 23  1  0  0  0  0
 13 17  1  0  0  0  0
 13 14  1  0  0  0  0
 13 24  1  0  0  0  0
 14 15  1  0  0  0  0
 14 25  1  0  0  0  0
 14 26  1  0  0  0  0
 15 16  1  0  0  0  0
 15 27  1  0  0  0  0
 15 28  1  0  0  0  0
 16 17  1  0  0  0  0
 16 29  1  0  0  0  0
 16 30  1  0  0  0  0
M  END
> <s_m_source_file>
AV-unprocessed.smi

> <i_m_source_file_index>
3326

> <i_lp_mmshare_version>
43012

> <i_f3d_flags>
0

> <s_epik_input>
RkMoRikoRiljMVtjSF1bY0hdW2NIXW5jMVtOSF1bQ0gyXVtDQEBIXTJbQ0gyXVtDSDJdW0NIMl1PMg==

> <s_epik_cmdline>
J2VwaWtfcHl0aG9uJywgJy1waCcsICc3LjAnLCAnLXRuJywgJzgnLCAnLW1hJywgJzIwMCcsICctbWV0YWxfYmluZGluZycsICctaW1hZScsICc8aW5maWxlLm1hZT4nLCAnLW9tYWUnLCAnPG91dGZpbGUubWFlPic=

> <r_lp_tautomer_probability>
1

> <r_epik_Ionization_Penalty>
0.000820218

> <r_epik_Ionization_Penalty_Charging>
0

> <r_epik_Ionization_Penalty_Neutral>
0.000820218

> <r_epik_State_Penalty>
0.000527207

> <r_epik_Charging_Adjusted_Penalty>
0.000527207

> <i_epik_Tot_Q>
0

> <i_epik_Tot_abs_Q>
0

> <r_epik_Metal_State_Penalty>
-0

> <b_epik_Metal_Only>
0

> <s_lp_Force_Field>
OPLS_2005

> <r_lp_Energy>
21.819

> <b_lp_Chiralities_Consistent>
1

> <s_lp_Variant>
AV-unprocessed.smi:3326-1

> <Gold.Version>
5.8.1

> <Gold.Id.Protein>
6NUR|6NUR_protein|mol2

> <Gold.PLP.Fitness>
46.5456

> <Gold.PLP.PLP>
-43.8693

> <Gold.PLP.part.hbond>
-1.0000

> <Gold.PLP.part.metal>
0.0000

> <Gold.PLP.part.buried>
-3.8034

> <Gold.PLP.part.nonpolar>
-37.8103

> <Gold.PLP.part.repulsive>
0.1465

> <Gold.PLP.ligand.clash>
0.4705

> <Gold.PLP.ligand.torsion>
0.1982

> <Gold.PLP.Chemscore.Hbond>
1.0000

> <Gold.PLP.Chemscore.CHOScore>
0.0000

> <Gold.PLP.Chemscore.Metal>
0.0000

> <Gold.Chemscore.Hbonds>
donor molecule, donor type, donor heavy atom, donor atom, acceptor molecule, acceptor atom, score
      P1  H  7989  7998       L1    17  0.46

> <Gold.PLP.Chemscore.Internal.Correction>
0.5431

> <Gold.Rescore>
     Score         DG    S(hbond)    S(metal)    S(lipo)     H(rot)  DE(clash)    DE(int)     intcor
     10.54     -12.35       0.00        0.00      86.12       1.25       0.08       1.73       ----

> <Gold.Chemscore.Fitness>
10.5406

> <Gold.Chemscore.DG>
-12.3521

> <Gold.Chemscore.ZeroCoef>
-5.4800

> <Gold.Chemscore.Hbond>
0.0000

> <Gold.Chemscore.Metal>
0.0000

> <Gold.Chemscore.Lipo>
86.1164

> <Gold.Chemscore.Internal_Hbond>
0.0000

> <Gold.Chemscore.DEClash>
0.0818

> <Gold.Chemscore.DEInternal>
1.7297

> <Gold.Chemscore.Rot>
1.2514

> <Gold.Chemscore.Internal.Correction>
   9.000000E+99

> <Gold.Chemscore.Hbonds>
donor molecule, donor type, donor heavy atom, donor atom, acceptor molecule, acceptor atom, score
      P1  H  7989  7998       L1    17  0.02

> <Gold.Chemscore.Hbond.Weighted>
-0.0000

> <Gold.Chemscore.Metal.Weighted>
-0.0000

> <Gold.Chemscore.Lipo.Weighted>
-10.0756

> <Gold.Chemscore.Internal_Hbond.Weighted>
0.0000

> <Gold.Chemscore.DEClash.Weighted>
0.0818

> <Gold.Chemscore.DEInternal.Weighted>
1.7297

> <Gold.Chemscore.Rot.Weighted>
3.2036

> <Gold.Chemscore.Internal.Correction.Weighted>
   9.000000E+99

> <Gold.Protein.RotatedTorsions>
[ 6907 6896 6895 6894 ] final -132.31 input  -60.11 | X-H torsion
[ 7974 7965 7964 7962 ] final  -92.30 input  175.53 | X-H torsion
[ 8008 7997 7996 7995 ] final  -10.69 input   59.86 | X-H torsion
[ 10167 10162 10161 10158 ] final   39.96 input  -65.29 | X-H torsion
[ 10718 10713 10712 10709 ] final -154.71 input   66.30 | X-H torsion
[ 10763 10752 10751 10750 ] final -112.30 input  -60.55 | X-H torsion
[ 11005 11000 10999 10996 ] final  119.87 input  -57.11 | X-H torsion

> <Gold.Protein.ActiveResidues>
 VAL166  LYS551  ARG553  GLY616  TRP617  ASP618  TYR619  PRO620  LYS621  CYS622 
 ASP623  PHE694  ASN695  SER759  ASP760  ASP761  ALA762  ILE779  LEU786  VAL792 
 PHE793  MET794  SER795  GLU796  ALA797  LYS798  CYS799  TRP800  GLU811  SER814 

> <Gold.Protein.RotatedAtoms>
  150.9609  133.6446  159.2754 H   0  0  0  0  0  0  0  0  0  0  0  0  # atno 6907 bound_to 6896
  151.3769  135.0932  159.9493 H   0  0  0  0  0  0  0  0  0  0  0  0  # atno 6908 bound_to 6896
  152.5147  133.9151  159.7562 H   0  0  0  0  0  0  0  0  0  0  0  0  # atno 6909 bound_to 6896
  145.4017  140.9538  143.2283 H   0  0  0  0  0  0  0  0  0  0  0  0  # atno 7974 bound_to 7965
  154.5531  140.2322  155.8452 H   0  0  0  0  0  0  0  0  0  0  0  0  # atno 8008 bound_to 7997
  156.1965  140.3064  155.9398 H   0  0  0  0  0  0  0  0  0  0  0  0  # atno 8009 bound_to 7997
  155.3031  140.0432  157.3021 H   0  0  0  0  0  0  0  0  0  0  0  0  # atno 8010 bound_to 7997
  140.3788  144.2007  150.6131 H   0  0  0  0  0  0  0  0  0  0  0  0  # atno 10167 bound_to 10162
  156.5030  130.8400  151.2616 H   0  0  0  0  0  0  0  0  0  0  0  0  # atno 10718 bound_to 10713
  154.8343  135.4496  154.1172 H   0  0  0  0  0  0  0  0  0  0  0  0  # atno 10763 bound_to 10752
  153.2418  135.6917  153.7781 H   0  0  0  0  0  0  0  0  0  0  0  0  # atno 10764 bound_to 10752
  153.7125  135.3354  155.3225 H   0  0  0  0  0  0  0  0  0  0  0  0  # atno 10765 bound_to 10752
  139.9163  134.9631  156.7720 H   0  0  0  0  0  0  0  0  0  0  0  0  # atno 11005 bound_to 11000
  144.8369  139.5535  143.6918 LP  0  0  0  0  0  0  0  0  0  0  0  0  # atno 17320 bound_to 7965
  146.2748  139.6726  142.9270 LP  0  0  0  0  0  0  0  0  0  0  0  0  # atno 17321 bound_to 7965
  140.4958  143.2333  151.8751 LP  0  0  0  0  0  0  0  0  0  0  0  0  # atno 17342 bound_to 10162
  139.4797  144.5115  151.8926 LP  0  0  0  0  0  0  0  0  0  0  0  0  # atno 17343 bound_to 10162
  157.7460  130.9975  150.2819 LP  0  0  0  0  0  0  0  0  0  0  0  0  # atno 17370 bound_to 10713
  156.3314  130.3801  149.7487 LP  0  0  0  0  0  0  0  0  0  0  0  0  # atno 17371 bound_to 10713
  140.6613  133.9643  155.7806 LP  0  0  0  0  0  0  0  0  0  0  0  0  # atno 17394 bound_to 11000
  141.0641  134.0302  157.3617 LP  0  0  0  0  0  0  0  0  0  0  0  0  # atno 17395 bound_to 11000

$$$$
