AV-unprocessed.smi:634|AV-procd|sdf|3134|dock9
  -GOLD-   22720 0 63D 1   1.00000     0.00000
 Structure written by MMmdl.
 33 34  0  0  0  0  0  0  0  0  1 V2000
  147.8524  130.0960  153.9927 C   0  0  0  0  0  0  0  0  0  0  0  0
  147.9057  131.5430  154.3456 C   0  0  0  0  0  0  0  0  0  0  0  0
  148.5423  132.6150  153.7857 C   0  0  0  0  0  0  0  0  0  0  0  0
  148.1598  133.6912  154.6303 C   0  0  0  0  0  0  0  0  0  0  0  0
  148.6196  135.0101  154.3832 N   0  0  0  0  0  0  0  0  0  0  0  0
  148.8751  135.9717  155.2869 C   0  0  0  0  0  0  0  0  0  0  0  0
  148.7597  135.8429  156.5057 O   0  0  0  0  0  0  0  0  0  0  0  0
  149.2776  137.1042  154.6860 N   0  0  0  0  0  0  0  0  0  0  0  0
  149.6486  138.3831  155.3086 C   0  0  2  0  0  0  0  0  0  0  0  0
  148.4488  139.3546  155.3030 C   0  0  0  0  0  0  0  0  0  0  0  0
  150.8081  138.9782  154.4733 C   0  0  0  0  0  0  0  0  0  0  0  0
  152.1113  138.2382  154.7968 C   0  0  0  0  0  0  0  0  0  0  0  0
  151.9909  137.7818  156.5635 S   0  0  0  0  0  0  0  0  0  0  0  0
  152.1944  136.3313  156.6957 O   0  0  0  0  0  0  0  0  0  0  0  0
  152.7687  138.7332  157.3715 O   0  0  0  0  0  0  0  0  0  0  0  0
  150.2067  138.1702  156.7366 C   0  0  0  0  0  0  0  0  0  0  0  0
  147.3621  133.3104  155.6163 N   0  0  0  0  0  0  0  0  0  0  0  0
  147.1958  131.9319  155.4392 O   0  0  0  0  0  0  0  0  0  0  0  0
  148.2063  129.9296  152.9752 H   0  0  0  0  0  0  0  0  0  0  0  0
  146.8326  129.7171  154.0609 H   0  0  0  0  0  0  0  0  0  0  0  0
  148.4767  129.5112  154.6682 H   0  0  0  0  0  0  0  0  0  0  0  0
  149.1778  132.6238  152.9126 H   0  0  0  0  0  0  0  0  0  0  0  0
  148.7621  135.2490  153.4132 H   0  0  0  0  0  0  0  0  0  0  0  0
  149.3349  137.0836  153.6783 H   0  0  0  0  0  0  0  0  0  0  0  0
  148.7373  140.3416  155.6657 H   0  0  0  0  0  0  0  0  0  0  0  0
  147.6380  139.0076  155.9436 H   0  0  0  0  0  0  0  0  0  0  0  0
  148.0464  139.4812  154.2975 H   0  0  0  0  0  0  0  0  0  0  0  0
  150.5967  138.9632  153.4033 H   0  0  0  0  0  0  0  0  0  0  0  0
  150.9420  140.0263  154.7450 H   0  0  0  0  0  0  0  0  0  0  0  0
  152.1931  137.3198  154.2154 H   0  0  0  0  0  0  0  0  0  0  0  0
  153.0014  138.8426  154.6220 H   0  0  0  0  0  0  0  0  0  0  0  0
  150.1353  139.0913  157.3158 H   0  0  0  0  0  0  0  0  0  0  0  0
  149.7094  137.3866  157.3075 H   0  0  0  0  0  0  0  0  0  0  0  0
  1  2  1  0  0  0  0
  1 19  1  0  0  0  0
  1 20  1  0  0  0  0
  1 21  1  0  0  0  0
  2 18  1  0  0  0  0
  2  3  2  0  0  0  0
  3  4  1  0  0  0  0
  3 22  1  0  0  0  0
  4  5  1  0  0  0  0
  4 17  2  0  0  0  0
  5  6  1  0  0  0  0
  5 23  1  0  0  0  0
  6  7  2  0  0  0  0
  6  8  1  0  0  0  0
  8  9  1  0  0  0  0
  8 24  1  0  0  0  0
  9 16  1  0  0  0  0
  9 10  1  0  0  0  0
  9 11  1  0  0  0  0
 10 25  1  0  0  0  0
 10 26  1  0  0  0  0
 10 27  1  0  0  0  0
 11 12  1  0  0  0  0
 11 28  1  0  0  0  0
 11 29  1  0  0  0  0
 12 13  1  0  0  0  0
 12 30  1  0  0  0  0
 12 31  1  0  0  0  0
 13 14  2  0  0  0  0
 13 15  2  0  0  0  0
 13 16  1  0  0  0  0
 16 32  1  0  0  0  0
 16 33  1  0  0  0  0
 17 18  1  0  0  0  0
M  END
> <s_m_source_file>
AV-unprocessed.smi

> <i_m_source_file_index>
634

> <i_lp_mmshare_version>
43012

> <i_f3d_flags>
0

> <s_epik_input>
W0NIM11jMVtjSF1jKG5vMSlbTkhdQyg9TylbTkhdW0NAQF0yKFtDSDNdKVtDSDJdW0NIMl1TKD1PKSg9TylbQ0gyXTI=

> <s_epik_cmdline>
J2VwaWtfcHl0aG9uJywgJy1waCcsICc3LjAnLCAnLXRuJywgJzgnLCAnLW1hJywgJzIwMCcsICctbWV0YWxfYmluZGluZycsICctaW1hZScsICc8aW5maWxlLm1hZT4nLCAnLW9tYWUnLCAnPG91dGZpbGUubWFlPic=

> <r_lp_tautomer_probability>
1

> <r_epik_Ionization_Penalty>
3.87281e-05

> <r_epik_Ionization_Penalty_Charging>
0

> <r_epik_Ionization_Penalty_Neutral>
3.87281e-05

> <r_epik_State_Penalty>
-0

> <r_epik_Charging_Adjusted_Penalty>
0

> <i_epik_Tot_Q>
0

> <i_epik_Tot_abs_Q>
0

> <r_epik_Metal_State_Penalty>
0.0249287

> <b_epik_Metal_Only>
0

> <s_lp_Force_Field>
OPLS_2005

> <r_lp_Energy>
3.31823

> <b_lp_Chiralities_Consistent>
1

> <s_lp_Variant>
AV-unprocessed.smi:634-2

> <Gold.Version>
5.8.1

> <Gold.Id.Protein>
6NUR|6NUR_protein|mol2

> <Gold.PLP.Fitness>
34.1347

> <Gold.PLP.PLP>
-23.5847

> <Gold.PLP.part.hbond>
-3.8958

> <Gold.PLP.part.metal>
0.0000

> <Gold.PLP.part.buried>
-3.9110

> <Gold.PLP.part.nonpolar>
-15.8823

> <Gold.PLP.part.repulsive>
0.0429

> <Gold.PLP.ligand.clash>
0.0000

> <Gold.PLP.ligand.torsion>
0.7319

> <Gold.PLP.Chemscore.Hbond>
4.0000

> <Gold.PLP.Chemscore.CHOScore>
0.0000

> <Gold.PLP.Chemscore.Metal>
0.0000

> <Gold.Chemscore.Hbonds>
donor molecule, donor type, donor heavy atom, donor atom, acceptor molecule, acceptor atom, score
      L1  H     5    23       P1  7948  1.00
      L1  H     8    24       P1  7948  1.00
      P1  H  7997  8010       L1    15  0.41
      P1  H 10752 10765       L1    14  0.86

> <Gold.PLP.Chemscore.Internal.Correction>
0.0139

> <Gold.Rescore>
     Score         DG    S(hbond)    S(metal)    S(lipo)     H(rot)  DE(clash)    DE(int)     intcor
     17.51     -20.74       3.80        0.00      43.87       1.00       0.12       3.11       ----

> <Gold.Chemscore.Fitness>
17.5066

> <Gold.Chemscore.DG>
-20.7392

> <Gold.Chemscore.ZeroCoef>
-5.4800

> <Gold.Chemscore.Hbond>
3.7983

> <Gold.Chemscore.Metal>
0.0000

> <Gold.Chemscore.Lipo>
43.8694

> <Gold.Chemscore.Internal_Hbond>
0.0000

> <Gold.Chemscore.DEClash>
0.1181

> <Gold.Chemscore.DEInternal>
3.1145

> <Gold.Chemscore.Rot>
1.0000

> <Gold.Chemscore.Internal.Correction>
   9.000000E+99

> <Gold.Chemscore.Hbonds>
donor molecule, donor type, donor heavy atom, donor atom, acceptor molecule, acceptor atom, score
      L1  H     5    23       P1  7948  0.74
      L1  H     8    24       P1  7948  0.89
      P1  H  7997  8010       L1    15  0.40
      P1  H 10752 10765       L1    14  0.79

> <Gold.Chemscore.Hbond.Weighted>
-12.6865

> <Gold.Chemscore.Metal.Weighted>
-0.0000

> <Gold.Chemscore.Lipo.Weighted>
-5.1327

> <Gold.Chemscore.Internal_Hbond.Weighted>
0.0000

> <Gold.Chemscore.DEClash.Weighted>
0.1181

> <Gold.Chemscore.DEInternal.Weighted>
3.1145

> <Gold.Chemscore.Rot.Weighted>
2.5600

> <Gold.Chemscore.Internal.Correction.Weighted>
   9.000000E+99

> <Gold.Protein.RotatedTorsions>
[ 6907 6896 6895 6894 ] final   50.16 input  -60.11 | X-H torsion
[ 7974 7965 7964 7962 ] final   72.61 input  175.53 | X-H torsion
[ 8008 7997 7996 7995 ] final   70.59 input   59.86 | X-H torsion
[ 10167 10162 10161 10158 ] final  101.32 input  -65.29 | X-H torsion
[ 10718 10713 10712 10709 ] final   49.48 input   66.30 | X-H torsion
[ 10763 10752 10751 10750 ] final -129.00 input  -60.55 | X-H torsion
[ 11005 11000 10999 10996 ] final  -51.97 input  -57.11 | X-H torsion

> <Gold.Protein.ActiveResidues>
 VAL166  LYS551  ARG553  GLY616  TRP617  ASP618  TYR619  PRO620  LYS621  CYS622 
 ASP623  PHE694  ASN695  SER759  ASP760  ASP761  ALA762  ILE779  LEU786  VAL792 
 PHE793  MET794  SER795  GLU796  ALA797  LYS798  CYS799  TRP800  GLU811  SER814 

> <Gold.Protein.RotatedAtoms>
  152.2987  134.7636  160.0362 H   0  0  0  0  0  0  0  0  0  0  0  0  # atno 6907 bound_to 6896
  151.8157  133.3382  159.3577 H   0  0  0  0  0  0  0  0  0  0  0  0  # atno 6908 bound_to 6896
  150.7264  134.5551  159.5858 H   0  0  0  0  0  0  0  0  0  0  0  0  # atno 6909 bound_to 6896
  145.7512  139.2760  143.1430 H   0  0  0  0  0  0  0  0  0  0  0  0  # atno 7974 bound_to 7965
  155.7411  140.3490  155.5105 H   0  0  0  0  0  0  0  0  0  0  0  0  # atno 8008 bound_to 7997
  155.9093  140.1047  157.1313 H   0  0  0  0  0  0  0  0  0  0  0  0  # atno 8009 bound_to 7997
  154.4054  140.1271  156.4524 H   0  0  0  0  0  0  0  0  0  0  0  0  # atno 8010 bound_to 7997
  139.7448  144.7001  151.0520 H   0  0  0  0  0  0  0  0  0  0  0  0  # atno 10167 bound_to 10162
  157.4791  130.8303  149.8072 H   0  0  0  0  0  0  0  0  0  0  0  0  # atno 10718 bound_to 10713
  154.8757  135.3910  154.3848 H   0  0  0  0  0  0  0  0  0  0  0  0  # atno 10763 bound_to 10752
  153.4591  135.7029  153.6066 H   0  0  0  0  0  0  0  0  0  0  0  0  # atno 10764 bound_to 10752
  153.4573  135.3820  155.2286 H   0  0  0  0  0  0  0  0  0  0  0  0  # atno 10765 bound_to 10752
  141.0899  133.6634  156.3956 H   0  0  0  0  0  0  0  0  0  0  0  0  # atno 11005 bound_to 11000
  146.0355  140.8216  142.9854 LP  0  0  0  0  0  0  0  0  0  0  0  0  # atno 17320 bound_to 7965
  144.6849  140.2832  143.7289 LP  0  0  0  0  0  0  0  0  0  0  0  0  # atno 17321 bound_to 7965
  140.7790  143.4880  150.9931 LP  0  0  0  0  0  0  0  0  0  0  0  0  # atno 17342 bound_to 10162
  139.8568  143.7366  152.3175 LP  0  0  0  0  0  0  0  0  0  0  0  0  # atno 17343 bound_to 10162
  156.0112  130.3832  150.2259 LP  0  0  0  0  0  0  0  0  0  0  0  0  # atno 17370 bound_to 10713
  157.0445  131.0044  151.3273 LP  0  0  0  0  0  0  0  0  0  0  0  0  # atno 17371 bound_to 10713
  140.5275  134.6244  157.5339 LP  0  0  0  0  0  0  0  0  0  0  0  0  # atno 17394 bound_to 11000
  139.9724  134.7271  156.0016 LP  0  0  0  0  0  0  0  0  0  0  0  0  # atno 17395 bound_to 11000

$$$$
