#       Name:                AV-unprocessed.smi:464
#       Creating user name   scv26
#       Creation time:       Thu Mar 26 23:04:38 2020


#       File generated by GOLD software.
#

@<TRIPOS>MOLECULE
AV-unprocessed.smi:464
    31    32     1
SMALL
NO_CHARGES


@<TRIPOS>ATOM
      1 ****        -4.7387   1.2915  -0.0183 O.2            1 S1                 0.0000
      2 ****        -3.6248   0.7724  -0.0146 C.2            1 S1                 0.0000
      3 ****        -3.4183  -0.5773  -0.0158 N.pl3          1 S1                -1.0000
      4 ****        -2.1336  -0.9895  -0.0087 C.2            1 S1                 0.0000
      5 ****        -1.0025  -0.1979  -0.0012 C.2            1 S1                 0.0000
      6 ****         0.2926  -0.6915   0.0081 N.pl3          1 S1                 0.0000
      7 ****         1.0749  -0.8508   1.2256 C.3            1 S1                 0.0000
      8 ****         2.3124   0.0635   1.1823 C.3            1 S1                 0.0000
      9 ****         3.0682  -0.2095   0.0051 O.3            1 S1                 0.0000
     10 ****         2.3159   0.0279  -1.1821 C.3            1 S1                 0.0000
     11 ****         1.0784  -0.8873  -1.2017 C.3            1 S1                 0.0000
     12 ****        -1.2329   1.2510  -0.0025 C.2            1 S1                 0.0000
     13 ****        -0.3442   2.1021   0.0016 O.2            1 S1                 0.0000
     14 ****        -2.5467   1.6068  -0.0089 N.am           1 S1                 0.0000
     15 ****        -2.7453   2.5963  -0.0091 H              1 S1                 0.0000
     16 ****        -1.9852  -2.0909  -0.0057 H              1 S1                 0.0000
     17 ****         0.4658  -0.6184   2.1002 H              1 S1                 0.0000
     18 ****         1.3776  -1.8943   1.3190 H              1 S1                 0.0000
     19 ****         2.0212   1.1148   1.2032 H              1 S1                 0.0000
     20 ****         2.9395  -0.1102   2.0565 H              1 S1                 0.0000
     21 ****         2.0254   1.0782  -1.2357 H              1 S1                 0.0000
     22 ****         2.9460  -0.1725  -2.0487 H              1 S1                 0.0000
     23 ****         1.3816  -1.9331  -1.2630 H              1 S1                 0.0000
     24 ****         0.4719  -0.6814  -2.0847 H              1 S1                 0.0000
     25 ****        -4.8261   2.2877  -0.0171 LP             1 S1                 0.0000
     26 ****        -5.5577   0.7177  -0.0226 LP             1 S1                 0.0000
     27 ****        -4.1792  -1.2261  -0.0217 LP             1 S1                 0.0000
     28 ****         3.3533  -1.1679   0.0199 LP             1 S1                 0.0000
     29 ****         3.8769   0.3787  -0.0026 LP             1 S1                 0.0000
     30 ****         0.6159   1.8225   0.0062 LP             1 S1                 0.0000
     31 ****        -0.5820   3.0734   0.0003 LP             1 S1                 0.0000
@<TRIPOS>BOND
    1    1    2 2     
    2    2   14 am    
    3    2    3 1     
    4    3    4 1     
    5    4    5 2     
    6    4   16 1     
    7    5    6 1     
    8    5   12 1     
    9    6   11 1     
   10    6    7 1     
   11    7    8 1     
   12    7   17 1     
   13    7   18 1     
   14    8    9 1     
   15    8   19 1     
   16    8   20 1     
   17    9   10 1     
   18   10   11 1     
   19   10   21 1     
   20   10   22 1     
   21   11   23 1     
   22   11   24 1     
   23   12   13 2     
   24   12   14 am    
   25   14   15 1     
   26    1   25 1     
   27    1   26 1     
   28    3   27 1     
   29    9   28 1     
   30    9   29 1     
   31   13   30 1     
   32   13   31 1     
@<TRIPOS>SUBSTRUCTURE
      1 S1             1
@<TRIPOS>SET
LONE_PAIRS      STATIC     ATOMS    <user>   **** ""
7 25 26 27 28 29 30 31
DONOR_HYDROGENS      STATIC     ATOMS    <user>   **** ""
1 15
ATOM$BLUE        STATIC     ATOMS    COLORGROUP SYSTEM
7 25 26 27 28 29 30 31
ATOM$RED        STATIC     ATOMS    COLORGROUP SYSTEM
1 15
