AV-unprocessed.smi:3330|AV-procd|sdf|12816|dock7
  -GOLD-   2272019183D 1   1.00000     0.00000
 Structure written by MMmdl.
 37 38  0  0  0  0  0  0  0  0  2 V2000
  149.2368  144.4747  160.0419 C   0  0  0  0  0  0  0  0  0  0  0  0
  150.1498  143.5203  159.2476 C   0  0  1  0  0  0  0  0  0  0  0  0
  149.7318  143.5219  157.8485 N   0  0  0  0  0  0  0  0  0  0  0  0
  150.6313  142.7461  157.0070 C   0  0  0  0  0  0  0  0  0  0  0  0
  150.1099  141.3039  156.8841 C   0  0  0  0  0  0  0  0  0  0  0  0
  151.1614  140.3766  156.4448 N   0  0  0  0  0  0  0  0  0  0  0  0
  151.2307  139.8331  155.2253 C   0  0  0  0  0  0  0  0  0  0  0  0
  150.4671  140.0049  154.2748 O   0  0  0  0  0  0  0  0  0  0  0  0
  152.4536  138.9465  155.1899 C   0  0  0  0  0  0  0  0  0  0  0  0
  153.0022  139.1233  156.5148 N   0  5  0  0  0  0  0  0  0  0  0  0
  152.2004  139.9714  157.2007 C   0  0  0  0  0  0  0  0  0  0  0  0
  152.3573  140.3539  158.3599 O   0  0  0  0  0  0  0  0  0  0  0  0
  151.6496  143.9192  159.3127 C   0  0  1  0  0  0  0  0  0  0  0  0
  151.8618  145.4392  159.4413 C   0  0  0  0  0  0  0  0  0  0  0  0
  152.3433  143.2341  160.3997 N   0  0  0  0  0  0  0  0  0  0  0  0
  153.3517  142.2969  160.3084 C   0  0  0  0  0  0  0  0  0  0  0  0
  153.6849  141.9293  161.5802 C   0  0  0  0  0  0  0  0  0  0  0  0
  152.8131  142.7037  162.3952 C   0  0  0  0  0  0  0  0  0  0  0  0
  152.0173  143.4882  161.6877 N   0  0  0  0  0  0  0  0  0  0  0  0
  149.4695  144.4556  161.1060 H   0  0  0  0  0  0  0  0  0  0  0  0
  148.1862  144.2006  159.9506 H   0  0  0  0  0  0  0  0  0  0  0  0
  149.3421  145.5035  159.6963 H   0  0  0  0  0  0  0  0  0  0  0  0
  150.0508  142.5116  159.6517 H   0  0  0  0  0  0  0  0  0  0  0  0
  149.7504  144.4765  157.5168 H   0  0  0  0  0  0  0  0  0  0  0  0
  150.7185  143.1933  156.0159 H   0  0  0  0  0  0  0  0  0  0  0  0
  151.6275  142.7432  157.4492 H   0  0  0  0  0  0  0  0  0  0  0  0
  149.7360  140.9760  157.8552 H   0  0  0  0  0  0  0  0  0  0  0  0
  149.2481  141.2626  156.2156 H   0  0  0  0  0  0  0  0  0  0  0  0
  152.1587  137.9178  154.9805 H   0  0  0  0  0  0  0  0  0  0  0  0
  153.1287  139.2702  154.3978 H   0  0  0  0  0  0  0  0  0  0  0  0
  152.1265  143.6008  158.3841 H   0  0  0  0  0  0  0  0  0  0  0  0
  151.5103  145.9715  158.5583 H   0  0  0  0  0  0  0  0  0  0  0  0
  152.9199  145.6767  159.5556 H   0  0  0  0  0  0  0  0  0  0  0  0
  151.3358  145.8433  160.3069 H   0  0  0  0  0  0  0  0  0  0  0  0
  153.7402  141.9682  159.3558 H   0  0  0  0  0  0  0  0  0  0  0  0
  154.4312  141.2100  161.8825 H   0  0  0  0  0  0  0  0  0  0  0  0
  152.7348  142.7181  163.4723 H   0  0  0  0  0  0  0  0  0  0  0  0
  1  2  1  0  0  0  0
  1 20  1  0  0  0  0
  1 21  1  0  0  0  0
  1 22  1  0  0  0  0
  2  3  1  0  0  0  0
  2 13  1  0  0  0  0
  2 23  1  0  0  0  0
  3  4  1  0  0  0  0
  3 24  1  0  0  0  0
  4  5  1  0  0  0  0
  4 25  1  0  0  0  0
  4 26  1  0  0  0  0
  5  6  1  0  0  0  0
  5 27  1  0  0  0  0
  5 28  1  0  0  0  0
  6 11  1  0  0  0  0
  6  7  1  0  0  0  0
  7  8  2  0  0  0  0
  7  9  1  0  0  0  0
  9 10  1  0  0  0  0
  9 29  1  0  0  0  0
  9 30  1  0  0  0  0
 10 11  1  0  0  0  0
 11 12  2  0  0  0  0
 13 14  1  0  0  0  0
 13 15  1  0  0  0  0
 13 31  1  0  0  0  0
 14 32  1  0  0  0  0
 14 33  1  0  0  0  0
 14 34  1  0  0  0  0
 15 19  1  0  0  0  0
 15 16  1  0  0  0  0
 16 17  2  0  0  0  0
 16 35  1  0  0  0  0
 17 18  1  0  0  0  0
 17 36  1  0  0  0  0
 18 19  2  0  0  0  0
 18 37  1  0  0  0  0
M  CHG  1  10  -1
M  END
> <s_m_source_file>
AV-unprocessed.smi

> <i_m_source_file_index>
3330

> <i_lp_mmshare_version>
43012

> <i_f3d_flags>
0

> <s_epik_input>
bjFbY0hdW2NIXVtjSF1uMVtDQEBIXShbQ0gzXSlbQ0BIXShbQ0gzXSlbTkhdW0NIMl1bQ0gyXU4yQyg9TylbQ0gyXVtOSF1DMj1P

> <s_epik_cmdline>
J2VwaWtfcHl0aG9uJywgJy1waCcsICc3LjAnLCAnLXRuJywgJzgnLCAnLW1hJywgJzIwMCcsICctbWV0YWxfYmluZGluZycsICctaW1hZScsICc8aW5maWxlLm1hZT4nLCAnLW9tYWUnLCAnPG91dGZpbGUubWFlPic=

> <r_lp_tautomer_probability>
1

> <r_epik_Ionization_Penalty>
8.77477

> <r_epik_Ionization_Penalty_Charging>
6.28461

> <r_epik_Ionization_Penalty_Neutral>
2.49016

> <r_epik_State_Penalty>
8.73376

> <r_epik_Charging_Adjusted_Penalty>
15.0184

> <i_epik_Tot_Q>
-1

> <i_epik_Tot_abs_Q>
1

> <r_epik_Metal_State_Penalty>
4.73175

> <b_epik_Metal_Only>
1

> <s_lp_Force_Field>
OPLS_2005

> <r_lp_Energy>
23.0712

> <b_lp_Chiralities_Consistent>
1

> <s_lp_Variant>
AV-unprocessed.smi:3330-16

> <Gold.Version>
5.8.1

> <Gold.Id.Protein>
6NUR|6NUR_protein|mol2

> <Gold.PLP.Fitness>
50.8349

> <Gold.PLP.PLP>
-44.4195

> <Gold.PLP.part.hbond>
-3.7280

> <Gold.PLP.part.metal>
0.0000

> <Gold.PLP.part.buried>
-3.8383

> <Gold.PLP.part.nonpolar>
-39.5930

> <Gold.PLP.part.repulsive>
0.2838

> <Gold.PLP.ligand.clash>
0.0000

> <Gold.PLP.ligand.torsion>
1.2947

> <Gold.PLP.Chemscore.Hbond>
2.9720

> <Gold.PLP.Chemscore.CHOScore>
0.0000

> <Gold.PLP.Chemscore.Metal>
0.0000

> <Gold.Chemscore.Hbonds>
donor molecule, donor type, donor heavy atom, donor atom, acceptor molecule, acceptor atom, score
      L1  H     3    24       P1  8028  0.24
      P1  H  7989  7998       L1     8  0.55
      P1  H  7997  8010       L1    10  2.00

> <Gold.PLP.Chemscore.Internal.Correction>
0.0888

> <Gold.Rescore>
     Score         DG    S(hbond)    S(metal)    S(lipo)     H(rot)  DE(clash)    DE(int)     intcor
     13.69     -14.84       1.43        0.00      94.18       2.52       0.06       1.09       ----

> <Gold.Chemscore.Fitness>
13.6919

> <Gold.Chemscore.DG>
-14.8399

> <Gold.Chemscore.ZeroCoef>
-5.4800

> <Gold.Chemscore.Hbond>
1.4317

> <Gold.Chemscore.Metal>
0.0000

> <Gold.Chemscore.Lipo>
94.1806

> <Gold.Chemscore.Internal_Hbond>
0.0000

> <Gold.Chemscore.DEClash>
0.0555

> <Gold.Chemscore.DEInternal>
1.0925

> <Gold.Chemscore.Rot>
2.5160

> <Gold.Chemscore.Internal.Correction>
   9.000000E+99

> <Gold.Chemscore.Hbonds>
donor molecule, donor type, donor heavy atom, donor atom, acceptor molecule, acceptor atom, score
      L1  H     3    24       P1  8028  0.03
      P1  H  7989  7998       L1     8  0.03
      P1  H  7997  8010       L1    10  0.10

> <Gold.Chemscore.Hbond.Weighted>
-4.7818

> <Gold.Chemscore.Metal.Weighted>
-0.0000

> <Gold.Chemscore.Lipo.Weighted>
-11.0191

> <Gold.Chemscore.Internal_Hbond.Weighted>
0.0000

> <Gold.Chemscore.DEClash.Weighted>
0.0555

> <Gold.Chemscore.DEInternal.Weighted>
1.0925

> <Gold.Chemscore.Rot.Weighted>
6.4410

> <Gold.Chemscore.Internal.Correction.Weighted>
   9.000000E+99

> <Gold.Protein.RotatedTorsions>
[ 6907 6896 6895 6894 ] final  127.08 input  -60.11 | X-H torsion
[ 7974 7965 7964 7962 ] final -159.71 input  175.53 | X-H torsion
[ 8008 7997 7996 7995 ] final   85.37 input   59.86 | X-H torsion
[ 10167 10162 10161 10158 ] final -156.23 input  -65.29 | X-H torsion
[ 10718 10713 10712 10709 ] final -137.89 input   66.30 | X-H torsion
[ 10763 10752 10751 10750 ] final  -62.90 input  -60.55 | X-H torsion
[ 11005 11000 10999 10996 ] final -171.58 input  -57.11 | X-H torsion

> <Gold.Protein.ActiveResidues>
 VAL166  LYS551  ARG553  GLY616  TRP617  ASP618  TYR619  PRO620  LYS621  CYS622 
 ASP623  PHE694  ASN695  SER759  ASP760  ASP761  ALA762  ILE779  LEU786  VAL792 
 PHE793  MET794  SER795  GLU796  ALA797  LYS798  CYS799  TRP800  GLU811  SER814 

> <Gold.Protein.RotatedAtoms>
  152.3845  133.6592  159.6187 H   0  0  0  0  0  0  0  0  0  0  0  0  # atno 6907 bound_to 6896
  150.7767  133.9058  159.3364 H   0  0  0  0  0  0  0  0  0  0  0  0  # atno 6908 bound_to 6896
  151.6858  135.0956  160.0276 H   0  0  0  0  0  0  0  0  0  0  0  0  # atno 6909 bound_to 6896
  144.7455  140.3647  143.6089 H   0  0  0  0  0  0  0  0  0  0  0  0  # atno 7974 bound_to 7965
  155.9492  140.3402  155.6393 H   0  0  0  0  0  0  0  0  0  0  0  0  # atno 8008 bound_to 7997
  155.6942  140.0752  157.2454 H   0  0  0  0  0  0  0  0  0  0  0  0  # atno 8009 bound_to 7997
  154.4118  140.1651  156.2107 H   0  0  0  0  0  0  0  0  0  0  0  0  # atno 8010 bound_to 7997
  139.6867  143.9489  152.2365 H   0  0  0  0  0  0  0  0  0  0  0  0  # atno 10167 bound_to 10162
  156.2931  130.7386  151.1418 H   0  0  0  0  0  0  0  0  0  0  0  0  # atno 10718 bound_to 10713
  154.3069  135.6223  153.5448 H   0  0  0  0  0  0  0  0  0  0  0  0  # atno 10763 bound_to 10752
  152.9834  135.5692  154.5221 H   0  0  0  0  0  0  0  0  0  0  0  0  # atno 10764 bound_to 10752
  154.4863  135.2865  155.1508 H   0  0  0  0  0  0  0  0  0  0  0  0  # atno 10765 bound_to 10752
  140.5066  134.5842  157.5005 H   0  0  0  0  0  0  0  0  0  0  0  0  # atno 11005 bound_to 11000
  145.7141  139.1692  143.2522 LP  0  0  0  0  0  0  0  0  0  0  0  0  # atno 17320 bound_to 7965
  146.1325  140.7166  142.9405 LP  0  0  0  0  0  0  0  0  0  0  0  0  # atno 17321 bound_to 7965
  139.9294  144.6751  150.8379 LP  0  0  0  0  0  0  0  0  0  0  0  0  # atno 17342 bound_to 10162
  140.7670  143.3319  151.2391 LP  0  0  0  0  0  0  0  0  0  0  0  0  # atno 17343 bound_to 10162
  157.7348  131.0578  150.5505 LP  0  0  0  0  0  0  0  0  0  0  0  0  # atno 17370 bound_to 10713
  156.5624  130.4259  149.6057 LP  0  0  0  0  0  0  0  0  0  0  0  0  # atno 17371 bound_to 10713
  139.9682  134.7336  156.0094 LP  0  0  0  0  0  0  0  0  0  0  0  0  # atno 17394 bound_to 11000
  141.1407  133.6565  156.3723 LP  0  0  0  0  0  0  0  0  0  0  0  0  # atno 17395 bound_to 11000

$$$$
