AV-unprocessed.smi:561|AV-procd|sdf|2940|dock2
  -GOLD-   2262023433D 1   1.00000     0.00000
 Structure written by MMmdl.
 36 37  0  0  0  0  0  0  0  0  3 V2000
  152.5782  137.5723  160.2307 C   0  0  0  0  0  0  0  0  0  0  0  0
  154.0440  138.0183  160.3216 C   0  0  2  0  0  0  0  0  0  0  0  0
  154.4605  138.2773  161.7925 C   0  0  0  0  0  0  0  0  0  0  0  0
  154.4619  137.0757  162.6471 N   0  0  0  0  0  0  0  0  0  0  0  0
  153.7572  136.8854  163.8104 C   0  0  0  0  0  0  0  0  0  0  0  0
  154.0678  135.6274  164.2574 C   0  0  0  0  0  0  0  0  0  0  0  0
  154.9385  135.0956  163.3446 N   0  3  0  0  0  0  0  0  0  0  0  0
  155.1714  135.9728  162.3631 C   0  0  0  0  0  0  0  0  0  0  0  0
  154.2140  139.2370  159.5224 N   0  5  0  0  0  0  0  0  0  0  0  0
  153.2790  140.2237  159.3658 C   0  0  0  0  0  0  0  0  0  0  0  0
  153.0154  141.1123  160.1853 O   0  0  0  0  0  0  0  0  0  0  0  0
  152.4651  140.2511  158.1142 C   0  0  0  0  0  0  0  0  0  0  0  0
  152.8558  139.5720  157.0809 N   0  0  0  0  0  0  0  0  0  0  0  0
  152.1370  139.5421  155.9038 N   0  0  0  0  0  0  0  0  0  0  0  0
  152.5773  138.5325  154.9433 C   0  0  0  0  0  0  0  0  0  0  0  0
  151.1211  140.3868  155.5992 C   0  0  0  0  0  0  0  0  0  0  0  0
  150.4807  140.3369  154.5488 O   0  0  0  0  0  0  0  0  0  0  0  0
  150.8038  141.4720  156.6311 C   0  0  0  0  0  0  0  0  0  0  0  0
  151.1683  141.0401  158.0651 C   0  0  0  0  0  0  0  0  0  0  0  0
  152.4119  136.6580  160.8005 H   0  0  0  0  0  0  0  0  0  0  0  0
  152.2905  137.3705  159.1982 H   0  0  0  0  0  0  0  0  0  0  0  0
  151.9034  138.3345  160.6224 H   0  0  0  0  0  0  0  0  0  0  0  0
  154.6520  137.1957  159.9416 H   0  0  0  0  0  0  0  0  0  0  0  0
  155.4573  138.7193  161.8372 H   0  0  0  0  0  0  0  0  0  0  0  0
  153.7826  138.9984  162.2510 H   0  0  0  0  0  0  0  0  0  0  0  0
  153.1162  137.6490  164.2269 H   0  0  0  0  0  0  0  0  0  0  0  0
  153.7437  135.0862  165.1341 H   0  0  0  0  0  0  0  0  0  0  0  0
  155.8171  135.8275  161.5155 H   0  0  0  0  0  0  0  0  0  0  0  0
  152.9509  139.0072  154.0351 H   0  0  0  0  0  0  0  0  0  0  0  0
  151.7528  137.8722  154.6708 H   0  0  0  0  0  0  0  0  0  0  0  0
  153.3784  137.9091  155.3436 H   0  0  0  0  0  0  0  0  0  0  0  0
  151.3779  142.3584  156.3590 H   0  0  0  0  0  0  0  0  0  0  0  0
  149.7508  141.7496  156.5739 H   0  0  0  0  0  0  0  0  0  0  0  0
  150.3647  140.4370  158.4892 H   0  0  0  0  0  0  0  0  0  0  0  0
  151.2374  141.9382  158.6797 H   0  0  0  0  0  0  0  0  0  0  0  0
  155.3521  134.1738  163.4032 H   0  0  0  0  0  0  0  0  0  0  0  0
  1  2  1  0  0  0  0
  1 20  1  0  0  0  0
  1 21  1  0  0  0  0
  1 22  1  0  0  0  0
  2  3  1  0  0  0  0
  2  9  1  0  0  0  0
  2 23  1  0  0  0  0
  3  4  1  0  0  0  0
  3 24  1  0  0  0  0
  3 25  1  0  0  0  0
  4  8  1  0  0  0  0
  4  5  1  0  0  0  0
  5  6  2  0  0  0  0
  5 26  1  0  0  0  0
  6  7  1  0  0  0  0
  6 27  1  0  0  0  0
  7  8  2  0  0  0  0
  7 36  1  0  0  0  0
  8 28  1  0  0  0  0
  9 10  1  0  0  0  0
 10 11  2  0  0  0  0
 10 12  1  0  0  0  0
 12 19  1  0  0  0  0
 12 13  2  0  0  0  0
 13 14  1  0  0  0  0
 14 15  1  0  0  0  0
 14 16  1  0  0  0  0
 15 29  1  0  0  0  0
 15 30  1  0  0  0  0
 15 31  1  0  0  0  0
 16 17  2  0  0  0  0
 16 18  1  0  0  0  0
 18 19  1  0  0  0  0
 18 32  1  0  0  0  0
 18 33  1  0  0  0  0
 19 34  1  0  0  0  0
 19 35  1  0  0  0  0
M  CHG  1   7   1
M  CHG  1   9  -1
M  END
> <s_m_source_file>
AV-unprocessed.smi

> <i_m_source_file_index>
561

> <i_lp_mmshare_version>
43012

> <i_f3d_flags>
0

> <s_epik_input>
W2NIXTFuW2NIXVtjSF1uMVtDSDJdW0NAQEhdKFtDSDNdKVtOSF1DKD1PKUMyPU5OKFtDSDNdKUMoPU8pW0NIMl1bQ0gyXTI=

> <s_epik_cmdline>
J2VwaWtfcHl0aG9uJywgJy1waCcsICc3LjAnLCAnLXRuJywgJzgnLCAnLW1hJywgJzIwMCcsICctbWV0YWxfYmluZGluZycsICctaW1hZScsICc8aW5maWxlLm1hZT4nLCAnLW9tYWUnLCAnPG91dGZpbGUubWFlPic=

> <r_lp_tautomer_probability>
1

> <r_epik_Ionization_Penalty>
5.37239

> <r_epik_Ionization_Penalty_Charging>
5.18263

> <r_epik_Ionization_Penalty_Neutral>
0.189756

> <r_epik_State_Penalty>
5.53772

> <r_epik_Charging_Adjusted_Penalty>
10.7204

> <i_epik_Tot_Q>
0

> <i_epik_Tot_abs_Q>
2

> <r_epik_Metal_State_Penalty>
1.80836

> <b_epik_Metal_Only>
1

> <s_epik_Chemistry_Notes>
This compound has an imine and may undergo hydrolysis.

> <s_lp_Force_Field>
OPLS_2005

> <r_lp_Energy>
20.2917

> <b_lp_Chiralities_Consistent>
1

> <s_lp_Variant>
AV-unprocessed.smi:561-5

> <Gold.Version>
5.8.1

> <Gold.Id.Protein>
6NUR|6NUR_protein|mol2

> <Gold.PLP.Fitness>
41.1878

> <Gold.PLP.PLP>
-37.6320

> <Gold.PLP.part.hbond>
-2.0000

> <Gold.PLP.part.metal>
0.0000

> <Gold.PLP.part.buried>
-3.9763

> <Gold.PLP.part.nonpolar>
-31.2155

> <Gold.PLP.part.repulsive>
0.1046

> <Gold.PLP.ligand.clash>
0.0000

> <Gold.PLP.ligand.torsion>
1.2419

> <Gold.PLP.Chemscore.Hbond>
2.0000

> <Gold.PLP.Chemscore.CHOScore>
0.0000

> <Gold.PLP.Chemscore.Metal>
0.0000

> <Gold.Chemscore.Hbonds>
donor molecule, donor type, donor heavy atom, donor atom, acceptor molecule, acceptor atom, score
      P1  H  7989  7998       L1    17  1.00
      P1  H  7997  8008       L1    13  1.00

> <Gold.PLP.Chemscore.Internal.Correction>
0.0395

> <Gold.Rescore>
     Score         DG    S(hbond)    S(metal)    S(lipo)     H(rot)  DE(clash)    DE(int)     intcor
     10.75     -12.04       1.07        0.00      63.26       1.73       0.03       1.27       ----

> <Gold.Chemscore.Fitness>
10.7493

> <Gold.Chemscore.DG>
-12.0431

> <Gold.Chemscore.ZeroCoef>
-5.4800

> <Gold.Chemscore.Hbond>
1.0749

> <Gold.Chemscore.Metal>
0.0000

> <Gold.Chemscore.Lipo>
63.2620

> <Gold.Chemscore.Internal_Hbond>
0.0000

> <Gold.Chemscore.DEClash>
0.0276

> <Gold.Chemscore.DEInternal>
1.2662

> <Gold.Chemscore.Rot>
1.7299

> <Gold.Chemscore.Internal.Correction>
   9.000000E+99

> <Gold.Chemscore.Hbonds>
donor molecule, donor type, donor heavy atom, donor atom, acceptor molecule, acceptor atom, score
      P1  H  7989  7998       L1    17  0.25
      P1  H  7997  8008       L1    13  0.25

> <Gold.Chemscore.Hbond.Weighted>
-3.5901

> <Gold.Chemscore.Metal.Weighted>
-0.0000

> <Gold.Chemscore.Lipo.Weighted>
-7.4017

> <Gold.Chemscore.Internal_Hbond.Weighted>
0.0000

> <Gold.Chemscore.DEClash.Weighted>
0.0276

> <Gold.Chemscore.DEInternal.Weighted>
1.2662

> <Gold.Chemscore.Rot.Weighted>
4.4286

> <Gold.Chemscore.Internal.Correction.Weighted>
   9.000000E+99

> <Gold.Protein.RotatedTorsions>
[ 6907 6896 6895 6894 ] final  155.96 input  -60.11 | X-H torsion
[ 7974 7965 7964 7962 ] final  145.54 input  175.53 | X-H torsion
[ 8008 7997 7996 7995 ] final  -52.08 input   59.86 | X-H torsion
[ 10167 10162 10161 10158 ] final -173.25 input  -65.29 | X-H torsion
[ 10718 10713 10712 10709 ] final  -86.87 input   66.30 | X-H torsion
[ 10763 10752 10751 10750 ] final  113.80 input  -60.55 | X-H torsion
[ 11005 11000 10999 10996 ] final -177.18 input  -57.11 | X-H torsion

> <Gold.Protein.ActiveResidues>
 VAL166  LYS551  ARG553  GLY616  TRP617  ASP618  TYR619  PRO620  LYS621  CYS622 
 ASP623  PHE694  ASN695  SER759  ASP760  ASP761  ALA762  ILE779  LEU786  VAL792 
 PHE793  MET794  SER795  GLU796  ALA797  LYS798  CYS799  TRP800  GLU811  SER814 

> <Gold.Protein.RotatedAtoms>
  152.0366  133.3959  159.4318 H   0  0  0  0  0  0  0  0  0  0  0  0  # atno 6907 bound_to 6896
  150.6878  134.3462  159.4898 H   0  0  0  0  0  0  0  0  0  0  0  0  # atno 6908 bound_to 6896
  152.1255  134.9174  160.0612 H   0  0  0  0  0  0  0  0  0  0  0  0  # atno 6909 bound_to 6896
  144.8744  139.5795  143.5872 H   0  0  0  0  0  0  0  0  0  0  0  0  # atno 7974 bound_to 7965
  154.4098  140.1232  156.4933 H   0  0  0  0  0  0  0  0  0  0  0  0  # atno 8008 bound_to 7997
  155.6968  140.3495  155.4897 H   0  0  0  0  0  0  0  0  0  0  0  0  # atno 8009 bound_to 7997
  155.9420  140.1089  157.1037 H   0  0  0  0  0  0  0  0  0  0  0  0  # atno 8010 bound_to 7997
  139.5699  144.1667  152.1368 H   0  0  0  0  0  0  0  0  0  0  0  0  # atno 10167 bound_to 10162
  155.9987  130.4780  150.4781 H   0  0  0  0  0  0  0  0  0  0  0  0  # atno 10718 bound_to 10713
  153.4978  135.3644  155.2524 H   0  0  0  0  0  0  0  0  0  0  0  0  # atno 10763 bound_to 10752
  154.8749  135.3992  154.3514 H   0  0  0  0  0  0  0  0  0  0  0  0  # atno 10764 bound_to 10752
  153.4144  135.7078  153.6403 H   0  0  0  0  0  0  0  0  0  0  0  0  # atno 10765 bound_to 10752
  140.4438  134.6407  157.4770 H   0  0  0  0  0  0  0  0  0  0  0  0  # atno 11005 bound_to 11000
  146.2953  139.7259  142.9131 LP  0  0  0  0  0  0  0  0  0  0  0  0  # atno 17320 bound_to 7965
  145.4069  141.0392  143.3039 LP  0  0  0  0  0  0  0  0  0  0  0  0  # atno 17321 bound_to 7965
  140.1198  144.5383  150.6870 LP  0  0  0  0  0  0  0  0  0  0  0  0  # atno 17342 bound_to 10162
  140.6983  143.2418  151.4938 LP  0  0  0  0  0  0  0  0  0  0  0  0  # atno 17343 bound_to 10162
  157.2789  131.0602  151.2211 LP  0  0  0  0  0  0  0  0  0  0  0  0  # atno 17370 bound_to 10713
  157.3264  130.6963  149.6299 LP  0  0  0  0  0  0  0  0  0  0  0  0  # atno 17371 bound_to 10713
  140.0052  134.6775  155.9466 LP  0  0  0  0  0  0  0  0  0  0  0  0  # atno 17394 bound_to 11000
  141.1694  133.6537  156.4596 LP  0  0  0  0  0  0  0  0  0  0  0  0  # atno 17395 bound_to 11000

$$$$
