AV-unprocessed.smi:2448|AV-procd|sdf|9656|dock10
  -GOLD-   2272013293D 1   1.00000     0.00000
 Structure written by MMmdl.
 38 39  0  0  0  0  0  0  0  0  2 V2000
  148.8223  139.2042  153.3459 O   0  0  0  0  0  0  0  0  0  0  0  0
  147.4280  139.4173  153.4852 C   0  0  2  0  0  0  0  0  0  0  0  0
  146.6900  138.3334  152.6752 C   0  0  0  0  0  0  0  0  0  0  0  0
  145.3297  138.0836  153.2027 N   0  3  0  0  0  0  0  0  0  0  0  0
  144.7669  136.7468  152.8973 C   0  0  2  0  0  0  0  0  0  0  0  0
  144.7804  136.4750  151.3757 C   0  0  0  0  0  0  0  0  0  0  0  0
  144.9309  135.0067  151.0220 C   0  0  0  0  0  0  0  0  0  0  0  0
  143.9241  134.3318  150.3006 C   0  0  0  0  0  0  0  0  0  0  0  0
  144.1255  132.9752  149.9757 C   0  0  0  0  0  0  0  0  0  0  0  0
  145.2357  132.2882  150.3197 N   0  0  0  0  0  0  0  0  0  0  0  0
  146.1918  132.9381  151.0173 C   0  0  0  0  0  0  0  0  0  0  0  0
  146.0895  134.2932  151.3913 C   0  0  0  0  0  0  0  0  0  0  0  0
  143.3446  136.6372  153.4798 C   0  0  0  0  0  0  0  0  0  0  0  0
  142.8333  135.4401  153.1921 F   0  0  0  0  0  0  0  0  0  0  0  0
  143.3655  136.7890  154.8043 F   0  0  0  0  0  0  0  0  0  0  0  0
  142.5548  137.5694  152.9474 F   0  0  0  0  0  0  0  0  0  0  0  0
  147.1130  140.8338  152.9767 C   0  0  0  0  0  0  0  0  0  0  0  0
  147.6182  141.8323  154.0234 C   0  0  0  0  0  0  0  0  0  0  0  0
  147.4157  141.0670  155.6512 S   0  0  0  0  0  0  0  0  0  0  0  0
  147.0519  139.4247  154.9779 C   0  0  0  0  0  0  0  0  0  0  0  0
  149.1374  139.7189  152.6182 H   0  0  0  0  0  0  0  0  0  0  0  0
  146.6253  138.6400  151.6314 H   0  0  0  0  0  0  0  0  0  0  0  0
  147.2554  137.4003  152.6921 H   0  0  0  0  0  0  0  0  0  0  0  0
  145.3774  138.1793  154.2075 H   0  0  0  0  0  0  0  0  0  0  0  0
  145.3741  135.9870  153.3931 H   0  0  0  0  0  0  0  0  0  0  0  0
  143.8524  136.8313  150.9272 H   0  0  0  0  0  0  0  0  0  0  0  0
  145.5811  137.0427  150.8998 H   0  0  0  0  0  0  0  0  0  0  0  0
  143.0194  134.8371  149.9956 H   0  0  0  0  0  0  0  0  0  0  0  0
  143.3774  132.4298  149.4196 H   0  0  0  0  0  0  0  0  0  0  0  0
  147.0668  132.3631  151.2814 H   0  0  0  0  0  0  0  0  0  0  0  0
  146.8853  134.7701  151.9449 H   0  0  0  0  0  0  0  0  0  0  0  0
  147.5418  141.0287  151.9928 H   0  0  0  0  0  0  0  0  0  0  0  0
  146.0325  140.9497  152.8780 H   0  0  0  0  0  0  0  0  0  0  0  0
  148.6793  142.0316  153.8717 H   0  0  0  0  0  0  0  0  0  0  0  0
  147.0916  142.7854  153.9701 H   0  0  0  0  0  0  0  0  0  0  0  0
  145.9798  139.2645  155.0935 H   0  0  0  0  0  0  0  0  0  0  0  0
  147.5605  138.6461  155.5474 H   0  0  0  0  0  0  0  0  0  0  0  0
  144.6990  138.7882  152.8481 H   0  0  0  0  0  0  0  0  0  0  0  0
  1  2  1  0  0  0  0
  1 21  1  0  0  0  0
  2 20  1  0  0  0  0
  2  3  1  0  0  0  0
  2 17  1  0  0  0  0
  3  4  1  0  0  0  0
  3 22  1  0  0  0  0
  3 23  1  0  0  0  0
  4  5  1  0  0  0  0
  4 24  1  0  0  0  0
  4 38  1  0  0  0  0
  5  6  1  0  0  0  0
  5 13  1  0  0  0  0
  5 25  1  0  0  0  0
  6  7  1  0  0  0  0
  6 26  1  0  0  0  0
  6 27  1  0  0  0  0
  7 12  1  0  0  0  0
  7  8  2  0  0  0  0
  8  9  1  0  0  0  0
  8 28  1  0  0  0  0
  9 10  2  0  0  0  0
  9 29  1  0  0  0  0
 10 11  1  0  0  0  0
 11 12  2  0  0  0  0
 11 30  1  0  0  0  0
 12 31  1  0  0  0  0
 13 14  1  0  0  0  0
 13 15  1  0  0  0  0
 13 16  1  0  0  0  0
 17 18  1  0  0  0  0
 17 32  1  0  0  0  0
 17 33  1  0  0  0  0
 18 19  1  0  0  0  0
 18 34  1  0  0  0  0
 18 35  1  0  0  0  0
 19 20  1  0  0  0  0
 20 36  1  0  0  0  0
 20 37  1  0  0  0  0
M  CHG  1   4   1
M  END
> <s_m_source_file>
AV-unprocessed.smi

> <i_m_source_file_index>
2448

> <i_lp_mmshare_version>
43012

> <i_f3d_flags>
0

> <s_epik_input>
W0NIMl0xU1tDSDJdW0NIMl1bQ0BAXTEoW09IXSlbQ0gyXVtOSF1bQ0BASF0oQyhGKShGKUYpW0NIMl1jMltjSF1bY0hdbltjSF1bY0hdMg==

> <s_epik_cmdline>
J2VwaWtfcHl0aG9uJywgJy1waCcsICc3LjAnLCAnLXRuJywgJzgnLCAnLW1hJywgJzIwMCcsICctbWV0YWxfYmluZGluZycsICctaW1hZScsICc8aW5maWxlLm1hZT4nLCAnLW9tYWUnLCAnPG91dGZpbGUubWFlPic=

> <r_epik_Ionization_Penalty>
1.19945

> <r_epik_Ionization_Penalty_Charging>
1.19892

> <r_epik_Ionization_Penalty_Neutral>
0.000532129

> <r_epik_State_Penalty>
0.752927

> <r_epik_Charging_Adjusted_Penalty>
1.95185

> <i_epik_Tot_Q>
1

> <i_epik_Tot_abs_Q>
1

> <r_epik_Metal_State_Penalty>
0.804507

> <b_epik_Metal_Only>
0

> <s_lp_Force_Field>
OPLS_2005

> <r_lp_Energy>
23.2993

> <b_lp_Chiralities_Consistent>
1

> <s_lp_Variant>
AV-unprocessed.smi:2448-6

> <Gold.Version>
5.8.1

> <Gold.Id.Protein>
6NUR|6NUR_protein|mol2

> <Gold.PLP.Fitness>
43.5741

> <Gold.PLP.PLP>
-32.9426

> <Gold.PLP.part.hbond>
-1.9818

> <Gold.PLP.part.metal>
0.0000

> <Gold.PLP.part.buried>
-2.6550

> <Gold.PLP.part.nonpolar>
-28.8763

> <Gold.PLP.part.repulsive>
0.1346

> <Gold.PLP.ligand.clash>
0.0000

> <Gold.PLP.ligand.torsion>
0.9592

> <Gold.PLP.Chemscore.Hbond>
3.0000

> <Gold.PLP.Chemscore.CHOScore>
1.0000

> <Gold.PLP.Chemscore.Metal>
0.0000

> <Gold.Chemscore.Hbonds>
donor molecule, donor type, donor heavy atom, donor atom, acceptor molecule, acceptor atom, score
      L1  H     1    21       P1  7957  1.00
      L1  H     4    38       P1 10175  2.00
      L1  C    11    30       P1 10747  0.75

> <Gold.PLP.Chemscore.Internal.Correction>
0.5499

> <Gold.Rescore>
     Score         DG    S(hbond)    S(metal)    S(lipo)     H(rot)  DE(clash)    DE(int)     intcor
     13.40     -15.02       1.97        0.00      77.63       2.39       0.51       1.11       ----

> <Gold.Chemscore.Fitness>
13.3985

> <Gold.Chemscore.DG>
-15.0195

> <Gold.Chemscore.ZeroCoef>
-5.4800

> <Gold.Chemscore.Hbond>
1.9661

> <Gold.Chemscore.Metal>
0.0000

> <Gold.Chemscore.Lipo>
77.6266

> <Gold.Chemscore.Internal_Hbond>
0.0000

> <Gold.Chemscore.DEClash>
0.5096

> <Gold.Chemscore.DEInternal>
1.1114

> <Gold.Chemscore.Rot>
2.3866

> <Gold.Chemscore.Internal.Correction>
   9.000000E+99

> <Gold.Chemscore.Hbonds>
donor molecule, donor type, donor heavy atom, donor atom, acceptor molecule, acceptor atom, score
      L1  H     1    21       P1  7957  0.96
      L1  H     4    38       P1 10175  0.97

> <Gold.Chemscore.Hbond.Weighted>
-6.5668

> <Gold.Chemscore.Metal.Weighted>
-0.0000

> <Gold.Chemscore.Lipo.Weighted>
-9.0823

> <Gold.Chemscore.Internal_Hbond.Weighted>
0.0000

> <Gold.Chemscore.DEClash.Weighted>
0.5096

> <Gold.Chemscore.DEInternal.Weighted>
1.1114

> <Gold.Chemscore.Rot.Weighted>
6.1096

> <Gold.Chemscore.Internal.Correction.Weighted>
   9.000000E+99

> <Gold.Protein.RotatedTorsions>
[ 6907 6896 6895 6894 ] final  154.47 input  -60.11 | X-H torsion
[ 7974 7965 7964 7962 ] final   92.85 input  175.53 | X-H torsion
[ 8008 7997 7996 7995 ] final  126.68 input   59.86 | X-H torsion
[ 10167 10162 10161 10158 ] final -163.27 input  -65.29 | X-H torsion
[ 10718 10713 10712 10709 ] final  120.42 input   66.30 | X-H torsion
[ 10763 10752 10751 10750 ] final -176.68 input  -60.55 | X-H torsion
[ 11005 11000 10999 10996 ] final   24.80 input  -57.11 | X-H torsion

> <Gold.Protein.ActiveResidues>
 VAL166  LYS551  ARG553  GLY616  TRP617  ASP618  TYR619  PRO620  LYS621  CYS622 
 ASP623  PHE694  ASN695  SER759  ASP760  ASP761  ALA762  ILE779  LEU786  VAL792 
 PHE793  MET794  SER795  GLU796  ALA797  LYS798  CYS799  TRP800  GLU811  SER814 

> <Gold.Protein.RotatedAtoms>
  152.0580  133.4049  159.4405 H   0  0  0  0  0  0  0  0  0  0  0  0  # atno 6907 bound_to 6896
  150.6867  134.3232  159.4805 H   0  0  0  0  0  0  0  0  0  0  0  0  # atno 6908 bound_to 6896
  152.1050  134.9314  160.0619 H   0  0  0  0  0  0  0  0  0  0  0  0  # atno 6909 bound_to 6896
  145.4867  139.2277  143.2852 H   0  0  0  0  0  0  0  0  0  0  0  0  # atno 7974 bound_to 7965
  156.2870  140.2687  156.2150 H   0  0  0  0  0  0  0  0  0  0  0  0  # atno 8008 bound_to 7997
  155.0226  140.0386  157.2461 H   0  0  0  0  0  0  0  0  0  0  0  0  # atno 8009 bound_to 7997
  154.7422  140.2727  155.6368 H   0  0  0  0  0  0  0  0  0  0  0  0  # atno 8010 bound_to 7997
  139.6333  144.0398  152.2033 H   0  0  0  0  0  0  0  0  0  0  0  0  # atno 10167 bound_to 10162
  157.5892  131.1066  150.8033 H   0  0  0  0  0  0  0  0  0  0  0  0  # atno 10718 bound_to 10713
  154.5694  135.2826  155.0842 H   0  0  0  0  0  0  0  0  0  0  0  0  # atno 10763 bound_to 10752
  154.2220  135.6389  153.5151 H   0  0  0  0  0  0  0  0  0  0  0  0  # atno 10764 bound_to 10752
  153.0053  135.5516  154.6313 H   0  0  0  0  0  0  0  0  0  0  0  0  # atno 10765 bound_to 10752
  140.3547  134.2190  155.7677 H   0  0  0  0  0  0  0  0  0  0  0  0  # atno 11005 bound_to 11000
  146.2308  140.5658  142.8976 LP  0  0  0  0  0  0  0  0  0  0  0  0  # atno 17320 bound_to 7965
  144.7857  140.5932  143.6575 LP  0  0  0  0  0  0  0  0  0  0  0  0  # atno 17321 bound_to 7965
  140.0069  144.6252  150.7681 LP  0  0  0  0  0  0  0  0  0  0  0  0  # atno 17342 bound_to 10162
  140.7451  143.2870  151.3434 LP  0  0  0  0  0  0  0  0  0  0  0  0  # atno 17343 bound_to 10162
  156.8459  130.5064  149.5316 LP  0  0  0  0  0  0  0  0  0  0  0  0  # atno 17370 bound_to 10713
  156.0944  130.5921  150.9789 LP  0  0  0  0  0  0  0  0  0  0  0  0  # atno 17371 bound_to 10713
  141.2002  133.7994  157.0502 LP  0  0  0  0  0  0  0  0  0  0  0  0  # atno 17394 bound_to 11000
  140.0674  134.9721  157.1410 LP  0  0  0  0  0  0  0  0  0  0  0  0  # atno 17395 bound_to 11000

$$$$
