AV-unprocessed.smi:72|AV-procd|sdf|665|dock1
  -GOLD-   2262016563D 1   1.00000     0.00000
 Structure written by MMmdl.
 29 30  0  0  0  0  0  0  0  0  1 V2000
  140.6606  134.8330  153.7592 N   0  0  0  0  0  0  0  0  0  0  0  0
  141.8177  135.3009  153.4530 C   0  0  0  0  0  0  0  0  0  0  0  0
  142.0622  136.5764  152.9234 N   0  0  0  0  0  0  0  0  0  0  0  0
  143.2835  136.9109  152.6407 C   0  0  0  0  0  0  0  0  0  0  0  0
  144.4053  136.0001  152.8364 N   0  0  0  0  0  0  0  0  0  0  0  0
  145.8423  136.3808  152.5174 C   0  0  2  0  0  0  0  0  0  0  0  0
  146.6344  136.2607  153.6643 O   0  0  0  0  0  0  0  0  0  0  0  0
  146.7913  137.5368  154.2783 C   0  0  1  0  0  0  0  0  0  0  0  0
  147.9665  137.5397  155.2712 C   0  0  0  0  0  0  0  0  0  0  0  0
  149.1524  137.1453  154.6144 O   0  0  0  0  0  0  0  0  0  0  0  0
  146.9436  138.4537  153.0613 C   0  0  1  0  0  0  0  0  0  0  0  0
  148.2749  138.4136  152.5728 O   0  0  0  0  0  0  0  0  0  0  0  0
  145.9368  137.8590  152.0766 C   0  0  1  0  0  0  0  0  0  0  0  0
  146.3368  138.0196  150.7284 O   0  0  0  0  0  0  0  0  0  0  0  0
  144.1760  134.7261  153.4133 C   0  0  0  0  0  0  0  0  0  0  0  0
  145.0888  133.9344  153.6474 O   0  0  0  0  0  0  0  0  0  0  0  0
  142.8880  134.4290  153.6887 N   0  0  0  0  0  0  0  0  0  0  0  0
  146.1711  135.6598  151.7666 H   0  0  0  0  0  0  0  0  0  0  0  0
  145.8683  137.8098  154.7936 H   0  0  0  0  0  0  0  0  0  0  0  0
  146.7027  139.4895  153.3029 H   0  0  0  0  0  0  0  0  0  0  0  0
  144.9700  138.3436  152.2220 H   0  0  0  0  0  0  0  0  0  0  0  0
  139.9405  135.5126  153.5636 H   0  0  0  0  0  0  0  0  0  0  0  0
  143.5350  137.8935  152.2416 H   0  0  0  0  0  0  0  0  0  0  0  0
  148.0974  138.5193  155.7322 H   0  0  0  0  0  0  0  0  0  0  0  0
  147.7830  136.8231  156.0723 H   0  0  0  0  0  0  0  0  0  0  0  0
  148.9182  136.6440  153.8483 H   0  0  0  0  0  0  0  0  0  0  0  0
  148.4470  139.2248  152.1189 H   0  0  0  0  0  0  0  0  0  0  0  0
  145.5693  138.2165  150.2122 H   0  0  0  0  0  0  0  0  0  0  0  0
  142.6956  133.5235  154.0916 H   0  0  0  0  0  0  0  0  0  0  0  0
  1  2  2  0  0  0  0
  1 22  1  0  0  0  0
  2 17  1  0  0  0  0
  2  3  1  0  0  0  0
  3  4  2  0  0  0  0
  4  5  1  0  0  0  0
  4 23  1  0  0  0  0
  5  6  1  0  0  0  0
  5 15  1  0  0  0  0
  6 18  1  0  0  0  0
  6 13  1  0  0  0  0
  6  7  1  0  0  0  0
  7  8  1  0  0  0  0
  8 19  1  0  0  0  0
  8  9  1  0  0  0  0
  8 11  1  0  0  0  0
  9 10  1  0  0  0  0
  9 24  1  0  0  0  0
  9 25  1  0  0  0  0
 10 26  1  0  0  0  0
 11 20  1  0  0  0  0
 11 12  1  0  0  0  0
 11 13  1  0  0  0  0
 12 27  1  0  0  0  0
 13 21  1  0  0  0  0
 13 14  1  0  0  0  0
 14 28  1  0  0  0  0
 15 16  2  0  0  0  0
 15 17  1  0  0  0  0
 17 29  1  0  0  0  0
M  END
> <s_m_source_file>
AV-unprocessed.smi

> <i_m_source_file_index>
72

> <i_lp_mmshare_version>
43012

> <i_f3d_flags>
0

> <s_epik_input>
W05IMl1jMW5bY0hdbihjKD1PKW4xKVtDQEBIXTJPW0NASF0oW0NIMl1bT0hdKVtDQEBIXShbT0hdKVtDQEhdMltPSF0=

> <s_epik_cmdline>
J2VwaWtfcHl0aG9uJywgJy1waCcsICc3LjAnLCAnLXRuJywgJzgnLCAnLW1hJywgJzIwMCcsICctbWV0YWxfYmluZGluZycsICctaW1hZScsICc8aW5maWxlLm1hZT4nLCAnLW9tYWUnLCAnPG91dGZpbGUubWFlPic=

> <r_lp_tautomer_probability>
7.17554e-07

> <r_epik_Ionization_Penalty>
0.0066451

> <r_epik_Ionization_Penalty_Charging>
0.00663793

> <r_epik_Ionization_Penalty_Neutral>
7.17052e-06

> <r_epik_State_Penalty>
0.419231

> <r_epik_Charging_Adjusted_Penalty>
0.425868

> <i_epik_Tot_Q>
0

> <i_epik_Tot_abs_Q>
0

> <r_epik_Metal_State_Penalty>
1.44144

> <b_epik_Metal_Only>
0

> <s_epik_Chemistry_Notes>
This compound contains an acetal/aminal-like group ( X-CH(R)-Y where X, Y are N, S, or O) that may be acid/base labile, releasing an aldehyde.

> <s_lp_Force_Field>
OPLS_2005

> <r_lp_Energy>
42.7632

> <b_lp_Chiralities_Consistent>
1

> <s_lp_Variant>
AV-unprocessed.smi:72-3

> <Gold.Version>
5.8.1

> <Gold.Id.Protein>
6NUR|6NUR_protein|mol2

> <Gold.PLP.Fitness>
45.0074

> <Gold.PLP.PLP>
-21.5164

> <Gold.PLP.part.hbond>
-7.4084

> <Gold.PLP.part.metal>
0.0000

> <Gold.PLP.part.buried>
-2.8514

> <Gold.PLP.part.nonpolar>
-12.5083

> <Gold.PLP.part.repulsive>
1.4332

> <Gold.PLP.ligand.clash>
0.0000

> <Gold.PLP.ligand.torsion>
0.0552

> <Gold.PLP.Chemscore.Hbond>
5.8710

> <Gold.PLP.Chemscore.CHOScore>
1.9881

> <Gold.PLP.Chemscore.Metal>
0.0000

> <Gold.Chemscore.Hbonds>
donor molecule, donor type, donor heavy atom, donor atom, acceptor molecule, acceptor atom, score
      L1  H    10    26       P1  7948  1.00
      L1  H    12    27       P1  7957  0.86
      L1  H    14    28       P1 10171  1.00
      L1  H    17    29       P1 10957  1.00
      P1  H  7954  7966       L1    14  1.00
      P1  H 11000 11005       L1     1  0.94
      L1  C     4    23       P1 10171  0.97
      L1  C     4    23       P1 10175  0.96

> <Gold.PLP.Chemscore.Internal.Correction>
0.0241

> <Gold.Rescore>
     Score         DG    S(hbond)    S(metal)    S(lipo)     H(rot)  DE(clash)    DE(int)     intcor
     14.12     -16.03       5.68        0.00      16.73       4.06       0.52       1.39       ----

> <Gold.Chemscore.Fitness>
14.1178

> <Gold.Chemscore.DG>
-16.0291

> <Gold.Chemscore.ZeroCoef>
-5.4800

> <Gold.Chemscore.Hbond>
5.6842

> <Gold.Chemscore.Metal>
0.0000

> <Gold.Chemscore.Lipo>
16.7298

> <Gold.Chemscore.Internal_Hbond>
0.0000

> <Gold.Chemscore.DEClash>
0.5227

> <Gold.Chemscore.DEInternal>
1.3886

> <Gold.Chemscore.Rot>
4.0600

> <Gold.Chemscore.Internal.Correction>
   9.000000E+99

> <Gold.Chemscore.Hbonds>
donor molecule, donor type, donor heavy atom, donor atom, acceptor molecule, acceptor atom, score
      L1  H    10    26       P1  7948  0.92
      L1  H    12    27       P1  7957  0.85
      L1  H    14    28       P1 10171  1.00
      L1  H    17    29       P1 10957  1.00
      P1  H  7954  7966       L1    14  0.89
      P1  H 11000 11005       L1     1  0.39

> <Gold.Chemscore.Hbond.Weighted>
-18.9853

> <Gold.Chemscore.Metal.Weighted>
-0.0000

> <Gold.Chemscore.Lipo.Weighted>
-1.9574

> <Gold.Chemscore.Internal_Hbond.Weighted>
0.0000

> <Gold.Chemscore.DEClash.Weighted>
0.5227

> <Gold.Chemscore.DEInternal.Weighted>
1.3886

> <Gold.Chemscore.Rot.Weighted>
10.3936

> <Gold.Chemscore.Internal.Correction.Weighted>
   9.000000E+99

> <Gold.Protein.RotatedTorsions>
[ 6907 6896 6895 6894 ] final  -84.25 input  -60.11 | X-H torsion
[ 7974 7965 7964 7962 ] final   23.68 input  175.53 | X-H torsion
[ 8008 7997 7996 7995 ] final  111.71 input   59.86 | X-H torsion
[ 10167 10162 10161 10158 ] final   11.05 input  -65.29 | X-H torsion
[ 10718 10713 10712 10709 ] final -133.67 input   66.30 | X-H torsion
[ 10763 10752 10751 10750 ] final -147.45 input  -60.55 | X-H torsion
[ 11005 11000 10999 10996 ] final   28.50 input  -57.11 | X-H torsion

> <Gold.Protein.ActiveResidues>
 VAL166  LYS551  ARG553  GLY616  TRP617  ASP618  TYR619  PRO620  LYS621  CYS622 
 ASP623  PHE694  ASN695  SER759  ASP760  ASP761  ALA762  ILE779  LEU786  VAL792 
 PHE793  MET794  SER795  GLU796  ALA797  LYS798  CYS799  TRP800  GLU811  SER814 

> <Gold.Protein.RotatedAtoms>
  150.6878  134.3387  159.4858 H   0  0  0  0  0  0  0  0  0  0  0  0  # atno 6907 bound_to 6896
  152.1243  134.9180  160.0571 H   0  0  0  0  0  0  0  0  0  0  0  0  # atno 6908 bound_to 6896
  152.0374  133.3928  159.4359 H   0  0  0  0  0  0  0  0  0  0  0  0  # atno 6909 bound_to 6896
  146.1973  139.7711  142.8788 H   0  0  0  0  0  0  0  0  0  0  0  0  # atno 7974 bound_to 7965
  156.2142  140.3014  155.9802 H   0  0  0  0  0  0  0  0  0  0  0  0  # atno 8008 bound_to 7997
  155.2646  140.0431  157.3018 H   0  0  0  0  0  0  0  0  0  0  0  0  # atno 8009 bound_to 7997
  154.5744  140.2357  155.8152 H   0  0  0  0  0  0  0  0  0  0  0  0  # atno 8010 bound_to 7997
  140.6156  143.8315  150.7115 H   0  0  0  0  0  0  0  0  0  0  0  0  # atno 10167 bound_to 10162
  156.2474  130.7132  151.1018 H   0  0  0  0  0  0  0  0  0  0  0  0  # atno 10718 bound_to 10713
  154.8285  135.3360  154.6821 H   0  0  0  0  0  0  0  0  0  0  0  0  # atno 10763 bound_to 10752
  153.7443  135.6943  153.4964 H   0  0  0  0  0  0  0  0  0  0  0  0  # atno 10764 bound_to 10752
  153.2221  135.4445  155.0452 H   0  0  0  0  0  0  0  0  0  0  0  0  # atno 10765 bound_to 10752
  140.3149  134.2608  155.7727 H   0  0  0  0  0  0  0  0  0  0  0  0  # atno 11005 bound_to 11000
  145.3601  141.0324  143.3290 LP  0  0  0  0  0  0  0  0  0  0  0  0  # atno 17320 bound_to 7965
  144.8608  139.5181  143.6813 LP  0  0  0  0  0  0  0  0  0  0  0  0  # atno 17321 bound_to 7965
  140.1893  143.4049  152.1875 LP  0  0  0  0  0  0  0  0  0  0  0  0  # atno 17342 bound_to 10162
  139.5396  144.7243  151.4778 LP  0  0  0  0  0  0  0  0  0  0  0  0  # atno 17343 bound_to 10162
  157.7200  131.0687  150.6172 LP  0  0  0  0  0  0  0  0  0  0  0  0  # atno 17370 bound_to 10713
  156.6250  130.4416  149.5808 LP  0  0  0  0  0  0  0  0  0  0  0  0  # atno 17371 bound_to 10713
  141.2100  133.7733  156.9962 LP  0  0  0  0  0  0  0  0  0  0  0  0  # atno 17394 bound_to 11000
  140.0992  134.9546  157.1897 LP  0  0  0  0  0  0  0  0  0  0  0  0  # atno 17395 bound_to 11000

$$$$
