#       Name:                AV-unprocessed.smi:1531
#       Creating user name   scv26
#       Creation time:       Fri Mar 27 06:30:56 2020


#       File generated by GOLD software.
#

@<TRIPOS>MOLECULE
AV-unprocessed.smi:1531
    49    50     1
SMALL
NO_CHARGES


@<TRIPOS>ATOM
      1 ****        -2.6021  -1.6817   3.4182 C.3            1 S1                 0.0000
      2 ****        -2.2710  -0.8375   2.1792 C.3            1 S1                 0.0000
      3 ****        -2.6581  -1.4983   0.8334 C.3            1 S1                 0.0000
      4 ****        -4.1881  -1.6937   0.7157 C.3            1 S1                 0.0000
      5 ****        -4.5942  -2.3309  -0.6214 C.3            1 S1                 0.0000
      6 ****        -4.0776  -1.5056  -1.8057 C.3            1 S1                 0.0000
      7 ****        -2.5567  -1.3273  -1.7214 C.3            1 S1                 0.0000
      8 ****        -2.1287  -0.6913  -0.3827 C.3            1 S1                 0.0000
      9 ****        -0.6700  -0.5971  -0.3464 N.am           1 S1                 0.0000
     10 ****         0.0516   0.4577  -0.7519 C.2            1 S1                 0.0000
     11 ****        -0.4424   1.4873  -1.2117 O.2            1 S1                 0.0000
     12 ****         1.3665   0.2367  -0.5949 N.am           1 S1                 0.0000
     13 ****         2.4256   1.1346  -0.8783 C.2            1 S1                 0.0000
     14 ****         2.3685   2.4756  -1.3527 C.2            1 S1                 0.0000
     15 ****         3.5840   2.9856  -1.4836 N.2            1 S1                 0.0000
     16 ****         4.4269   1.9943  -1.0995 N.pl3          1 S1                 0.0000
     17 ****         5.8610   2.2221  -1.1180 C.3            1 S1                 0.0000
     18 ****         6.4094   2.4173   0.2968 C.2            1 S1                 0.0000
     19 ****         6.1660   3.5895   0.8894 N.am           1 S1                 0.0000
     20 ****         7.0460   1.5213   0.8469 O.2            1 S1                 0.0000
     21 ****         3.7491   0.8499  -0.7259 C.2            1 S1                 0.0000
     22 ****        -2.2113  -1.2090   4.3194 H              1 S1                 0.0000
     23 ****        -2.1609  -2.6762   3.3485 H              1 S1                 0.0000
     24 ****        -3.6769  -1.7967   3.5559 H              1 S1                 0.0000
     25 ****        -2.7528   0.1372   2.2648 H              1 S1                 0.0000
     26 ****        -1.1990  -0.6419   2.2004 H              1 S1                 0.0000
     27 ****        -2.1946  -2.4858   0.8025 H              1 S1                 0.0000
     28 ****        -4.5556  -2.3261   1.5234 H              1 S1                 0.0000
     29 ****        -4.6907  -0.7317   0.8253 H              1 S1                 0.0000
     30 ****        -4.1986  -3.3457  -0.6792 H              1 S1                 0.0000
     31 ****        -5.6796  -2.4185  -0.6761 H              1 S1                 0.0000
     32 ****        -4.3436  -1.9926  -2.7443 H              1 S1                 0.0000
     33 ****        -4.5624  -0.5286  -1.8138 H              1 S1                 0.0000
     34 ****        -2.0729  -2.2979  -1.8407 H              1 S1                 0.0000
     35 ****        -2.2176  -0.7103  -2.5546 H              1 S1                 0.0000
     36 ****        -2.5575   0.3114  -0.3263 H              1 S1                 0.0000
     37 ****        -0.1749  -1.3988   0.0161 H              1 S1                 0.0000
     38 ****         1.6377  -0.6631  -0.2263 H              1 S1                 0.0000
     39 ****         1.5154   3.0898  -1.5995 H              1 S1                 0.0000
     40 ****         6.3433   1.3650  -1.5901 H              1 S1                 0.0000
     41 ****         6.0884   3.0959  -1.7312 H              1 S1                 0.0000
     42 ****         6.5160   3.7656   1.8203 H              1 S1                 0.0000
     43 ****         5.6395   4.2991   0.4008 H              1 S1                 0.0000
     44 ****         4.2578  -0.0416  -0.3893 H              1 S1                 0.0000
     45 ****        -1.4352   1.5696  -1.2994 LP             1 S1                 0.0000
     46 ****         0.1490   2.2412  -1.4975 LP             1 S1                 0.0000
     47 ****         3.8277   3.9031  -1.7977 LP             1 S1                 0.0000
     48 ****         7.2084   0.6577   0.3695 LP             1 S1                 0.0000
     49 ****         7.4015   1.6558   1.7719 LP             1 S1                 0.0000
@<TRIPOS>BOND
    1    1    2 1     
    2    1   22 1     
    3    1   23 1     
    4    1   24 1     
    5    2    3 1     
    6    2   25 1     
    7    2   26 1     
    8    3    8 1     
    9    3    4 1     
   10    3   27 1     
   11    4    5 1     
   12    4   28 1     
   13    4   29 1     
   14    5    6 1     
   15    5   30 1     
   16    5   31 1     
   17    6    7 1     
   18    6   32 1     
   19    6   33 1     
   20    7    8 1     
   21    7   34 1     
   22    7   35 1     
   23    8    9 1     
   24    8   36 1     
   25    9   10 am    
   26    9   37 1     
   27   10   11 2     
   28   10   12 am    
   29   12   13 1     
   30   12   38 1     
   31   13   21 2     
   32   13   14 1     
   33   14   15 2     
   34   14   39 1     
   35   15   16 1     
   36   16   17 1     
   37   16   21 1     
   38   17   18 1     
   39   17   40 1     
   40   17   41 1     
   41   18   19 am    
   42   18   20 2     
   43   19   42 1     
   44   19   43 1     
   45   21   44 1     
   46   11   45 1     
   47   11   46 1     
   48   15   47 1     
   49   20   48 1     
   50   20   49 1     
@<TRIPOS>SUBSTRUCTURE
      1 S1             1
@<TRIPOS>SET
LONE_PAIRS      STATIC     ATOMS    <user>   **** ""
5 45 46 47 48 49
DONOR_HYDROGENS      STATIC     ATOMS    <user>   **** ""
4 37 38 42 43
ATOM$BLUE        STATIC     ATOMS    COLORGROUP SYSTEM
5 45 46 47 48 49
ATOM$RED        STATIC     ATOMS    COLORGROUP SYSTEM
4 37 38 42 43
