AV-unprocessed.smi:970|AV-procd|sdf|4293|dock9
  -GOLD-   22720 2203D 1   1.00000     0.00000
 Structure written by MMmdl.
 31 31  0  0  0  0  0  0  0  0  1 V2000
  151.2105  145.3326  160.1437 C   0  0  0  0  0  0  0  0  0  0  0  0
  151.0623  143.9070  159.8956 N   0  0  0  0  0  0  0  0  0  0  0  0
  152.0118  143.1341  159.3496 C   0  0  0  0  0  0  0  0  0  0  0  0
  153.1173  143.5628  159.0133 O   0  0  0  0  0  0  0  0  0  0  0  0
  151.6610  141.6473  159.1728 C   0  0  2  0  0  0  0  0  0  0  0  0
  152.7101  140.8169  159.9304 C   0  0  0  0  0  0  0  0  0  0  0  0
  151.7261  141.2768  157.7607 N   0  0  0  0  0  0  0  0  0  0  0  0
  150.9149  140.3970  157.1506 C   0  0  0  0  0  0  0  0  0  0  0  0
  150.0492  139.7555  157.7473 O   0  0  0  0  0  0  0  0  0  0  0  0
  151.1107  140.2350  155.6358 C   0  0  1  0  0  0  0  0  0  0  0  0
  151.6714  138.8505  155.2506 C   0  0  0  0  0  0  0  0  0  0  0  0
  149.8671  140.5447  154.9402 N   0  0  0  0  0  0  0  0  0  0  0  0
  149.1582  141.6756  154.9162 C   0  0  0  0  0  0  0  0  0  0  0  0
  148.0334  141.5926  154.2198 N   0  0  0  0  0  0  0  0  0  0  0  0
  148.1061  140.2869  153.8254 C   0  0  0  0  0  0  0  0  0  0  0  0
  149.1782  139.6110  154.2376 N   0  0  0  0  0  0  0  0  0  0  0  0
  150.2937  145.7319  160.5778 H   0  0  0  0  0  0  0  0  0  0  0  0
  151.4104  145.8699  159.2157 H   0  0  0  0  0  0  0  0  0  0  0  0
  152.0286  145.5223  160.8398 H   0  0  0  0  0  0  0  0  0  0  0  0
  150.1818  143.4818  160.1475 H   0  0  0  0  0  0  0  0  0  0  0  0
  150.6670  141.4389  159.5735 H   0  0  0  0  0  0  0  0  0  0  0  0
  152.7073  141.0515  160.9956 H   0  0  0  0  0  0  0  0  0  0  0  0
  153.7189  140.9932  159.5536 H   0  0  0  0  0  0  0  0  0  0  0  0
  152.5050  139.7505  159.8337 H   0  0  0  0  0  0  0  0  0  0  0  0
  152.4074  141.7631  157.1963 H   0  0  0  0  0  0  0  0  0  0  0  0
  151.8457  140.9779  155.3210 H   0  0  0  0  0  0  0  0  0  0  0  0
  152.6283  138.6651  155.7396 H   0  0  0  0  0  0  0  0  0  0  0  0
  151.8374  138.7849  154.1750 H   0  0  0  0  0  0  0  0  0  0  0  0
  150.9963  138.0407  155.5300 H   0  0  0  0  0  0  0  0  0  0  0  0
  149.4681  142.5770  155.4244 H   0  0  0  0  0  0  0  0  0  0  0  0
  147.3428  139.8188  153.2214 H   0  0  0  0  0  0  0  0  0  0  0  0
  1  2  1  0  0  0  0
  1 17  1  0  0  0  0
  1 18  1  0  0  0  0
  1 19  1  0  0  0  0
  2  3  1  0  0  0  0
  2 20  1  0  0  0  0
  3  4  2  0  0  0  0
  3  5  1  0  0  0  0
  5  6  1  0  0  0  0
  5  7  1  0  0  0  0
  5 21  1  0  0  0  0
  6 22  1  0  0  0  0
  6 23  1  0  0  0  0
  6 24  1  0  0  0  0
  7  8  1  0  0  0  0
  7 25  1  0  0  0  0
  8  9  2  0  0  0  0
  8 10  1  0  0  0  0
 10 11  1  0  0  0  0
 10 12  1  0  0  0  0
 10 26  1  0  0  0  0
 11 27  1  0  0  0  0
 11 28  1  0  0  0  0
 11 29  1  0  0  0  0
 12 16  1  0  0  0  0
 12 13  1  0  0  0  0
 13 14  2  0  0  0  0
 13 30  1  0  0  0  0
 14 15  1  0  0  0  0
 15 16  2  0  0  0  0
 15 31  1  0  0  0  0
M  END
> <s_m_source_file>
AV-unprocessed.smi

> <i_m_source_file_index>
970

> <i_lp_mmshare_version>
43012

> <i_f3d_flags>
0

> <s_epik_input>
W0NIM11bTkhdQyg9TylbQ0BIXShbQ0gzXSlbTkhdQyg9TylbQ0BIXShbQ0gzXSluMVtjSF1uW2NIXW4x

> <s_epik_cmdline>
J2VwaWtfcHl0aG9uJywgJy1waCcsICc3LjAnLCAnLXRuJywgJzgnLCAnLW1hJywgJzIwMCcsICctbWV0YWxfYmluZGluZycsICctaW1hZScsICc8aW5maWxlLm1hZT4nLCAnLW9tYWUnLCAnPG91dGZpbGUubWFlPic=

> <r_lp_tautomer_probability>
1

> <r_epik_Ionization_Penalty>
1.07271e-05

> <r_epik_Ionization_Penalty_Charging>
0

> <r_epik_Ionization_Penalty_Neutral>
1.07271e-05

> <r_epik_State_Penalty>
-0

> <r_epik_Charging_Adjusted_Penalty>
0

> <i_epik_Tot_Q>
0

> <i_epik_Tot_abs_Q>
0

> <r_epik_Metal_State_Penalty>
-0

> <b_epik_Metal_Only>
0

> <s_lp_Force_Field>
OPLS_2005

> <r_lp_Energy>
8.21169

> <b_lp_Chiralities_Consistent>
1

> <s_lp_Variant>
AV-unprocessed.smi:970-3

> <Gold.Version>
5.8.1

> <Gold.Id.Protein>
6NUR|6NUR_protein|mol2

> <Gold.PLP.Fitness>
31.1194

> <Gold.PLP.PLP>
-29.0052

> <Gold.PLP.part.hbond>
0.0000

> <Gold.PLP.part.metal>
0.0000

> <Gold.PLP.part.buried>
-1.3053

> <Gold.PLP.part.nonpolar>
-27.1345

> <Gold.PLP.part.repulsive>
0.4399

> <Gold.PLP.ligand.clash>
0.0000

> <Gold.PLP.ligand.torsion>
0.5014

> <Gold.PLP.Chemscore.Hbond>
0.0000

> <Gold.PLP.Chemscore.CHOScore>
1.0000

> <Gold.PLP.Chemscore.Metal>
0.0000

> <Gold.Chemscore.Hbonds>
donor molecule, donor type, donor heavy atom, donor atom, acceptor molecule, acceptor atom, score
      L1  C    13    30       P1  8028  1.00

> <Gold.PLP.Chemscore.Internal.Correction>
0.1169

> <Gold.Rescore>
     Score         DG    S(hbond)    S(metal)    S(lipo)     H(rot)  DE(clash)    DE(int)     intcor
      3.70      -4.00       0.00        0.00      43.94       2.59       0.04       0.26       ----

> <Gold.Chemscore.Fitness>
3.6972

> <Gold.Chemscore.DG>
-4.0032

> <Gold.Chemscore.ZeroCoef>
-5.4800

> <Gold.Chemscore.Hbond>
0.0000

> <Gold.Chemscore.Metal>
0.0000

> <Gold.Chemscore.Lipo>
43.9438

> <Gold.Chemscore.Internal_Hbond>
0.0000

> <Gold.Chemscore.DEClash>
0.0419

> <Gold.Chemscore.DEInternal>
0.2642

> <Gold.Chemscore.Rot>
2.5852

> <Gold.Chemscore.Internal.Correction>
   9.000000E+99

> <Gold.Chemscore.Hbond.Weighted>
-0.0000

> <Gold.Chemscore.Metal.Weighted>
-0.0000

> <Gold.Chemscore.Lipo.Weighted>
-5.1414

> <Gold.Chemscore.Internal_Hbond.Weighted>
0.0000

> <Gold.Chemscore.DEClash.Weighted>
0.0419

> <Gold.Chemscore.DEInternal.Weighted>
0.2642

> <Gold.Chemscore.Rot.Weighted>
6.6182

> <Gold.Chemscore.Internal.Correction.Weighted>
   9.000000E+99

> <Gold.Protein.RotatedTorsions>
[ 6907 6896 6895 6894 ] final   98.18 input  -60.11 | X-H torsion
[ 7974 7965 7964 7962 ] final   47.79 input  175.53 | X-H torsion
[ 8008 7997 7996 7995 ] final   -5.20 input   59.86 | X-H torsion
[ 10167 10162 10161 10158 ] final -117.45 input  -65.29 | X-H torsion
[ 10718 10713 10712 10709 ] final   13.28 input   66.30 | X-H torsion
[ 10763 10752 10751 10750 ] final -126.92 input  -60.55 | X-H torsion
[ 11005 11000 10999 10996 ] final   16.20 input  -57.11 | X-H torsion

> <Gold.Protein.ActiveResidues>
 VAL166  LYS551  ARG553  GLY616  TRP617  ASP618  TYR619  PRO620  LYS621  CYS622 
 ASP623  PHE694  ASN695  SER759  ASP760  ASP761  ALA762  ILE779  LEU786  VAL792 
 PHE793  MET794  SER795  GLU796  ALA797  LYS798  CYS799  TRP800  GLU811  SER814 

> <Gold.Protein.RotatedAtoms>
  152.5413  134.0620  159.8155 H   0  0  0  0  0  0  0  0  0  0  0  0  # atno 6907 bound_to 6896
  151.0746  133.5431  159.2632 H   0  0  0  0  0  0  0  0  0  0  0  0  # atno 6908 bound_to 6896
  151.2281  135.0552  159.9030 H   0  0  0  0  0  0  0  0  0  0  0  0  # atno 6909 bound_to 6896
  146.0265  139.4712  142.9864 H   0  0  0  0  0  0  0  0  0  0  0  0  # atno 7974 bound_to 7965
  154.6063  140.2464  155.7726 H   0  0  0  0  0  0  0  0  0  0  0  0  # atno 8008 bound_to 7997
  156.2343  140.2956  156.0222 H   0  0  0  0  0  0  0  0  0  0  0  0  # atno 8009 bound_to 7997
  155.2126  140.0398  157.2926 H   0  0  0  0  0  0  0  0  0  0  0  0  # atno 8010 bound_to 7997
  140.0682  143.4902  152.1994 H   0  0  0  0  0  0  0  0  0  0  0  0  # atno 10167 bound_to 10162
  157.0224  130.6160  149.5723 H   0  0  0  0  0  0  0  0  0  0  0  0  # atno 10718 bound_to 10713
  154.8749  135.3979  154.3509 H   0  0  0  0  0  0  0  0  0  0  0  0  # atno 10763 bound_to 10752
  153.4294  135.7025  153.6246 H   0  0  0  0  0  0  0  0  0  0  0  0  # atno 10764 bound_to 10752
  153.4874  135.3756  155.2443 H   0  0  0  0  0  0  0  0  0  0  0  0  # atno 10765 bound_to 10752
  140.4497  134.1237  155.7701 H   0  0  0  0  0  0  0  0  0  0  0  0  # atno 11005 bound_to 11000
  145.7110  141.0106  143.1453 LP  0  0  0  0  0  0  0  0  0  0  0  0  # atno 17320 bound_to 7965
  144.7012  139.8757  143.7443 LP  0  0  0  0  0  0  0  0  0  0  0  0  # atno 17321 bound_to 7965
  139.5852  144.7528  151.3538 LP  0  0  0  0  0  0  0  0  0  0  0  0  # atno 17342 bound_to 10162
  140.7139  143.7319  150.7617 LP  0  0  0  0  0  0  0  0  0  0  0  0  # atno 17343 bound_to 10162
  156.0097  130.5188  150.7949 LP  0  0  0  0  0  0  0  0  0  0  0  0  # atno 17370 bound_to 10713
  157.5239  131.0933  151.0043 LP  0  0  0  0  0  0  0  0  0  0  0  0  # atno 17371 bound_to 10713
  141.1669  133.8685  157.1687 LP  0  0  0  0  0  0  0  0  0  0  0  0  # atno 17394 bound_to 11000
  140.0015  135.0026  157.0200 LP  0  0  0  0  0  0  0  0  0  0  0  0  # atno 17395 bound_to 11000

$$$$
