#       Name:                AV-unprocessed.smi:1324
#       Creating user name   scv26
#       Creation time:       Fri Mar 27 05:04:04 2020


#       File generated by GOLD software.
#

@<TRIPOS>MOLECULE
AV-unprocessed.smi:1324
    48    49     1
SMALL
NO_CHARGES


@<TRIPOS>ATOM
      1 ****        -6.5761  -1.1594   1.7133 C.3            1 S1                 0.0000
      2 ****        -5.0637  -1.1696   1.6580 C.2            1 S1                 0.0000
      3 ****        -4.4853   0.0337   2.0268 N.pl3          1 S1                 0.0000
      4 ****        -3.1043   0.1180   2.0167 C.2            1 S1                 0.0000
      5 ****        -2.5514   1.4679   2.4389 C.3            1 S1                 0.0000
      6 ****        -2.3384  -0.9406   1.6493 C.2            1 S1                 0.0000
      7 ****        -0.8107  -0.8898   1.6226 C.3            1 S1                 0.0000
      8 ****        -0.1710  -0.2985   0.3633 C.2            1 S1                 0.0000
      9 ****        -0.8695   0.1251  -0.5581 O.2            1 S1                 0.0000
     10 ****         1.1707  -0.2801   0.3411 N.am           1 S1                 0.0000
     11 ****         1.9968   0.2330  -0.7500 C.3            1 S1                 0.0000
     12 ****         2.1071  -0.8472  -1.8512 C.3            1 S1                 0.0000
     13 ****         3.2303  -0.6811  -2.8905 C.3            1 S1                 0.0000
     14 ****         3.5436   0.7628  -3.3117 C.3            1 S1                 0.0000
     15 ****         4.5484   1.4470  -2.3702 C.3            1 S1                 0.0000
     16 ****         3.9742   1.8571  -1.0067 C.3            1 S1                 0.0000
     17 ****         3.3489   0.7148  -0.1850 C.3            1 S1                 0.0000
     18 ****        -3.0154  -2.1966   1.2488 C.2            1 S1                 0.0000
     19 ****        -2.3777  -3.1835   0.8840 O.2            1 S1                 0.0000
     20 ****        -4.4188  -2.2345   1.2893 N.2            1 S1                 0.0000
     21 ****        -5.0171   0.8458   2.3053 H              1 S1                 0.0000
     22 ****        -6.9772  -2.1667   1.5941 H              1 S1                 0.0000
     23 ****        -6.9791  -0.5344   0.9158 H              1 S1                 0.0000
     24 ****        -6.9218  -0.7680   2.6707 H              1 S1                 0.0000
     25 ****        -1.9483   1.3670   3.3414 H              1 S1                 0.0000
     26 ****        -3.3491   2.1819   2.6480 H              1 S1                 0.0000
     27 ****        -1.9266   1.8868   1.6497 H              1 S1                 0.0000
     28 ****        -0.3972  -1.8850   1.7904 H              1 S1                 0.0000
     29 ****        -0.4681  -0.3009   2.4735 H              1 S1                 0.0000
     30 ****         1.6600  -0.6519   1.1422 H              1 S1                 0.0000
     31 ****         1.4866   1.1029  -1.1679 H              1 S1                 0.0000
     32 ****         2.2250  -1.8301  -1.3925 H              1 S1                 0.0000
     33 ****         1.1532  -0.8878  -2.3787 H              1 S1                 0.0000
     34 ****         4.1404  -1.1537  -2.5190 H              1 S1                 0.0000
     35 ****         2.9531  -1.2556  -3.7750 H              1 S1                 0.0000
     36 ****         3.9923   0.7323  -4.3051 H              1 S1                 0.0000
     37 ****         2.6310   1.3512  -3.4147 H              1 S1                 0.0000
     38 ****         5.4165   0.8031  -2.2251 H              1 S1                 0.0000
     39 ****         4.9281   2.3438  -2.8607 H              1 S1                 0.0000
     40 ****         4.7796   2.3030  -0.4223 H              1 S1                 0.0000
     41 ****         3.2406   2.6523  -1.1442 H              1 S1                 0.0000
     42 ****         3.1929   1.1017   0.8232 H              1 S1                 0.0000
     43 ****         4.0458  -0.1172  -0.0776 H              1 S1                 0.0000
     44 ****        -1.8663   0.0852  -0.4890 LP             1 S1                 0.0000
     45 ****        -0.4399   0.5090  -1.3755 LP             1 S1                 0.0000
     46 ****        -1.3787  -3.1498   0.8527 LP             1 S1                 0.0000
     47 ****        -2.8583  -4.0193   0.6188 LP             1 S1                 0.0000
     48 ****        -4.9127  -3.0671   1.0386 LP             1 S1                 0.0000
@<TRIPOS>BOND
    1    1   22 1     
    2    1   23 1     
    3    1   24 1     
    4    1    2 1     
    5    2    3 1     
    6    2   20 2     
    7    3    4 1     
    8    3   21 1     
    9    4    6 2     
   10    4    5 1     
   11    5   25 1     
   12    5   26 1     
   13    5   27 1     
   14    6   18 1     
   15    6    7 1     
   16    7    8 1     
   17    7   28 1     
   18    7   29 1     
   19    8    9 2     
   20    8   10 am    
   21   10   11 1     
   22   10   30 1     
   23   11   17 1     
   24   11   12 1     
   25   11   31 1     
   26   12   13 1     
   27   12   32 1     
   28   12   33 1     
   29   13   14 1     
   30   13   34 1     
   31   13   35 1     
   32   14   15 1     
   33   14   36 1     
   34   14   37 1     
   35   15   16 1     
   36   15   38 1     
   37   15   39 1     
   38   16   17 1     
   39   16   40 1     
   40   16   41 1     
   41   17   42 1     
   42   17   43 1     
   43   18   19 2     
   44   18   20 1     
   45    9   44 1     
   46    9   45 1     
   47   19   46 1     
   48   19   47 1     
   49   20   48 1     
@<TRIPOS>SUBSTRUCTURE
      1 S1             1
@<TRIPOS>SET
LONE_PAIRS      STATIC     ATOMS    <user>   **** ""
5 44 45 46 47 48
DONOR_HYDROGENS      STATIC     ATOMS    <user>   **** ""
2 21 30
ATOM$BLUE        STATIC     ATOMS    COLORGROUP SYSTEM
5 44 45 46 47 48
ATOM$RED        STATIC     ATOMS    COLORGROUP SYSTEM
2 21 30
