AV-unprocessed.smi:1740|AV-procd|sdf|7009|dock6
  -GOLD-   22720 8223D 1   1.00000     0.00000
 Structure written by MMmdl.
 52 54  0  0  0  0  0  0  0  0  2 V2000
  145.9506  132.1753  149.7282 N   0  0  0  0  0  0  0  0  0  0  0  0
  145.1361  131.7082  150.6778 C   0  0  0  0  0  0  0  0  0  0  0  0
  145.3272  130.6314  151.2385 O   0  0  0  0  0  0  0  0  0  0  0  0
  143.9262  132.5746  151.0461 C   0  0  0  0  0  0  0  0  0  0  0  0
  144.2621  133.9402  151.5117 N   0  0  0  0  0  0  0  0  0  0  0  0
  143.1800  134.5442  152.3037 C   0  0  0  0  0  0  0  0  0  0  0  0
  143.5962  135.9326  152.8216 C   0  0  0  0  0  0  0  0  0  0  0  0
  143.9850  136.8672  151.6647 C   0  0  0  0  0  0  0  0  0  0  0  0
  144.5044  138.1342  152.1708 N   0  0  0  0  0  0  0  0  0  0  0  0
  145.7386  138.3210  152.6589 C   0  0  0  0  0  0  0  0  0  0  0  0
  146.5852  137.4307  152.7373 O   0  0  0  0  0  0  0  0  0  0  0  0
  145.9315  139.5994  153.0238 N   0  0  0  0  0  0  0  0  0  0  0  0
  147.1201  140.1790  153.5492 C   0  0  0  0  0  0  0  0  0  0  0  0
  148.3439  139.4619  153.5419 C   0  0  0  0  0  0  0  0  0  0  0  0
  149.4907  140.0233  154.1342 C   0  0  0  0  0  0  0  0  0  0  0  0
  149.3934  141.2878  154.7395 C   0  0  0  0  0  0  0  0  0  0  0  0
  148.2123  141.9399  154.7398 N   0  3  0  0  0  0  0  0  0  0  0  0
  147.0770  141.4594  154.1734 C   0  0  0  0  0  0  0  0  0  0  0  0
  145.9153  142.2623  154.2359 N   0  0  0  0  0  0  0  0  0  0  0  0
  145.2574  142.5099  155.5139 C   0  0  0  0  0  0  0  0  0  0  0  0
  144.3124  143.6796  155.2533 C   0  0  0  0  0  0  0  0  0  0  0  0
  145.0950  144.5139  154.2439 C   0  0  0  0  0  0  0  0  0  0  0  0
  145.8489  143.4683  153.4157 C   0  0  0  0  0  0  0  0  0  0  0  0
  145.0468  136.1737  150.8006 C   0  0  0  0  0  0  0  0  0  0  0  0
  144.5700  134.7818  150.3506 C   0  0  0  0  0  0  0  0  0  0  0  0
  146.7638  131.6420  149.4567 H   0  0  0  0  0  0  0  0  0  0  0  0
  145.7523  133.0632  149.2901 H   0  0  0  0  0  0  0  0  0  0  0  0
  143.2928  132.6374  150.1599 H   0  0  0  0  0  0  0  0  0  0  0  0
  143.3390  132.0592  151.8086 H   0  0  0  0  0  0  0  0  0  0  0  0
  142.2721  134.6215  151.7027 H   0  0  0  0  0  0  0  0  0  0  0  0
  142.9339  133.9235  153.1653 H   0  0  0  0  0  0  0  0  0  0  0  0
  142.7783  136.3675  153.3974 H   0  0  0  0  0  0  0  0  0  0  0  0
  144.4350  135.8241  153.5110 H   0  0  0  0  0  0  0  0  0  0  0  0
  143.1065  137.0555  151.0443 H   0  0  0  0  0  0  0  0  0  0  0  0
  143.8763  138.9240  152.1431 H   0  0  0  0  0  0  0  0  0  0  0  0
  145.1868  140.2453  152.8065 H   0  0  0  0  0  0  0  0  0  0  0  0
  148.4137  138.4755  153.1087 H   0  0  0  0  0  0  0  0  0  0  0  0
  150.4273  139.4849  154.1346 H   0  0  0  0  0  0  0  0  0  0  0  0
  150.2166  141.7931  155.2236 H   0  0  0  0  0  0  0  0  0  0  0  0
  144.7217  141.6271  155.8642 H   0  0  0  0  0  0  0  0  0  0  0  0
  145.9883  142.7938  156.2722 H   0  0  0  0  0  0  0  0  0  0  0  0
  143.3867  143.3203  154.8016 H   0  0  0  0  0  0  0  0  0  0  0  0
  144.0578  144.2310  156.1590 H   0  0  0  0  0  0  0  0  0  0  0  0
  144.4581  145.1573  153.6361 H   0  0  0  0  0  0  0  0  0  0  0  0
  145.8082  145.1492  154.7711 H   0  0  0  0  0  0  0  0  0  0  0  0
  146.8388  143.8282  153.1307 H   0  0  0  0  0  0  0  0  0  0  0  0
  145.2936  143.2433  152.5046 H   0  0  0  0  0  0  0  0  0  0  0  0
  145.2746  136.7850  149.9266 H   0  0  0  0  0  0  0  0  0  0  0  0
  145.9786  136.0733  151.3597 H   0  0  0  0  0  0  0  0  0  0  0  0
  145.3579  134.3176  149.7558 H   0  0  0  0  0  0  0  0  0  0  0  0
  143.6958  134.8722  149.7030 H   0  0  0  0  0  0  0  0  0  0  0  0
  148.1742  142.8561  155.1869 H   0  0  0  0  0  0  0  0  0  0  0  0
  1  2  1  0  0  0  0
  1 26  1  0  0  0  0
  1 27  1  0  0  0  0
  2  3  2  0  0  0  0
  2  4  1  0  0  0  0
  4  5  1  0  0  0  0
  4 28  1  0  0  0  0
  4 29  1  0  0  0  0
  5 25  1  0  0  0  0
  5  6  1  0  0  0  0
  6  7  1  0  0  0  0
  6 30  1  0  0  0  0
  6 31  1  0  0  0  0
  7  8  1  0  0  0  0
  7 32  1  0  0  0  0
  7 33  1  0  0  0  0
  8  9  1  0  0  0  0
  8 24  1  0  0  0  0
  8 34  1  0  0  0  0
  9 10  1  0  0  0  0
  9 35  1  0  0  0  0
 10 11  2  0  0  0  0
 10 12  1  0  0  0  0
 12 13  1  0  0  0  0
 12 36  1  0  0  0  0
 13 18  1  0  0  0  0
 13 14  2  0  0  0  0
 14 15  1  0  0  0  0
 14 37  1  0  0  0  0
 15 16  2  0  0  0  0
 15 38  1  0  0  0  0
 16 17  1  0  0  0  0
 16 39  1  0  0  0  0
 17 18  2  0  0  0  0
 17 52  1  0  0  0  0
 18 19  1  0  0  0  0
 19 23  1  0  0  0  0
 19 20  1  0  0  0  0
 20 21  1  0  0  0  0
 20 40  1  0  0  0  0
 20 41  1  0  0  0  0
 21 22  1  0  0  0  0
 21 42  1  0  0  0  0
 21 43  1  0  0  0  0
 22 23  1  0  0  0  0
 22 44  1  0  0  0  0
 22 45  1  0  0  0  0
 23 46  1  0  0  0  0
 23 47  1  0  0  0  0
 24 25  1  0  0  0  0
 24 48  1  0  0  0  0
 24 49  1  0  0  0  0
 25 50  1  0  0  0  0
 25 51  1  0  0  0  0
M  CHG  1  17   1
M  END
> <s_m_source_file>
AV-unprocessed.smi

> <i_m_source_file_index>
1740

> <i_lp_mmshare_version>
43012

> <i_f3d_flags>
0

> <s_epik_input>
W05IMl1DKD1PKVtDSDJdTjFbQ0gyXVtDSDJdW0NIXShbQ0gyXVtDSDJdMSlbTkhdQyg9TylbTkhdYzJbY0hdW2NIXVtjSF1uYzJOM1tDSDJdW0NIMl1bQ0gyXVtDSDJdMw==

> <s_epik_cmdline>
J2VwaWtfcHl0aG9uJywgJy1waCcsICc3LjAnLCAnLXRuJywgJzgnLCAnLW1hJywgJzIwMCcsICctbWV0YWxfYmluZGluZycsICctaW1hZScsICc8aW5maWxlLm1hZT4nLCAnLW9tYWUnLCAnPG91dGZpbGUubWFlPic=

> <r_epik_Ionization_Penalty>
1.24114

> <r_epik_Ionization_Penalty_Charging>
1.08532

> <r_epik_Ionization_Penalty_Neutral>
0.155817

> <r_epik_State_Penalty>
1.33508

> <r_epik_Charging_Adjusted_Penalty>
2.4204

> <i_epik_Tot_Q>
1

> <i_epik_Tot_abs_Q>
1

> <r_epik_Metal_State_Penalty>
1.43573

> <b_epik_Metal_Only>
0

> <s_lp_Force_Field>
OPLS_2005

> <r_lp_Energy>
46.1835

> <b_lp_Chiralities_Consistent>
1

> <s_lp_Variant>
AV-unprocessed.smi:1740-4

> <Gold.Version>
5.8.1

> <Gold.Id.Protein>
6NUR|6NUR_protein|mol2

> <Gold.PLP.Fitness>
53.6382

> <Gold.PLP.PLP>
-39.5618

> <Gold.PLP.part.hbond>
-5.0000

> <Gold.PLP.part.metal>
0.0000

> <Gold.PLP.part.buried>
-4.9759

> <Gold.PLP.part.nonpolar>
-32.3557

> <Gold.PLP.part.repulsive>
3.4750

> <Gold.PLP.ligand.clash>
0.0000

> <Gold.PLP.ligand.torsion>
0.6494

> <Gold.PLP.Chemscore.Hbond>
5.0000

> <Gold.PLP.Chemscore.CHOScore>
0.0000

> <Gold.PLP.Chemscore.Metal>
0.0000

> <Gold.Chemscore.Hbonds>
donor molecule, donor type, donor heavy atom, donor atom, acceptor molecule, acceptor atom, score
      L1  H     1    27       P1  7921  0.01
      L1  H     9    35       P1 10175  0.96
      L1  H    12    36       P1 10175  0.98
      L1  H    17    52       P1  8028  2.00

> <Gold.PLP.Chemscore.Internal.Correction>
0.3752

> <Gold.Rescore>
     Score         DG    S(hbond)    S(metal)    S(lipo)     H(rot)  DE(clash)    DE(int)     intcor
     16.79     -21.28       3.59        0.00      80.50       2.19       0.80       3.69       ----

> <Gold.Chemscore.Fitness>
16.7913

> <Gold.Chemscore.DG>
-21.2837

> <Gold.Chemscore.ZeroCoef>
-5.4800

> <Gold.Chemscore.Hbond>
3.5911

> <Gold.Chemscore.Metal>
0.0000

> <Gold.Chemscore.Lipo>
80.5008

> <Gold.Chemscore.Internal_Hbond>
0.0000

> <Gold.Chemscore.DEClash>
0.8026

> <Gold.Chemscore.DEInternal>
3.6898

> <Gold.Chemscore.Rot>
2.1911

> <Gold.Chemscore.Internal.Correction>
   9.000000E+99

> <Gold.Chemscore.Hbonds>
donor molecule, donor type, donor heavy atom, donor atom, acceptor molecule, acceptor atom, score
      L1  H     1    26       P1 10747  0.03
      L1  H     9    35       P1 10175  0.88
      L1  H    12    36       P1 10175  0.86
      L1  H    17    52       P1  8028  0.90

> <Gold.Chemscore.Hbond.Weighted>
-11.9943

> <Gold.Chemscore.Metal.Weighted>
-0.0000

> <Gold.Chemscore.Lipo.Weighted>
-9.4186

> <Gold.Chemscore.Internal_Hbond.Weighted>
0.0000

> <Gold.Chemscore.DEClash.Weighted>
0.8026

> <Gold.Chemscore.DEInternal.Weighted>
3.6898

> <Gold.Chemscore.Rot.Weighted>
5.6092

> <Gold.Chemscore.Internal.Correction.Weighted>
   9.000000E+99

> <Gold.Protein.RotatedTorsions>
[ 6907 6896 6895 6894 ] final   86.37 input  -60.11 | X-H torsion
[ 7974 7965 7964 7962 ] final -171.05 input  175.53 | X-H torsion
[ 8008 7997 7996 7995 ] final   65.82 input   59.86 | X-H torsion
[ 10167 10162 10161 10158 ] final -159.11 input  -65.29 | X-H torsion
[ 10718 10713 10712 10709 ] final  158.74 input   66.30 | X-H torsion
[ 10763 10752 10751 10750 ] final -109.33 input  -60.55 | X-H torsion
[ 11005 11000 10999 10996 ] final  -39.44 input  -57.11 | X-H torsion

> <Gold.Protein.ActiveResidues>
 VAL166  LYS551  ARG553  GLY616  TRP617  ASP618  TYR619  PRO620  LYS621  CYS622 
 ASP623  PHE694  ASN695  SER759  ASP760  ASP761  ALA762  ILE779  LEU786  VAL792 
 PHE793  MET794  SER795  GLU796  ALA797  LYS798  CYS799  TRP800  GLU811  SER814 

> <Gold.Protein.RotatedAtoms>
  152.5393  134.2442  159.8873 H   0  0  0  0  0  0  0  0  0  0  0  0  # atno 6907 bound_to 6896
  151.2408  133.4394  159.2615 H   0  0  0  0  0  0  0  0  0  0  0  0  # atno 6908 bound_to 6896
  151.0628  134.9762  159.8325 H   0  0  0  0  0  0  0  0  0  0  0  0  # atno 6909 bound_to 6896
  144.7162  140.1980  143.6341 H   0  0  0  0  0  0  0  0  0  0  0  0  # atno 7974 bound_to 7965
  155.6677  140.3497  155.4806 H   0  0  0  0  0  0  0  0  0  0  0  0  # atno 8008 bound_to 7997
  155.9714  140.1156  157.0831 H   0  0  0  0  0  0  0  0  0  0  0  0  # atno 8009 bound_to 7997
  154.4167  140.1156  156.5298 H   0  0  0  0  0  0  0  0  0  0  0  0  # atno 8010 bound_to 7997
  139.6640  143.9862  152.2243 H   0  0  0  0  0  0  0  0  0  0  0  0  # atno 10167 bound_to 10162
  157.1738  131.0616  151.2169 H   0  0  0  0  0  0  0  0  0  0  0  0  # atno 10718 bound_to 10713
  154.8187  135.4605  154.0716 H   0  0  0  0  0  0  0  0  0  0  0  0  # atno 10763 bound_to 10752
  153.2088  135.6879  153.8146 H   0  0  0  0  0  0  0  0  0  0  0  0  # atno 10764 bound_to 10752
  153.7605  135.3285  155.3313 H   0  0  0  0  0  0  0  0  0  0  0  0  # atno 10765 bound_to 10752
  141.0102  133.6912  156.2187 H   0  0  0  0  0  0  0  0  0  0  0  0  # atno 11005 bound_to 11000
  145.8706  139.2270  143.1663 LP  0  0  0  0  0  0  0  0  0  0  0  0  # atno 17320 bound_to 7965
  146.0088  140.8454  142.9981 LP  0  0  0  0  0  0  0  0  0  0  0  0  # atno 17321 bound_to 7965
  139.9609  144.6558  150.8081 LP  0  0  0  0  0  0  0  0  0  0  0  0  # atno 17342 bound_to 10162
  140.7592  143.3123  151.2816 LP  0  0  0  0  0  0  0  0  0  0  0  0  # atno 17343 bound_to 10162
  157.4018  130.7337  149.6773 LP  0  0  0  0  0  0  0  0  0  0  0  0  # atno 17370 bound_to 10713
  155.9734  130.4119  150.4003 LP  0  0  0  0  0  0  0  0  0  0  0  0  # atno 17371 bound_to 10713
  140.6746  134.4831  157.5588 LP  0  0  0  0  0  0  0  0  0  0  0  0  # atno 17394 bound_to 11000
  139.9085  134.8395  156.1614 LP  0  0  0  0  0  0  0  0  0  0  0  0  # atno 17395 bound_to 11000

$$$$
