AV-unprocessed.smi:625|AV-procd|sdf|3102|dock2
  -GOLD-   22720 0 23D 1   1.00000     0.00000
 Structure written by MMmdl.
 49 51  0  0  0  0  0  0  0  0  1 V2000
  145.9506  129.9177  160.8561 C   0  0  0  0  0  0  0  0  0  0  0  0
  146.3119  131.2946  161.1577 N   0  0  0  0  0  0  0  0  0  0  0  0
  146.5537  132.2376  160.2324 C   0  0  0  0  0  0  0  0  0  0  0  0
  146.4807  131.9954  159.0260 O   0  0  0  0  0  0  0  0  0  0  0  0
  146.8996  133.5445  160.7962 C   0  0  0  0  0  0  0  0  0  0  0  0
  146.9047  133.8243  162.2242 C   0  0  0  0  0  0  0  0  0  0  0  0
  147.1985  135.0586  162.6794 C   0  0  0  0  0  0  0  0  0  0  0  0
  147.5202  136.1626  161.7697 C   0  0  0  0  0  0  0  0  0  0  0  0
  147.7674  137.2959  162.1819 O   0  0  0  0  0  0  0  0  0  0  0  0
  147.5222  135.8519  160.4386 N   0  0  0  0  0  0  0  0  0  0  0  0
  147.7784  136.8706  159.4088 C   0  0  0  0  0  0  0  0  0  0  0  0
  148.9573  136.4564  158.5226 C   0  0  0  0  0  0  0  0  0  0  0  0
  150.0129  136.0792  159.0317 O   0  0  0  0  0  0  0  0  0  0  0  0
  148.7634  136.5566  157.1988 N   0  0  0  0  0  0  0  0  0  0  0  0
  149.7944  136.4137  156.1743 C   0  0  1  0  0  0  0  0  0  0  0  0
  149.4568  135.2138  155.2762 C   0  0  0  0  0  0  0  0  0  0  0  0
  149.9097  137.7338  155.3739 C   0  0  2  0  0  0  0  0  0  0  0  0
  151.1217  137.8111  154.4188 C   0  0  0  0  0  0  0  0  0  0  0  0
  151.7509  139.1742  154.7666 C   0  0  2  0  0  0  0  0  0  0  0  0
  152.4674  139.0681  156.1255 C   0  0  0  0  0  0  0  0  0  0  0  0
  151.2953  138.9971  157.1206 C   0  0  0  0  0  0  0  0  0  0  0  0
  150.0604  139.0400  156.1970 C   0  0  1  0  0  0  0  0  0  0  0  0
  150.5294  140.0142  155.1220 C   0  0  0  0  0  0  0  0  0  0  0  0
  147.2142  134.5596  159.9697 C   0  0  0  0  0  0  0  0  0  0  0  0
  145.7877  129.3649  161.7813 H   0  0  0  0  0  0  0  0  0  0  0  0
  146.7459  129.4217  160.2981 H   0  0  0  0  0  0  0  0  0  0  0  0
  145.0332  129.8760  160.2673 H   0  0  0  0  0  0  0  0  0  0  0  0
  146.3842  131.5497  162.1318 H   0  0  0  0  0  0  0  0  0  0  0  0
  146.6760  133.0560  162.9482 H   0  0  0  0  0  0  0  0  0  0  0  0
  147.1953  135.2423  163.7440 H   0  0  0  0  0  0  0  0  0  0  0  0
  146.9084  137.0481  158.7750 H   0  0  0  0  0  0  0  0  0  0  0  0
  147.9852  137.8288  159.8894 H   0  0  0  0  0  0  0  0  0  0  0  0
  147.8524  136.8536  156.8805 H   0  0  0  0  0  0  0  0  0  0  0  0
  150.7591  136.2103  156.6415 H   0  0  0  0  0  0  0  0  0  0  0  0
  150.2173  135.0676  154.5089 H   0  0  0  0  0  0  0  0  0  0  0  0
  148.4990  135.3496  154.7731 H   0  0  0  0  0  0  0  0  0  0  0  0
  149.3994  134.2936  155.8585 H   0  0  0  0  0  0  0  0  0  0  0  0
  149.0017  137.8370  154.7767 H   0  0  0  0  0  0  0  0  0  0  0  0
  151.8301  136.9937  154.5592 H   0  0  0  0  0  0  0  0  0  0  0  0
  150.7907  137.7857  153.3800 H   0  0  0  0  0  0  0  0  0  0  0  0
  152.3776  139.5820  153.9732 H   0  0  0  0  0  0  0  0  0  0  0  0
  153.1167  138.1940  156.1847 H   0  0  0  0  0  0  0  0  0  0  0  0
  153.0775  139.9521  156.3153 H   0  0  0  0  0  0  0  0  0  0  0  0
  151.3343  138.1116  157.7532 H   0  0  0  0  0  0  0  0  0  0  0  0
  151.3049  139.8651  157.7811 H   0  0  0  0  0  0  0  0  0  0  0  0
  149.1464  139.3440  156.7078 H   0  0  0  0  0  0  0  0  0  0  0  0
  150.7811  141.0023  155.5124 H   0  0  0  0  0  0  0  0  0  0  0  0
  149.8238  140.1251  154.2966 H   0  0  0  0  0  0  0  0  0  0  0  0
  147.2326  134.4654  158.8926 H   0  0  0  0  0  0  0  0  0  0  0  0
  1  2  1  0  0  0  0
  1 25  1  0  0  0  0
  1 26  1  0  0  0  0
  1 27  1  0  0  0  0
  2  3  1  0  0  0  0
  2 28  1  0  0  0  0
  3  4  2  0  0  0  0
  3  5  1  0  0  0  0
  5 24  2  0  0  0  0
  5  6  1  0  0  0  0
  6  7  2  0  0  0  0
  6 29  1  0  0  0  0
  7  8  1  0  0  0  0
  7 30  1  0  0  0  0
  8  9  2  0  0  0  0
  8 10  1  0  0  0  0
 10 11  1  0  0  0  0
 10 24  1  0  0  0  0
 11 12  1  0  0  0  0
 11 31  1  0  0  0  0
 11 32  1  0  0  0  0
 12 13  2  0  0  0  0
 12 14  1  0  0  0  0
 14 15  1  0  0  0  0
 14 33  1  0  0  0  0
 15 16  1  0  0  0  0
 15 17  1  0  0  0  0
 15 34  1  0  0  0  0
 16 35  1  0  0  0  0
 16 36  1  0  0  0  0
 16 37  1  0  0  0  0
 17 22  1  0  0  0  0
 17 18  1  0  0  0  0
 17 38  1  0  0  0  0
 18 19  1  0  0  0  0
 18 39  1  0  0  0  0
 18 40  1  0  0  0  0
 19 23  1  0  0  0  0
 19 20  1  0  0  0  0
 19 41  1  0  0  0  0
 20 21  1  0  0  0  0
 20 42  1  0  0  0  0
 20 43  1  0  0  0  0
 21 22  1  0  0  0  0
 21 44  1  0  0  0  0
 21 45  1  0  0  0  0
 22 23  1  0  0  0  0
 22 46  1  0  0  0  0
 23 47  1  0  0  0  0
 23 48  1  0  0  0  0
 24 49  1  0  0  0  0
M  END
> <s_m_source_file>
AV-unprocessed.smi

> <i_m_source_file_index>
625

> <i_lp_mmshare_version>
43012

> <i_f3d_flags>
0

> <s_epik_input>
W0NIM11bTkhdQyg9TyljMVtjSF1bY0hdYyg9TyluKFtjSF0xKVtDSDJdQyg9TylbTkhdW0NASF0oW0NIM10pW0NASF0oW0NIMl1bQ0BIXTIzKVtDQEhdKFtDSDJdMylbQ0gyXVtDSDJdMg==

> <s_epik_cmdline>
J2VwaWtfcHl0aG9uJywgJy1waCcsICc3LjAnLCAnLXRuJywgJzgnLCAnLW1hJywgJzIwMCcsICctbWV0YWxfYmluZGluZycsICctaW1hZScsICc8aW5maWxlLm1hZT4nLCAnLW9tYWUnLCAnPG91dGZpbGUubWFlPic=

> <r_lp_tautomer_probability>
1

> <r_epik_Ionization_Penalty>
3.7129e-07

> <r_epik_Ionization_Penalty_Charging>
5.04114e-08

> <r_epik_Ionization_Penalty_Neutral>
3.20879e-07

> <r_epik_State_Penalty>
-0

> <r_epik_Charging_Adjusted_Penalty>
5.04114e-08

> <i_epik_Tot_Q>
0

> <i_epik_Tot_abs_Q>
0

> <r_epik_Metal_State_Penalty>
-0

> <b_epik_Metal_Only>
0

> <s_lp_Force_Field>
OPLS_2005

> <r_lp_Energy>
63.4228

> <b_lp_Chiralities_Consistent>
1

> <s_lp_Variant>
AV-unprocessed.smi:625-2

> <Gold.Version>
5.8.1

> <Gold.Id.Protein>
6NUR|6NUR_protein|mol2

> <Gold.PLP.Fitness>
47.0290

> <Gold.PLP.PLP>
-39.8398

> <Gold.PLP.part.hbond>
-3.0000

> <Gold.PLP.part.metal>
0.0000

> <Gold.PLP.part.buried>
-2.0079

> <Gold.PLP.part.nonpolar>
-34.2800

> <Gold.PLP.part.repulsive>
0.0364

> <Gold.PLP.ligand.clash>
0.0000

> <Gold.PLP.ligand.torsion>
0.2155

> <Gold.PLP.Chemscore.Hbond>
2.5040

> <Gold.PLP.Chemscore.CHOScore>
0.0000

> <Gold.PLP.Chemscore.Metal>
0.0000

> <Gold.Chemscore.Hbonds>
donor molecule, donor type, donor heavy atom, donor atom, acceptor molecule, acceptor atom, score
      P1  H  6896  6909       L1    13  1.00
      P1  H  6931  6943       L1     9  0.93
      P1  H  6934  6947       L1     9  0.30

> <Gold.PLP.Chemscore.Internal.Correction>
0.1082

> <Gold.Rescore>
     Score         DG    S(hbond)    S(metal)    S(lipo)     H(rot)  DE(clash)    DE(int)     intcor
     18.64     -19.17       2.63        0.00      78.45       1.67       0.01       0.53       ----

> <Gold.Chemscore.Fitness>
18.6377

> <Gold.Chemscore.DG>
-19.1730

> <Gold.Chemscore.ZeroCoef>
-5.4800

> <Gold.Chemscore.Hbond>
2.6322

> <Gold.Chemscore.Metal>
0.0000

> <Gold.Chemscore.Lipo>
78.4512

> <Gold.Chemscore.Internal_Hbond>
0.0000

> <Gold.Chemscore.DEClash>
0.0060

> <Gold.Chemscore.DEInternal>
0.5293

> <Gold.Chemscore.Rot>
1.6709

> <Gold.Chemscore.Internal.Correction>
   9.000000E+99

> <Gold.Chemscore.Hbonds>
donor molecule, donor type, donor heavy atom, donor atom, acceptor molecule, acceptor atom, score
      P1  H  6896  6909       L1    13  0.99
      P1  H  6931  6943       L1     9  0.90
      P1  H  6934  6947       L1     9  0.30

> <Gold.Chemscore.Hbond.Weighted>
-8.7916

> <Gold.Chemscore.Metal.Weighted>
-0.0000

> <Gold.Chemscore.Lipo.Weighted>
-9.1788

> <Gold.Chemscore.Internal_Hbond.Weighted>
0.0000

> <Gold.Chemscore.DEClash.Weighted>
0.0060

> <Gold.Chemscore.DEInternal.Weighted>
0.5293

> <Gold.Chemscore.Rot.Weighted>
4.2774

> <Gold.Chemscore.Internal.Correction.Weighted>
   9.000000E+99

> <Gold.Protein.RotatedTorsions>
[ 6907 6896 6895 6894 ] final   83.28 input  -60.11 | X-H torsion
[ 7974 7965 7964 7962 ] final -121.38 input  175.53 | X-H torsion
[ 8008 7997 7996 7995 ] final  115.62 input   59.86 | X-H torsion
[ 10167 10162 10161 10158 ] final -118.71 input  -65.29 | X-H torsion
[ 10718 10713 10712 10709 ] final -175.35 input   66.30 | X-H torsion
[ 10763 10752 10751 10750 ] final  144.11 input  -60.55 | X-H torsion
[ 11005 11000 10999 10996 ] final -118.93 input  -57.11 | X-H torsion

> <Gold.Protein.ActiveResidues>
 VAL166  LYS551  ARG553  GLY616  TRP617  ASP618  TYR619  PRO620  LYS621  CYS622 
 ASP623  PHE694  ASN695  SER759  ASP760  ASP761  ALA762  ILE779  LEU786  VAL792 
 PHE793  MET794  SER795  GLU796  ALA797  LYS798  CYS799  TRP800  GLU811  SER814 

> <Gold.Protein.RotatedAtoms>
  152.5323  134.2920  159.9046 H   0  0  0  0  0  0  0  0  0  0  0  0  # atno 6907 bound_to 6896
  151.2872  133.4176  159.2638 H   0  0  0  0  0  0  0  0  0  0  0  0  # atno 6908 bound_to 6896
  151.0232  134.9500  159.8128 H   0  0  0  0  0  0  0  0  0  0  0  0  # atno 6909 bound_to 6896
  145.0410  140.8144  143.4266 H   0  0  0  0  0  0  0  0  0  0  0  0  # atno 7974 bound_to 7965
  156.2392  140.2935  156.0396 H   0  0  0  0  0  0  0  0  0  0  0  0  # atno 8008 bound_to 7997
  155.2002  140.0409  157.2933 H   0  0  0  0  0  0  0  0  0  0  0  0  # atno 8009 bound_to 7997
  154.6135  140.2458  155.7645 H   0  0  0  0  0  0  0  0  0  0  0  0  # atno 8010 bound_to 7997
  140.0546  143.5027  152.2064 H   0  0  0  0  0  0  0  0  0  0  0  0  # atno 10167 bound_to 10162
  156.7986  130.9544  151.3119 H   0  0  0  0  0  0  0  0  0  0  0  0  # atno 10718 bound_to 10713
  153.9835  135.2939  155.3418 H   0  0  0  0  0  0  0  0  0  0  0  0  # atno 10763 bound_to 10752
  154.7256  135.5090  153.8883 H   0  0  0  0  0  0  0  0  0  0  0  0  # atno 10764 bound_to 10752
  153.0843  135.6688  154.0095 H   0  0  0  0  0  0  0  0  0  0  0  0  # atno 10765 bound_to 10752
  141.0252  134.0065  157.3225 H   0  0  0  0  0  0  0  0  0  0  0  0  # atno 11005 bound_to 11000
  145.1648  139.2437  143.5372 LP  0  0  0  0  0  0  0  0  0  0  0  0  # atno 17320 bound_to 7965
  146.3509  140.1385  142.8595 LP  0  0  0  0  0  0  0  0  0  0  0  0  # atno 17321 bound_to 7965
  139.5932  144.7557  151.3350 LP  0  0  0  0  0  0  0  0  0  0  0  0  # atno 17342 bound_to 10162
  140.7201  143.7160  150.7733 LP  0  0  0  0  0  0  0  0  0  0  0  0  # atno 17343 bound_to 10162
  157.6565  130.8929  149.9740 LP  0  0  0  0  0  0  0  0  0  0  0  0  # atno 17370 bound_to 10713
  156.1115  130.3650  150.0041 LP  0  0  0  0  0  0  0  0  0  0  0  0  # atno 17371 bound_to 10713
  139.9171  135.0198  156.7923 LP  0  0  0  0  0  0  0  0  0  0  0  0  # atno 17394 bound_to 11000
  140.6504  133.9736  155.7752 LP  0  0  0  0  0  0  0  0  0  0  0  0  # atno 17395 bound_to 11000

$$$$
