AV-unprocessed.smi:861|AV-procd|sdf|3973|dock7
  -GOLD-   22720 1453D 1   1.00000     0.00000
 Structure written by MMmdl.
 45 46  0  0  0  0  0  0  0  0  3 V2000
  144.1216  132.2129  150.1046 C   0  0  0  0  0  0  0  0  0  0  0  0
  144.8956  132.7048  151.3394 C   0  0  0  0  0  0  0  0  0  0  0  0
  145.2183  134.2009  151.2050 C   0  0  0  0  0  0  0  0  0  0  0  0
  146.1814  131.8930  151.6001 C   0  0  0  0  0  0  0  0  0  0  0  0
  146.8376  132.1778  152.9648 C   0  0  0  0  0  0  0  0  0  0  0  0
  148.3005  131.9085  152.9525 N   0  3  2  0  0  0  0  0  0  0  0  0
  148.6957  130.7222  153.7507 C   0  0  0  0  0  0  0  0  0  0  0  0
  148.7166  131.0457  155.2549 C   0  0  0  0  0  0  0  0  0  0  0  0
  149.5916  132.1428  155.4892 O   0  0  0  0  0  0  0  0  0  0  0  0
  149.1663  133.3320  154.8310 C   0  0  1  0  0  0  0  0  0  0  0  0
  150.1426  134.4624  155.2030 C   0  0  0  0  0  0  0  0  0  0  0  0
  149.9438  135.6622  154.4002 N   0  0  0  0  0  0  0  0  0  0  0  0
  150.5772  136.8747  154.7103 C   0  0  0  0  0  0  0  0  0  0  0  0
  151.4540  137.0633  155.8047 C   0  0  0  0  0  0  0  0  0  0  0  0
  152.0215  138.3350  155.9933 C   0  0  0  0  0  0  0  0  0  0  0  0
  151.6771  139.3447  155.0773 C   0  0  0  0  0  0  0  0  0  0  0  0
  150.8360  139.1453  154.0385 N   0  0  0  0  0  0  0  0  0  0  0  0
  150.3094  137.9175  153.8848 N   0  3  0  0  0  0  0  0  0  0  0  0
  149.1505  133.0751  153.3072 C   0  0  0  0  0  0  0  0  0  0  0  0
  144.7405  132.2492  149.2077 H   0  0  0  0  0  0  0  0  0  0  0  0
  143.2421  132.8319  149.9238 H   0  0  0  0  0  0  0  0  0  0  0  0
  143.7689  131.1895  150.2280 H   0  0  0  0  0  0  0  0  0  0  0  0
  144.2440  132.5936  152.2072 H   0  0  0  0  0  0  0  0  0  0  0  0
  145.8718  134.3903  150.3526 H   0  0  0  0  0  0  0  0  0  0  0  0
  145.7168  134.5807  152.0973 H   0  0  0  0  0  0  0  0  0  0  0  0
  144.3105  134.7885  151.0644 H   0  0  0  0  0  0  0  0  0  0  0  0
  145.9659  130.8270  151.5142 H   0  0  0  0  0  0  0  0  0  0  0  0
  146.8896  132.1193  150.8038 H   0  0  0  0  0  0  0  0  0  0  0  0
  146.6344  133.1999  153.2832 H   0  0  0  0  0  0  0  0  0  0  0  0
  146.3722  131.5305  153.7078 H   0  0  0  0  0  0  0  0  0  0  0  0
  148.0387  129.8769  153.5424 H   0  0  0  0  0  0  0  0  0  0  0  0
  149.6942  130.4152  153.4363 H   0  0  0  0  0  0  0  0  0  0  0  0
  147.7160  131.2718  155.6265 H   0  0  0  0  0  0  0  0  0  0  0  0
  149.0763  130.1841  155.8176 H   0  0  0  0  0  0  0  0  0  0  0  0
  148.1650  133.5974  155.1720 H   0  0  0  0  0  0  0  0  0  0  0  0
  150.0138  134.7287  156.2525 H   0  0  0  0  0  0  0  0  0  0  0  0
  151.1749  134.1265  155.1043 H   0  0  0  0  0  0  0  0  0  0  0  0
  149.4529  135.5719  153.5216 H   0  0  0  0  0  0  0  0  0  0  0  0
  151.6964  136.2655  156.4904 H   0  0  0  0  0  0  0  0  0  0  0  0
  152.6967  138.5326  156.8128 H   0  0  0  0  0  0  0  0  0  0  0  0
  152.0860  140.3393  155.1793 H   0  0  0  0  0  0  0  0  0  0  0  0
  150.1655  132.8648  152.9668 H   0  0  0  0  0  0  0  0  0  0  0  0
  148.8326  133.9687  152.7715 H   0  0  0  0  0  0  0  0  0  0  0  0
  148.5140  131.6741  151.9931 H   0  0  0  0  0  0  0  0  0  0  0  0
  149.6727  137.7612  153.1029 H   0  0  0  0  0  0  0  0  0  0  0  0
  1  2  1  0  0  0  0
  1 20  1  0  0  0  0
  1 21  1  0  0  0  0
  1 22  1  0  0  0  0
  2  3  1  0  0  0  0
  2  4  1  0  0  0  0
  2 23  1  0  0  0  0
  3 24  1  0  0  0  0
  3 25  1  0  0  0  0
  3 26  1  0  0  0  0
  4  5  1  0  0  0  0
  4 27  1  0  0  0  0
  4 28  1  0  0  0  0
  5  6  1  0  0  0  0
  5 29  1  0  0  0  0
  5 30  1  0  0  0  0
  6 19  1  0  0  0  0
  6  7  1  0  0  0  0
  6 44  1  0  0  0  0
  7  8  1  0  0  0  0
  7 31  1  0  0  0  0
  7 32  1  0  0  0  0
  8  9  1  0  0  0  0
  8 33  1  0  0  0  0
  8 34  1  0  0  0  0
  9 10  1  0  0  0  0
 10 11  1  0  0  0  0
 10 19  1  0  0  0  0
 10 35  1  0  0  0  0
 11 12  1  0  0  0  0
 11 36  1  0  0  0  0
 11 37  1  0  0  0  0
 12 13  1  0  0  0  0
 12 38  1  0  0  0  0
 13 18  1  0  0  0  0
 13 14  2  0  0  0  0
 14 15  1  0  0  0  0
 14 39  1  0  0  0  0
 15 16  2  0  0  0  0
 15 40  1  0  0  0  0
 16 17  1  0  0  0  0
 16 41  1  0  0  0  0
 17 18  2  0  0  0  0
 18 45  1  0  0  0  0
 19 42  1  0  0  0  0
 19 43  1  0  0  0  0
M  CHG  1   6   1
M  CHG  1  18   1
M  END
> <s_m_source_file>
AV-unprocessed.smi

> <i_m_source_file_index>
861

> <i_lp_mmshare_version>
43012

> <i_f3d_flags>
0

> <s_epik_input>
W0NIM11bQ0hdKFtDSDNdKVtDSDJdW0NIMl1OMVtDSDJdW0NIMl1PW0NASF0oW0NIMl0xKVtDSDJdW05IXWMyW2NIXVtjSF1bY0hdbm4y

> <s_epik_cmdline>
J2VwaWtfcHl0aG9uJywgJy1waCcsICc3LjAnLCAnLXRuJywgJzgnLCAnLW1hJywgJzIwMCcsICctbWV0YWxfYmluZGluZycsICctaW1hZScsICc8aW5maWxlLm1hZT4nLCAnLW9tYWUnLCAnPG91dGZpbGUubWFlPic=

> <r_lp_tautomer_probability>
0.966961

> <r_epik_Ionization_Penalty>
2.478

> <r_epik_Ionization_Penalty_Charging>
2.47799

> <r_epik_Ionization_Penalty_Neutral>
3.15286e-06

> <r_epik_State_Penalty>
2.10794

> <r_epik_Charging_Adjusted_Penalty>
4.58594

> <i_epik_Tot_Q>
2

> <i_epik_Tot_abs_Q>
2

> <r_epik_Metal_State_Penalty>
2.11378

> <b_epik_Metal_Only>
0

> <s_lp_Force_Field>
OPLS_2005

> <r_lp_Energy>
36.5784

> <b_lp_Chiralities_Consistent>
1

> <s_lp_Variant>
AV-unprocessed.smi:861-8

> <Gold.Version>
5.8.1

> <Gold.Id.Protein>
6NUR|6NUR_protein|mol2

> <Gold.PLP.Fitness>
45.4895

> <Gold.PLP.PLP>
-33.6388

> <Gold.PLP.part.hbond>
-4.9694

> <Gold.PLP.part.metal>
0.0000

> <Gold.PLP.part.buried>
-3.1182

> <Gold.PLP.part.nonpolar>
-26.7670

> <Gold.PLP.part.repulsive>
0.3253

> <Gold.PLP.ligand.clash>
0.0000

> <Gold.PLP.ligand.torsion>
1.0155

> <Gold.PLP.Chemscore.Hbond>
4.6160

> <Gold.PLP.Chemscore.CHOScore>
0.0000

> <Gold.PLP.Chemscore.Metal>
0.0000

> <Gold.Chemscore.Hbonds>
donor molecule, donor type, donor heavy atom, donor atom, acceptor molecule, acceptor atom, score
      L1  H     6    44       P1 10747  1.00
      L1  H    12    38       P1  7948  1.90
      L1  H    18    45       P1  7948  1.54
      P1  H  7989  7998       L1    17  0.05

> <Gold.PLP.Chemscore.Internal.Correction>
0.0338

> <Gold.Rescore>
     Score         DG    S(hbond)    S(metal)    S(lipo)     H(rot)  DE(clash)    DE(int)     intcor
     16.36     -17.36       2.13        0.00      79.64       1.78       0.06       0.95       ----

> <Gold.Chemscore.Fitness>
16.3580

> <Gold.Chemscore.DG>
-17.3636

> <Gold.Chemscore.ZeroCoef>
-5.4800

> <Gold.Chemscore.Hbond>
2.1294

> <Gold.Chemscore.Metal>
0.0000

> <Gold.Chemscore.Lipo>
79.6368

> <Gold.Chemscore.Internal_Hbond>
0.0000

> <Gold.Chemscore.DEClash>
0.0558

> <Gold.Chemscore.DEInternal>
0.9498

> <Gold.Chemscore.Rot>
1.7759

> <Gold.Chemscore.Internal.Correction>
   9.000000E+99

> <Gold.Chemscore.Hbonds>
donor molecule, donor type, donor heavy atom, donor atom, acceptor molecule, acceptor atom, score
      L1  H     6    44       P1 10747  0.99
      L1  H    12    38       P1  7948  0.21
      L1  H    18    45       P1  7948  0.54

> <Gold.Chemscore.Hbond.Weighted>
-7.1123

> <Gold.Chemscore.Metal.Weighted>
-0.0000

> <Gold.Chemscore.Lipo.Weighted>
-9.3175

> <Gold.Chemscore.Internal_Hbond.Weighted>
0.0000

> <Gold.Chemscore.DEClash.Weighted>
0.0558

> <Gold.Chemscore.DEInternal.Weighted>
0.9498

> <Gold.Chemscore.Rot.Weighted>
4.5462

> <Gold.Chemscore.Internal.Correction.Weighted>
   9.000000E+99

> <Gold.Protein.RotatedTorsions>
[ 6907 6896 6895 6894 ] final    7.91 input  -60.11 | X-H torsion
[ 7974 7965 7964 7962 ] final   63.98 input  175.53 | X-H torsion
[ 8008 7997 7996 7995 ] final   29.58 input   59.86 | X-H torsion
[ 10167 10162 10161 10158 ] final   43.59 input  -65.29 | X-H torsion
[ 10718 10713 10712 10709 ] final  -29.19 input   66.30 | X-H torsion
[ 10763 10752 10751 10750 ] final   96.28 input  -60.55 | X-H torsion
[ 11005 11000 10999 10996 ] final -126.19 input  -57.11 | X-H torsion

> <Gold.Protein.ActiveResidues>
 VAL166  LYS551  ARG553  GLY616  TRP617  ASP618  TYR619  PRO620  LYS621  CYS622 
 ASP623  PHE694  ASN695  SER759  ASP760  ASP761  ALA762  ILE779  LEU786  VAL792 
 PHE793  MET794  SER795  GLU796  ALA797  LYS798  CYS799  TRP800  GLU811  SER814 

> <Gold.Protein.RotatedAtoms>
  151.6976  135.0936  160.0244 H   0  0  0  0  0  0  0  0  0  0  0  0  # atno 6907 bound_to 6896
  152.3740  133.6453  159.6118 H   0  0  0  0  0  0  0  0  0  0  0  0  # atno 6908 bound_to 6896
  150.7695  133.9139  159.3419 H   0  0  0  0  0  0  0  0  0  0  0  0  # atno 6909 bound_to 6896
  145.8555  139.3281  143.0850 H   0  0  0  0  0  0  0  0  0  0  0  0  # atno 7974 bound_to 7965
  155.0767  140.3206  155.4614 H   0  0  0  0  0  0  0  0  0  0  0  0  # atno 8008 bound_to 7997
  156.2777  140.2102  156.5841 H   0  0  0  0  0  0  0  0  0  0  0  0  # atno 8009 bound_to 7997
  154.7011  140.0507  157.0446 H   0  0  0  0  0  0  0  0  0  0  0  0  # atno 8010 bound_to 7997
  140.3429  144.2448  150.6153 H   0  0  0  0  0  0  0  0  0  0  0  0  # atno 10167 bound_to 10162
  156.4156  130.4416  149.7221 H   0  0  0  0  0  0  0  0  0  0  0  0  # atno 10718 bound_to 10713
  153.2630  135.4224  155.0913 H   0  0  0  0  0  0  0  0  0  0  0  0  # atno 10763 bound_to 10752
  154.8427  135.3454  154.6350 H   0  0  0  0  0  0  0  0  0  0  0  0  # atno 10764 bound_to 10752
  153.6770  135.7041  153.5186 H   0  0  0  0  0  0  0  0  0  0  0  0  # atno 10765 bound_to 10752
  140.9701  134.0817  157.3878 H   0  0  0  0  0  0  0  0  0  0  0  0  # atno 11005 bound_to 11000
  145.9309  140.9049  143.0357 LP  0  0  0  0  0  0  0  0  0  0  0  0  # atno 17320 bound_to 7965
  144.6728  140.1416  143.7436 LP  0  0  0  0  0  0  0  0  0  0  0  0  # atno 17321 bound_to 7965
  140.5292  143.2247  151.8266 LP  0  0  0  0  0  0  0  0  0  0  0  0  # atno 17342 bound_to 10162
  139.4838  144.4741  151.9388 LP  0  0  0  0  0  0  0  0  0  0  0  0  # atno 17343 bound_to 10162
  156.4182  130.7756  151.2772 LP  0  0  0  0  0  0  0  0  0  0  0  0  # atno 17370 bound_to 10713
  157.7508  131.0191  150.3652 LP  0  0  0  0  0  0  0  0  0  0  0  0  # atno 17371 bound_to 10713
  139.8909  135.0115  156.6762 LP  0  0  0  0  0  0  0  0  0  0  0  0  # atno 17394 bound_to 11000
  140.7341  133.9034  155.8231 LP  0  0  0  0  0  0  0  0  0  0  0  0  # atno 17395 bound_to 11000

$$$$
