AV-unprocessed.smi:2694|AV-procd|sdf|10405|dock2
  -GOLD-   2272014433D 1   1.00000     0.00000
 Structure written by MMmdl.
 42 44  0  0  0  0  0  0  0  0  1 V2000
  152.2483  138.6458  159.6825 O   0  0  0  0  0  0  0  0  0  0  0  0
  151.6175  139.4934  159.0510 C   0  0  0  0  0  0  0  0  0  0  0  0
  151.7562  140.9281  159.3019 C   0  0  0  0  0  0  0  0  0  0  0  0
  151.0406  141.8300  158.5878 C   0  0  0  0  0  0  0  0  0  0  0  0
  151.1260  143.3291  158.8412 C   0  0  0  0  0  0  0  0  0  0  0  0
  151.8315  144.1727  157.7655 C   0  0  0  0  0  0  0  0  0  0  0  0
  152.4575  144.9873  158.9028 C   0  0  0  0  0  0  0  0  0  0  0  0
  152.2341  143.7730  159.8105 C   0  0  0  0  0  0  0  0  0  0  0  0
  150.1527  141.4064  157.5929 N   0  0  0  0  0  0  0  0  0  0  0  0
  150.0152  140.1427  157.3483 C   0  0  0  0  0  0  0  0  0  0  0  0
  150.7304  139.1646  158.0676 N   0  0  0  0  0  0  0  0  0  0  0  0
  150.4702  137.7580  157.7133 C   0  0  0  0  0  0  0  0  0  0  0  0
  149.6981  136.9837  158.8085 C   0  0  2  0  0  0  0  0  0  0  0  0
  149.7187  135.6120  158.4714 O   0  0  0  0  0  0  0  0  0  0  0  0
  148.2319  137.4217  158.9783 C   0  0  0  0  0  0  0  0  0  0  0  0
  147.8869  137.3355  160.3547 O   0  0  0  0  0  0  0  0  0  0  0  0
  147.4278  136.1343  160.8514 C   0  0  0  0  0  0  0  0  0  0  0  0
  147.2495  134.9683  160.0644 C   0  0  0  0  0  0  0  0  0  0  0  0
  146.7593  133.7826  160.6453 C   0  0  0  0  0  0  0  0  0  0  0  0
  146.4449  133.7445  162.0158 C   0  0  0  0  0  0  0  0  0  0  0  0
  146.6277  134.8928  162.8074 C   0  0  0  0  0  0  0  0  0  0  0  0
  147.1201  136.0789  162.2291 C   0  0  0  0  0  0  0  0  0  0  0  0
  147.3487  137.4696  163.2264 Cl  0  0  0  0  0  0  0  0  0  0  0  0
  152.4353  141.2593  160.0739 H   0  0  0  0  0  0  0  0  0  0  0  0
  150.1562  143.7487  159.1146 H   0  0  0  0  0  0  0  0  0  0  0  0
  152.5792  143.6228  157.1922 H   0  0  0  0  0  0  0  0  0  0  0  0
  151.1615  144.7366  157.1161 H   0  0  0  0  0  0  0  0  0  0  0  0
  153.5027  145.2573  158.7500 H   0  0  0  0  0  0  0  0  0  0  0  0
  151.8523  145.8486  159.1902 H   0  0  0  0  0  0  0  0  0  0  0  0
  151.8917  144.0115  160.8176 H   0  0  0  0  0  0  0  0  0  0  0  0
  153.0942  143.1006  159.8259 H   0  0  0  0  0  0  0  0  0  0  0  0
  149.3353  139.7620  156.5844 H   0  0  0  0  0  0  0  0  0  0  0  0
  149.9277  137.6872  156.7683 H   0  0  0  0  0  0  0  0  0  0  0  0
  151.4215  137.2589  157.5184 H   0  0  0  0  0  0  0  0  0  0  0  0
  150.2126  137.0771  159.7658 H   0  0  0  0  0  0  0  0  0  0  0  0
  149.3228  135.5042  157.6202 H   0  0  0  0  0  0  0  0  0  0  0  0
  148.1072  138.4326  158.5870 H   0  0  0  0  0  0  0  0  0  0  0  0
  147.5687  136.7598  158.4189 H   0  0  0  0  0  0  0  0  0  0  0  0
  147.4842  134.9557  159.0112 H   0  0  0  0  0  0  0  0  0  0  0  0
  146.6247  132.9003  160.0371 H   0  0  0  0  0  0  0  0  0  0  0  0
  146.0683  132.8351  162.4602 H   0  0  0  0  0  0  0  0  0  0  0  0
  146.3910  134.8630  163.8608 H   0  0  0  0  0  0  0  0  0  0  0  0
  1  2  2  0  0  0  0
  2 11  1  0  0  0  0
  2  3  1  0  0  0  0
  3  4  2  0  0  0  0
  3 24  1  0  0  0  0
  4  5  1  0  0  0  0
  4  9  1  0  0  0  0
  5  8  1  0  0  0  0
  5  6  1  0  0  0  0
  5 25  1  0  0  0  0
  6  7  1  0  0  0  0
  6 26  1  0  0  0  0
  6 27  1  0  0  0  0
  7  8  1  0  0  0  0
  7 28  1  0  0  0  0
  7 29  1  0  0  0  0
  8 30  1  0  0  0  0
  8 31  1  0  0  0  0
  9 10  2  0  0  0  0
 10 11  1  0  0  0  0
 10 32  1  0  0  0  0
 11 12  1  0  0  0  0
 12 13  1  0  0  0  0
 12 33  1  0  0  0  0
 12 34  1  0  0  0  0
 13 14  1  0  0  0  0
 13 15  1  0  0  0  0
 13 35  1  0  0  0  0
 14 36  1  0  0  0  0
 15 16  1  0  0  0  0
 15 37  1  0  0  0  0
 15 38  1  0  0  0  0
 16 17  1  0  0  0  0
 17 22  1  0  0  0  0
 17 18  2  0  0  0  0
 18 19  1  0  0  0  0
 18 39  1  0  0  0  0
 19 20  2  0  0  0  0
 19 40  1  0  0  0  0
 20 21  1  0  0  0  0
 20 41  1  0  0  0  0
 21 22  2  0  0  0  0
 21 42  1  0  0  0  0
 22 23  1  0  0  0  0
M  END
> <s_m_source_file>
AV-unprocessed.smi

> <i_m_source_file_index>
2694

> <i_lp_mmshare_version>
43012

> <i_f3d_flags>
0

> <s_epik_input>
W0NIMl0xW0NIMl1bQ0gyXVtDSF0xYyhbY0hdYzI9TyluW2NIXW4yW0NIMl1bQ0BIXShbT0hdKVtDSDJdT2MzW2NIXVtjSF1bY0hdW2NIXWMzQ2w=

> <s_epik_cmdline>
J2VwaWtfcHl0aG9uJywgJy1waCcsICc3LjAnLCAnLXRuJywgJzgnLCAnLW1hJywgJzIwMCcsICctbWV0YWxfYmluZGluZycsICctaW1hZScsICc8aW5maWxlLm1hZT4nLCAnLW9tYWUnLCAnPG91dGZpbGUubWFlPic=

> <r_lp_tautomer_probability>
1

> <r_epik_Ionization_Penalty>
1.78212e-05

> <r_epik_Ionization_Penalty_Charging>
5.61663e-08

> <r_epik_Ionization_Penalty_Neutral>
1.7765e-05

> <r_epik_State_Penalty>
-0

> <r_epik_Charging_Adjusted_Penalty>
5.61663e-08

> <i_epik_Tot_Q>
0

> <i_epik_Tot_abs_Q>
0

> <r_epik_Metal_State_Penalty>
-0

> <b_epik_Metal_Only>
0

> <s_lp_Force_Field>
OPLS_2005

> <r_lp_Energy>
26.4785

> <b_lp_Chiralities_Consistent>
1

> <s_lp_Variant>
AV-unprocessed.smi:2694-1

> <Gold.Version>
5.8.1

> <Gold.Id.Protein>
6NUR|6NUR_protein|mol2

> <Gold.PLP.Fitness>
54.8073

> <Gold.PLP.PLP>
-49.3428

> <Gold.PLP.part.hbond>
-3.0000

> <Gold.PLP.part.metal>
0.0000

> <Gold.PLP.part.buried>
-3.4499

> <Gold.PLP.part.nonpolar>
-43.8931

> <Gold.PLP.part.repulsive>
0.0501

> <Gold.PLP.ligand.clash>
0.0000

> <Gold.PLP.ligand.torsion>
0.9600

> <Gold.PLP.Chemscore.Hbond>
2.2762

> <Gold.PLP.Chemscore.CHOScore>
0.0000

> <Gold.PLP.Chemscore.Metal>
0.0000

> <Gold.Chemscore.Hbonds>
donor molecule, donor type, donor heavy atom, donor atom, acceptor molecule, acceptor atom, score
      P1  H  6896  6908       L1    14  1.00
      P1  H  6931  6943       L1    16  0.50
      P1  H  6934  6947       L1    16  0.78

> <Gold.PLP.Chemscore.Internal.Correction>
0.5561

> <Gold.Rescore>
     Score         DG    S(hbond)    S(metal)    S(lipo)     H(rot)  DE(clash)    DE(int)     intcor
     19.49     -21.04       1.80        0.00     134.70       2.42       0.48       1.06       ----

> <Gold.Chemscore.Fitness>
19.4893

> <Gold.Chemscore.DG>
-21.0352

> <Gold.Chemscore.ZeroCoef>
-5.4800

> <Gold.Chemscore.Hbond>
1.7971

> <Gold.Chemscore.Metal>
0.0000

> <Gold.Chemscore.Lipo>
134.6970

> <Gold.Chemscore.Internal_Hbond>
0.0000

> <Gold.Chemscore.DEClash>
0.4822

> <Gold.Chemscore.DEInternal>
1.0637

> <Gold.Chemscore.Rot>
2.4245

> <Gold.Chemscore.Internal.Correction>
   9.000000E+99

> <Gold.Chemscore.Hbonds>
donor molecule, donor type, donor heavy atom, donor atom, acceptor molecule, acceptor atom, score
      P1  H  6896  6908       L1    14  0.94
      P1  H  6931  6943       L1    16  0.32
      P1  H  6934  6947       L1    16  0.50

> <Gold.Chemscore.Hbond.Weighted>
-6.0023

> <Gold.Chemscore.Metal.Weighted>
-0.0000

> <Gold.Chemscore.Lipo.Weighted>
-15.7596

> <Gold.Chemscore.Internal_Hbond.Weighted>
0.0000

> <Gold.Chemscore.DEClash.Weighted>
0.4822

> <Gold.Chemscore.DEInternal.Weighted>
1.0637

> <Gold.Chemscore.Rot.Weighted>
6.2066

> <Gold.Chemscore.Internal.Correction.Weighted>
   9.000000E+99

> <Gold.Protein.RotatedTorsions>
[ 6907 6896 6895 6894 ] final  163.75 input  -60.11 | X-H torsion
[ 7974 7965 7964 7962 ] final  178.79 input  175.53 | X-H torsion
[ 8008 7997 7996 7995 ] final  -95.50 input   59.86 | X-H torsion
[ 10167 10162 10161 10158 ] final  -42.69 input  -65.29 | X-H torsion
[ 10718 10713 10712 10709 ] final  -56.18 input   66.30 | X-H torsion
[ 10763 10752 10751 10750 ] final  175.38 input  -60.55 | X-H torsion
[ 11005 11000 10999 10996 ] final   87.42 input  -57.11 | X-H torsion

> <Gold.Protein.ActiveResidues>
 VAL166  LYS551  ARG553  GLY616  TRP617  ASP618  TYR619  PRO620  LYS621  CYS622 
 ASP623  PHE694  ASN695  SER759  ASP760  ASP761  ALA762  ILE779  LEU786  VAL792 
 PHE793  MET794  SER795  GLU796  ALA797  LYS798  CYS799  TRP800  GLU811  SER814 

> <Gold.Protein.RotatedAtoms>
  151.9204  133.3584  159.3894 H   0  0  0  0  0  0  0  0  0  0  0  0  # atno 6907 bound_to 6896
  150.7038  134.4641  159.5404 H   0  0  0  0  0  0  0  0  0  0  0  0  # atno 6908 bound_to 6896
  152.2263  134.8365  160.0530 H   0  0  0  0  0  0  0  0  0  0  0  0  # atno 6909 bound_to 6896
  144.7152  140.0450  143.6436 H   0  0  0  0  0  0  0  0  0  0  0  0  # atno 7974 bound_to 7965
  154.7622  140.0479  157.0983 H   0  0  0  0  0  0  0  0  0  0  0  0  # atno 8008 bound_to 7997
  154.9923  140.3114  155.4881 H   0  0  0  0  0  0  0  0  0  0  0  0  # atno 8009 bound_to 7997
  156.2906  140.2216  156.5029 H   0  0  0  0  0  0  0  0  0  0  0  0  # atno 8010 bound_to 7997
  140.6960  143.3023  151.3246 H   0  0  0  0  0  0  0  0  0  0  0  0  # atno 10167 bound_to 10162
  156.1309  130.4159  150.0271 H   0  0  0  0  0  0  0  0  0  0  0  0  # atno 10718 bound_to 10713
  154.4668  135.2769  155.1672 H   0  0  0  0  0  0  0  0  0  0  0  0  # atno 10763 bound_to 10752
  154.3437  135.6164  153.5612 H   0  0  0  0  0  0  0  0  0  0  0  0  # atno 10764 bound_to 10752
  152.9860  135.5795  154.5041 H   0  0  0  0  0  0  0  0  0  0  0  0  # atno 10765 bound_to 10752
  139.8920  134.8421  156.2858 H   0  0  0  0  0  0  0  0  0  0  0  0  # atno 11005 bound_to 11000
  145.9992  139.3077  143.0938 LP  0  0  0  0  0  0  0  0  0  0  0  0  # atno 17320 bound_to 7965
  145.8813  140.9361  143.0599 LP  0  0  0  0  0  0  0  0  0  0  0  0  # atno 17321 bound_to 7965
  139.6416  144.0528  152.2559 LP  0  0  0  0  0  0  0  0  0  0  0  0  # atno 17342 bound_to 10162
  140.0035  144.6276  150.7709 LP  0  0  0  0  0  0  0  0  0  0  0  0  # atno 17343 bound_to 10162
  156.8183  130.9349  151.3642 LP  0  0  0  0  0  0  0  0  0  0  0  0  # atno 17370 bound_to 10713
  157.6487  130.8866  149.9589 LP  0  0  0  0  0  0  0  0  0  0  0  0  # atno 17371 bound_to 10713
  141.0009  133.7152  156.0958 LP  0  0  0  0  0  0  0  0  0  0  0  0  # atno 17394 bound_to 11000
  140.7499  134.4056  157.5543 LP  0  0  0  0  0  0  0  0  0  0  0  0  # atno 17395 bound_to 11000

$$$$
