#       Name:                AV-unprocessed.smi:1008
#       Creating user name   scv26
#       Creation time:       Fri Mar 27 02:35:54 2020


#       File generated by GOLD software.
#

@<TRIPOS>MOLECULE
AV-unprocessed.smi:1008
    28    28     1
SMALL
NO_CHARGES


@<TRIPOS>ATOM
      1 ****         0.0425   2.2110   0.3858 C.3            1 S1                 0.0000
      2 ****        -0.5778   0.8252   0.3626 C.2            1 S1                 0.0000
      3 ****        -1.9810   0.7818   0.3524 N.2            1 S1                 0.0000
      4 ****        -2.5830  -0.3652   0.3300 C.2            1 S1                 0.0000
      5 ****        -3.9573  -0.4617   0.3186 N.pl3          1 S1                 0.0000
      6 ****        -1.9217  -1.5765   0.3147 N.pl3          1 S1                -1.0000
      7 ****        -0.5579  -1.6077   0.3205 C.2            1 S1                 0.0000
      8 ****         0.0703  -2.6656   0.3007 O.2            1 S1                 0.0000
      9 ****         0.1619  -0.3206   0.3452 C.2            1 S1                 0.0000
     10 ****         1.6888  -0.3337   0.3670 C.3            1 S1                 0.0000
     11 ****         2.2844  -0.4821  -1.0401 C.3            1 S1                 0.0000
     12 ****         3.6939  -0.4651  -0.9706 O.3            1 S1                 0.0000
     13 ****         0.7657   2.3219  -0.4225 H              1 S1                 0.0000
     14 ****         0.5499   2.3842   1.3349 H              1 S1                 0.0000
     15 ****        -0.7157   2.9853   0.2641 H              1 S1                 0.0000
     16 ****        -4.5657   0.3436   0.3269 H              1 S1                 0.0000
     17 ****        -4.4543  -1.3397   0.3017 H              1 S1                 0.0000
     18 ****         2.0643   0.5799   0.8270 H              1 S1                 0.0000
     19 ****         2.0389  -1.1410   1.0120 H              1 S1                 0.0000
     20 ****         1.9642  -1.4174  -1.5003 H              1 S1                 0.0000
     21 ****         1.9510   0.3305  -1.6861 H              1 S1                 0.0000
     22 ****         4.0372  -0.5772  -1.8437 H              1 S1                 0.0000
     23 ****        -2.5115   1.6294   0.3624 LP             1 S1                 0.0000
     24 ****        -2.4417  -2.4305   0.2994 LP             1 S1                 0.0000
     25 ****        -0.4191  -3.5374   0.2796 LP             1 S1                 0.0000
     26 ****         1.0703  -2.6535   0.3057 LP             1 S1                 0.0000
     27 ****         4.0121  -1.2102  -0.3844 LP             1 S1                 0.0000
     28 ****         4.0030   0.4090  -0.5959 LP             1 S1                 0.0000
@<TRIPOS>BOND
    1    1    2 1     
    2    1   13 1     
    3    1   14 1     
    4    1   15 1     
    5    2    9 2     
    6    2    3 1     
    7    3    4 2     
    8    4    5 1     
    9    4    6 1     
   10    5   16 1     
   11    5   17 1     
   12    6    7 1     
   13    7    8 2     
   14    7    9 1     
   15    9   10 1     
   16   10   11 1     
   17   10   18 1     
   18   10   19 1     
   19   11   12 1     
   20   11   20 1     
   21   11   21 1     
   22   12   22 1     
   23    3   23 1     
   24    6   24 1     
   25    8   25 1     
   26    8   26 1     
   27   12   27 1     
   28   12   28 1     
@<TRIPOS>SUBSTRUCTURE
      1 S1             1
@<TRIPOS>SET
LONE_PAIRS      STATIC     ATOMS    <user>   **** ""
6 23 24 25 26 27 28
DONOR_HYDROGENS      STATIC     ATOMS    <user>   **** ""
3 16 17 22
ATOM$BLUE        STATIC     ATOMS    COLORGROUP SYSTEM
6 23 24 25 26 27 28
ATOM$RED        STATIC     ATOMS    COLORGROUP SYSTEM
3 16 17 22
