AV-unprocessed.smi:3176|AV-procd|sdf|12124|dock3
  -GOLD-   2272017563D 1   1.00000     0.00000
 Structure written by MMmdl.
 32 33  0  0  0  0  0  0  0  0  1 V2000
  150.7739  140.2098  154.7341 O   0  0  0  0  0  0  0  0  0  0  0  0
  150.1044  140.8548  155.5420 C   0  0  0  0  0  0  0  0  0  0  0  0
  150.4461  140.9988  156.8316 N   0  0  0  0  0  0  0  0  0  0  0  0
  151.6268  140.4117  157.4548 C   0  0  0  0  0  0  0  0  0  0  0  0
  151.8009  140.8936  158.9051 C   0  0  0  0  0  0  0  0  0  0  0  0
  151.7668  142.4058  159.0165 C   0  0  0  0  0  0  0  0  0  0  0  0
  152.1501  143.0472  160.2137 C   0  0  0  0  0  0  0  0  0  0  0  0
  152.1074  144.4539  160.2649 C   0  0  0  0  0  0  0  0  0  0  0  0
  151.6865  145.1613  159.1223 C   0  0  0  0  0  0  0  0  0  0  0  0
  151.3260  144.4275  157.9745 C   0  0  0  0  0  0  0  0  0  0  0  0
  151.3640  143.0787  157.9147 N   0  0  0  0  0  0  0  0  0  0  0  0
  148.8138  141.5506  155.0959 C   0  0  2  0  0  0  0  0  0  0  0  0
  147.5404  140.9558  155.7256 C   0  0  0  0  0  0  0  0  0  0  0  0
  146.8563  140.2593  154.5658 C   0  0  0  0  0  0  0  0  0  0  0  0
  147.3131  141.1025  153.3844 C   0  0  0  0  0  0  0  0  0  0  0  0
  148.6735  141.3683  153.6878 O   0  0  0  0  0  0  0  0  0  0  0  0
  149.8440  141.5527  157.4233 H   0  0  0  0  0  0  0  0  0  0  0  0
  151.5641  139.3227  157.4192 H   0  0  0  0  0  0  0  0  0  0  0  0
  152.4975  140.6921  156.8611 H   0  0  0  0  0  0  0  0  0  0  0  0
  151.0154  140.4736  159.5352 H   0  0  0  0  0  0  0  0  0  0  0  0
  152.7453  140.5311  159.3136 H   0  0  0  0  0  0  0  0  0  0  0  0
  152.4714  142.4764  161.0728 H   0  0  0  0  0  0  0  0  0  0  0  0
  152.3931  144.9800  161.1638 H   0  0  0  0  0  0  0  0  0  0  0  0
  151.6415  146.2403  159.1254 H   0  0  0  0  0  0  0  0  0  0  0  0
  150.9989  144.9376  157.0804 H   0  0  0  0  0  0  0  0  0  0  0  0
  148.8660  142.6189  155.3127 H   0  0  0  0  0  0  0  0  0  0  0  0
  147.7298  140.2751  156.5571 H   0  0  0  0  0  0  0  0  0  0  0  0
  146.9079  141.7603  156.1027 H   0  0  0  0  0  0  0  0  0  0  0  0
  147.2327  139.2403  154.4652 H   0  0  0  0  0  0  0  0  0  0  0  0
  145.7717  140.2178  154.6694 H   0  0  0  0  0  0  0  0  0  0  0  0
  147.2063  140.5866  152.4300 H   0  0  0  0  0  0  0  0  0  0  0  0
  146.7579  142.0408  153.3363 H   0  0  0  0  0  0  0  0  0  0  0  0
  1  2  2  0  0  0  0
  2  3  1  0  0  0  0
  2 12  1  0  0  0  0
  3  4  1  0  0  0  0
  3 17  1  0  0  0  0
  4  5  1  0  0  0  0
  4 18  1  0  0  0  0
  4 19  1  0  0  0  0
  5  6  1  0  0  0  0
  5 20  1  0  0  0  0
  5 21  1  0  0  0  0
  6 11  1  0  0  0  0
  6  7  2  0  0  0  0
  7  8  1  0  0  0  0
  7 22  1  0  0  0  0
  8  9  2  0  0  0  0
  8 23  1  0  0  0  0
  9 10  1  0  0  0  0
  9 24  1  0  0  0  0
 10 11  2  0  0  0  0
 10 25  1  0  0  0  0
 12 16  1  0  0  0  0
 12 13  1  0  0  0  0
 12 26  1  0  0  0  0
 13 14  1  0  0  0  0
 13 27  1  0  0  0  0
 13 28  1  0  0  0  0
 14 15  1  0  0  0  0
 14 29  1  0  0  0  0
 14 30  1  0  0  0  0
 15 16  1  0  0  0  0
 15 31  1  0  0  0  0
 15 32  1  0  0  0  0
M  END
> <s_m_source_file>
AV-unprocessed.smi

> <i_m_source_file_index>
3176

> <i_lp_mmshare_version>
43012

> <i_f3d_flags>
0

> <s_epik_input>
TzFbQ0gyXVtDSDJdW0NIMl1bQ0BIXTFDKD1PKVtOSF1bQ0gyXVtDSDJdYzJbY0hdW2NIXVtjSF1bY0hdbjI=

> <s_epik_cmdline>
J2VwaWtfcHl0aG9uJywgJy1waCcsICc3LjAnLCAnLXRuJywgJzgnLCAnLW1hJywgJzIwMCcsICctbWV0YWxfYmluZGluZycsICctaW1hZScsICc8aW5maWxlLm1hZT4nLCAnLW9tYWUnLCAnPG91dGZpbGUubWFlPic=

> <r_epik_Ionization_Penalty>
0.0282744

> <r_epik_Ionization_Penalty_Charging>
0

> <r_epik_Ionization_Penalty_Neutral>
0.0282744

> <r_epik_State_Penalty>
0.0231919

> <r_epik_Charging_Adjusted_Penalty>
0.0231919

> <i_epik_Tot_Q>
0

> <i_epik_Tot_abs_Q>
0

> <r_epik_Metal_State_Penalty>
0.02213

> <b_epik_Metal_Only>
0

> <s_lp_Force_Field>
OPLS_2005

> <r_lp_Energy>
16.3652

> <b_lp_Chiralities_Consistent>
1

> <s_lp_Variant>
AV-unprocessed.smi:3176-1

> <Gold.Version>
5.8.1

> <Gold.Id.Protein>
6NUR|6NUR_protein|mol2

> <Gold.PLP.Fitness>
41.7213

> <Gold.PLP.PLP>
-33.7904

> <Gold.PLP.part.hbond>
-2.0000

> <Gold.PLP.part.metal>
0.0000

> <Gold.PLP.part.buried>
-6.3711

> <Gold.PLP.part.nonpolar>
-27.7941

> <Gold.PLP.part.repulsive>
1.3122

> <Gold.PLP.ligand.clash>
0.0000

> <Gold.PLP.ligand.torsion>
0.2163

> <Gold.PLP.Chemscore.Hbond>
1.8000

> <Gold.PLP.Chemscore.CHOScore>
0.9821

> <Gold.PLP.Chemscore.Metal>
0.0000

> <Gold.Chemscore.Hbonds>
donor molecule, donor type, donor heavy atom, donor atom, acceptor molecule, acceptor atom, score
      P1  H  7989  7998       L1     1  1.00
      P1  H  8011  8017       L1    16  0.75
      L1  C    10    25       P1  8028  1.00

> <Gold.PLP.Chemscore.Internal.Correction>
0.0171

> <Gold.Rescore>
     Score         DG    S(hbond)    S(metal)    S(lipo)     H(rot)  DE(clash)    DE(int)     intcor
     16.19     -18.17       1.65        0.00      94.41       1.52       0.17       1.81       ----

> <Gold.Chemscore.Fitness>
16.1866

> <Gold.Chemscore.DG>
-18.1688

> <Gold.Chemscore.ZeroCoef>
-5.4800

> <Gold.Chemscore.Hbond>
1.6537

> <Gold.Chemscore.Metal>
0.0000

> <Gold.Chemscore.Lipo>
94.4104

> <Gold.Chemscore.Internal_Hbond>
0.0000

> <Gold.Chemscore.DEClash>
0.1704

> <Gold.Chemscore.DEInternal>
1.8118

> <Gold.Chemscore.Rot>
1.5159

> <Gold.Chemscore.Internal.Correction>
   9.000000E+99

> <Gold.Chemscore.Hbonds>
donor molecule, donor type, donor heavy atom, donor atom, acceptor molecule, acceptor atom, score
      P1  H  7989  7998       L1     1  0.99
      P1  H  8011  8017       L1    16  0.69

> <Gold.Chemscore.Hbond.Weighted>
-5.5235

> <Gold.Chemscore.Metal.Weighted>
-0.0000

> <Gold.Chemscore.Lipo.Weighted>
-11.0460

> <Gold.Chemscore.Internal_Hbond.Weighted>
0.0000

> <Gold.Chemscore.DEClash.Weighted>
0.1704

> <Gold.Chemscore.DEInternal.Weighted>
1.8118

> <Gold.Chemscore.Rot.Weighted>
3.8807

> <Gold.Chemscore.Internal.Correction.Weighted>
   9.000000E+99

> <Gold.Protein.RotatedTorsions>
[ 6907 6896 6895 6894 ] final  -72.48 input  -60.11 | X-H torsion
[ 7974 7965 7964 7962 ] final  -67.09 input  175.53 | X-H torsion
[ 8008 7997 7996 7995 ] final   95.12 input   59.86 | X-H torsion
[ 10167 10162 10161 10158 ] final  -35.51 input  -65.29 | X-H torsion
[ 10718 10713 10712 10709 ] final  -40.59 input   66.30 | X-H torsion
[ 10763 10752 10751 10750 ] final -175.14 input  -60.55 | X-H torsion
[ 11005 11000 10999 10996 ] final  -13.50 input  -57.11 | X-H torsion

> <Gold.Protein.ActiveResidues>
 VAL166  LYS551  ARG553  GLY616  TRP617  ASP618  TYR619  PRO620  LYS621  CYS622 
 ASP623  PHE694  ASN695  SER759  ASP760  ASP761  ALA762  ILE779  LEU786  VAL792 
 PHE793  MET794  SER795  GLU796  ALA797  LYS798  CYS799  TRP800  GLU811  SER814 

> <Gold.Protein.RotatedAtoms>
  150.7168  134.5156  159.5628 H   0  0  0  0  0  0  0  0  0  0  0  0  # atno 6907 bound_to 6896
  152.2723  134.7917  160.0421 H   0  0  0  0  0  0  0  0  0  0  0  0  # atno 6908 bound_to 6896
  151.8592  133.3419  159.3735 H   0  0  0  0  0  0  0  0  0  0  0  0  # atno 6909 bound_to 6896
  145.7335  140.8986  143.0567 H   0  0  0  0  0  0  0  0  0  0  0  0  # atno 7974 bound_to 7965
  156.0654  140.3290  155.7512 H   0  0  0  0  0  0  0  0  0  0  0  0  # atno 8008 bound_to 7997
  155.5389  140.0600  157.2891 H   0  0  0  0  0  0  0  0  0  0  0  0  # atno 8009 bound_to 7997
  154.4502  140.1914  156.0559 H   0  0  0  0  0  0  0  0  0  0  0  0  # atno 8010 bound_to 7997
  140.7163  143.3473  151.2230 H   0  0  0  0  0  0  0  0  0  0  0  0  # atno 10167 bound_to 10162
  156.2796  130.4215  149.8351 H   0  0  0  0  0  0  0  0  0  0  0  0  # atno 10718 bound_to 10713
  154.5879  135.2842  155.0665 H   0  0  0  0  0  0  0  0  0  0  0  0  # atno 10763 bound_to 10752
  154.1977  135.6430  153.5082 H   0  0  0  0  0  0  0  0  0  0  0  0  # atno 10764 bound_to 10752
  153.0111  135.5461  154.6555 H   0  0  0  0  0  0  0  0  0  0  0  0  # atno 10765 bound_to 10752
  140.7767  133.8395  155.9255 H   0  0  0  0  0  0  0  0  0  0  0  0  # atno 11005 bound_to 11000
  144.6887  139.9364  143.7473 LP  0  0  0  0  0  0  0  0  0  0  0  0  # atno 17320 bound_to 7965
  146.0515  139.3515  143.0637 LP  0  0  0  0  0  0  0  0  0  0  0  0  # atno 17321 bound_to 7965
  139.6995  143.9557  152.2898 LP  0  0  0  0  0  0  0  0  0  0  0  0  # atno 17342 bound_to 10162
  139.9245  144.6779  150.8427 LP  0  0  0  0  0  0  0  0  0  0  0  0  # atno 17343 bound_to 10162
  156.5803  130.8462  151.3381 LP  0  0  0  0  0  0  0  0  0  0  0  0  # atno 17370 bound_to 10713
  157.7310  130.9694  150.1860 LP  0  0  0  0  0  0  0  0  0  0  0  0  # atno 17371 bound_to 10713
  140.9521  134.1765  157.4719 LP  0  0  0  0  0  0  0  0  0  0  0  0  # atno 17394 bound_to 11000
  139.8748  134.9913  156.5543 LP  0  0  0  0  0  0  0  0  0  0  0  0  # atno 17395 bound_to 11000

$$$$
