AV-unprocessed.smi:1325|AV-procd|sdf|5473|dock8
  -GOLD-   22720 5 43D 1   1.00000     0.00000
 Structure written by MMmdl.
 35 36  0  0  0  0  0  0  0  0  1 V2000
  148.4672  139.5026  154.1022 C   0  0  0  0  0  0  0  0  0  0  0  0
  149.5809  139.5850  155.1112 C   0  0  0  0  0  0  0  0  0  0  0  0
  149.5366  140.5705  155.9461 N   0  0  0  0  0  0  0  0  0  0  0  0
  150.5106  140.7420  156.9093 N   0  0  0  0  0  0  0  0  0  0  0  0
  150.2991  141.9145  157.7677 C   0  0  0  0  0  0  0  0  0  0  0  0
  151.5086  142.8753  157.7625 C   0  0  1  0  0  0  0  0  0  0  0  0
  151.1795  144.0165  156.9943 O   0  0  0  0  0  0  0  0  0  0  0  0
  151.9046  143.2603  159.1800 C   0  0  0  0  0  0  0  0  0  0  0  0
  151.7208  144.5817  159.6445 C   0  0  0  0  0  0  0  0  0  0  0  0
  152.0823  144.9287  160.9608 C   0  0  0  0  0  0  0  0  0  0  0  0
  152.6283  143.9568  161.8209 C   0  0  0  0  0  0  0  0  0  0  0  0
  152.8109  142.6372  161.3645 C   0  0  0  0  0  0  0  0  0  0  0  0
  152.4489  142.2896  160.0484 C   0  0  0  0  0  0  0  0  0  0  0  0
  151.5861  139.9213  157.0808 C   0  0  0  0  0  0  0  0  0  0  0  0
  152.4355  140.1149  157.9522 O   0  0  0  0  0  0  0  0  0  0  0  0
  151.6287  138.8042  156.1343 C   0  0  0  0  0  0  0  0  0  0  0  0
  152.7387  137.9188  156.2797 C   0  0  0  0  0  0  0  0  0  0  0  0
  153.6273  137.1879  156.4078 N   0  0  0  0  0  0  0  0  0  0  0  0
  150.6775  138.6247  155.1839 C   0  0  0  0  0  0  0  0  0  0  0  0
  150.6756  137.4827  154.1770 C   0  0  0  0  0  0  0  0  0  0  0  0
  148.8620  139.5220  153.0866 H   0  0  0  0  0  0  0  0  0  0  0  0
  147.7684  140.3351  154.1982 H   0  0  0  0  0  0  0  0  0  0  0  0
  147.8999  138.5803  154.2271 H   0  0  0  0  0  0  0  0  0  0  0  0
  149.3874  142.4470  157.4887 H   0  0  0  0  0  0  0  0  0  0  0  0
  150.1182  141.5634  158.7856 H   0  0  0  0  0  0  0  0  0  0  0  0
  152.3661  142.3976  157.2871 H   0  0  0  0  0  0  0  0  0  0  0  0
  150.2728  143.9510  156.7364 H   0  0  0  0  0  0  0  0  0  0  0  0
  151.2995  145.3330  158.9926 H   0  0  0  0  0  0  0  0  0  0  0  0
  151.9398  145.9406  161.3106 H   0  0  0  0  0  0  0  0  0  0  0  0
  152.9054  144.2230  162.8302 H   0  0  0  0  0  0  0  0  0  0  0  0
  153.2279  141.8908  162.0245 H   0  0  0  0  0  0  0  0  0  0  0  0
  152.5902  141.2737  159.7093 H   0  0  0  0  0  0  0  0  0  0  0  0
  151.5107  136.7991  154.3261 H   0  0  0  0  0  0  0  0  0  0  0  0
  150.7464  137.8700  153.1601 H   0  0  0  0  0  0  0  0  0  0  0  0
  149.7583  136.8994  154.2606 H   0  0  0  0  0  0  0  0  0  0  0  0
  1  2  1  0  0  0  0
  1 21  1  0  0  0  0
  1 22  1  0  0  0  0
  1 23  1  0  0  0  0
  2 19  1  0  0  0  0
  2  3  2  0  0  0  0
  3  4  1  0  0  0  0
  4  5  1  0  0  0  0
  4 14  1  0  0  0  0
  5  6  1  0  0  0  0
  5 24  1  0  0  0  0
  5 25  1  0  0  0  0
  6  7  1  0  0  0  0
  6  8  1  0  0  0  0
  6 26  1  0  0  0  0
  7 27  1  0  0  0  0
  8 13  1  0  0  0  0
  8  9  2  0  0  0  0
  9 10  1  0  0  0  0
  9 28  1  0  0  0  0
 10 11  2  0  0  0  0
 10 29  1  0  0  0  0
 11 12  1  0  0  0  0
 11 30  1  0  0  0  0
 12 13  2  0  0  0  0
 12 31  1  0  0  0  0
 13 32  1  0  0  0  0
 14 15  2  0  0  0  0
 14 16  1  0  0  0  0
 16 17  1  0  0  0  0
 16 19  2  0  0  0  0
 17 18  3  0  0  0  0
 19 20  1  0  0  0  0
 20 33  1  0  0  0  0
 20 34  1  0  0  0  0
 20 35  1  0  0  0  0
M  END
> <s_m_source_file>
AV-unprocessed.smi

> <i_m_source_file_index>
1325

> <i_lp_mmshare_version>
43012

> <i_f3d_flags>
0

> <s_epik_input>
TiNDYyhjMVtDSDNdKWMoPU8pbihuYzFbQ0gzXSlbQ0gyXVtDQEhdKFtPSF0pYzJbY0hdW2NIXVtjSF1bY0hdW2NIXTI=

> <s_epik_cmdline>
J2VwaWtfcHl0aG9uJywgJy1waCcsICc3LjAnLCAnLXRuJywgJzgnLCAnLW1hJywgJzIwMCcsICctbWV0YWxfYmluZGluZycsICctaW1hZScsICc8aW5maWxlLm1hZT4nLCAnLW9tYWUnLCAnPG91dGZpbGUubWFlPic=

> <r_lp_tautomer_probability>
1

> <r_epik_Ionization_Penalty>
7.1854e-08

> <r_epik_Ionization_Penalty_Charging>
1.40848e-10

> <r_epik_Ionization_Penalty_Neutral>
7.17131e-08

> <r_epik_State_Penalty>
-0

> <r_epik_Charging_Adjusted_Penalty>
1.40848e-10

> <i_epik_Tot_Q>
0

> <i_epik_Tot_abs_Q>
0

> <r_epik_Metal_State_Penalty>
-0

> <b_epik_Metal_Only>
0

> <s_lp_Force_Field>
OPLS_2005

> <r_lp_Energy>
28.0712

> <b_lp_Chiralities_Consistent>
1

> <s_lp_Variant>
AV-unprocessed.smi:1325-2

> <Gold.Version>
5.8.1

> <Gold.Id.Protein>
6NUR|6NUR_protein|mol2

> <Gold.PLP.Fitness>
47.6778

> <Gold.PLP.PLP>
-43.1609

> <Gold.PLP.part.hbond>
-3.3126

> <Gold.PLP.part.metal>
0.0000

> <Gold.PLP.part.buried>
1.2696

> <Gold.PLP.part.nonpolar>
-41.3843

> <Gold.PLP.part.repulsive>
0.0548

> <Gold.PLP.ligand.clash>
0.0000

> <Gold.PLP.ligand.torsion>
0.8253

> <Gold.PLP.Chemscore.Hbond>
2.0545

> <Gold.PLP.Chemscore.CHOScore>
0.0000

> <Gold.PLP.Chemscore.Metal>
0.0000

> <Gold.Chemscore.Hbonds>
donor molecule, donor type, donor heavy atom, donor atom, acceptor molecule, acceptor atom, score
      L1  H     7    27       P1  8028  0.88
      P1  H  7997  8009       L1    15  0.25
      P1  H 10752 10765       L1    18  0.32

> <Gold.PLP.Chemscore.Internal.Correction>
0.0039

> <Gold.Rescore>
     Score         DG    S(hbond)    S(metal)    S(lipo)     H(rot)  DE(clash)    DE(int)     intcor
     17.18     -20.50       1.70        0.00     121.49       1.90       1.47       1.85       ----

> <Gold.Chemscore.Fitness>
17.1780

> <Gold.Chemscore.DG>
-20.4954

> <Gold.Chemscore.ZeroCoef>
-5.4800

> <Gold.Chemscore.Hbond>
1.6997

> <Gold.Chemscore.Metal>
0.0000

> <Gold.Chemscore.Lipo>
121.4917

> <Gold.Chemscore.Internal_Hbond>
0.0000

> <Gold.Chemscore.DEClash>
1.4675

> <Gold.Chemscore.DEInternal>
1.8498

> <Gold.Chemscore.Rot>
1.9047

> <Gold.Chemscore.Internal.Correction>
   9.000000E+99

> <Gold.Chemscore.Hbonds>
donor molecule, donor type, donor heavy atom, donor atom, acceptor molecule, acceptor atom, score
      L1  H     7    27       P1  8028  0.86
      P1  H  7997  8009       L1    15  0.18
      P1  H 10752 10765       L1    18  0.32

> <Gold.Chemscore.Hbond.Weighted>
-5.6769

> <Gold.Chemscore.Metal.Weighted>
-0.0000

> <Gold.Chemscore.Lipo.Weighted>
-14.2145

> <Gold.Chemscore.Internal_Hbond.Weighted>
0.0000

> <Gold.Chemscore.DEClash.Weighted>
1.4675

> <Gold.Chemscore.DEInternal.Weighted>
1.8498

> <Gold.Chemscore.Rot.Weighted>
4.8760

> <Gold.Chemscore.Internal.Correction.Weighted>
   9.000000E+99

> <Gold.Protein.RotatedTorsions>
[ 6907 6896 6895 6894 ] final  -18.28 input  -60.11 | X-H torsion
[ 7974 7965 7964 7962 ] final  -20.74 input  175.53 | X-H torsion
[ 8008 7997 7996 7995 ] final  157.13 input   59.86 | X-H torsion
[ 10167 10162 10161 10158 ] final  -84.40 input  -65.29 | X-H torsion
[ 10718 10713 10712 10709 ] final  153.50 input   66.30 | X-H torsion
[ 10763 10752 10751 10750 ] final  -90.07 input  -60.55 | X-H torsion
[ 11005 11000 10999 10996 ] final  -62.48 input  -57.11 | X-H torsion

> <Gold.Protein.ActiveResidues>
 VAL166  LYS551  ARG553  GLY616  TRP617  ASP618  TYR619  PRO620  LYS621  CYS622 
 ASP623  PHE694  ASN695  SER759  ASP760  ASP761  ALA762  ILE779  LEU786  VAL792 
 PHE793  MET794  SER795  GLU796  ALA797  LYS798  CYS799  TRP800  GLU811  SER814 

> <Gold.Protein.RotatedAtoms>
  151.2806  135.0712  159.9167 H   0  0  0  0  0  0  0  0  0  0  0  0  # atno 6907 bound_to 6896
  152.5334  134.0034  159.7916 H   0  0  0  0  0  0  0  0  0  0  0  0  # atno 6908 bound_to 6896
  151.0288  133.5759  159.2694 H   0  0  0  0  0  0  0  0  0  0  0  0  # atno 6909 bound_to 6896
  146.1771  140.4245  142.8509 H   0  0  0  0  0  0  0  0  0  0  0  0  # atno 7974 bound_to 7965
  156.2382  140.1893  156.7062 H   0  0  0  0  0  0  0  0  0  0  0  0  # atno 8008 bound_to 7997
  154.6146  140.0617  156.9564 H   0  0  0  0  0  0  0  0  0  0  0  0  # atno 8009 bound_to 7997
  155.1961  140.3288  155.4353 H   0  0  0  0  0  0  0  0  0  0  0  0  # atno 8010 bound_to 7997
  140.4136  143.2612  151.8985 H   0  0  0  0  0  0  0  0  0  0  0  0  # atno 10167 bound_to 10162
  157.2439  131.0765  151.1774 H   0  0  0  0  0  0  0  0  0  0  0  0  # atno 10718 bound_to 10713
  154.6619  135.5318  153.8029 H   0  0  0  0  0  0  0  0  0  0  0  0  # atno 10763 bound_to 10752
  153.0447  135.6508  154.0858 H   0  0  0  0  0  0  0  0  0  0  0  0  # atno 10764 bound_to 10752
  154.0766  135.2950  155.3278 H   0  0  0  0  0  0  0  0  0  0  0  0  # atno 10765 bound_to 10752
  141.1361  133.6640  156.5535 H   0  0  0  0  0  0  0  0  0  0  0  0  # atno 11005 bound_to 11000
  144.8254  140.6620  143.6325 LP  0  0  0  0  0  0  0  0  0  0  0  0  # atno 17320 bound_to 7965
  145.4180  139.1568  143.4089 LP  0  0  0  0  0  0  0  0  0  0  0  0  # atno 17321 bound_to 7965
  139.4782  144.5511  151.8384 LP  0  0  0  0  0  0  0  0  0  0  0  0  # atno 17342 bound_to 10162
  140.4611  144.1721  150.5906 LP  0  0  0  0  0  0  0  0  0  0  0  0  # atno 17343 bound_to 10162
  157.3350  130.7004  149.6347 LP  0  0  0  0  0  0  0  0  0  0  0  0  # atno 17370 bound_to 10713
  155.9669  130.4296  150.4841 LP  0  0  0  0  0  0  0  0  0  0  0  0  # atno 17371 bound_to 10713
  140.4045  134.7327  157.4799 LP  0  0  0  0  0  0  0  0  0  0  0  0  # atno 17394 bound_to 11000
  140.0472  134.6183  155.8907 LP  0  0  0  0  0  0  0  0  0  0  0  0  # atno 17395 bound_to 11000

$$$$
