AV-unprocessed.smi:406|AV-procd|sdf|2500|dock9
  -GOLD-   2262022443D 1   1.00000     0.00000
 Structure written by MMmdl.
 34 35  0  0  0  0  0  0  0  0  2 V2000
  152.1608  144.0016  161.4485 C   0  0  0  0  0  0  0  0  0  0  0  0
  152.8619  143.3646  160.2441 C   0  0  0  0  0  0  0  0  0  0  0  0
  152.9425  141.8339  160.3547 C   0  0  0  0  0  0  0  0  0  0  0  0
  152.3755  141.1797  159.1826 N   0  0  0  0  0  0  0  0  0  0  0  0
  152.4639  139.8690  158.9023 C   0  0  0  0  0  0  0  0  0  0  0  0
  153.0729  139.0656  159.6087 O   0  0  0  0  0  0  0  0  0  0  0  0
  151.7653  139.3897  157.6263 C   0  0  0  0  0  0  0  0  0  0  0  0
  150.7673  138.3160  157.9509 C   0  0  0  0  0  0  0  0  0  0  0  0
  150.6175  137.1074  157.3213 C   0  0  0  0  0  0  0  0  0  0  0  0
  149.3767  136.1431  158.0691 S   0  0  0  0  0  0  0  0  0  0  0  0
  149.0992  137.4292  159.2444 C   0  0  0  0  0  0  0  0  0  0  0  0
  148.2082  137.3679  160.2504 N   0  5  0  0  0  0  0  0  0  0  0  0
  147.4886  136.2503  160.5498 C   0  0  0  0  0  0  0  0  0  0  0  0
  147.3419  135.2826  159.8050 O   0  0  0  0  0  0  0  0  0  0  0  0
  146.8039  136.2657  161.8882 C   0  0  0  0  0  0  0  0  0  0  0  0
  147.6502  136.5027  163.1237 C   0  0  0  0  0  0  0  0  0  0  0  0
  147.1040  135.1275  162.8448 C   0  0  0  0  0  0  0  0  0  0  0  0
  149.8735  138.4948  159.0102 N   0  0  0  0  0  0  0  0  0  0  0  0
  152.1160  145.0857  161.3435 H   0  0  0  0  0  0  0  0  0  0  0  0
  152.6908  143.7783  162.3748 H   0  0  0  0  0  0  0  0  0  0  0  0
  151.1394  143.6339  161.5490 H   0  0  0  0  0  0  0  0  0  0  0  0
  152.3300  143.6389  159.3322 H   0  0  0  0  0  0  0  0  0  0  0  0
  153.8651  143.7830  160.1539 H   0  0  0  0  0  0  0  0  0  0  0  0
  153.9753  141.5124  160.5000 H   0  0  0  0  0  0  0  0  0  0  0  0
  152.3859  141.4946  161.2290 H   0  0  0  0  0  0  0  0  0  0  0  0
  151.8496  141.7616  158.5453 H   0  0  0  0  0  0  0  0  0  0  0  0
  151.2811  140.2405  157.1455 H   0  0  0  0  0  0  0  0  0  0  0  0
  152.5100  139.0186  156.9211 H   0  0  0  0  0  0  0  0  0  0  0  0
  151.1696  136.7207  156.4780 H   0  0  0  0  0  0  0  0  0  0  0  0
  145.7755  136.6229  161.8930 H   0  0  0  0  0  0  0  0  0  0  0  0
  148.7201  136.6521  162.9907 H   0  0  0  0  0  0  0  0  0  0  0  0
  147.1978  137.0890  163.9208 H   0  0  0  0  0  0  0  0  0  0  0  0
  146.2809  134.7705  163.4600 H   0  0  0  0  0  0  0  0  0  0  0  0
  147.8180  134.3632  162.5427 H   0  0  0  0  0  0  0  0  0  0  0  0
  1  2  1  0  0  0  0
  1 19  1  0  0  0  0
  1 20  1  0  0  0  0
  1 21  1  0  0  0  0
  2  3  1  0  0  0  0
  2 22  1  0  0  0  0
  2 23  1  0  0  0  0
  3  4  1  0  0  0  0
  3 24  1  0  0  0  0
  3 25  1  0  0  0  0
  4  5  1  0  0  0  0
  4 26  1  0  0  0  0
  5  6  2  0  0  0  0
  5  7  1  0  0  0  0
  7  8  1  0  0  0  0
  7 27  1  0  0  0  0
  7 28  1  0  0  0  0
  8 18  1  0  0  0  0
  8  9  2  0  0  0  0
  9 10  1  0  0  0  0
  9 29  1  0  0  0  0
 10 11  1  0  0  0  0
 11 12  1  0  0  0  0
 11 18  2  0  0  0  0
 12 13  1  0  0  0  0
 13 14  2  0  0  0  0
 13 15  1  0  0  0  0
 15 17  1  0  0  0  0
 15 16  1  0  0  0  0
 15 30  1  0  0  0  0
 16 17  1  0  0  0  0
 16 31  1  0  0  0  0
 16 32  1  0  0  0  0
 17 33  1  0  0  0  0
 17 34  1  0  0  0  0
M  CHG  1  12  -1
M  END
> <s_m_source_file>
AV-unprocessed.smi

> <i_m_source_file_index>
406

> <i_lp_mmshare_version>
43012

> <i_f3d_flags>
0

> <s_epik_input>
W0NIM11bQ0gyXVtDSDJdW05IXUMoPU8pW0NIMl1jMVtjSF1zYyhuMSlbTkhdQyg9TylbQ0hdMltDSDJdW0NIMl0y

> <s_epik_cmdline>
J2VwaWtfcHl0aG9uJywgJy1waCcsICc3LjAnLCAnLXRuJywgJzgnLCAnLW1hJywgJzIwMCcsICctbWV0YWxfYmluZGluZycsICctaW1hZScsICc8aW5maWxlLm1hZT4nLCAnLW9tYWUnLCAnPG91dGZpbGUubWFlPic=

> <r_lp_tautomer_probability>
1

> <r_epik_Ionization_Penalty>
5.51776

> <r_epik_Ionization_Penalty_Charging>
5.00105

> <r_epik_Ionization_Penalty_Neutral>
0.516708

> <r_epik_State_Penalty>
5.00092

> <r_epik_Charging_Adjusted_Penalty>
10.002

> <i_epik_Tot_Q>
-1

> <i_epik_Tot_abs_Q>
1

> <r_epik_Metal_State_Penalty>
1.12078

> <b_epik_Metal_Only>
1

> <s_lp_Force_Field>
OPLS_2005

> <r_lp_Energy>
6.22345

> <b_lp_Chiralities_Consistent>
1

> <s_lp_Variant>
AV-unprocessed.smi:406-2

> <Gold.Version>
5.8.1

> <Gold.Id.Protein>
6NUR|6NUR_protein|mol2

> <Gold.PLP.Fitness>
41.2514

> <Gold.PLP.PLP>
-35.4802

> <Gold.PLP.part.hbond>
-2.9144

> <Gold.PLP.part.metal>
0.0000

> <Gold.PLP.part.buried>
-4.2467

> <Gold.PLP.part.nonpolar>
-28.8350

> <Gold.PLP.part.repulsive>
0.1228

> <Gold.PLP.ligand.clash>
0.0000

> <Gold.PLP.ligand.torsion>
0.6466

> <Gold.PLP.Chemscore.Hbond>
2.3015

> <Gold.PLP.Chemscore.CHOScore>
0.0000

> <Gold.PLP.Chemscore.Metal>
0.0000

> <Gold.Chemscore.Hbonds>
donor molecule, donor type, donor heavy atom, donor atom, acceptor molecule, acceptor atom, score
      P1  H  6931  6943       L1    12  1.17
      P1  H  6934  6947       L1    12  1.17

> <Gold.PLP.Chemscore.Internal.Correction>
0.1598

> <Gold.Rescore>
     Score         DG    S(hbond)    S(metal)    S(lipo)     H(rot)  DE(clash)    DE(int)     intcor
     10.64     -12.90       0.82        0.00      80.35       1.85       0.20       2.06       ----

> <Gold.Chemscore.Fitness>
10.6381

> <Gold.Chemscore.DG>
-12.9021

> <Gold.Chemscore.ZeroCoef>
-5.4800

> <Gold.Chemscore.Hbond>
0.8240

> <Gold.Chemscore.Metal>
0.0000

> <Gold.Chemscore.Lipo>
80.3452

> <Gold.Chemscore.Internal_Hbond>
0.0000

> <Gold.Chemscore.DEClash>
0.2030

> <Gold.Chemscore.DEInternal>
2.0609

> <Gold.Chemscore.Rot>
1.8478

> <Gold.Chemscore.Internal.Correction>
   9.000000E+99

> <Gold.Chemscore.Hbonds>
donor molecule, donor type, donor heavy atom, donor atom, acceptor molecule, acceptor atom, score
      P1  H  6931  6943       L1    12  0.32
      P1  H  6934  6947       L1    12  0.40

> <Gold.Chemscore.Hbond.Weighted>
-2.7521

> <Gold.Chemscore.Metal.Weighted>
-0.0000

> <Gold.Chemscore.Lipo.Weighted>
-9.4004

> <Gold.Chemscore.Internal_Hbond.Weighted>
0.0000

> <Gold.Chemscore.DEClash.Weighted>
0.2030

> <Gold.Chemscore.DEInternal.Weighted>
2.0609

> <Gold.Chemscore.Rot.Weighted>
4.7305

> <Gold.Chemscore.Internal.Correction.Weighted>
   9.000000E+99

> <Gold.Protein.RotatedTorsions>
[ 6907 6896 6895 6894 ] final  -56.86 input  -60.11 | X-H torsion
[ 7974 7965 7964 7962 ] final  126.24 input  175.53 | X-H torsion
[ 8008 7997 7996 7995 ] final  -12.22 input   59.86 | X-H torsion
[ 10167 10162 10161 10158 ] final  114.73 input  -65.29 | X-H torsion
[ 10718 10713 10712 10709 ] final   80.10 input   66.30 | X-H torsion
[ 10763 10752 10751 10750 ] final   82.62 input  -60.55 | X-H torsion
[ 11005 11000 10999 10996 ] final   64.25 input  -57.11 | X-H torsion

> <Gold.Protein.ActiveResidues>
 VAL166  LYS551  ARG553  GLY616  TRP617  ASP618  TYR619  PRO620  LYS621  CYS622 
 ASP623  PHE694  ASN695  SER759  ASP760  ASP761  ALA762  ILE779  LEU786  VAL792 
 PHE793  MET794  SER795  GLU796  ALA797  LYS798  CYS799  TRP800  GLU811  SER814 

> <Gold.Protein.RotatedAtoms>
  150.8133  134.7300  159.6706 H   0  0  0  0  0  0  0  0  0  0  0  0  # atno 6907 bound_to 6896
  152.4252  134.5878  159.9975 H   0  0  0  0  0  0  0  0  0  0  0  0  # atno 6908 bound_to 6896
  151.6082  133.3312  159.3098 H   0  0  0  0  0  0  0  0  0  0  0  0  # atno 6909 bound_to 6896
  145.0640  139.3783  143.4991 H   0  0  0  0  0  0  0  0  0  0  0  0  # atno 7974 bound_to 7965
  154.5396  140.2282  155.8664 H   0  0  0  0  0  0  0  0  0  0  0  0  # atno 8008 bound_to 7997
  156.1845  140.3092  155.9175 H   0  0  0  0  0  0  0  0  0  0  0  0  # atno 8009 bound_to 7997
  155.3285  140.0444  157.3032 H   0  0  0  0  0  0  0  0  0  0  0  0  # atno 8010 bound_to 7997
  139.6367  144.7120  151.2319 H   0  0  0  0  0  0  0  0  0  0  0  0  # atno 10167 bound_to 10162
  157.6796  130.9944  150.2030 H   0  0  0  0  0  0  0  0  0  0  0  0  # atno 10718 bound_to 10713
  153.1219  135.4721  154.9209 H   0  0  0  0  0  0  0  0  0  0  0  0  # atno 10763 bound_to 10752
  154.7583  135.3124  154.8429 H   0  0  0  0  0  0  0  0  0  0  0  0  # atno 10764 bound_to 10752
  153.8992  135.6877  153.4810 H   0  0  0  0  0  0  0  0  0  0  0  0  # atno 10765 bound_to 10752
  139.9971  134.6500  155.9992 H   0  0  0  0  0  0  0  0  0  0  0  0  # atno 11005 bound_to 11000
  146.3526  140.0352  142.8647 LP  0  0  0  0  0  0  0  0  0  0  0  0  # atno 17320 bound_to 7965
  145.1374  140.9552  143.4508 LP  0  0  0  0  0  0  0  0  0  0  0  0  # atno 17321 bound_to 7965
  140.7469  143.6383  150.8359 LP  0  0  0  0  0  0  0  0  0  0  0  0  # atno 17342 bound_to 10162
  140.0015  143.5739  152.2874 LP  0  0  0  0  0  0  0  0  0  0  0  0  # atno 17343 bound_to 10162
  156.2717  130.3722  149.8025 LP  0  0  0  0  0  0  0  0  0  0  0  0  # atno 17370 bound_to 10713
  156.5740  130.8437  151.3364 LP  0  0  0  0  0  0  0  0  0  0  0  0  # atno 17371 bound_to 10713
  141.1613  133.6539  156.4328 LP  0  0  0  0  0  0  0  0  0  0  0  0  # atno 17394 bound_to 11000
  140.4797  134.6676  157.5166 LP  0  0  0  0  0  0  0  0  0  0  0  0  # atno 17395 bound_to 11000

$$$$
