#       Name:                AV-unprocessed.smi:1836
#       Creating user name   scv26
#       Creation time:       Fri Mar 27 09:17:24 2020


#       File generated by GOLD software.
#

@<TRIPOS>MOLECULE
AV-unprocessed.smi:1836
    39    40     1
SMALL
NO_CHARGES


@<TRIPOS>ATOM
      1 ****        -0.6824   3.2839   0.9282 C.3            1 S1                 0.0000
      2 ****        -0.2110   1.8392   0.7106 C.3            1 S1                 0.0000
      3 ****         1.3011   1.7885   0.3989 C.3            1 S1                 0.0000
      4 ****         1.8718   0.4654   0.6471 N.am           1 S1                 0.0000
      5 ****         2.4419   0.1370   1.9429 C.3            1 S1                 0.0000
      6 ****         2.7309  -1.3692   1.8791 C.3            1 S1                 0.0000
      7 ****         2.6546  -1.7439   0.3951 C.3            1 S1                 0.0000
      8 ****         2.0050  -0.5271  -0.2414 C.2            1 S1                 0.0000
      9 ****         1.6584  -0.4973  -1.4213 O.2            1 S1                 0.0000
     10 ****        -0.9837   1.2713  -0.3925 N.am           1 S1                 0.0000
     11 ****        -1.5457   0.0535  -0.4061 C.2            1 S1                 0.0000
     12 ****        -1.4832  -0.7357   0.5367 O.2            1 S1                 0.0000
     13 ****        -2.1653  -0.1802  -1.5739 N.am           1 S1                 0.0000
     14 ****        -2.8261  -1.3633  -1.9880 C.2            1 S1                 0.0000
     15 ****        -3.4149  -1.3663  -3.1898 N.2            1 S1                 0.0000
     16 ****        -4.0220  -2.5846  -3.4690 N.2            1 S1                 0.0000
     17 ****        -3.8642  -3.4547  -2.4669 C.2            1 S1                 0.0000
     18 ****        -2.9567  -2.8738  -1.0820 S.3            1 S1                 0.0000
     19 ****        -0.1573   3.7461   1.7647 H              1 S1                 0.0000
     20 ****        -1.7491   3.3201   1.1527 H              1 S1                 0.0000
     21 ****        -0.5064   3.8983   0.0444 H              1 S1                 0.0000
     22 ****        -0.4056   1.2961   1.6373 H              1 S1                 0.0000
     23 ****         1.4995   2.1103  -0.6252 H              1 S1                 0.0000
     24 ****         1.8297   2.4965   1.0389 H              1 S1                 0.0000
     25 ****         3.3614   0.7063   2.0864 H              1 S1                 0.0000
     26 ****         1.7562   0.3835   2.7544 H              1 S1                 0.0000
     27 ****         3.7005  -1.6131   2.3144 H              1 S1                 0.0000
     28 ****         1.9726  -1.9191   2.4381 H              1 S1                 0.0000
     29 ****         3.6473  -1.8915  -0.0310 H              1 S1                 0.0000
     30 ****         2.0622  -2.6441   0.2281 H              1 S1                 0.0000
     31 ****        -1.0839   1.8465  -1.2161 H              1 S1                 0.0000
     32 ****        -2.1510   0.5679  -2.2512 H              1 S1                 0.0000
     33 ****        -4.2847  -4.4464  -2.5451 H              1 S1                 0.0000
     34 ****         1.2322   0.3258  -1.7965 LP             1 S1                 0.0000
     35 ****         1.8029  -1.2962  -2.0052 LP             1 S1                 0.0000
     36 ****        -0.9931  -0.4810   1.3704 LP             1 S1                 0.0000
     37 ****        -1.9225  -1.6315   0.4689 LP             1 S1                 0.0000
     38 ****        -3.4176  -0.5843  -3.8131 LP             1 S1                 0.0000
     39 ****        -4.5159  -2.7855  -4.3150 LP             1 S1                 0.0000
@<TRIPOS>BOND
    1    1    2 1     
    2    1   19 1     
    3    1   20 1     
    4    1   21 1     
    5    2    3 1     
    6    2   10 1     
    7    2   22 1     
    8    3    4 1     
    9    3   23 1     
   10    3   24 1     
   11    4    8 am    
   12    4    5 1     
   13    5    6 1     
   14    5   25 1     
   15    5   26 1     
   16    6    7 1     
   17    6   27 1     
   18    6   28 1     
   19    7    8 1     
   20    7   29 1     
   21    7   30 1     
   22    8    9 2     
   23   10   11 am    
   24   10   31 1     
   25   11   12 2     
   26   11   13 am    
   27   13   14 1     
   28   13   32 1     
   29   14   18 1     
   30   14   15 2     
   31   15   16 1     
   32   16   17 2     
   33   17   18 1     
   34   17   33 1     
   35    9   34 1     
   36    9   35 1     
   37   12   36 1     
   38   12   37 1     
   39   15   38 1     
   40   16   39 1     
@<TRIPOS>SUBSTRUCTURE
      1 S1             1
@<TRIPOS>SET
LONE_PAIRS      STATIC     ATOMS    <user>   **** ""
6 34 35 36 37 38 39
DONOR_HYDROGENS      STATIC     ATOMS    <user>   **** ""
2 31 32
ATOM$BLUE        STATIC     ATOMS    COLORGROUP SYSTEM
6 34 35 36 37 38 39
ATOM$RED        STATIC     ATOMS    COLORGROUP SYSTEM
2 31 32
