AV-unprocessed.smi:1947|AV-procd|sdf|7871|dock6
  -GOLD-   2272010 23D 1   1.00000     0.00000
 Structure written by MMmdl.
 38 39  0  0  0  0  0  0  0  0  2 V2000
  153.0654  141.5207  160.4769 C   0  0  0  0  0  0  0  0  0  0  0  0
  152.9946  142.9873  160.0239 C   0  0  2  0  0  0  0  0  0  0  0  0
  152.1119  143.8361  160.9615 C   0  0  0  0  0  0  0  0  0  0  0  0
  152.0743  145.3088  160.5230 C   0  0  0  0  0  0  0  0  0  0  0  0
  151.6218  145.4453  159.0613 C   0  0  0  0  0  0  0  0  0  0  0  0
  152.5034  144.6017  158.1253 C   0  0  0  0  0  0  0  0  0  0  0  0
  152.5336  143.1188  158.5549 C   0  0  2  0  0  0  0  0  0  0  0  0
  151.2335  142.5536  158.4386 O   0  0  0  0  0  0  0  0  0  0  0  0
  150.7744  142.3857  157.1056 C   0  0  0  0  0  0  0  0  0  0  0  0
  149.3868  141.7394  157.1469 C   0  0  0  0  0  0  0  0  0  0  0  0
  148.7496  142.0042  158.4301 N   0  0  0  0  0  0  0  0  0  0  0  0
  147.5759  142.6249  158.6011 C   0  0  0  0  0  0  0  0  0  0  0  0
  146.9471  143.0306  157.6211 O   0  0  0  0  0  0  0  0  0  0  0  0
  147.2034  142.7340  159.8968 N   0  5  0  0  0  0  0  0  0  0  0  0
  146.0412  143.3266  160.2162 C   0  0  0  0  0  0  0  0  0  0  0  0
  145.2438  143.8874  159.2928 N   0  0  0  0  0  0  0  0  0  0  0  0
  144.0975  144.4545  159.8330 N   0  0  0  0  0  0  0  0  0  0  0  0
  144.0630  144.3118  161.1576 C   0  0  0  0  0  0  0  0  0  0  0  0
  145.4279  143.4743  161.8654 S   0  0  0  0  0  0  0  0  0  0  0  0
  152.0816  141.0506  160.4644 H   0  0  0  0  0  0  0  0  0  0  0  0
  153.4562  141.4431  161.4917 H   0  0  0  0  0  0  0  0  0  0  0  0
  153.7199  140.9402  159.8263 H   0  0  0  0  0  0  0  0  0  0  0  0
  154.0088  143.3851  160.0832 H   0  0  0  0  0  0  0  0  0  0  0  0
  151.0970  143.4359  160.9790 H   0  0  0  0  0  0  0  0  0  0  0  0
  152.4843  143.7714  161.9843 H   0  0  0  0  0  0  0  0  0  0  0  0
  151.4054  145.8733  161.1734 H   0  0  0  0  0  0  0  0  0  0  0  0
  153.0649  145.7496  160.6409 H   0  0  0  0  0  0  0  0  0  0  0  0
  150.5813  145.1304  158.9688 H   0  0  0  0  0  0  0  0  0  0  0  0
  151.6539  146.4922  158.7586 H   0  0  0  0  0  0  0  0  0  0  0  0
  152.1542  144.7047  157.0985 H   0  0  0  0  0  0  0  0  0  0  0  0
  153.5191  144.9986  158.1364 H   0  0  0  0  0  0  0  0  0  0  0  0
  153.2320  142.5679  157.9219 H   0  0  0  0  0  0  0  0  0  0  0  0
  150.7225  143.3356  156.5730 H   0  0  0  0  0  0  0  0  0  0  0  0
  151.4723  141.7474  156.5624 H   0  0  0  0  0  0  0  0  0  0  0  0
  148.7655  142.1462  156.3480 H   0  0  0  0  0  0  0  0  0  0  0  0
  149.4649  140.6634  156.9827 H   0  0  0  0  0  0  0  0  0  0  0  0
  149.2327  141.6821  159.2558 H   0  0  0  0  0  0  0  0  0  0  0  0
  143.2305  144.7049  161.7216 H   0  0  0  0  0  0  0  0  0  0  0  0
  1  2  1  0  0  0  0
  1 20  1  0  0  0  0
  1 21  1  0  0  0  0
  1 22  1  0  0  0  0
  2  7  1  0  0  0  0
  2  3  1  0  0  0  0
  2 23  1  0  0  0  0
  3  4  1  0  0  0  0
  3 24  1  0  0  0  0
  3 25  1  0  0  0  0
  4  5  1  0  0  0  0
  4 26  1  0  0  0  0
  4 27  1  0  0  0  0
  5  6  1  0  0  0  0
  5 28  1  0  0  0  0
  5 29  1  0  0  0  0
  6  7  1  0  0  0  0
  6 30  1  0  0  0  0
  6 31  1  0  0  0  0
  7  8  1  0  0  0  0
  7 32  1  0  0  0  0
  8  9  1  0  0  0  0
  9 10  1  0  0  0  0
  9 33  1  0  0  0  0
  9 34  1  0  0  0  0
 10 11  1  0  0  0  0
 10 35  1  0  0  0  0
 10 36  1  0  0  0  0
 11 12  1  0  0  0  0
 11 37  1  0  0  0  0
 12 13  2  0  0  0  0
 12 14  1  0  0  0  0
 14 15  1  0  0  0  0
 15 19  1  0  0  0  0
 15 16  2  0  0  0  0
 16 17  1  0  0  0  0
 17 18  2  0  0  0  0
 18 19  1  0  0  0  0
 18 38  1  0  0  0  0
M  CHG  1  14  -1
M  END
> <s_m_source_file>
AV-unprocessed.smi

> <i_m_source_file_index>
1947

> <i_lp_mmshare_version>
43012

> <i_f3d_flags>
0

> <s_epik_input>
W0NIM11bQ0BASF0xW0NIMl1bQ0gyXVtDSDJdW0NIMl1bQ0BIXTFPW0NIMl1bQ0gyXVtOSF1DKD1PKVtOSF1jMm5uW2NIXXMy

> <s_epik_cmdline>
J2VwaWtfcHl0aG9uJywgJy1waCcsICc3LjAnLCAnLXRuJywgJzgnLCAnLW1hJywgJzIwMCcsICctbWV0YWxfYmluZGluZycsICctaW1hZScsICc8aW5maWxlLm1hZT4nLCAnLW9tYWUnLCAnPG91dGZpbGUubWFlPic=

> <r_lp_tautomer_probability>
1

> <r_epik_Ionization_Penalty>
3.35961

> <r_epik_Ionization_Penalty_Charging>
3.31977

> <r_epik_Ionization_Penalty_Neutral>
0.0398394

> <r_epik_State_Penalty>
3.31759

> <r_epik_Charging_Adjusted_Penalty>
6.63736

> <i_epik_Tot_Q>
-1

> <i_epik_Tot_abs_Q>
1

> <r_epik_Metal_State_Penalty>
0.484557

> <b_epik_Metal_Only>
1

> <s_lp_Force_Field>
OPLS_2005

> <r_lp_Energy>
9.4778

> <b_lp_Chiralities_Consistent>
1

> <s_lp_Variant>
AV-unprocessed.smi:1947-7

> <Gold.Version>
5.8.1

> <Gold.Id.Protein>
6NUR|6NUR_protein|mol2

> <Gold.PLP.Fitness>
47.6806

> <Gold.PLP.PLP>
-39.1657

> <Gold.PLP.part.hbond>
-2.0000

> <Gold.PLP.part.metal>
0.0000

> <Gold.PLP.part.buried>
-4.0904

> <Gold.PLP.part.nonpolar>
-33.9164

> <Gold.PLP.part.repulsive>
0.5785

> <Gold.PLP.ligand.clash>
0.0000

> <Gold.PLP.ligand.torsion>
0.3053

> <Gold.PLP.Chemscore.Hbond>
3.0344

> <Gold.PLP.Chemscore.CHOScore>
0.0000

> <Gold.PLP.Chemscore.Metal>
0.0000

> <Gold.Chemscore.Hbonds>
donor molecule, donor type, donor heavy atom, donor atom, acceptor molecule, acceptor atom, score
      P1  H  6933  6944       L1    14  1.50
      P1  H  6934  6946       L1    14  1.45

> <Gold.PLP.Chemscore.Internal.Correction>
0.0223

> <Gold.Rescore>
     Score         DG    S(hbond)    S(metal)    S(lipo)     H(rot)  DE(clash)    DE(int)     intcor
     14.43     -16.79       0.91        0.00     112.34       1.90       0.29       2.07       ----

> <Gold.Chemscore.Fitness>
14.4343

> <Gold.Chemscore.DG>
-16.7890

> <Gold.Chemscore.ZeroCoef>
-5.4800

> <Gold.Chemscore.Hbond>
0.9057

> <Gold.Chemscore.Metal>
0.0000

> <Gold.Chemscore.Lipo>
112.3395

> <Gold.Chemscore.Internal_Hbond>
0.0000

> <Gold.Chemscore.DEClash>
0.2876

> <Gold.Chemscore.DEInternal>
2.0671

> <Gold.Chemscore.Rot>
1.8984

> <Gold.Chemscore.Internal.Correction>
   9.000000E+99

> <Gold.Chemscore.Hbonds>
donor molecule, donor type, donor heavy atom, donor atom, acceptor molecule, acceptor atom, score
      P1  H  6933  6944       L1    14  0.65
      P1  H  6934  6946       L1    14  0.15

> <Gold.Chemscore.Hbond.Weighted>
-3.0251

> <Gold.Chemscore.Metal.Weighted>
-0.0000

> <Gold.Chemscore.Lipo.Weighted>
-13.1437

> <Gold.Chemscore.Internal_Hbond.Weighted>
0.0000

> <Gold.Chemscore.DEClash.Weighted>
0.2876

> <Gold.Chemscore.DEInternal.Weighted>
2.0671

> <Gold.Chemscore.Rot.Weighted>
4.8598

> <Gold.Chemscore.Internal.Correction.Weighted>
   9.000000E+99

> <Gold.Protein.RotatedTorsions>
[ 6907 6896 6895 6894 ] final  -81.61 input  -60.11 | X-H torsion
[ 7974 7965 7964 7962 ] final   16.01 input  175.53 | X-H torsion
[ 8008 7997 7996 7995 ] final  106.83 input   59.86 | X-H torsion
[ 10167 10162 10161 10158 ] final   92.25 input  -65.29 | X-H torsion
[ 10718 10713 10712 10709 ] final  -12.84 input   66.30 | X-H torsion
[ 10763 10752 10751 10750 ] final -144.92 input  -60.55 | X-H torsion
[ 11005 11000 10999 10996 ] final -154.96 input  -57.11 | X-H torsion

> <Gold.Protein.ActiveResidues>
 VAL166  LYS551  ARG553  GLY616  TRP617  ASP618  TYR619  PRO620  LYS621  CYS622 
 ASP623  PHE694  ASN695  SER759  ASP760  ASP761  ALA762  ILE779  LEU786  VAL792 
 PHE793  MET794  SER795  GLU796  ALA797  LYS798  CYS799  TRP800  GLU811  SER814 

> <Gold.Protein.RotatedAtoms>
  150.6909  134.3791  159.5025 H   0  0  0  0  0  0  0  0  0  0  0  0  # atno 6907 bound_to 6896
  152.1595  134.8920  160.0552 H   0  0  0  0  0  0  0  0  0  0  0  0  # atno 6908 bound_to 6896
  151.9987  133.3783  159.4210 H   0  0  0  0  0  0  0  0  0  0  0  0  # atno 6909 bound_to 6896
  146.2262  139.8810  142.8571 H   0  0  0  0  0  0  0  0  0  0  0  0  # atno 7974 bound_to 7965
  156.1775  140.3106  155.9086 H   0  0  0  0  0  0  0  0  0  0  0  0  # atno 8008 bound_to 7997
  155.3456  140.0468  157.3062 H   0  0  0  0  0  0  0  0  0  0  0  0  # atno 8009 bound_to 7997
  154.5306  140.2229  155.8821 H   0  0  0  0  0  0  0  0  0  0  0  0  # atno 8010 bound_to 7997
  139.8295  144.6694  150.9418 H   0  0  0  0  0  0  0  0  0  0  0  0  # atno 10167 bound_to 10162
  156.6388  130.4922  149.6102 H   0  0  0  0  0  0  0  0  0  0  0  0  # atno 10718 bound_to 10713
  154.8407  135.3427  154.6423 H   0  0  0  0  0  0  0  0  0  0  0  0  # atno 10763 bound_to 10752
  153.7034  135.6968  153.5061 H   0  0  0  0  0  0  0  0  0  0  0  0  # atno 10764 bound_to 10752
  153.2506  135.4355  155.0747 H   0  0  0  0  0  0  0  0  0  0  0  0  # atno 10765 bound_to 10752
  140.6917  134.4034  157.5218 H   0  0  0  0  0  0  0  0  0  0  0  0  # atno 11005 bound_to 11000
  145.2512  141.0045  143.3880 LP  0  0  0  0  0  0  0  0  0  0  0  0  # atno 17320 bound_to 7965
  144.9373  139.4230  143.6466 LP  0  0  0  0  0  0  0  0  0  0  0  0  # atno 17321 bound_to 7965
  140.7808  143.4014  151.1142 LP  0  0  0  0  0  0  0  0  0  0  0  0  # atno 17342 bound_to 10162
  139.7669  143.8552  152.3112 LP  0  0  0  0  0  0  0  0  0  0  0  0  # atno 17343 bound_to 10162
  156.2176  130.6717  151.1335 LP  0  0  0  0  0  0  0  0  0  0  0  0  # atno 17370 bound_to 10713
  157.7177  131.0700  150.6260 LP  0  0  0  0  0  0  0  0  0  0  0  0  # atno 17371 bound_to 10713
  139.8922  134.8762  156.2284 LP  0  0  0  0  0  0  0  0  0  0  0  0  # atno 17394 bound_to 11000
  141.0236  133.7027  156.1310 LP  0  0  0  0  0  0  0  0  0  0  0  0  # atno 17395 bound_to 11000

$$$$
