AV-unprocessed.smi:194|AV-procd|sdf|1522|dock6
  -GOLD-   2262019363D 1   1.00000     0.00000
 Structure written by MMmdl.
 53 55  0  0  0  0  0  0  0  0  1 V2000
  145.0763  137.8250  161.8829 C   0  0  0  0  0  0  0  0  0  0  0  0
  145.2786  136.3061  161.7585 C   0  0  2  0  0  0  0  0  0  0  0  0
  144.3603  135.5360  162.7322 C   0  0  0  0  0  0  0  0  0  0  0  0
  142.6033  136.1188  162.5557 S   0  0  2  0  0  0  0  0  0  0  0  0
  141.7767  134.8201  163.5907 C   0  0  0  0  0  0  0  0  0  0  0  0
  142.1952  135.8602  161.1042 O   0  0  0  0  0  0  0  0  0  0  0  0
  146.6959  135.9534  161.9207 N   0  0  0  0  0  0  0  0  0  0  0  0
  147.4673  136.4619  163.0513 C   0  0  0  0  0  0  0  0  0  0  0  0
  147.3716  135.4823  160.8401 C   0  0  0  0  0  0  0  0  0  0  0  0
  147.4979  134.1360  160.7043 N   0  0  0  0  0  0  0  0  0  0  0  0
  148.1633  133.6170  159.6695 C   0  0  0  0  0  0  0  0  0  0  0  0
  148.7740  134.2526  158.6690 N   0  0  0  0  0  0  0  0  0  0  0  0
  148.6555  135.6052  158.7952 C   0  0  0  0  0  0  0  0  0  0  0  0
  147.9724  136.2987  159.8361 C   0  0  0  0  0  0  0  0  0  0  0  0
  148.0414  137.6686  159.6062 N   0  0  0  0  0  0  0  0  0  0  0  0
  148.7301  137.7769  158.5040 C   0  0  0  0  0  0  0  0  0  0  0  0
  149.1578  136.5880  157.9590 N   0  0  0  0  0  0  0  0  0  0  0  0
  149.9340  136.4230  156.7386 C   0  0  0  0  0  0  0  0  0  0  0  0
  150.4195  137.7394  156.0581 C   0  0  0  0  0  0  0  0  0  0  0  0
  149.2254  138.5162  155.4252 C   0  0  0  0  0  0  0  0  0  0  0  0
  148.6141  137.8415  154.3439 O   0  0  0  0  0  0  0  0  0  0  0  0
  151.2162  138.6206  157.0545 C   0  0  0  0  0  0  0  0  0  0  0  0
  151.9841  139.7563  156.3573 C   0  0  0  0  0  0  0  0  0  0  0  0
  152.8779  139.2107  155.3957 O   0  0  0  0  0  0  0  0  0  0  0  0
  152.2084  138.5089  154.3565 C   0  0  0  0  0  0  0  0  0  0  0  0
  151.4102  137.3259  154.9394 C   0  0  0  0  0  0  0  0  0  0  0  0
  144.0403  138.0987  161.6815 H   0  0  0  0  0  0  0  0  0  0  0  0
  145.7024  138.3636  161.1708 H   0  0  0  0  0  0  0  0  0  0  0  0
  145.3233  138.1833  162.8826 H   0  0  0  0  0  0  0  0  0  0  0  0
  144.9559  136.0552  160.7494 H   0  0  0  0  0  0  0  0  0  0  0  0
  144.3961  134.4651  162.5345 H   0  0  0  0  0  0  0  0  0  0  0  0
  144.6792  135.6739  163.7657 H   0  0  0  0  0  0  0  0  0  0  0  0
  142.1162  134.8632  164.6244 H   0  0  0  0  0  0  0  0  0  0  0  0
  141.9853  133.8267  163.1941 H   0  0  0  0  0  0  0  0  0  0  0  0
  140.6979  134.9742  163.5825 H   0  0  0  0  0  0  0  0  0  0  0  0
  148.3771  135.8785  163.1975 H   0  0  0  0  0  0  0  0  0  0  0  0
  146.8956  136.4050  163.9764 H   0  0  0  0  0  0  0  0  0  0  0  0
  147.7459  137.5036  162.8911 H   0  0  0  0  0  0  0  0  0  0  0  0
  148.2152  132.5387  159.6401 H   0  0  0  0  0  0  0  0  0  0  0  0
  148.9576  138.7354  158.0605 H   0  0  0  0  0  0  0  0  0  0  0  0
  150.7888  135.7899  156.9813 H   0  0  0  0  0  0  0  0  0  0  0  0
  149.3314  135.8448  156.0368 H   0  0  0  0  0  0  0  0  0  0  0  0
  148.4375  138.6993  156.1534 H   0  0  0  0  0  0  0  0  0  0  0  0
  149.5518  139.4984  155.0817 H   0  0  0  0  0  0  0  0  0  0  0  0
  148.9886  138.1626  153.5379 H   0  0  0  0  0  0  0  0  0  0  0  0
  150.5656  139.0366  157.8238 H   0  0  0  0  0  0  0  0  0  0  0  0
  151.9415  137.9999  157.5821 H   0  0  0  0  0  0  0  0  0  0  0  0
  151.3052  140.4680  155.8857 H   0  0  0  0  0  0  0  0  0  0  0  0
  152.5637  140.3161  157.0917 H   0  0  0  0  0  0  0  0  0  0  0  0
  151.5729  139.1909  153.7916 H   0  0  0  0  0  0  0  0  0  0  0  0
  152.9559  138.1373  153.6554 H   0  0  0  0  0  0  0  0  0  0  0  0
  152.1293  136.6083  155.3371 H   0  0  0  0  0  0  0  0  0  0  0  0
  150.8827  136.8070  154.1380 H   0  0  0  0  0  0  0  0  0  0  0  0
  1  2  1  0  0  0  0
  1 27  1  0  0  0  0
  1 28  1  0  0  0  0
  1 29  1  0  0  0  0
  2  3  1  0  0  0  0
  2  7  1  0  0  0  0
  2 30  1  0  0  0  0
  3  4  1  0  0  0  0
  3 31  1  0  0  0  0
  3 32  1  0  0  0  0
  4  5  1  0  0  0  0
  4  6  2  0  0  0  0
  5 33  1  0  0  0  0
  5 34  1  0  0  0  0
  5 35  1  0  0  0  0
  7  8  1  0  0  0  0
  7  9  1  0  0  0  0
  8 36  1  0  0  0  0
  8 37  1  0  0  0  0
  8 38  1  0  0  0  0
  9 14  1  0  0  0  0
  9 10  2  0  0  0  0
 10 11  1  0  0  0  0
 11 12  2  0  0  0  0
 11 39  1  0  0  0  0
 12 13  1  0  0  0  0
 13 17  1  0  0  0  0
 13 14  2  0  0  0  0
 14 15  1  0  0  0  0
 15 16  2  0  0  0  0
 16 17  1  0  0  0  0
 16 40  1  0  0  0  0
 17 18  1  0  0  0  0
 18 19  1  0  0  0  0
 18 41  1  0  0  0  0
 18 42  1  0  0  0  0
 19 26  1  0  0  0  0
 19 20  1  0  0  0  0
 19 22  1  0  0  0  0
 20 21  1  0  0  0  0
 20 43  1  0  0  0  0
 20 44  1  0  0  0  0
 21 45  1  0  0  0  0
 22 23  1  0  0  0  0
 22 46  1  0  0  0  0
 22 47  1  0  0  0  0
 23 24  1  0  0  0  0
 23 48  1  0  0  0  0
 23 49  1  0  0  0  0
 24 25  1  0  0  0  0
 25 26  1  0  0  0  0
 25 50  1  0  0  0  0
 25 51  1  0  0  0  0
 26 52  1  0  0  0  0
 26 53  1  0  0  0  0
M  END
> <s_m_source_file>
AV-unprocessed.smi

> <i_m_source_file_index>
194

> <i_lp_mmshare_version>
43012

> <i_f3d_flags>
0

> <s_epik_input>
W0NIM11bU0BAXSg9TylbQ0gyXVtDQEBIXShbQ0gzXSlOKFtDSDNdKWMobltjSF1uMSljKGMxMiluW2NIXW4yW0NIMl1DMyhbQ0gyXVtPSF0pW0NIMl1bQ0gyXU9bQ0gyXVtDSDJdMw==

> <s_epik_cmdline>
J2VwaWtfcHl0aG9uJywgJy1waCcsICc3LjAnLCAnLXRuJywgJzgnLCAnLW1hJywgJzIwMCcsICctbWV0YWxfYmluZGluZycsICctaW1hZScsICc8aW5maWxlLm1hZT4nLCAnLW9tYWUnLCAnPG91dGZpbGUubWFlPic=

> <r_lp_tautomer_probability>
1

> <r_epik_Ionization_Penalty>
0.00101625

> <r_epik_Ionization_Penalty_Charging>
0

> <r_epik_Ionization_Penalty_Neutral>
0.00101625

> <r_epik_State_Penalty>
0.000568005

> <r_epik_Charging_Adjusted_Penalty>
0.000568005

> <i_epik_Tot_Q>
0

> <i_epik_Tot_abs_Q>
0

> <r_epik_Metal_State_Penalty>
-0

> <b_epik_Metal_Only>
0

> <s_lp_Force_Field>
OPLS_2005

> <r_lp_Energy>
28.7742

> <b_lp_Chiralities_Consistent>
1

> <s_lp_Variant>
AV-unprocessed.smi:194-3

> <Gold.Version>
5.8.1

> <Gold.Id.Protein>
6NUR|6NUR_protein|mol2

> <Gold.PLP.Fitness>
43.2404

> <Gold.PLP.PLP>
-39.4086

> <Gold.PLP.part.hbond>
-4.4792

> <Gold.PLP.part.metal>
0.0000

> <Gold.PLP.part.buried>
-7.4795

> <Gold.PLP.part.nonpolar>
-29.0646

> <Gold.PLP.part.repulsive>
0.0000

> <Gold.PLP.ligand.clash>
0.0349

> <Gold.PLP.ligand.torsion>
1.8484

> <Gold.PLP.Chemscore.Hbond>
2.3129

> <Gold.PLP.Chemscore.CHOScore>
0.0000

> <Gold.PLP.Chemscore.Metal>
0.0000

> <Gold.Chemscore.Hbonds>
donor molecule, donor type, donor heavy atom, donor atom, acceptor molecule, acceptor atom, score
      P1  H  6896  6908       L1    12  0.81
      P1  H  6934  6947       L1    15  0.47
      P1  H  7997  8010       L1    24  0.80

> <Gold.PLP.Chemscore.Internal.Correction>
0.6248

> <Gold.Rescore>
     Score         DG    S(hbond)    S(metal)    S(lipo)     H(rot)  DE(clash)    DE(int)     intcor
      9.59     -12.67       1.81        0.00      75.99       3.03       0.02       3.06       ----

> <Gold.Chemscore.Fitness>
9.5915

> <Gold.Chemscore.DG>
-12.6734

> <Gold.Chemscore.ZeroCoef>
-5.4800

> <Gold.Chemscore.Hbond>
1.8139

> <Gold.Chemscore.Metal>
0.0000

> <Gold.Chemscore.Lipo>
75.9879

> <Gold.Chemscore.Internal_Hbond>
0.0000

> <Gold.Chemscore.DEClash>
0.0226

> <Gold.Chemscore.DEInternal>
3.0593

> <Gold.Chemscore.Rot>
3.0295

> <Gold.Chemscore.Internal.Correction>
   9.000000E+99

> <Gold.Chemscore.Hbonds>
donor molecule, donor type, donor heavy atom, donor atom, acceptor molecule, acceptor atom, score
      P1  H  6896  6908       L1    12  0.04
      P1  H  6934  6947       L1    15  0.44
      P1  H  7997  8010       L1    24  0.12

> <Gold.Chemscore.Hbond.Weighted>
-6.0584

> <Gold.Chemscore.Metal.Weighted>
-0.0000

> <Gold.Chemscore.Lipo.Weighted>
-8.8906

> <Gold.Chemscore.Internal_Hbond.Weighted>
0.0000

> <Gold.Chemscore.DEClash.Weighted>
0.0226

> <Gold.Chemscore.DEInternal.Weighted>
3.0593

> <Gold.Chemscore.Rot.Weighted>
7.7555

> <Gold.Chemscore.Internal.Correction.Weighted>
   9.000000E+99

> <Gold.Protein.RotatedTorsions>
[ 6907 6896 6895 6894 ] final  130.72 input  -60.11 | X-H torsion
[ 7974 7965 7964 7962 ] final   99.67 input  175.53 | X-H torsion
[ 8008 7997 7996 7995 ] final   97.06 input   59.86 | X-H torsion
[ 10167 10162 10161 10158 ] final  115.14 input  -65.29 | X-H torsion
[ 10718 10713 10712 10709 ] final -139.45 input   66.30 | X-H torsion
[ 10763 10752 10751 10750 ] final  140.39 input  -60.55 | X-H torsion
[ 11005 11000 10999 10996 ] final  -73.80 input  -57.11 | X-H torsion

> <Gold.Protein.ActiveResidues>
 VAL166  LYS551  ARG553  GLY616  TRP617  ASP618  TYR619  PRO620  LYS621  CYS622 
 ASP623  PHE694  ASN695  SER759  ASP760  ASP761  ALA762  ILE779  LEU786  VAL792 
 PHE793  MET794  SER795  GLU796  ALA797  LYS798  CYS799  TRP800  GLU811  SER814 

> <Gold.Protein.RotatedAtoms>
  152.3498  133.6166  159.5936 H   0  0  0  0  0  0  0  0  0  0  0  0  # atno 6907 bound_to 6896
  150.7531  133.9591  159.3519 H   0  0  0  0  0  0  0  0  0  0  0  0  # atno 6908 bound_to 6896
  151.7445  135.0848  160.0372 H   0  0  0  0  0  0  0  0  0  0  0  0  # atno 6909 bound_to 6896
  145.3958  139.2355  143.3327 H   0  0  0  0  0  0  0  0  0  0  0  0  # atno 7974 bound_to 7965
  156.0861  140.3264  155.7756 H   0  0  0  0  0  0  0  0  0  0  0  0  # atno 8008 bound_to 7997
  155.5073  140.0574  157.2946 H   0  0  0  0  0  0  0  0  0  0  0  0  # atno 8009 bound_to 7997
  154.4610  140.1966  156.0261 H   0  0  0  0  0  0  0  0  0  0  0  0  # atno 8010 bound_to 7997
  139.6338  144.7118  151.2376 H   0  0  0  0  0  0  0  0  0  0  0  0  # atno 10167 bound_to 10162
  156.3109  130.7481  151.1556 H   0  0  0  0  0  0  0  0  0  0  0  0  # atno 10718 bound_to 10713
  153.9220  135.2999  155.3447 H   0  0  0  0  0  0  0  0  0  0  0  0  # atno 10763 bound_to 10752
  154.7571  135.4952  153.9397 H   0  0  0  0  0  0  0  0  0  0  0  0  # atno 10764 bound_to 10752
  153.1137  135.6765  153.9559 H   0  0  0  0  0  0  0  0  0  0  0  0  # atno 10765 bound_to 10752
  141.1627  133.6890  156.7267 H   0  0  0  0  0  0  0  0  0  0  0  0  # atno 11005 bound_to 11000
  146.2776  140.4648  142.8789 LP  0  0  0  0  0  0  0  0  0  0  0  0  # atno 17320 bound_to 7965
  144.8408  140.6854  143.6230 LP  0  0  0  0  0  0  0  0  0  0  0  0  # atno 17321 bound_to 7965
  140.7454  143.6432  150.8316 LP  0  0  0  0  0  0  0  0  0  0  0  0  # atno 17342 bound_to 10162
  140.0061  143.5693  152.2857 LP  0  0  0  0  0  0  0  0  0  0  0  0  # atno 17343 bound_to 10162
  157.7391  131.0533  150.5255 LP  0  0  0  0  0  0  0  0  0  0  0  0  # atno 17370 bound_to 10713
  156.5395  130.4204  149.6161 LP  0  0  0  0  0  0  0  0  0  0  0  0  # atno 17371 bound_to 10713
  140.2775  134.8343  157.3904 LP  0  0  0  0  0  0  0  0  0  0  0  0  # atno 17394 bound_to 11000
  140.1463  134.4906  155.7993 LP  0  0  0  0  0  0  0  0  0  0  0  0  # atno 17395 bound_to 11000

$$$$
