AV-unprocessed.smi:3048|AV-procd|sdf|11628|dock10
  -GOLD-   2272017 13D 1   1.00000     0.00000
 Structure written by MMmdl.
 37 38  0  0  0  0  0  0  0  0  1 V2000
  153.0016  142.7031  162.8183 C   0  0  0  0  0  0  0  0  0  0  0  0
  152.7735  142.9778  161.3599 C   0  0  0  0  0  0  0  0  0  0  0  0
  152.9867  142.0980  160.2606 C   0  0  0  0  0  0  0  0  0  0  0  0
  152.6914  142.6496  159.0949 N   0  0  0  0  0  0  0  0  0  0  0  0
  152.2814  143.8972  159.4073 N   0  0  0  0  0  0  0  0  0  0  0  0
  151.8765  144.8098  158.3534 C   0  0  0  0  0  0  0  0  0  0  0  0
  151.8829  144.1437  156.9681 C   0  0  0  0  0  0  0  0  0  0  0  0
  150.6628  143.3751  156.7376 N   0  0  0  0  0  0  0  0  0  0  0  0
  150.8991  142.0908  156.0871 C   0  0  0  0  0  0  0  0  0  0  0  0
  149.5956  141.5098  155.5186 C   0  0  1  0  0  0  0  0  0  0  0  0
  148.4053  141.7461  156.4685 C   0  0  0  0  0  0  0  0  0  0  0  0
  147.1026  141.2384  155.8388 C   0  0  0  0  0  0  0  0  0  0  0  0
  146.9255  141.8559  154.4476 C   0  0  0  0  0  0  0  0  0  0  0  0
  148.1869  141.6298  153.5997 C   0  0  0  0  0  0  0  0  0  0  0  0
  149.3245  142.1562  154.2761 O   0  0  0  0  0  0  0  0  0  0  0  0
  152.3192  144.1217  160.7671 C   0  0  0  0  0  0  0  0  0  0  0  0
  152.8792  141.6459  163.0546 H   0  0  0  0  0  0  0  0  0  0  0  0
  152.3035  143.2553  163.4478 H   0  0  0  0  0  0  0  0  0  0  0  0
  154.0079  142.9876  163.1265 H   0  0  0  0  0  0  0  0  0  0  0  0
  153.3466  141.0797  160.2756 H   0  0  0  0  0  0  0  0  0  0  0  0
  150.8754  145.1770  158.5837 H   0  0  0  0  0  0  0  0  0  0  0  0
  152.5372  145.6779  158.3649 H   0  0  0  0  0  0  0  0  0  0  0  0
  152.0004  144.9055  156.1965 H   0  0  0  0  0  0  0  0  0  0  0  0
  152.7501  143.4872  156.8899 H   0  0  0  0  0  0  0  0  0  0  0  0
  150.0148  143.9238  156.1812 H   0  0  0  0  0  0  0  0  0  0  0  0
  151.6100  142.2307  155.2716 H   0  0  0  0  0  0  0  0  0  0  0  0
  151.3559  141.3846  156.7815 H   0  0  0  0  0  0  0  0  0  0  0  0
  149.7179  140.4369  155.3567 H   0  0  0  0  0  0  0  0  0  0  0  0
  148.5762  141.2443  157.4215 H   0  0  0  0  0  0  0  0  0  0  0  0
  148.3144  142.8109  156.6872 H   0  0  0  0  0  0  0  0  0  0  0  0
  147.1341  140.1513  155.7568 H   0  0  0  0  0  0  0  0  0  0  0  0
  146.2509  141.4815  156.4750 H   0  0  0  0  0  0  0  0  0  0  0  0
  146.0535  141.4282  153.9520 H   0  0  0  0  0  0  0  0  0  0  0  0
  146.7387  142.9263  154.5423 H   0  0  0  0  0  0  0  0  0  0  0  0
  148.3326  140.5686  153.3918 H   0  0  0  0  0  0  0  0  0  0  0  0
  148.0863  142.1309  152.6369 H   0  0  0  0  0  0  0  0  0  0  0  0
  152.0266  145.0693  161.1950 H   0  0  0  0  0  0  0  0  0  0  0  0
  1  2  1  0  0  0  0
  1 17  1  0  0  0  0
  1 18  1  0  0  0  0
  1 19  1  0  0  0  0
  2 16  2  0  0  0  0
  2  3  1  0  0  0  0
  3  4  2  0  0  0  0
  3 20  1  0  0  0  0
  4  5  1  0  0  0  0
  5  6  1  0  0  0  0
  5 16  1  0  0  0  0
  6  7  1  0  0  0  0
  6 21  1  0  0  0  0
  6 22  1  0  0  0  0
  7  8  1  0  0  0  0
  7 23  1  0  0  0  0
  7 24  1  0  0  0  0
  8  9  1  0  0  0  0
  8 25  1  0  0  0  0
  9 10  1  0  0  0  0
  9 26  1  0  0  0  0
  9 27  1  0  0  0  0
 10 15  1  0  0  0  0
 10 11  1  0  0  0  0
 10 28  1  0  0  0  0
 11 12  1  0  0  0  0
 11 29  1  0  0  0  0
 11 30  1  0  0  0  0
 12 13  1  0  0  0  0
 12 31  1  0  0  0  0
 12 32  1  0  0  0  0
 13 14  1  0  0  0  0
 13 33  1  0  0  0  0
 13 34  1  0  0  0  0
 14 15  1  0  0  0  0
 14 35  1  0  0  0  0
 14 36  1  0  0  0  0
 16 37  1  0  0  0  0
M  END
> <s_m_source_file>
AV-unprocessed.smi

> <i_m_source_file_index>
3048

> <i_lp_mmshare_version>
43012

> <i_f3d_flags>
0

> <s_epik_input>
W0NIM11jMVtjSF1ubihbY0hdMSlbQ0gyXVtDSDJdW05IXVtDSDJdW0NAQEhdMltDSDJdW0NIMl1bQ0gyXVtDSDJdTzI=

> <s_epik_cmdline>
J2VwaWtfcHl0aG9uJywgJy1waCcsICc3LjAnLCAnLXRuJywgJzgnLCAnLW1hJywgJzIwMCcsICctbWV0YWxfYmluZGluZycsICctaW1hZScsICc8aW5maWxlLm1hZT4nLCAnLW9tYWUnLCAnPG91dGZpbGUubWFlPic=

> <r_lp_tautomer_probability>
1

> <r_epik_Ionization_Penalty>
2.52229

> <r_epik_Ionization_Penalty_Charging>
0

> <r_epik_Ionization_Penalty_Neutral>
2.52229

> <r_epik_State_Penalty>
2.68614

> <r_epik_Charging_Adjusted_Penalty>
2.68614

> <i_epik_Tot_Q>
0

> <i_epik_Tot_abs_Q>
0

> <r_epik_Metal_State_Penalty>
2.68365

> <b_epik_Metal_Only>
0

> <s_lp_Force_Field>
OPLS_2005

> <r_lp_Energy>
12.9812

> <b_lp_Chiralities_Consistent>
1

> <s_lp_Variant>
AV-unprocessed.smi:3048-4

> <Gold.Version>
5.8.1

> <Gold.Id.Protein>
6NUR|6NUR_protein|mol2

> <Gold.PLP.Fitness>
44.0805

> <Gold.PLP.PLP>
-42.2781

> <Gold.PLP.part.hbond>
-2.1723

> <Gold.PLP.part.metal>
0.0000

> <Gold.PLP.part.buried>
-5.9498

> <Gold.PLP.part.nonpolar>
-33.8065

> <Gold.PLP.part.repulsive>
1.0624

> <Gold.PLP.ligand.clash>
0.0000

> <Gold.PLP.ligand.torsion>
0.6736

> <Gold.PLP.Chemscore.Hbond>
1.0407

> <Gold.PLP.Chemscore.CHOScore>
0.0000

> <Gold.PLP.Chemscore.Metal>
0.0000

> <Gold.Chemscore.Hbonds>
donor molecule, donor type, donor heavy atom, donor atom, acceptor molecule, acceptor atom, score
      L1  H     8    25       P1  8028  0.84

> <Gold.PLP.Chemscore.Internal.Correction>
0.0276

> <Gold.Rescore>
     Score         DG    S(hbond)    S(metal)    S(lipo)     H(rot)  DE(clash)    DE(int)     intcor
     15.96     -17.30       0.98        0.00     106.89       1.54       0.61       0.73       ----

> <Gold.Chemscore.Fitness>
15.9587

> <Gold.Chemscore.DG>
-17.3021

> <Gold.Chemscore.ZeroCoef>
-5.4800

> <Gold.Chemscore.Hbond>
0.9763

> <Gold.Chemscore.Metal>
0.0000

> <Gold.Chemscore.Lipo>
106.8916

> <Gold.Chemscore.Internal_Hbond>
0.0000

> <Gold.Chemscore.DEClash>
0.6089

> <Gold.Chemscore.DEInternal>
0.7345

> <Gold.Chemscore.Rot>
1.5411

> <Gold.Chemscore.Internal.Correction>
   9.000000E+99

> <Gold.Chemscore.Hbonds>
donor molecule, donor type, donor heavy atom, donor atom, acceptor molecule, acceptor atom, score
      L1  H     8    25       P1  8028  0.82

> <Gold.Chemscore.Hbond.Weighted>
-3.2610

> <Gold.Chemscore.Metal.Weighted>
-0.0000

> <Gold.Chemscore.Lipo.Weighted>
-12.5063

> <Gold.Chemscore.Internal_Hbond.Weighted>
0.0000

> <Gold.Chemscore.DEClash.Weighted>
0.6089

> <Gold.Chemscore.DEInternal.Weighted>
0.7345

> <Gold.Chemscore.Rot.Weighted>
3.9452

> <Gold.Chemscore.Internal.Correction.Weighted>
   9.000000E+99

> <Gold.Protein.RotatedTorsions>
[ 6907 6896 6895 6894 ] final  -10.03 input  -60.11 | X-H torsion
[ 7974 7965 7964 7962 ] final -106.60 input  175.53 | X-H torsion
[ 8008 7997 7996 7995 ] final   39.27 input   59.86 | X-H torsion
[ 10167 10162 10161 10158 ] final   41.79 input  -65.29 | X-H torsion
[ 10718 10713 10712 10709 ] final   57.09 input   66.30 | X-H torsion
[ 10763 10752 10751 10750 ] final   35.38 input  -60.55 | X-H torsion
[ 11005 11000 10999 10996 ] final   12.47 input  -57.11 | X-H torsion

> <Gold.Protein.ActiveResidues>
 VAL166  LYS551  ARG553  GLY616  TRP617  ASP618  TYR619  PRO620  LYS621  CYS622 
 ASP623  PHE694  ASN695  SER759  ASP760  ASP761  ALA762  ILE779  LEU786  VAL792 
 PHE793  MET794  SER795  GLU796  ALA797  LYS798  CYS799  TRP800  GLU811  SER814 

> <Gold.Protein.RotatedAtoms>
  151.4085  135.0981  159.9577 H   0  0  0  0  0  0  0  0  0  0  0  0  # atno 6907 bound_to 6896
  152.5028  133.8820  159.7361 H   0  0  0  0  0  0  0  0  0  0  0  0  # atno 6908 bound_to 6896
  150.9310  133.6710  159.2839 H   0  0  0  0  0  0  0  0  0  0  0  0  # atno 6909 bound_to 6896
  145.2158  140.9115  143.3288 H   0  0  0  0  0  0  0  0  0  0  0  0  # atno 7974 bound_to 7965
  155.2338  140.3340  155.4300 H   0  0  0  0  0  0  0  0  0  0  0  0  # atno 8008 bound_to 7997
  156.2284  140.1839  156.7351 H   0  0  0  0  0  0  0  0  0  0  0  0  # atno 8009 bound_to 7997
  154.5937  140.0634  156.9259 H   0  0  0  0  0  0  0  0  0  0  0  0  # atno 8010 bound_to 7997
  140.3608  144.2231  150.6138 H   0  0  0  0  0  0  0  0  0  0  0  0  # atno 10167 bound_to 10162
  157.5486  130.8749  149.8929 H   0  0  0  0  0  0  0  0  0  0  0  0  # atno 10718 bound_to 10713
  153.0121  135.6335  154.1818 H   0  0  0  0  0  0  0  0  0  0  0  0  # atno 10763 bound_to 10752
  154.1559  135.2826  155.3124 H   0  0  0  0  0  0  0  0  0  0  0  0  # atno 10764 bound_to 10752
  154.6018  135.5585  153.7443 H   0  0  0  0  0  0  0  0  0  0  0  0  # atno 10765 bound_to 10752
  140.4916  134.0835  155.7772 H   0  0  0  0  0  0  0  0  0  0  0  0  # atno 11005 bound_to 11000
  144.9812  139.3781  143.6261 LP  0  0  0  0  0  0  0  0  0  0  0  0  # atno 17320 bound_to 7965
  146.3387  139.8953  142.8802 LP  0  0  0  0  0  0  0  0  0  0  0  0  # atno 17321 bound_to 7965
  140.5129  143.2286  151.8508 LP  0  0  0  0  0  0  0  0  0  0  0  0  # atno 17342 bound_to 10162
  139.4814  144.4929  151.9162 LP  0  0  0  0  0  0  0  0  0  0  0  0  # atno 17343 bound_to 10162
  156.0557  130.3709  150.1097 LP  0  0  0  0  0  0  0  0  0  0  0  0  # atno 17370 bound_to 10713
  156.9272  130.9702  151.3539 LP  0  0  0  0  0  0  0  0  0  0  0  0  # atno 17371 bound_to 10713
  141.1481  133.9018  157.2166 LP  0  0  0  0  0  0  0  0  0  0  0  0  # atno 17394 bound_to 11000
  139.9766  135.0112  156.9646 LP  0  0  0  0  0  0  0  0  0  0  0  0  # atno 17395 bound_to 11000

$$$$
