AV-unprocessed.smi:605|AV-procd|sdf|3040|dock5
  -GOLD-   2262023563D 1   1.00000     0.00000
 Structure written by MMmdl.
 34 35  0  0  0  0  0  0  0  0  2 V2000
  147.2351  141.9860  155.5854 C   0  0  0  0  0  0  0  0  0  0  0  0
  148.3274  141.5045  154.6196 C   0  0  0  0  0  0  0  0  0  0  0  0
  147.7837  140.6260  153.4835 C   0  0  0  0  0  0  0  0  0  0  0  0
  149.4681  140.8534  155.3372 C   0  0  0  0  0  0  0  0  0  0  0  0
  150.5657  140.4114  154.7154 N   0  0  0  0  0  0  0  0  0  0  0  0
  151.4790  139.8525  155.5966 N   0  0  0  0  0  0  0  0  0  0  0  0
  151.0683  139.8881  156.8719 C   0  0  0  0  0  0  0  0  0  0  0  0
  151.8121  139.4069  157.8853 N   0  5  0  0  0  0  0  0  0  0  0  0
  152.6920  140.1784  158.5771 C   0  0  0  0  0  0  0  0  0  0  0  0
  153.8196  139.7992  158.8911 O   0  0  0  0  0  0  0  0  0  0  0  0
  152.2998  141.4183  158.9296 N   0  0  0  0  0  0  0  0  0  0  0  0
  153.0886  142.3953  159.6759 C   0  0  0  0  0  0  0  0  0  0  0  0
  153.2118  141.9772  161.1540 C   0  0  0  0  0  0  0  0  0  0  0  0
  152.8390  143.2109  161.9783 C   0  0  0  0  0  0  0  0  0  0  0  0
  151.8655  143.9791  161.0905 C   0  0  0  0  0  0  0  0  0  0  0  0
  152.4139  143.7814  159.6775 C   0  0  0  0  0  0  0  0  0  0  0  0
  149.4727  140.6088  157.0765 S   0  0  0  0  0  0  0  0  0  0  0  0
  147.6431  142.6727  156.3279 H   0  0  0  0  0  0  0  0  0  0  0  0
  146.7814  141.1501  156.1186 H   0  0  0  0  0  0  0  0  0  0  0  0
  146.4413  142.5099  155.0523 H   0  0  0  0  0  0  0  0  0  0  0  0
  148.7336  142.3994  154.1464 H   0  0  0  0  0  0  0  0  0  0  0  0
  148.5711  140.3730  152.7727 H   0  0  0  0  0  0  0  0  0  0  0  0
  146.9941  141.1386  152.9337 H   0  0  0  0  0  0  0  0  0  0  0  0
  147.3692  139.6933  153.8673 H   0  0  0  0  0  0  0  0  0  0  0  0
  151.3736  141.7060  158.6501 H   0  0  0  0  0  0  0  0  0  0  0  0
  154.0848  142.4739  159.2369 H   0  0  0  0  0  0  0  0  0  0  0  0
  152.5131  141.1716  161.3859 H   0  0  0  0  0  0  0  0  0  0  0  0
  154.2108  141.6134  161.3964 H   0  0  0  0  0  0  0  0  0  0  0  0
  152.4113  142.9545  162.9478 H   0  0  0  0  0  0  0  0  0  0  0  0
  153.7285  143.8168  162.1556 H   0  0  0  0  0  0  0  0  0  0  0  0
  150.8718  143.5348  161.1636 H   0  0  0  0  0  0  0  0  0  0  0  0
  151.7833  145.0310  161.3659 H   0  0  0  0  0  0  0  0  0  0  0  0
  153.1659  144.5448  159.4733 H   0  0  0  0  0  0  0  0  0  0  0  0
  151.6372  143.8886  158.9192 H   0  0  0  0  0  0  0  0  0  0  0  0
  1  2  1  0  0  0  0
  1 18  1  0  0  0  0
  1 19  1  0  0  0  0
  1 20  1  0  0  0  0
  2  3  1  0  0  0  0
  2  4  1  0  0  0  0
  2 21  1  0  0  0  0
  3 22  1  0  0  0  0
  3 23  1  0  0  0  0
  3 24  1  0  0  0  0
  4 17  1  0  0  0  0
  4  5  2  0  0  0  0
  5  6  1  0  0  0  0
  6  7  2  0  0  0  0
  7  8  1  0  0  0  0
  7 17  1  0  0  0  0
  8  9  1  0  0  0  0
  9 10  2  0  0  0  0
  9 11  1  0  0  0  0
 11 12  1  0  0  0  0
 11 25  1  0  0  0  0
 12 16  1  0  0  0  0
 12 13  1  0  0  0  0
 12 26  1  0  0  0  0
 13 14  1  0  0  0  0
 13 27  1  0  0  0  0
 13 28  1  0  0  0  0
 14 15  1  0  0  0  0
 14 29  1  0  0  0  0
 14 30  1  0  0  0  0
 15 16  1  0  0  0  0
 15 31  1  0  0  0  0
 15 32  1  0  0  0  0
 16 33  1  0  0  0  0
 16 34  1  0  0  0  0
M  CHG  1   8  -1
M  END
> <s_m_source_file>
AV-unprocessed.smi

> <i_m_source_file_index>
605

> <i_lp_mmshare_version>
43012

> <i_f3d_flags>
0

> <s_epik_input>
W0NIM11bQ0hdKFtDSDNdKWMxbm5jKHMxKVtOSF1DKD1PKVtOSF1bQ0hdMltDSDJdW0NIMl1bQ0gyXVtDSDJdMg==

> <s_epik_cmdline>
J2VwaWtfcHl0aG9uJywgJy1waCcsICc3LjAnLCAnLXRuJywgJzgnLCAnLW1hJywgJzIwMCcsICctbWV0YWxfYmluZGluZycsICctaW1hZScsICc8aW5maWxlLm1hZT4nLCAnLW9tYWUnLCAnPG91dGZpbGUubWFlPic=

> <r_lp_tautomer_probability>
1

> <r_epik_Ionization_Penalty>
4.57432

> <r_epik_Ionization_Penalty_Charging>
4.40687

> <r_epik_Ionization_Penalty_Neutral>
0.167446

> <r_epik_State_Penalty>
4.40652

> <r_epik_Charging_Adjusted_Penalty>
8.8134

> <i_epik_Tot_Q>
-1

> <i_epik_Tot_abs_Q>
1

> <r_epik_Metal_State_Penalty>
0.774635

> <b_epik_Metal_Only>
1

> <s_lp_Force_Field>
OPLS_2005

> <r_lp_Energy>
11.4858

> <b_lp_Chiralities_Consistent>
1

> <s_lp_Variant>
AV-unprocessed.smi:605-2

> <Gold.Version>
5.8.1

> <Gold.Id.Protein>
6NUR|6NUR_protein|mol2

> <Gold.PLP.Fitness>
38.9099

> <Gold.PLP.PLP>
-35.3379

> <Gold.PLP.part.hbond>
-2.2803

> <Gold.PLP.part.metal>
0.0000

> <Gold.PLP.part.buried>
-3.0581

> <Gold.PLP.part.nonpolar>
-30.2552

> <Gold.PLP.part.repulsive>
0.2072

> <Gold.PLP.ligand.clash>
0.0000

> <Gold.PLP.ligand.torsion>
1.2546

> <Gold.PLP.Chemscore.Hbond>
2.0000

> <Gold.PLP.Chemscore.CHOScore>
0.0000

> <Gold.PLP.Chemscore.Metal>
0.0000

> <Gold.Chemscore.Hbonds>
donor molecule, donor type, donor heavy atom, donor atom, acceptor molecule, acceptor atom, score
      P1  H  7989  7998       L1     5  0.95
      P1  H  7997  8008       L1    10  1.00

> <Gold.PLP.Chemscore.Internal.Correction>
0.0813

> <Gold.Rescore>
     Score         DG    S(hbond)    S(metal)    S(lipo)     H(rot)  DE(clash)    DE(int)     intcor
     15.02     -17.82       1.39        0.00      91.61       1.18       1.56       1.24       ----

> <Gold.Chemscore.Fitness>
15.0178

> <Gold.Chemscore.DG>
-17.8245

> <Gold.Chemscore.ZeroCoef>
-5.4800

> <Gold.Chemscore.Hbond>
1.3937

> <Gold.Chemscore.Metal>
0.0000

> <Gold.Chemscore.Lipo>
91.6146

> <Gold.Chemscore.Internal_Hbond>
0.0000

> <Gold.Chemscore.DEClash>
1.5640

> <Gold.Chemscore.DEInternal>
1.2428

> <Gold.Chemscore.Rot>
1.1833

> <Gold.Chemscore.Internal.Correction>
   9.000000E+99

> <Gold.Chemscore.Hbonds>
donor molecule, donor type, donor heavy atom, donor atom, acceptor molecule, acceptor atom, score
      P1  H  7989  7998       L1     5  0.21
      P1  H  7997  8008       L1    10  0.57

> <Gold.Chemscore.Hbond.Weighted>
-4.6550

> <Gold.Chemscore.Metal.Weighted>
-0.0000

> <Gold.Chemscore.Lipo.Weighted>
-10.7189

> <Gold.Chemscore.Internal_Hbond.Weighted>
0.0000

> <Gold.Chemscore.DEClash.Weighted>
1.5640

> <Gold.Chemscore.DEInternal.Weighted>
1.2428

> <Gold.Chemscore.Rot.Weighted>
3.0293

> <Gold.Chemscore.Internal.Correction.Weighted>
   9.000000E+99

> <Gold.Protein.RotatedTorsions>
[ 6907 6896 6895 6894 ] final  -10.97 input  -60.11 | X-H torsion
[ 7974 7965 7964 7962 ] final  -81.15 input  175.53 | X-H torsion
[ 8008 7997 7996 7995 ] final -113.24 input   59.86 | X-H torsion
[ 10167 10162 10161 10158 ] final  131.68 input  -65.29 | X-H torsion
[ 10718 10713 10712 10709 ] final  175.93 input   66.30 | X-H torsion
[ 10763 10752 10751 10750 ] final   76.74 input  -60.55 | X-H torsion
[ 11005 11000 10999 10996 ] final  -48.15 input  -57.11 | X-H torsion

> <Gold.Protein.ActiveResidues>
 VAL166  LYS551  ARG553  GLY616  TRP617  ASP618  TYR619  PRO620  LYS621  CYS622 
 ASP623  PHE694  ASN695  SER759  ASP760  ASP761  ALA762  ILE779  LEU786  VAL792 
 PHE793  MET794  SER795  GLU796  ALA797  LYS798  CYS799  TRP800  GLU811  SER814 

> <Gold.Protein.RotatedAtoms>
  151.3935  135.0960  159.9533 H   0  0  0  0  0  0  0  0  0  0  0  0  # atno 6907 bound_to 6896
  152.5072  133.8956  159.7426 H   0  0  0  0  0  0  0  0  0  0  0  0  # atno 6908 bound_to 6896
  150.9415  133.6595  159.2818 H   0  0  0  0  0  0  0  0  0  0  0  0  # atno 6909 bound_to 6896
  145.5505  140.9497  143.1501 H   0  0  0  0  0  0  0  0  0  0  0  0  # atno 7974 bound_to 7965
  155.0176  140.0393  157.2424 H   0  0  0  0  0  0  0  0  0  0  0  0  # atno 8008 bound_to 7997
  154.7406  140.2748  155.6353 H   0  0  0  0  0  0  0  0  0  0  0  0  # atno 8009 bound_to 7997
  156.2863  140.2666  156.2132 H   0  0  0  0  0  0  0  0  0  0  0  0  # atno 8010 bound_to 7997
  139.5373  144.6695  151.4743 H   0  0  0  0  0  0  0  0  0  0  0  0  # atno 10167 bound_to 10162
  156.9277  130.9961  151.2993 H   0  0  0  0  0  0  0  0  0  0  0  0  # atno 10718 bound_to 10713
  153.0747  135.4940  154.8380 H   0  0  0  0  0  0  0  0  0  0  0  0  # atno 10763 bound_to 10752
  154.7071  135.3013  154.9256 H   0  0  0  0  0  0  0  0  0  0  0  0  # atno 10764 bound_to 10752
  153.9961  135.6772  153.4809 H   0  0  0  0  0  0  0  0  0  0  0  0  # atno 10765 bound_to 10752
  141.0683  133.6687  156.3399 H   0  0  0  0  0  0  0  0  0  0  0  0  # atno 11005 bound_to 11000
  144.7532  139.7142  143.7265 LP  0  0  0  0  0  0  0  0  0  0  0  0  # atno 17320 bound_to 7965
  146.1920  139.5165  142.9799 LP  0  0  0  0  0  0  0  0  0  0  0  0  # atno 17321 bound_to 7965
  140.6586  143.8547  150.6862 LP  0  0  0  0  0  0  0  0  0  0  0  0  # atno 17342 bound_to 10162
  140.1934  143.4017  152.1846 LP  0  0  0  0  0  0  0  0  0  0  0  0  # atno 17343 bound_to 10162
  157.5867  130.8415  149.8600 LP  0  0  0  0  0  0  0  0  0  0  0  0  # atno 17370 bound_to 10713
  156.0461  130.3727  150.1313 LP  0  0  0  0  0  0  0  0  0  0  0  0  # atno 17371 bound_to 10713
  140.5726  134.5825  157.5461 LP  0  0  0  0  0  0  0  0  0  0  0  0  # atno 17394 bound_to 11000
  139.9498  134.7637  156.0475 LP  0  0  0  0  0  0  0  0  0  0  0  0  # atno 17395 bound_to 11000

$$$$
