AV-unprocessed.smi:287|AV-procd|sdf|2191|dock10
  -GOLD-   2262021583D 1   1.00000     0.00000
 Structure written by MMmdl.
 55 58  0  0  0  0  0  0  0  0  1 V2000
  147.9328  136.3372  163.9354 C   0  0  0  0  0  0  0  0  0  0  0  0
  147.7882  135.8211  162.5448 C   0  0  0  0  0  0  0  0  0  0  0  0
  147.5238  134.5912  162.0164 C   0  0  0  0  0  0  0  0  0  0  0  0
  147.5188  134.7294  160.5958 C   0  0  0  0  0  0  0  0  0  0  0  0
  147.2573  133.6231  159.5825 C   0  0  1  0  0  0  0  0  0  0  0  0
  148.3454  132.5439  159.7033 C   0  0  0  0  0  0  0  0  0  0  0  0
  146.0328  132.9523  159.8104 O   0  0  0  0  0  0  0  0  0  0  0  0
  147.1877  134.1461  158.1295 C   0  0  0  0  0  0  0  0  0  0  0  0
  148.5029  134.2890  157.5132 N   0  0  0  0  0  0  0  0  0  0  0  0
  148.6876  133.9452  156.2218 C   0  0  0  0  0  0  0  0  0  0  0  0
  149.8959  134.1035  155.6208 N   0  0  0  0  0  0  0  0  0  0  0  0
  150.0549  133.7532  154.3411 C   0  0  0  0  0  0  0  0  0  0  0  0
  149.1564  133.2372  153.5001 N   0  0  0  0  0  0  0  0  0  0  0  0
  147.9402  133.0767  154.0992 C   0  0  0  0  0  0  0  0  0  0  0  0
  147.6287  133.4046  155.4479 C   0  0  0  0  0  0  0  0  0  0  0  0
  146.2988  133.1036  155.7116 N   0  0  0  0  0  0  0  0  0  0  0  0
  145.8546  132.6219  154.5819 C   0  0  0  0  0  0  0  0  0  0  0  0
  146.7756  132.5668  153.5596 N   0  0  0  0  0  0  0  0  0  0  0  0
  146.5605  132.0595  152.1685 C   0  0  1  0  0  0  0  0  0  0  0  0
  145.2279  131.6995  152.0081 O   0  0  0  0  0  0  0  0  0  0  0  0
  144.8700  131.8264  150.6358 C   0  0  1  0  0  0  0  0  0  0  0  0
  143.4429  132.3969  150.5362 C   0  0  0  0  0  0  0  0  0  0  0  0
  142.8614  132.1539  149.2718 O   0  0  0  0  0  0  0  0  0  0  0  0
  145.9775  132.6505  149.9441 C   0  0  2  0  0  0  0  0  0  0  0  0
  146.7044  131.8131  149.0644 O   0  0  0  0  0  0  0  0  0  0  0  0
  146.8774  133.1029  151.0883 C   0  0  1  0  0  0  0  0  0  0  0  0
  146.5774  134.4301  151.4793 O   0  0  0  0  0  0  0  0  0  0  0  0
  147.7695  136.0619  160.3736 C   0  0  0  0  0  0  0  0  0  0  0  0
  147.8829  136.9027  159.1452 C   0  0  0  0  0  0  0  0  0  0  0  0
  147.9401  136.7293  161.5489 O   0  0  0  0  0  0  0  0  0  0  0  0
  147.1861  131.1691  152.0879 H   0  0  0  0  0  0  0  0  0  0  0  0
  144.8510  130.8130  150.2312 H   0  0  0  0  0  0  0  0  0  0  0  0
  145.5905  133.4890  149.3633 H   0  0  0  0  0  0  0  0  0  0  0  0
  147.9388  133.0602  150.8394 H   0  0  0  0  0  0  0  0  0  0  0  0
  147.8296  135.5316  164.6626 H   0  0  0  0  0  0  0  0  0  0  0  0
  147.1711  137.0867  164.1509 H   0  0  0  0  0  0  0  0  0  0  0  0
  148.9112  136.7968  164.0774 H   0  0  0  0  0  0  0  0  0  0  0  0
  147.3571  133.6888  162.5857 H   0  0  0  0  0  0  0  0  0  0  0  0
  149.3350  132.9585  159.5080 H   0  0  0  0  0  0  0  0  0  0  0  0
  148.1847  131.7318  158.9931 H   0  0  0  0  0  0  0  0  0  0  0  0
  148.3641  132.1098  160.7039 H   0  0  0  0  0  0  0  0  0  0  0  0
  145.3620  133.3699  159.2924 H   0  0  0  0  0  0  0  0  0  0  0  0
  146.6248  133.4317  157.5268 H   0  0  0  0  0  0  0  0  0  0  0  0
  146.6430  135.0905  158.0832 H   0  0  0  0  0  0  0  0  0  0  0  0
  149.2340  134.6570  158.1052 H   0  0  0  0  0  0  0  0  0  0  0  0
  151.0427  133.9064  153.9329 H   0  0  0  0  0  0  0  0  0  0  0  0
  144.8346  132.2861  154.4638 H   0  0  0  0  0  0  0  0  0  0  0  0
  142.8076  131.9300  151.2890 H   0  0  0  0  0  0  0  0  0  0  0  0
  143.4427  133.4683  150.7381 H   0  0  0  0  0  0  0  0  0  0  0  0
  142.1331  131.5624  149.3832 H   0  0  0  0  0  0  0  0  0  0  0  0
  147.4564  131.4732  149.5244 H   0  0  0  0  0  0  0  0  0  0  0  0
  147.3696  134.8346  151.7981 H   0  0  0  0  0  0  0  0  0  0  0  0
  147.0147  136.7633  158.5010 H   0  0  0  0  0  0  0  0  0  0  0  0
  148.7737  136.6354  158.5766 H   0  0  0  0  0  0  0  0  0  0  0  0
  147.9481  137.9619  159.3954 H   0  0  0  0  0  0  0  0  0  0  0  0
  1  2  1  0  0  0  0
  1 35  1  0  0  0  0
  1 36  1  0  0  0  0
  1 37  1  0  0  0  0
  2 30  1  0  0  0  0
  2  3  2  0  0  0  0
  3  4  1  0  0  0  0
  3 38  1  0  0  0  0
  4  5  1  0  0  0  0
  4 28  2  0  0  0  0
  5  6  1  0  0  0  0
  5  7  1  0  0  0  0
  5  8  1  0  0  0  0
  6 39  1  0  0  0  0
  6 40  1  0  0  0  0
  6 41  1  0  0  0  0
  7 42  1  0  0  0  0
  8  9  1  0  0  0  0
  8 43  1  0  0  0  0
  8 44  1  0  0  0  0
  9 10  1  0  0  0  0
  9 45  1  0  0  0  0
 10 15  1  0  0  0  0
 10 11  2  0  0  0  0
 11 12  1  0  0  0  0
 12 13  2  0  0  0  0
 12 46  1  0  0  0  0
 13 14  1  0  0  0  0
 14 18  1  0  0  0  0
 14 15  2  0  0  0  0
 15 16  1  0  0  0  0
 16 17  2  0  0  0  0
 17 18  1  0  0  0  0
 17 47  1  0  0  0  0
 18 19  1  0  0  0  0
 19 31  1  0  0  0  0
 19 26  1  0  0  0  0
 19 20  1  0  0  0  0
 20 21  1  0  0  0  0
 21 32  1  0  0  0  0
 21 22  1  0  0  0  0
 21 24  1  0  0  0  0
 22 23  1  0  0  0  0
 22 48  1  0  0  0  0
 22 49  1  0  0  0  0
 23 50  1  0  0  0  0
 24 33  1  0  0  0  0
 24 25  1  0  0  0  0
 24 26  1  0  0  0  0
 25 51  1  0  0  0  0
 26 34  1  0  0  0  0
 26 27  1  0  0  0  0
 27 52  1  0  0  0  0
 28 29  1  0  0  0  0
 28 30  1  0  0  0  0
 29 53  1  0  0  0  0
 29 54  1  0  0  0  0
 29 55  1  0  0  0  0
M  END
> <s_m_source_file>
AV-unprocessed.smi

> <i_m_source_file_index>
287

> <i_lp_mmshare_version>
43012

> <i_f3d_flags>
0

> <s_epik_input>
W0NIM11jMVtjSF1jKGMobzEpW0NIM10pW0NAQF0oW0NIM10pKFtPSF0pW0NIMl1bTkhdYyhuW2NIXW4yKWMoYzIzKW5bY0hdbjNbQ0BASF00T1tDQEhdKFtDSDJdW09IXSlbQ0BASF0oW09IXSlbQ0BIXTRbT0hd

> <s_epik_cmdline>
J2VwaWtfcHl0aG9uJywgJy1waCcsICc3LjAnLCAnLXRuJywgJzgnLCAnLW1hJywgJzIwMCcsICctbWV0YWxfYmluZGluZycsICctaW1hZScsICc8aW5maWxlLm1hZT4nLCAnLW9tYWUnLCAnPG91dGZpbGUubWFlPic=

> <r_lp_tautomer_probability>
1

> <r_epik_Ionization_Penalty>
0.000992612

> <r_epik_Ionization_Penalty_Charging>
0

> <r_epik_Ionization_Penalty_Neutral>
0.000992612

> <r_epik_State_Penalty>
-0

> <r_epik_Charging_Adjusted_Penalty>
0

> <i_epik_Tot_Q>
0

> <i_epik_Tot_abs_Q>
0

> <r_epik_Metal_State_Penalty>
-0

> <b_epik_Metal_Only>
0

> <s_epik_Chemistry_Notes>
This compound contains an acetal/aminal-like group ( X-CH(R)-Y where X, Y are N, S, or O) that may be acid/base labile, releasing an aldehyde.

> <s_lp_Force_Field>
OPLS_2005

> <r_lp_Energy>
44.0492

> <b_lp_Chiralities_Consistent>
1

> <s_lp_Variant>
AV-unprocessed.smi:287-15

> <Gold.Version>
5.8.1

> <Gold.Id.Protein>
6NUR|6NUR_protein|mol2

> <Gold.PLP.Fitness>
58.1691

> <Gold.PLP.PLP>
-42.4003

> <Gold.PLP.part.hbond>
-7.0000

> <Gold.PLP.part.metal>
0.0000

> <Gold.PLP.part.buried>
-5.5756

> <Gold.PLP.part.nonpolar>
-29.3220

> <Gold.PLP.part.repulsive>
0.5305

> <Gold.PLP.ligand.clash>
0.0000

> <Gold.PLP.ligand.torsion>
0.7597

> <Gold.PLP.Chemscore.Hbond>
4.7360

> <Gold.PLP.Chemscore.CHOScore>
1.0000

> <Gold.PLP.Chemscore.Metal>
0.0000

> <Gold.Chemscore.Hbonds>
donor molecule, donor type, donor heavy atom, donor atom, acceptor molecule, acceptor atom, score
      L1  H    23    50       P1 10952  1.00
      L1  H    25    51       P1 10747  1.00
      L1  H    27    52       P1  7948  0.91
      P1  H  6931  6943       L1    30  1.00
      L1  C    17    47       P1 10957  1.00

> <Gold.PLP.Chemscore.Internal.Correction>
0.0802

> <Gold.Rescore>
     Score         DG    S(hbond)    S(metal)    S(lipo)     H(rot)  DE(clash)    DE(int)     intcor
      8.98     -14.30       3.59        0.00      88.02       5.27       1.29       4.03       ----

> <Gold.Chemscore.Fitness>
8.9825

> <Gold.Chemscore.DG>
-14.3002

> <Gold.Chemscore.ZeroCoef>
-5.4800

> <Gold.Chemscore.Hbond>
3.5947

> <Gold.Chemscore.Metal>
0.0000

> <Gold.Chemscore.Lipo>
88.0154

> <Gold.Chemscore.Internal_Hbond>
0.0000

> <Gold.Chemscore.DEClash>
1.2877

> <Gold.Chemscore.DEInternal>
4.0300

> <Gold.Chemscore.Rot>
5.2672

> <Gold.Chemscore.Internal.Correction>
   9.000000E+99

> <Gold.Chemscore.Hbonds>
donor molecule, donor type, donor heavy atom, donor atom, acceptor molecule, acceptor atom, score
      L1  H    23    50       P1 10952  1.00
      L1  H    25    51       P1 10747  1.00
      L1  H    27    52       P1  7948  0.69
      P1  H  6931  6943       L1    30  0.94
      P1  H  6934  6947       L1    30  0.01

> <Gold.Chemscore.Hbond.Weighted>
-12.0063

> <Gold.Chemscore.Metal.Weighted>
-0.0000

> <Gold.Chemscore.Lipo.Weighted>
-10.2978

> <Gold.Chemscore.Internal_Hbond.Weighted>
0.0000

> <Gold.Chemscore.DEClash.Weighted>
1.2877

> <Gold.Chemscore.DEInternal.Weighted>
4.0300

> <Gold.Chemscore.Rot.Weighted>
13.4839

> <Gold.Chemscore.Internal.Correction.Weighted>
   9.000000E+99

> <Gold.Protein.RotatedTorsions>
[ 6907 6896 6895 6894 ] final  171.75 input  -60.11 | X-H torsion
[ 7974 7965 7964 7962 ] final -156.08 input  175.53 | X-H torsion
[ 8008 7997 7996 7995 ] final -140.51 input   59.86 | X-H torsion
[ 10167 10162 10161 10158 ] final  -59.84 input  -65.29 | X-H torsion
[ 10718 10713 10712 10709 ] final -118.62 input   66.30 | X-H torsion
[ 10763 10752 10751 10750 ] final   89.62 input  -60.55 | X-H torsion
[ 11005 11000 10999 10996 ] final -177.31 input  -57.11 | X-H torsion

> <Gold.Protein.ActiveResidues>
 VAL166  LYS551  ARG553  GLY616  TRP617  ASP618  TYR619  PRO620  LYS621  CYS622 
 ASP623  PHE694  ASN695  SER759  ASP760  ASP761  ALA762  ILE779  LEU786  VAL792 
 PHE793  MET794  SER795  GLU796  ALA797  LYS798  CYS799  TRP800  GLU811  SER814 

> <Gold.Protein.RotatedAtoms>
  151.7952  133.3363  159.3510 H   0  0  0  0  0  0  0  0  0  0  0  0  # atno 6907 bound_to 6896
  150.7378  134.5805  159.5946 H   0  0  0  0  0  0  0  0  0  0  0  0  # atno 6908 bound_to 6896
  152.3182  134.7415  160.0371 H   0  0  0  0  0  0  0  0  0  0  0  0  # atno 6909 bound_to 6896
  144.7609  140.4159  143.5977 H   0  0  0  0  0  0  0  0  0  0  0  0  # atno 7974 bound_to 7965
  155.4626  140.0547  157.2989 H   0  0  0  0  0  0  0  0  0  0  0  0  # atno 8008 bound_to 7997
  154.4731  140.2049  155.9899 H   0  0  0  0  0  0  0  0  0  0  0  0  # atno 8009 bound_to 7997
  156.1088  140.3207  155.8048 H   0  0  0  0  0  0  0  0  0  0  0  0  # atno 8010 bound_to 7997
  140.6109  143.2387  151.5711 H   0  0  0  0  0  0  0  0  0  0  0  0  # atno 10167 bound_to 10162
  156.1120  130.6256  150.9314 H   0  0  0  0  0  0  0  0  0  0  0  0  # atno 10718 bound_to 10713
  153.1890  135.4464  155.0125 H   0  0  0  0  0  0  0  0  0  0  0  0  # atno 10763 bound_to 10752
  154.8078  135.3282  154.7387 H   0  0  0  0  0  0  0  0  0  0  0  0  # atno 10764 bound_to 10752
  153.7843  135.6975  153.4938 H   0  0  0  0  0  0  0  0  0  0  0  0  # atno 10765 bound_to 10752
  140.4423  134.6420  157.4763 H   0  0  0  0  0  0  0  0  0  0  0  0  # atno 11005 bound_to 11000
  145.6621  139.1583  143.2802 LP  0  0  0  0  0  0  0  0  0  0  0  0  # atno 17320 bound_to 7965
  146.1671  140.6701  142.9250 LP  0  0  0  0  0  0  0  0  0  0  0  0  # atno 17321 bound_to 7965
  139.5360  144.2778  152.1253 LP  0  0  0  0  0  0  0  0  0  0  0  0  # atno 17342 bound_to 10162
  140.1978  144.4688  150.6447 LP  0  0  0  0  0  0  0  0  0  0  0  0  # atno 17343 bound_to 10162
  157.6301  131.0922  150.8457 LP  0  0  0  0  0  0  0  0  0  0  0  0  # atno 17370 bound_to 10713
  156.8566  130.5099  149.5307 LP  0  0  0  0  0  0  0  0  0  0  0  0  # atno 17371 bound_to 10713
  140.0061  134.6761  155.9452 LP  0  0  0  0  0  0  0  0  0  0  0  0  # atno 17394 bound_to 11000
  141.1700  133.6537  156.4617 LP  0  0  0  0  0  0  0  0  0  0  0  0  # atno 17395 bound_to 11000

$$$$
