AV-unprocessed.smi:2177|AV-procd|sdf|8849|dock5
  -GOLD-   2272012 43D 1   1.00000     0.00000
 Structure written by MMmdl.
 42 43  0  0  0  0  0  0  0  0  1 V2000
  148.0340  136.9850  158.4844 C   0  0  0  0  0  0  0  0  0  0  0  0
  147.9639  136.1156  159.7073 C   0  0  0  0  0  0  0  0  0  0  0  0
  148.0345  136.6708  160.9057 N   0  0  0  0  0  0  0  0  0  0  0  0
  147.9527  135.6386  161.7686 N   0  0  0  0  0  0  0  0  0  0  0  0
  148.0025  135.9011  163.1937 C   0  0  0  0  0  0  0  0  0  0  0  0
  147.8227  134.4288  161.1142 C   0  0  0  0  0  0  0  0  0  0  0  0
  147.7158  133.1323  161.8510 C   0  0  0  0  0  0  0  0  0  0  0  0
  147.8280  134.6979  159.7712 C   0  0  0  0  0  0  0  0  0  0  0  0
  147.7241  133.7386  158.6118 C   0  0  0  0  0  0  0  0  0  0  0  0
  149.0691  133.6494  157.8905 C   0  0  0  0  0  0  0  0  0  0  0  0
  149.7928  132.6683  158.0587 O   0  0  0  0  0  0  0  0  0  0  0  0
  149.3866  134.6812  157.0921 N   0  0  0  0  0  0  0  0  0  0  0  0
  150.6010  134.8015  156.2904 C   0  0  1  0  0  0  0  0  0  0  0  0
  150.4680  133.8779  155.0700 C   0  0  0  0  0  0  0  0  0  0  0  0
  150.8206  136.2745  155.8894 C   0  0  2  0  0  0  0  0  0  0  0  0
  149.7628  136.8448  154.9430 C   0  0  0  0  0  0  0  0  0  0  0  0
  150.4896  137.9720  154.2263 C   0  0  0  0  0  0  0  0  0  0  0  0
  151.9689  137.7070  154.5174 C   0  0  0  0  0  0  0  0  0  0  0  0
  152.0033  136.4206  155.1182 O   0  0  0  0  0  0  0  0  0  0  0  0
  148.8084  136.6342  157.8019 H   0  0  0  0  0  0  0  0  0  0  0  0
  148.2607  138.0216  158.7358 H   0  0  0  0  0  0  0  0  0  0  0  0
  147.0871  136.9737  157.9449 H   0  0  0  0  0  0  0  0  0  0  0  0
  146.9992  135.8270  163.6134 H   0  0  0  0  0  0  0  0  0  0  0  0
  148.3956  136.9002  163.3862 H   0  0  0  0  0  0  0  0  0  0  0  0
  148.6494  135.1724  163.6828 H   0  0  0  0  0  0  0  0  0  0  0  0
  147.4559  132.3143  161.1799 H   0  0  0  0  0  0  0  0  0  0  0  0
  146.9481  133.1849  162.6231 H   0  0  0  0  0  0  0  0  0  0  0  0
  148.6627  132.8828  162.3299 H   0  0  0  0  0  0  0  0  0  0  0  0
  147.4284  132.7407  158.9366 H   0  0  0  0  0  0  0  0  0  0  0  0
  146.9603  134.0594  157.9026 H   0  0  0  0  0  0  0  0  0  0  0  0
  148.7243  135.4400  157.0243 H   0  0  0  0  0  0  0  0  0  0  0  0
  151.4608  134.4617  156.8706 H   0  0  0  0  0  0  0  0  0  0  0  0
  151.3744  133.8840  154.4646 H   0  0  0  0  0  0  0  0  0  0  0  0
  149.6382  134.1810  154.4306 H   0  0  0  0  0  0  0  0  0  0  0  0
  150.2913  132.8468  155.3776 H   0  0  0  0  0  0  0  0  0  0  0  0
  150.9004  136.9041  156.7782 H   0  0  0  0  0  0  0  0  0  0  0  0
  149.4610  136.0890  154.2169 H   0  0  0  0  0  0  0  0  0  0  0  0
  148.8687  137.1844  155.4660 H   0  0  0  0  0  0  0  0  0  0  0  0
  150.2782  137.9537  153.1568 H   0  0  0  0  0  0  0  0  0  0  0  0
  150.1923  138.9480  154.6109 H   0  0  0  0  0  0  0  0  0  0  0  0
  152.5855  137.7364  153.6188 H   0  0  0  0  0  0  0  0  0  0  0  0
  152.3587  138.4424  155.2223 H   0  0  0  0  0  0  0  0  0  0  0  0
  1  2  1  0  0  0  0
  1 20  1  0  0  0  0
  1 21  1  0  0  0  0
  1 22  1  0  0  0  0
  2  8  1  0  0  0  0
  2  3  2  0  0  0  0
  3  4  1  0  0  0  0
  4  5  1  0  0  0  0
  4  6  1  0  0  0  0
  5 23  1  0  0  0  0
  5 24  1  0  0  0  0
  5 25  1  0  0  0  0
  6  7  1  0  0  0  0
  6  8  2  0  0  0  0
  7 26  1  0  0  0  0
  7 27  1  0  0  0  0
  7 28  1  0  0  0  0
  8  9  1  0  0  0  0
  9 10  1  0  0  0  0
  9 29  1  0  0  0  0
  9 30  1  0  0  0  0
 10 11  2  0  0  0  0
 10 12  1  0  0  0  0
 12 13  1  0  0  0  0
 12 31  1  0  0  0  0
 13 14  1  0  0  0  0
 13 15  1  0  0  0  0
 13 32  1  0  0  0  0
 14 33  1  0  0  0  0
 14 34  1  0  0  0  0
 14 35  1  0  0  0  0
 15 19  1  0  0  0  0
 15 16  1  0  0  0  0
 15 36  1  0  0  0  0
 16 17  1  0  0  0  0
 16 37  1  0  0  0  0
 16 38  1  0  0  0  0
 17 18  1  0  0  0  0
 17 39  1  0  0  0  0
 17 40  1  0  0  0  0
 18 19  1  0  0  0  0
 18 41  1  0  0  0  0
 18 42  1  0  0  0  0
M  END
> <s_m_source_file>
AV-unprocessed.smi

> <i_m_source_file_index>
2177

> <i_lp_mmshare_version>
43012

> <i_f3d_flags>
0

> <s_epik_input>
W0NIM11jMW5uKFtDSDNdKWMoW0NIM10pYzFbQ0gyXUMoPU8pW05IXVtDQEhdKFtDSDNdKVtDQEBIXTJbQ0gyXVtDSDJdW0NIMl1PMg==

> <s_epik_cmdline>
J2VwaWtfcHl0aG9uJywgJy1waCcsICc3LjAnLCAnLXRuJywgJzgnLCAnLW1hJywgJzIwMCcsICctbWV0YWxfYmluZGluZycsICctaW1hZScsICc8aW5maWxlLm1hZT4nLCAnLW9tYWUnLCAnPG91dGZpbGUubWFlPic=

> <r_lp_tautomer_probability>
1

> <r_epik_Ionization_Penalty>
0.00310467

> <r_epik_Ionization_Penalty_Charging>
0

> <r_epik_Ionization_Penalty_Neutral>
0.00310467

> <r_epik_State_Penalty>
0.00218493

> <r_epik_Charging_Adjusted_Penalty>
0.00218493

> <i_epik_Tot_Q>
0

> <i_epik_Tot_abs_Q>
0

> <r_epik_Metal_State_Penalty>
-0

> <b_epik_Metal_Only>
0

> <s_lp_Force_Field>
OPLS_2005

> <r_lp_Energy>
13.1065

> <b_lp_Chiralities_Consistent>
1

> <s_lp_Variant>
AV-unprocessed.smi:2177-2

> <Gold.Version>
5.8.1

> <Gold.Id.Protein>
6NUR|6NUR_protein|mol2

> <Gold.PLP.Fitness>
43.5632

> <Gold.PLP.PLP>
-33.4195

> <Gold.PLP.part.hbond>
-4.0000

> <Gold.PLP.part.metal>
0.0000

> <Gold.PLP.part.buried>
-5.0869

> <Gold.PLP.part.nonpolar>
-25.0894

> <Gold.PLP.part.repulsive>
0.1477

> <Gold.PLP.ligand.clash>
0.0000

> <Gold.PLP.ligand.torsion>
0.5565

> <Gold.PLP.Chemscore.Hbond>
3.7440

> <Gold.PLP.Chemscore.CHOScore>
0.0000

> <Gold.PLP.Chemscore.Metal>
0.0000

> <Gold.Chemscore.Hbonds>
donor molecule, donor type, donor heavy atom, donor atom, acceptor molecule, acceptor atom, score
      P1  H  6896  6909       L1    11  0.45
      P1  H  6931  6943       L1     3  0.78
      P1  H 10752 10764       L1    19  0.59

> <Gold.PLP.Chemscore.Internal.Correction>
0.0247

> <Gold.Rescore>
     Score         DG    S(hbond)    S(metal)    S(lipo)     H(rot)  DE(clash)    DE(int)     intcor
     18.75     -19.29       2.89        0.00      67.60       1.46       0.01       0.53       ----

> <Gold.Chemscore.Fitness>
18.7464

> <Gold.Chemscore.DG>
-19.2871

> <Gold.Chemscore.ZeroCoef>
-5.4800

> <Gold.Chemscore.Hbond>
2.8868

> <Gold.Chemscore.Metal>
0.0000

> <Gold.Chemscore.Lipo>
67.6035

> <Gold.Chemscore.Internal_Hbond>
0.0000

> <Gold.Chemscore.DEClash>
0.0137

> <Gold.Chemscore.DEInternal>
0.5270

> <Gold.Chemscore.Rot>
1.4627

> <Gold.Chemscore.Internal.Correction>
   9.000000E+99

> <Gold.Chemscore.Hbonds>
donor molecule, donor type, donor heavy atom, donor atom, acceptor molecule, acceptor atom, score
      P1  H  6896  6909       L1    11  0.02
      P1  H  6931  6943       L1     3  0.46
      P1  H  6934  6947       L1     3  0.01
      P1  H 10752 10764       L1    19  0.57

> <Gold.Chemscore.Hbond.Weighted>
-9.6420

> <Gold.Chemscore.Metal.Weighted>
-0.0000

> <Gold.Chemscore.Lipo.Weighted>
-7.9096

> <Gold.Chemscore.Internal_Hbond.Weighted>
0.0000

> <Gold.Chemscore.DEClash.Weighted>
0.0137

> <Gold.Chemscore.DEInternal.Weighted>
0.5270

> <Gold.Chemscore.Rot.Weighted>
3.7445

> <Gold.Chemscore.Internal.Correction.Weighted>
   9.000000E+99

> <Gold.Protein.RotatedTorsions>
[ 6907 6896 6895 6894 ] final   -5.37 input  -60.11 | X-H torsion
[ 7974 7965 7964 7962 ] final -150.21 input  175.53 | X-H torsion
[ 8008 7997 7996 7995 ] final   73.85 input   59.86 | X-H torsion
[ 10167 10162 10161 10158 ] final -144.56 input  -65.29 | X-H torsion
[ 10718 10713 10712 10709 ] final   67.73 input   66.30 | X-H torsion
[ 10763 10752 10751 10750 ] final  -44.24 input  -60.55 | X-H torsion
[ 11005 11000 10999 10996 ] final -174.69 input  -57.11 | X-H torsion

> <Gold.Protein.ActiveResidues>
 VAL166  LYS551  ARG553  GLY616  TRP617  ASP618  TYR619  PRO620  LYS621  CYS622 
 ASP623  PHE694  ASN695  SER759  ASP760  ASP761  ALA762  ILE779  LEU786  VAL792 
 PHE793  MET794  SER795  GLU796  ALA797  LYS798  CYS799  TRP800  GLU811  SER814 

> <Gold.Protein.RotatedAtoms>
  151.4827  135.1053  159.9781 H   0  0  0  0  0  0  0  0  0  0  0  0  # atno 6907 bound_to 6896
  152.4773  133.8165  159.7041 H   0  0  0  0  0  0  0  0  0  0  0  0  # atno 6908 bound_to 6896
  150.8819  133.7298  159.2956 H   0  0  0  0  0  0  0  0  0  0  0  0  # atno 6909 bound_to 6896
  144.7921  140.4963  143.5765 H   0  0  0  0  0  0  0  0  0  0  0  0  # atno 7974 bound_to 7965
  155.7898  140.3479  155.5343 H   0  0  0  0  0  0  0  0  0  0  0  0  # atno 8008 bound_to 7997
  155.8646  140.0976  157.1611 H   0  0  0  0  0  0  0  0  0  0  0  0  # atno 8009 bound_to 7997
  154.4014  140.1352  156.3990 H   0  0  0  0  0  0  0  0  0  0  0  0  # atno 8010 bound_to 7997
  139.7887  143.7997  152.2647 H   0  0  0  0  0  0  0  0  0  0  0  0  # atno 10167 bound_to 10162
  157.6248  130.9336  150.0282 H   0  0  0  0  0  0  0  0  0  0  0  0  # atno 10718 bound_to 10713
  154.0088  135.6684  153.4764 H   0  0  0  0  0  0  0  0  0  0  0  0  # atno 10763 bound_to 10752
  153.0630  135.5017  154.8132 H   0  0  0  0  0  0  0  0  0  0  0  0  # atno 10764 bound_to 10752
  154.7008  135.3078  154.9307 H   0  0  0  0  0  0  0  0  0  0  0  0  # atno 10765 bound_to 10752
  140.4717  134.6159  157.4884 H   0  0  0  0  0  0  0  0  0  0  0  0  # atno 11005 bound_to 11000
  145.5767  139.1486  143.3258 LP  0  0  0  0  0  0  0  0  0  0  0  0  # atno 17320 bound_to 7965
  146.2177  140.5898  142.9031 LP  0  0  0  0  0  0  0  0  0  0  0  0  # atno 17321 bound_to 7965
  139.8081  144.7347  150.9733 LP  0  0  0  0  0  0  0  0  0  0  0  0  # atno 17342 bound_to 10162
  140.7820  143.4277  151.0742 LP  0  0  0  0  0  0  0  0  0  0  0  0  # atno 17343 bound_to 10162
  156.1413  130.3642  149.9578 LP  0  0  0  0  0  0  0  0  0  0  0  0  # atno 17370 bound_to 10713
  156.7618  130.9154  151.3641 LP  0  0  0  0  0  0  0  0  0  0  0  0  # atno 17371 bound_to 10713
  139.9881  134.7029  155.9738 LP  0  0  0  0  0  0  0  0  0  0  0  0  # atno 17394 bound_to 11000
  141.1574  133.6541  156.4205 LP  0  0  0  0  0  0  0  0  0  0  0  0  # atno 17395 bound_to 11000

$$$$
