#       Name:                AV-unprocessed.smi:1567
#       Creating user name   scv26
#       Creation time:       Fri Mar 27 06:50:45 2020


#       File generated by GOLD software.
#

@<TRIPOS>MOLECULE
AV-unprocessed.smi:1567
    47    49     1
SMALL
NO_CHARGES


@<TRIPOS>ATOM
      1 ****        -3.2328   3.3939  -0.2762 O.3            1 S1                 0.0000
      2 ****        -2.4445   2.2558  -0.0049 C.3            1 S1                 0.0000
      3 ****        -2.8111   1.6875   1.3742 C.3            1 S1                 0.0000
      4 ****        -1.9745   0.4633   1.7896 C.3            1 S1                 0.0000
      5 ****        -0.5078   0.7572   1.9496 C.2            1 S1                 0.0000
      6 ****        -0.0800   1.6858   2.8067 N.2            1 S1                 0.0000
      7 ****         1.2915   1.6320   2.6618 C.ar           1 S1                 0.0000
      8 ****         2.3109   2.3841   3.2883 C.ar           1 S1                 0.0000
      9 ****         3.6660   2.1466   2.9782 C.ar           1 S1                 0.0000
     10 ****         4.0199   1.1551   2.0406 C.ar           1 S1                 0.0000
     11 ****         3.0193   0.3939   1.4064 C.ar           1 S1                 0.0000
     12 ****         1.6676   0.6358   1.7182 C.ar           1 S1                 0.0000
     13 ****         0.4665   0.0776   1.2884 N.pl3          1 S1                 0.0000
     14 ****         0.3312  -1.0157   0.3338 C.3            1 S1                 0.0000
     15 ****         0.0239  -0.5319  -1.0965 C.3            1 S1                 0.0000
     16 ****         1.0385   0.3514  -1.5366 O.3            1 S1                 0.0000
     17 ****        -0.1745  -1.7064  -2.0442 C.ar           1 S1                 0.0000
     18 ****         0.9422  -2.3722  -2.5975 C.ar           1 S1                 0.0000
     19 ****         0.7611  -3.4642  -3.4678 C.ar           1 S1                 0.0000
     20 ****         1.8371  -4.0952  -3.9941 F              1 S1                 0.0000
     21 ****        -0.5381  -3.9005  -3.7896 C.ar           1 S1                 0.0000
     22 ****        -1.6553  -3.2461  -3.2370 C.ar           1 S1                 0.0000
     23 ****        -1.4765  -2.1545  -2.3645 C.ar           1 S1                 0.0000
     24 ****        -2.5631  -1.5429  -1.8344 F              1 S1                 0.0000
     25 ****        -2.9899   3.7335  -1.1241 H              1 S1                 0.0000
     26 ****        -2.6237   1.5159  -0.7846 H              1 S1                 0.0000
     27 ****        -1.3918   2.5371  -0.0482 H              1 S1                 0.0000
     28 ****        -2.7099   2.4677   2.1300 H              1 S1                 0.0000
     29 ****        -3.8650   1.4066   1.3725 H              1 S1                 0.0000
     30 ****        -2.3440   0.0810   2.7416 H              1 S1                 0.0000
     31 ****        -2.1355  -0.3327   1.0649 H              1 S1                 0.0000
     32 ****         2.0494   3.1455   4.0080 H              1 S1                 0.0000
     33 ****         4.4373   2.7276   3.4620 H              1 S1                 0.0000
     34 ****         5.0600   0.9793   1.8078 H              1 S1                 0.0000
     35 ****         3.2884  -0.3641   0.6860 H              1 S1                 0.0000
     36 ****         1.2548  -1.5956   0.3395 H              1 S1                 0.0000
     37 ****        -0.4424  -1.6980   0.6862 H              1 S1                 0.0000
     38 ****        -0.8937   0.0519  -1.0800 H              1 S1                 0.0000
     39 ****         0.7736   0.7260  -2.3628 H              1 S1                 0.0000
     40 ****         1.9439  -2.0494  -2.3535 H              1 S1                 0.0000
     41 ****        -0.6774  -4.7381  -4.4571 H              1 S1                 0.0000
     42 ****        -2.6518  -3.5836  -3.4809 H              1 S1                 0.0000
     43 ****        -3.0724   4.0896   0.4240 LP             1 S1                 0.0000
     44 ****        -4.2002   3.1408  -0.2791 LP             1 S1                 0.0000
     45 ****        -0.6203   2.2758   3.4067 LP             1 S1                 0.0000
     46 ****         1.8953  -0.1509  -1.6535 LP             1 S1                 0.0000
     47 ****         1.1678   1.0788  -0.8627 LP             1 S1                 0.0000
@<TRIPOS>BOND
    1    1    2 1     
    2    1   25 1     
    3    2    3 1     
    4    2   26 1     
    5    2   27 1     
    6    3    4 1     
    7    3   28 1     
    8    3   29 1     
    9    4    5 1     
   10    4   30 1     
   11    4   31 1     
   12    5   13 1     
   13    5    6 2     
   14    6    7 1     
   15    7   12 ar    
   16    7    8 ar    
   17    8    9 ar    
   18    8   32 1     
   19    9   10 ar    
   20    9   33 1     
   21   10   11 ar    
   22   10   34 1     
   23   11   12 ar    
   24   11   35 1     
   25   12   13 1     
   26   13   14 1     
   27   14   15 1     
   28   14   36 1     
   29   14   37 1     
   30   15   16 1     
   31   15   17 1     
   32   15   38 1     
   33   16   39 1     
   34   17   23 ar    
   35   17   18 ar    
   36   18   19 ar    
   37   18   40 1     
   38   19   20 1     
   39   19   21 ar    
   40   21   22 ar    
   41   21   41 1     
   42   22   23 ar    
   43   22   42 1     
   44   23   24 1     
   45    1   43 1     
   46    1   44 1     
   47    6   45 1     
   48   16   46 1     
   49   16   47 1     
@<TRIPOS>SUBSTRUCTURE
      1 S1             1
@<TRIPOS>SET
LONE_PAIRS      STATIC     ATOMS    <user>   **** ""
5 43 44 45 46 47
DONOR_HYDROGENS      STATIC     ATOMS    <user>   **** ""
2 25 39
ATOM$BLUE        STATIC     ATOMS    COLORGROUP SYSTEM
5 43 44 45 46 47
ATOM$RED        STATIC     ATOMS    COLORGROUP SYSTEM
2 25 39
