AV-unprocessed.smi:2970|AV-procd|sdf|11331|dock3
  -GOLD-   2272016243D 1   1.00000     0.00000
 Structure written by MMmdl.
 38 39  0  0  0  0  0  0  0  0  1 V2000
  146.9454  142.4647  154.1328 C   0  0  0  0  0  0  0  0  0  0  0  0
  147.5142  141.0579  154.0640 C   0  0  0  0  0  0  0  0  0  0  0  0
  146.8383  139.9619  153.7040 C   0  0  0  0  0  0  0  0  0  0  0  0
  147.8109  138.5131  153.7796 S   0  0  0  0  0  0  0  0  0  0  0  0
  149.2213  139.4788  154.3442 C   0  0  0  0  0  0  0  0  0  0  0  0
  150.3144  138.9762  154.6001 O   0  0  0  0  0  0  0  0  0  0  0  0
  148.8486  140.8204  154.4230 N   0  0  0  0  0  0  0  0  0  0  0  0
  149.7763  141.8797  154.8419 C   0  0  0  0  0  0  0  0  0  0  0  0
  150.2450  141.7381  156.2962 C   0  0  0  0  0  0  0  0  0  0  0  0
  150.7333  140.6846  156.7080 O   0  0  0  0  0  0  0  0  0  0  0  0
  150.0754  142.8211  157.0704 N   0  0  0  0  0  0  0  0  0  0  0  0
  150.4411  142.9229  158.4814 C   0  0  0  0  0  0  0  0  0  0  0  0
  150.1462  144.3519  158.9844 C   0  0  0  0  0  0  0  0  0  0  0  0
  150.5188  144.6213  160.4525 C   0  0  0  0  0  0  0  0  0  0  0  0
  152.0342  144.7624  160.6660 C   0  0  0  0  0  0  0  0  0  0  0  0
  152.7940  143.4449  160.8993 C   0  0  0  0  0  0  0  0  0  0  0  0
  152.3086  142.2195  160.1054 C   0  0  0  0  0  0  0  0  0  0  0  0
  151.9127  142.4883  158.6436 C   0  0  0  0  0  0  0  0  0  0  0  0
  145.8556  142.4323  154.1381 H   0  0  0  0  0  0  0  0  0  0  0  0
  147.2628  143.0447  153.2662 H   0  0  0  0  0  0  0  0  0  0  0  0
  147.2599  142.9837  155.0382 H   0  0  0  0  0  0  0  0  0  0  0  0
  145.8021  139.9189  153.4028 H   0  0  0  0  0  0  0  0  0  0  0  0
  150.6565  141.8666  154.1971 H   0  0  0  0  0  0  0  0  0  0  0  0
  149.3298  142.8636  154.6980 H   0  0  0  0  0  0  0  0  0  0  0  0
  149.6645  143.6417  156.6492 H   0  0  0  0  0  0  0  0  0  0  0  0
  149.8216  142.2212  159.0435 H   0  0  0  0  0  0  0  0  0  0  0  0
  150.6431  145.0816  158.3435 H   0  0  0  0  0  0  0  0  0  0  0  0
  149.0786  144.5445  158.8708 H   0  0  0  0  0  0  0  0  0  0  0  0
  150.0519  145.5637  160.7413 H   0  0  0  0  0  0  0  0  0  0  0  0
  150.0941  143.8653  161.1139 H   0  0  0  0  0  0  0  0  0  0  0  0
  152.4709  145.2907  159.8176 H   0  0  0  0  0  0  0  0  0  0  0  0
  152.2126  145.4085  161.5263 H   0  0  0  0  0  0  0  0  0  0  0  0
  153.8486  143.6180  160.6817 H   0  0  0  0  0  0  0  0  0  0  0  0
  152.7535  143.1946  161.9600 H   0  0  0  0  0  0  0  0  0  0  0  0
  153.1061  141.4760  160.1233 H   0  0  0  0  0  0  0  0  0  0  0  0
  151.4732  141.7519  160.6278 H   0  0  0  0  0  0  0  0  0  0  0  0
  152.0530  141.5567  158.0932 H   0  0  0  0  0  0  0  0  0  0  0  0
  152.5906  143.2093  158.1844 H   0  0  0  0  0  0  0  0  0  0  0  0
  1  2  1  0  0  0  0
  1 19  1  0  0  0  0
  1 20  1  0  0  0  0
  1 21  1  0  0  0  0
  2  7  1  0  0  0  0
  2  3  2  0  0  0  0
  3  4  1  0  0  0  0
  3 22  1  0  0  0  0
  4  5  1  0  0  0  0
  5  6  2  0  0  0  0
  5  7  1  0  0  0  0
  7  8  1  0  0  0  0
  8  9  1  0  0  0  0
  8 23  1  0  0  0  0
  8 24  1  0  0  0  0
  9 10  2  0  0  0  0
  9 11  1  0  0  0  0
 11 12  1  0  0  0  0
 11 25  1  0  0  0  0
 12 18  1  0  0  0  0
 12 13  1  0  0  0  0
 12 26  1  0  0  0  0
 13 14  1  0  0  0  0
 13 27  1  0  0  0  0
 13 28  1  0  0  0  0
 14 15  1  0  0  0  0
 14 29  1  0  0  0  0
 14 30  1  0  0  0  0
 15 16  1  0  0  0  0
 15 31  1  0  0  0  0
 15 32  1  0  0  0  0
 16 17  1  0  0  0  0
 16 33  1  0  0  0  0
 16 34  1  0  0  0  0
 17 18  1  0  0  0  0
 17 35  1  0  0  0  0
 17 36  1  0  0  0  0
 18 37  1  0  0  0  0
 18 38  1  0  0  0  0
M  END
> <s_m_source_file>
AV-unprocessed.smi

> <i_m_source_file_index>
2970

> <i_lp_mmshare_version>
43012

> <i_f3d_flags>
0

> <s_epik_input>
W0NIM11jMVtjSF1zYyg9TyluMVtDSDJdQyg9TylbTkhdW0NIXTJbQ0gyXVtDSDJdW0NIMl1bQ0gyXVtDSDJdW0NIMl0y

> <s_epik_cmdline>
J2VwaWtfcHl0aG9uJywgJy1waCcsICc3LjAnLCAnLXRuJywgJzgnLCAnLW1hJywgJzIwMCcsICctbWV0YWxfYmluZGluZycsICctaW1hZScsICc8aW5maWxlLm1hZT4nLCAnLW9tYWUnLCAnPG91dGZpbGUubWFlPic=

> <r_lp_tautomer_probability>
1

> <r_epik_Ionization_Penalty>
1.32564e-06

> <r_epik_Ionization_Penalty_Charging>
1.22505e-06

> <r_epik_Ionization_Penalty_Neutral>
1.00582e-07

> <r_epik_State_Penalty>
-0

> <r_epik_Charging_Adjusted_Penalty>
1.22505e-06

> <i_epik_Tot_Q>
0

> <i_epik_Tot_abs_Q>
0

> <r_epik_Metal_State_Penalty>
-0

> <b_epik_Metal_Only>
0

> <s_lp_Force_Field>
OPLS_2005

> <r_lp_Energy>
18.3304

> <b_lp_Chiralities_Consistent>
1

> <s_lp_Variant>
AV-unprocessed.smi:2970-1

> <Gold.Version>
5.8.1

> <Gold.Id.Protein>
6NUR|6NUR_protein|mol2

> <Gold.PLP.Fitness>
41.5535

> <Gold.PLP.PLP>
-35.7434

> <Gold.PLP.part.hbond>
-1.0000

> <Gold.PLP.part.metal>
0.0000

> <Gold.PLP.part.buried>
-4.2623

> <Gold.PLP.part.nonpolar>
-30.5964

> <Gold.PLP.part.repulsive>
0.1706

> <Gold.PLP.ligand.clash>
0.0000

> <Gold.PLP.ligand.torsion>
0.1035

> <Gold.PLP.Chemscore.Hbond>
1.0000

> <Gold.PLP.Chemscore.CHOScore>
1.0000

> <Gold.PLP.Chemscore.Metal>
0.0000

> <Gold.Chemscore.Hbonds>
donor molecule, donor type, donor heavy atom, donor atom, acceptor molecule, acceptor atom, score
      L1  H    11    25       P1  8028  1.00
      L1  C     3    22       P1 10175  1.00

> <Gold.PLP.Chemscore.Internal.Correction>
0.0172

> <Gold.Rescore>
     Score         DG    S(hbond)    S(metal)    S(lipo)     H(rot)  DE(clash)    DE(int)     intcor
     15.53     -16.44       1.00        0.00      95.74       1.40       0.54       0.37       ----

> <Gold.Chemscore.Fitness>
15.5324

> <Gold.Chemscore.DG>
-16.4439

> <Gold.Chemscore.ZeroCoef>
-5.4800

> <Gold.Chemscore.Hbond>
0.9997

> <Gold.Chemscore.Metal>
0.0000

> <Gold.Chemscore.Lipo>
95.7360

> <Gold.Chemscore.Internal_Hbond>
0.0000

> <Gold.Chemscore.DEClash>
0.5376

> <Gold.Chemscore.DEInternal>
0.3740

> <Gold.Chemscore.Rot>
1.3969

> <Gold.Chemscore.Internal.Correction>
   9.000000E+99

> <Gold.Chemscore.Hbonds>
donor molecule, donor type, donor heavy atom, donor atom, acceptor molecule, acceptor atom, score
      L1  H    11    25       P1  8028  1.00

> <Gold.Chemscore.Hbond.Weighted>
-3.3389

> <Gold.Chemscore.Metal.Weighted>
-0.0000

> <Gold.Chemscore.Lipo.Weighted>
-11.2011

> <Gold.Chemscore.Internal_Hbond.Weighted>
0.0000

> <Gold.Chemscore.DEClash.Weighted>
0.5376

> <Gold.Chemscore.DEInternal.Weighted>
0.3740

> <Gold.Chemscore.Rot.Weighted>
3.5761

> <Gold.Chemscore.Internal.Correction.Weighted>
   9.000000E+99

> <Gold.Protein.RotatedTorsions>
[ 6907 6896 6895 6894 ] final  134.89 input  -60.11 | X-H torsion
[ 7974 7965 7964 7962 ] final  -61.37 input  175.53 | X-H torsion
[ 8008 7997 7996 7995 ] final  114.00 input   59.86 | X-H torsion
[ 10167 10162 10161 10158 ] final   88.20 input  -65.29 | X-H torsion
[ 10718 10713 10712 10709 ] final  -92.10 input   66.30 | X-H torsion
[ 10763 10752 10751 10750 ] final -113.54 input  -60.55 | X-H torsion
[ 11005 11000 10999 10996 ] final   85.73 input  -57.11 | X-H torsion

> <Gold.Protein.ActiveResidues>
 VAL166  LYS551  ARG553  GLY616  TRP617  ASP618  TYR619  PRO620  LYS621  CYS622 
 ASP623  PHE694  ASN695  SER759  ASP760  ASP761  ALA762  ILE779  LEU786  VAL792 
 PHE793  MET794  SER795  GLU796  ALA797  LYS798  CYS799  TRP800  GLU811  SER814 

> <Gold.Protein.RotatedAtoms>
  152.3063  133.5707  159.5651 H   0  0  0  0  0  0  0  0  0  0  0  0  # atno 6907 bound_to 6896
  150.7301  134.0217  159.3712 H   0  0  0  0  0  0  0  0  0  0  0  0  # atno 6908 bound_to 6896
  151.8113  135.0680  160.0464 H   0  0  0  0  0  0  0  0  0  0  0  0  # atno 6909 bound_to 6896
  145.8042  140.8637  143.0215 H   0  0  0  0  0  0  0  0  0  0  0  0  # atno 7974 bound_to 7965
  156.2293  140.2968  156.0148 H   0  0  0  0  0  0  0  0  0  0  0  0  # atno 8008 bound_to 7997
  155.2268  140.0417  157.2973 H   0  0  0  0  0  0  0  0  0  0  0  0  # atno 8009 bound_to 7997
  154.5969  140.2416  155.7852 H   0  0  0  0  0  0  0  0  0  0  0  0  # atno 8010 bound_to 7997
  139.8696  144.6500  150.8964 H   0  0  0  0  0  0  0  0  0  0  0  0  # atno 10167 bound_to 10162
  155.9999  130.4974  150.5575 H   0  0  0  0  0  0  0  0  0  0  0  0  # atno 10718 bound_to 10713
  154.8401  135.4450  154.1366 H   0  0  0  0  0  0  0  0  0  0  0  0  # atno 10763 bound_to 10752
  153.2562  135.6931  153.7633 H   0  0  0  0  0  0  0  0  0  0  0  0  # atno 10764 bound_to 10752
  153.6926  135.3385  155.3181 H   0  0  0  0  0  0  0  0  0  0  0  0  # atno 10765 bound_to 10752
  139.8963  134.8306  156.2622 H   0  0  0  0  0  0  0  0  0  0  0  0  # atno 11005 bound_to 11000
  144.6765  140.0303  143.7482 LP  0  0  0  0  0  0  0  0  0  0  0  0  # atno 17320 bound_to 7965
  145.9845  139.2967  143.1022 LP  0  0  0  0  0  0  0  0  0  0  0  0  # atno 17321 bound_to 7965
  140.7762  143.3675  151.1712 LP  0  0  0  0  0  0  0  0  0  0  0  0  # atno 17342 bound_to 10162
  139.7296  143.9094  152.3015 LP  0  0  0  0  0  0  0  0  0  0  0  0  # atno 17343 bound_to 10162
  157.3489  131.0730  151.1729 LP  0  0  0  0  0  0  0  0  0  0  0  0  # atno 17370 bound_to 10713
  157.2552  130.6633  149.5949 LP  0  0  0  0  0  0  0  0  0  0  0  0  # atno 17371 bound_to 10713
  141.0155  133.7071  156.1181 LP  0  0  0  0  0  0  0  0  0  0  0  0  # atno 17394 bound_to 11000
  140.7308  134.4257  157.5566 LP  0  0  0  0  0  0  0  0  0  0  0  0  # atno 17395 bound_to 11000

$$$$
