#       Name:                AV-unprocessed.smi:102
#       Creating user name   scv26
#       Creation time:       Thu Mar 26 17:49:25 2020


#       File generated by GOLD software.
#

@<TRIPOS>MOLECULE
AV-unprocessed.smi:102
    56    57     1
SMALL
NO_CHARGES


@<TRIPOS>ATOM
      1 ****        -4.3464   3.3170   1.5595 C.3            1 S1                 0.0000
      2 ****        -3.7145   1.9337   1.4693 C.2            1 S1                 0.0000
      3 ****        -4.4049   0.9147   1.4410 O.2            1 S1                 0.0000
      4 ****        -2.3741   1.9794   1.4295 O.3            1 S1                 0.0000
      5 ****        -1.6351   0.7718   1.3602 C.3            1 S1                 0.0000
      6 ****        -0.1334   1.0998   1.2504 C.3            1 S1                 0.0000
      7 ****         0.1458   1.5914  -0.0565 O.3            1 S1                 0.0000
      8 ****         0.3613   0.5159  -0.9190 C.3            1 S1                 0.0000
      9 ****         1.3955   0.9131  -1.9468 N.am           1 S1                 0.0000
     10 ****         1.0603   0.9576  -3.2934 C.2            1 S1                 0.0000
     11 ****         1.9306   1.3366  -4.2591 C.2            1 S1                 0.0000
     12 ****         1.5336   1.3487  -5.5430 F              1 S1                 0.0000
     13 ****         3.2925   1.7370  -3.9184 C.2            1 S1                 0.0000
     14 ****         4.1536   2.0917  -4.7210 O.2            1 S1                 0.0000
     15 ****         3.5791   1.6985  -2.5508 N.am           1 S1                 0.0000
     16 ****         2.6904   1.3141  -1.5452 C.2            1 S1                 0.0000
     17 ****         3.0498   1.3402  -0.3697 O.2            1 S1                 0.0000
     18 ****         0.7939  -0.6970  -0.0680 C.3            1 S1                 0.0000
     19 ****        -0.1569  -1.7492  -0.2030 O.3            1 S1                 0.0000
     20 ****        -0.0671  -2.6118  -1.2301 C.2            1 S1                 0.0000
     21 ****        -1.1505  -3.6815  -1.1908 C.3            1 S1                 0.0000
     22 ****         0.7697  -2.5780  -2.1322 O.2            1 S1                 0.0000
     23 ****         0.7910  -0.1184   1.3472 C.3            1 S1                 0.0000
     24 ****         0.3931  -1.0403   2.3576 O.3            1 S1                 0.0000
     25 ****         1.2700  -1.9363   2.8427 C.2            1 S1                 0.0000
     26 ****         0.6612  -2.8151   3.9271 C.3            1 S1                 0.0000
     27 ****         2.4391  -2.0742   2.4830 O.2            1 S1                 0.0000
     28 ****         4.5059   1.9795  -2.2656 H              1 S1                 0.0000
     29 ****        -3.5850   4.0972   1.5377 H              1 S1                 0.0000
     30 ****        -4.9104   3.4122   2.4874 H              1 S1                 0.0000
     31 ****        -5.0274   3.4760   0.7234 H              1 S1                 0.0000
     32 ****        -1.8284   0.2013   2.2695 H              1 S1                 0.0000
     33 ****        -1.9697   0.1648   0.5181 H              1 S1                 0.0000
     34 ****         0.1373   1.8411   2.0031 H              1 S1                 0.0000
     35 ****        -0.5608   0.3316  -1.4731 H              1 S1                 0.0000
     36 ****         0.0642   0.6735  -3.6017 H              1 S1                 0.0000
     37 ****         1.7933  -1.0408  -0.3390 H              1 S1                 0.0000
     38 ****        -1.9651  -3.4164  -1.8648 H              1 S1                 0.0000
     39 ****        -1.5545  -3.7881  -0.1837 H              1 S1                 0.0000
     40 ****        -0.7439  -4.6440  -1.5015 H              1 S1                 0.0000
     41 ****         1.7906   0.2545   1.5735 H              1 S1                 0.0000
     42 ****        -0.3333  -3.1506   3.6320 H              1 S1                 0.0000
     43 ****         0.5771  -2.2588   4.8608 H              1 S1                 0.0000
     44 ****         1.2833  -3.6930   4.1021 H              1 S1                 0.0000
     45 ****        -5.4018   0.9850   1.4774 LP             1 S1                 0.0000
     46 ****        -3.9688   0.0168   1.3816 LP             1 S1                 0.0000
     47 ****         0.9635   2.1664  -0.0292 LP             1 S1                 0.0000
     48 ****        -0.6303   2.1309  -0.3830 LP             1 S1                 0.0000
     49 ****         3.9439   2.1223  -5.6983 LP             1 S1                 0.0000
     50 ****         5.0636   2.3496  -4.3965 LP             1 S1                 0.0000
     51 ****         2.4144   1.0697   0.3536 LP             1 S1                 0.0000
     52 ****         3.9775   1.6319  -0.1368 LP             1 S1                 0.0000
     53 ****         1.4658  -1.8601  -2.1418 LP             1 S1                 0.0000
     54 ****         0.7534  -3.2684  -2.8554 LP             1 S1                 0.0000
     55 ****         2.8142  -1.4867   1.7660 LP             1 S1                 0.0000
     56 ****         3.0137  -2.7737   2.9079 LP             1 S1                 0.0000
@<TRIPOS>BOND
    1    1    2 1     
    2    1   29 1     
    3    1   30 1     
    4    1   31 1     
    5    2    3 2     
    6    2    4 1     
    7    4    5 1     
    8    5    6 1     
    9    5   32 1     
   10    5   33 1     
   11    6   23 1     
   12    6    7 1     
   13    6   34 1     
   14    7    8 1     
   15    8    9 1     
   16    8   18 1     
   17    8   35 1     
   18    9   16 1     
   19    9   10 1     
   20   10   11 2     
   21   10   36 1     
   22   11   12 1     
   23   11   13 1     
   24   13   14 2     
   25   13   15 1     
   26   15   28 1     
   27   15   16 1     
   28   16   17 2     
   29   18   19 1     
   30   18   23 1     
   31   18   37 1     
   32   19   20 1     
   33   20   21 1     
   34   20   22 2     
   35   21   38 1     
   36   21   39 1     
   37   21   40 1     
   38   23   24 1     
   39   23   41 1     
   40   24   25 1     
   41   25   26 1     
   42   25   27 2     
   43   26   42 1     
   44   26   43 1     
   45   26   44 1     
   46    3   45 1     
   47    3   46 1     
   48    7   47 1     
   49    7   48 1     
   50   14   49 1     
   51   14   50 1     
   52   17   51 1     
   53   17   52 1     
   54   22   53 1     
   55   22   54 1     
   56   27   55 1     
   57   27   56 1     
@<TRIPOS>SUBSTRUCTURE
      1 S1             1
@<TRIPOS>SET
LONE_PAIRS      STATIC     ATOMS    <user>   **** ""
12 45 46 47 48 49 50 51 52 53 54 55 56
DONOR_HYDROGENS      STATIC     ATOMS    <user>   **** ""
1 28
ATOM$BLUE        STATIC     ATOMS    COLORGROUP SYSTEM
12 45 46 47 48 49 50 51 52 53 54 55 56
ATOM$RED        STATIC     ATOMS    COLORGROUP SYSTEM
1 28
