AV-unprocessed.smi:3132|AV-procd|sdf|11930|dock4
  -GOLD-   2272017313D 1   1.00000     0.00000
 Structure written by MMmdl.
 34 35  0  0  0  0  0  0  0  0  2 V2000
  148.3325  140.1260  156.7600 C   0  0  0  0  0  0  0  0  0  0  0  0
  149.2051  141.0265  155.8758 C   0  0  1  0  0  0  0  0  0  0  0  0
  148.4461  141.4614  154.6028 C   0  0  0  0  0  0  0  0  0  0  0  0
  148.0030  140.3308  153.7803 N   0  0  0  0  0  0  0  0  0  0  0  0
  146.8344  140.2243  153.0702 C   0  0  0  0  0  0  0  0  0  0  0  0
  146.8636  139.0010  152.4516 C   0  0  0  0  0  0  0  0  0  0  0  0
  148.0443  138.4107  152.8152 N   0  3  0  0  0  0  0  0  0  0  0  0
  148.7332  139.2186  153.6276 C   0  0  0  0  0  0  0  0  0  0  0  0
  149.6316  142.1847  156.6602 N   0  0  0  0  0  0  0  0  0  0  0  0
  150.3252  142.1451  157.8091 C   0  0  0  0  0  0  0  0  0  0  0  0
  150.7059  141.0964  158.3314 O   0  0  0  0  0  0  0  0  0  0  0  0
  150.6303  143.5003  158.4639 C   0  0  2  0  0  0  0  0  0  0  0  0
  151.6021  144.3762  157.6477 C   0  0  0  0  0  0  0  0  0  0  0  0
  152.7640  144.6276  158.5933 C   0  0  0  0  0  0  0  0  0  0  0  0
  152.6804  143.4496  159.5525 C   0  0  0  0  0  0  0  0  0  0  0  0
  151.2807  143.2721  159.7132 O   0  0  0  0  0  0  0  0  0  0  0  0
  148.0246  139.2286  156.2229 H   0  0  0  0  0  0  0  0  0  0  0  0
  147.4302  140.6439  157.0873 H   0  0  0  0  0  0  0  0  0  0  0  0
  148.8745  139.8047  157.6504 H   0  0  0  0  0  0  0  0  0  0  0  0
  150.0789  140.4398  155.5861 H   0  0  0  0  0  0  0  0  0  0  0  0
  147.5566  142.0346  154.8682 H   0  0  0  0  0  0  0  0  0  0  0  0
  149.0663  142.1113  153.9837 H   0  0  0  0  0  0  0  0  0  0  0  0
  146.0922  141.0091  153.0524 H   0  0  0  0  0  0  0  0  0  0  0  0
  146.1519  138.5189  151.7972 H   0  0  0  0  0  0  0  0  0  0  0  0
  149.6948  139.0170  154.0651 H   0  0  0  0  0  0  0  0  0  0  0  0
  149.3568  143.0921  156.3121 H   0  0  0  0  0  0  0  0  0  0  0  0
  149.7016  144.0399  158.6561 H   0  0  0  0  0  0  0  0  0  0  0  0
  151.9545  143.8719  156.7466 H   0  0  0  0  0  0  0  0  0  0  0  0
  151.1387  145.3116  157.3322 H   0  0  0  0  0  0  0  0  0  0  0  0
  153.7252  144.6942  158.0832 H   0  0  0  0  0  0  0  0  0  0  0  0
  152.6034  145.5581  159.1395 H   0  0  0  0  0  0  0  0  0  0  0  0
  153.1224  142.5546  159.1123 H   0  0  0  0  0  0  0  0  0  0  0  0
  153.1730  143.6440  160.5053 H   0  0  0  0  0  0  0  0  0  0  0  0
  148.3553  137.4961  152.5127 H   0  0  0  0  0  0  0  0  0  0  0  0
  1  2  1  0  0  0  0
  1 17  1  0  0  0  0
  1 18  1  0  0  0  0
  1 19  1  0  0  0  0
  2  3  1  0  0  0  0
  2  9  1  0  0  0  0
  2 20  1  0  0  0  0
  3  4  1  0  0  0  0
  3 21  1  0  0  0  0
  3 22  1  0  0  0  0
  4  8  1  0  0  0  0
  4  5  1  0  0  0  0
  5  6  2  0  0  0  0
  5 23  1  0  0  0  0
  6  7  1  0  0  0  0
  6 24  1  0  0  0  0
  7  8  2  0  0  0  0
  7 34  1  0  0  0  0
  8 25  1  0  0  0  0
  9 10  1  0  0  0  0
  9 26  1  0  0  0  0
 10 11  2  0  0  0  0
 10 12  1  0  0  0  0
 12 16  1  0  0  0  0
 12 13  1  0  0  0  0
 12 27  1  0  0  0  0
 13 14  1  0  0  0  0
 13 28  1  0  0  0  0
 13 29  1  0  0  0  0
 14 15  1  0  0  0  0
 14 30  1  0  0  0  0
 14 31  1  0  0  0  0
 15 16  1  0  0  0  0
 15 32  1  0  0  0  0
 15 33  1  0  0  0  0
M  CHG  1   7   1
M  END
> <s_m_source_file>
AV-unprocessed.smi

> <i_m_source_file_index>
3132

> <i_lp_mmshare_version>
43012

> <i_f3d_flags>
0

> <s_epik_input>
W2NIXTFuW2NIXVtjSF1uMVtDSDJdW0NAQEhdKFtDSDNdKVtOSF1DKD1PKVtDQEBIXTJbQ0gyXVtDSDJdW0NIMl1PMg==

> <s_epik_cmdline>
J2VwaWtfcHl0aG9uJywgJy1waCcsICc3LjAnLCAnLXRuJywgJzgnLCAnLW1hJywgJzIwMCcsICctbWV0YWxfYmluZGluZycsICctaW1hZScsICc8aW5maWxlLm1hZT4nLCAnLW9tYWUnLCAnPG91dGZpbGUubWFlPic=

> <r_lp_tautomer_probability>
1

> <r_epik_Ionization_Penalty>
0.250802

> <r_epik_Ionization_Penalty_Charging>
0

> <r_epik_Ionization_Penalty_Neutral>
0.250802

> <r_epik_State_Penalty>
0.242139

> <r_epik_Charging_Adjusted_Penalty>
0.242139

> <i_epik_Tot_Q>
1

> <i_epik_Tot_abs_Q>
1

> <r_epik_Metal_State_Penalty>
0.533361

> <b_epik_Metal_Only>
0

> <s_lp_Force_Field>
OPLS_2005

> <r_lp_Energy>
21.4246

> <b_lp_Chiralities_Consistent>
1

> <s_lp_Variant>
AV-unprocessed.smi:3132-2

> <Gold.Version>
5.8.1

> <Gold.Id.Protein>
6NUR|6NUR_protein|mol2

> <Gold.PLP.Fitness>
43.3213

> <Gold.PLP.PLP>
-32.6676

> <Gold.PLP.part.hbond>
-3.0000

> <Gold.PLP.part.metal>
0.0000

> <Gold.PLP.part.buried>
-0.2086

> <Gold.PLP.part.nonpolar>
-29.8787

> <Gold.PLP.part.repulsive>
0.1098

> <Gold.PLP.ligand.clash>
0.0000

> <Gold.PLP.ligand.torsion>
0.3972

> <Gold.PLP.Chemscore.Hbond>
3.0000

> <Gold.PLP.Chemscore.CHOScore>
0.8037

> <Gold.PLP.Chemscore.Metal>
0.0000

> <Gold.Chemscore.Hbonds>
donor molecule, donor type, donor heavy atom, donor atom, acceptor molecule, acceptor atom, score
      L1  H     7    34       P1  7948  1.98
      L1  H     9    26       P1  8028  1.00
      L1  C     5    23       P1 10175  0.82

> <Gold.PLP.Chemscore.Internal.Correction>
0.0371

> <Gold.Rescore>
     Score         DG    S(hbond)    S(metal)    S(lipo)     H(rot)  DE(clash)    DE(int)     intcor
     15.97     -16.36       1.92        0.00      80.38       1.93       0.03       0.36       ----

> <Gold.Chemscore.Fitness>
15.9692

> <Gold.Chemscore.DG>
-16.3601

> <Gold.Chemscore.ZeroCoef>
-5.4800

> <Gold.Chemscore.Hbond>
1.9216

> <Gold.Chemscore.Metal>
0.0000

> <Gold.Chemscore.Lipo>
80.3832

> <Gold.Chemscore.Internal_Hbond>
0.0000

> <Gold.Chemscore.DEClash>
0.0299

> <Gold.Chemscore.DEInternal>
0.3610

> <Gold.Chemscore.Rot>
1.9308

> <Gold.Chemscore.Internal.Correction>
   9.000000E+99

> <Gold.Chemscore.Hbonds>
donor molecule, donor type, donor heavy atom, donor atom, acceptor molecule, acceptor atom, score
      L1  H     7    34       P1  7948  0.92
      L1  H     9    26       P1  8028  1.00

> <Gold.Chemscore.Hbond.Weighted>
-6.4182

> <Gold.Chemscore.Metal.Weighted>
-0.0000

> <Gold.Chemscore.Lipo.Weighted>
-9.4048

> <Gold.Chemscore.Internal_Hbond.Weighted>
0.0000

> <Gold.Chemscore.DEClash.Weighted>
0.0299

> <Gold.Chemscore.DEInternal.Weighted>
0.3610

> <Gold.Chemscore.Rot.Weighted>
4.9429

> <Gold.Chemscore.Internal.Correction.Weighted>
   9.000000E+99

> <Gold.Protein.RotatedTorsions>
[ 6907 6896 6895 6894 ] final    6.37 input  -60.11 | X-H torsion
[ 7974 7965 7964 7962 ] final   91.70 input  175.53 | X-H torsion
[ 8008 7997 7996 7995 ] final   31.91 input   59.86 | X-H torsion
[ 10167 10162 10161 10158 ] final  168.18 input  -65.29 | X-H torsion
[ 10718 10713 10712 10709 ] final  -72.17 input   66.30 | X-H torsion
[ 10763 10752 10751 10750 ] final  -25.22 input  -60.55 | X-H torsion
[ 11005 11000 10999 10996 ] final -141.42 input  -57.11 | X-H torsion

> <Gold.Protein.ActiveResidues>
 VAL166  LYS551  ARG553  GLY616  TRP617  ASP618  TYR619  PRO620  LYS621  CYS622 
 ASP623  PHE694  ASN695  SER759  ASP760  ASP761  ALA762  ILE779  LEU786  VAL792 
 PHE793  MET794  SER795  GLU796  ALA797  LYS798  CYS799  TRP800  GLU811  SER814 

> <Gold.Protein.RotatedAtoms>
  151.6727  135.0973  160.0200 H   0  0  0  0  0  0  0  0  0  0  0  0  # atno 6907 bound_to 6896
  152.3882  133.6637  159.6224 H   0  0  0  0  0  0  0  0  0  0  0  0  # atno 6908 bound_to 6896
  150.7803  133.8916  159.3356 H   0  0  0  0  0  0  0  0  0  0  0  0  # atno 6909 bound_to 6896
  145.5021  139.2276  143.2771 H   0  0  0  0  0  0  0  0  0  0  0  0  # atno 7974 bound_to 7965
  155.1140  140.3242  155.4514 H   0  0  0  0  0  0  0  0  0  0  0  0  # atno 8008 bound_to 7997
  156.2682  140.2039  156.6211 H   0  0  0  0  0  0  0  0  0  0  0  0  # atno 8009 bound_to 7997
  154.6734  140.0534  157.0177 H   0  0  0  0  0  0  0  0  0  0  0  0  # atno 8010 bound_to 7997
  139.4962  144.3842  151.9588 H   0  0  0  0  0  0  0  0  0  0  0  0  # atno 10167 bound_to 10162
  156.0331  130.4366  150.2553 H   0  0  0  0  0  0  0  0  0  0  0  0  # atno 10718 bound_to 10713
  153.6963  135.6959  153.5075 H   0  0  0  0  0  0  0  0  0  0  0  0  # atno 10763 bound_to 10752
  153.2375  135.4317  155.0661 H   0  0  0  0  0  0  0  0  0  0  0  0  # atno 10764 bound_to 10752
  154.8357  135.3499  154.6504 H   0  0  0  0  0  0  0  0  0  0  0  0  # atno 10765 bound_to 10752
  140.8326  134.2499  157.4849 H   0  0  0  0  0  0  0  0  0  0  0  0  # atno 11005 bound_to 11000
  146.2219  140.5822  142.9013 LP  0  0  0  0  0  0  0  0  0  0  0  0  # atno 17320 bound_to 7965
  144.7774  140.5769  143.6628 LP  0  0  0  0  0  0  0  0  0  0  0  0  # atno 17321 bound_to 7965
  140.3279  144.3351  150.5994 LP  0  0  0  0  0  0  0  0  0  0  0  0  # atno 17342 bound_to 10162
  140.5669  143.2185  151.7668 LP  0  0  0  0  0  0  0  0  0  0  0  0  # atno 17343 bound_to 10162
  157.0654  131.0101  151.3208 LP  0  0  0  0  0  0  0  0  0  0  0  0  # atno 17370 bound_to 10713
  157.5039  130.7897  149.7634 LP  0  0  0  0  0  0  0  0  0  0  0  0  # atno 17371 bound_to 10713
  139.8704  134.9594  156.4330 LP  0  0  0  0  0  0  0  0  0  0  0  0  # atno 17394 bound_to 11000
  140.8982  133.7799  155.9649 LP  0  0  0  0  0  0  0  0  0  0  0  0  # atno 17395 bound_to 11000

$$$$
