AV-unprocessed.smi:2148|AV-procd|sdf|8750|dock8
  -GOLD-   2272011523D 1   1.00000     0.00000
 Structure written by MMmdl.
 44 45  0  0  0  0  0  0  0  0  1 V2000
  145.5305  135.9371  152.1689 C   0  0  0  0  0  0  0  0  0  0  0  0
  146.2539  136.8217  153.5775 S   0  0  0  0  0  0  0  0  0  0  0  0
  146.1275  138.5437  153.0072 C   0  0  2  0  0  0  0  0  0  0  0  0
  146.8672  138.7156  151.6712 C   0  0  0  0  0  0  0  0  0  0  0  0
  146.6478  139.5337  154.0575 C   0  0  0  0  0  0  0  0  0  0  0  0
  145.8709  140.3359  154.5745 O   0  0  0  0  0  0  0  0  0  0  0  0
  147.9664  139.4653  154.3211 N   0  0  0  0  0  0  0  0  0  0  0  0
  148.7431  140.2447  155.2214 C   0  0  0  0  0  0  0  0  0  0  0  0
  150.1437  140.2134  155.0772 C   0  0  0  0  0  0  0  0  0  0  0  0
  150.9460  140.9616  155.9591 C   0  0  0  0  0  0  0  0  0  0  0  0
  150.3265  141.7277  156.9744 C   0  0  0  0  0  0  0  0  0  0  0  0
  151.1081  142.4909  157.8695 N   0  0  0  0  0  0  0  0  0  0  0  0
  152.0111  141.7364  158.7330 C   0  0  0  0  0  0  0  0  0  0  0  0
  152.5041  142.6190  159.8935 C   0  0  1  0  0  0  0  0  0  0  0  0
  153.5519  141.9024  160.7516 C   0  0  0  0  0  0  0  0  0  0  0  0
  153.0976  143.8072  159.3720 O   0  0  0  0  0  0  0  0  0  0  0  0
  152.2363  144.5919  158.5444 C   0  0  2  0  0  0  0  0  0  0  0  0
  151.1351  145.2973  159.3557 C   0  0  0  0  0  0  0  0  0  0  0  0
  151.6913  143.7395  157.3814 C   0  0  0  0  0  0  0  0  0  0  0  0
  148.9793  141.7419  157.1250 N   0  0  0  0  0  0  0  0  0  0  0  0
  148.2130  141.0234  156.2776 C   0  0  0  0  0  0  0  0  0  0  0  0
  145.5698  134.8619  152.3433 H   0  0  0  0  0  0  0  0  0  0  0  0
  146.0812  136.1589  151.2550 H   0  0  0  0  0  0  0  0  0  0  0  0
  144.4880  136.2217  152.0272 H   0  0  0  0  0  0  0  0  0  0  0  0
  145.0705  138.7451  152.8255 H   0  0  0  0  0  0  0  0  0  0  0  0
  146.8030  139.7431  151.3108 H   0  0  0  0  0  0  0  0  0  0  0  0
  146.4358  138.0729  150.9033 H   0  0  0  0  0  0  0  0  0  0  0  0
  147.9234  138.4576  151.7602 H   0  0  0  0  0  0  0  0  0  0  0  0
  148.4881  138.8004  153.7686 H   0  0  0  0  0  0  0  0  0  0  0  0
  150.6038  139.6224  154.2986 H   0  0  0  0  0  0  0  0  0  0  0  0
  152.0201  140.9269  155.8542 H   0  0  0  0  0  0  0  0  0  0  0  0
  151.5336  140.8471  159.1418 H   0  0  0  0  0  0  0  0  0  0  0  0
  152.8573  141.3936  158.1363 H   0  0  0  0  0  0  0  0  0  0  0  0
  151.6636  142.8790  160.5373 H   0  0  0  0  0  0  0  0  0  0  0  0
  153.1461  140.9870  161.1834 H   0  0  0  0  0  0  0  0  0  0  0  0
  153.8835  142.5385  161.5729 H   0  0  0  0  0  0  0  0  0  0  0  0
  154.4291  141.6346  160.1619 H   0  0  0  0  0  0  0  0  0  0  0  0
  152.8601  145.3761  158.1148 H   0  0  0  0  0  0  0  0  0  0  0  0
  150.5829  145.9970  158.7280 H   0  0  0  0  0  0  0  0  0  0  0  0
  151.5643  145.8641  160.1821 H   0  0  0  0  0  0  0  0  0  0  0  0
  150.4115  144.5958  159.7700 H   0  0  0  0  0  0  0  0  0  0  0  0
  152.5027  143.4987  156.6929 H   0  0  0  0  0  0  0  0  0  0  0  0
  150.9547  144.3165  156.8210 H   0  0  0  0  0  0  0  0  0  0  0  0
  147.1557  141.0739  156.4826 H   0  0  0  0  0  0  0  0  0  0  0  0
  1  2  1  0  0  0  0
  1 22  1  0  0  0  0
  1 23  1  0  0  0  0
  1 24  1  0  0  0  0
  2  3  1  0  0  0  0
  3  4  1  0  0  0  0
  3  5  1  0  0  0  0
  3 25  1  0  0  0  0
  4 26  1  0  0  0  0
  4 27  1  0  0  0  0
  4 28  1  0  0  0  0
  5  6  2  0  0  0  0
  5  7  1  0  0  0  0
  7  8  1  0  0  0  0
  7 29  1  0  0  0  0
  8 21  1  0  0  0  0
  8  9  2  0  0  0  0
  9 10  1  0  0  0  0
  9 30  1  0  0  0  0
 10 11  2  0  0  0  0
 10 31  1  0  0  0  0
 11 12  1  0  0  0  0
 11 20  1  0  0  0  0
 12 19  1  0  0  0  0
 12 13  1  0  0  0  0
 13 14  1  0  0  0  0
 13 32  1  0  0  0  0
 13 33  1  0  0  0  0
 14 15  1  0  0  0  0
 14 16  1  0  0  0  0
 14 34  1  0  0  0  0
 15 35  1  0  0  0  0
 15 36  1  0  0  0  0
 15 37  1  0  0  0  0
 16 17  1  0  0  0  0
 17 18  1  0  0  0  0
 17 19  1  0  0  0  0
 17 38  1  0  0  0  0
 18 39  1  0  0  0  0
 18 40  1  0  0  0  0
 18 41  1  0  0  0  0
 19 42  1  0  0  0  0
 19 43  1  0  0  0  0
 20 21  2  0  0  0  0
 21 44  1  0  0  0  0
M  END
> <s_m_source_file>
AV-unprocessed.smi

> <i_m_source_file_index>
2148

> <i_lp_mmshare_version>
43012

> <i_f3d_flags>
0

> <s_epik_input>
W0NIM11TW0NASF0oW0NIM10pQyg9TylbTkhdYzFbY0hdW2NIXWMobltjSF0xKU4yW0NIMl1bQ0BASF0oW0NIM10pT1tDQEBIXShbQ0gzXSlbQ0gyXTI=

> <s_epik_cmdline>
J2VwaWtfcHl0aG9uJywgJy1waCcsICc3LjAnLCAnLXRuJywgJzgnLCAnLW1hJywgJzIwMCcsICctbWV0YWxfYmluZGluZycsICctaW1hZScsICc8aW5maWxlLm1hZT4nLCAnLW9tYWUnLCAnPG91dGZpbGUubWFlPic=

> <r_lp_tautomer_probability>
1

> <r_epik_Ionization_Penalty>
0.000646494

> <r_epik_Ionization_Penalty_Charging>
0

> <r_epik_Ionization_Penalty_Neutral>
0.000646494

> <r_epik_State_Penalty>
0.000408447

> <r_epik_Charging_Adjusted_Penalty>
0.000408447

> <i_epik_Tot_Q>
0

> <i_epik_Tot_abs_Q>
0

> <r_epik_Metal_State_Penalty>
-0

> <b_epik_Metal_Only>
0

> <s_lp_Force_Field>
OPLS_2005

> <r_lp_Energy>
25.6467

> <b_lp_Chiralities_Consistent>
1

> <s_lp_Variant>
AV-unprocessed.smi:2148-5

> <Gold.Version>
5.8.1

> <Gold.Id.Protein>
6NUR|6NUR_protein|mol2

> <Gold.PLP.Fitness>
39.6794

> <Gold.PLP.PLP>
-39.9186

> <Gold.PLP.part.hbond>
0.0000

> <Gold.PLP.part.metal>
0.0000

> <Gold.PLP.part.buried>
-2.0089

> <Gold.PLP.part.nonpolar>
-37.8599

> <Gold.PLP.part.repulsive>
0.4460

> <Gold.PLP.ligand.clash>
0.0000

> <Gold.PLP.ligand.torsion>
0.3028

> <Gold.PLP.Chemscore.Hbond>
0.0000

> <Gold.PLP.Chemscore.CHOScore>
0.0000

> <Gold.PLP.Chemscore.Metal>
0.0000

> <Gold.PLP.Chemscore.Internal.Correction>
0.3663

> <Gold.Rescore>
     Score         DG    S(hbond)    S(metal)    S(lipo)     H(rot)  DE(clash)    DE(int)     intcor
     13.72     -15.12       0.00        0.00     110.06       1.27       0.05       1.34       ----

> <Gold.Chemscore.Fitness>
13.7232

> <Gold.Chemscore.DG>
-15.1161

> <Gold.Chemscore.ZeroCoef>
-5.4800

> <Gold.Chemscore.Hbond>
0.0000

> <Gold.Chemscore.Metal>
0.0000

> <Gold.Chemscore.Lipo>
110.0569

> <Gold.Chemscore.Internal_Hbond>
0.0000

> <Gold.Chemscore.DEClash>
0.0516

> <Gold.Chemscore.DEInternal>
1.3413

> <Gold.Chemscore.Rot>
1.2659

> <Gold.Chemscore.Internal.Correction>
   9.000000E+99

> <Gold.Chemscore.Hbond.Weighted>
-0.0000

> <Gold.Chemscore.Metal.Weighted>
-0.0000

> <Gold.Chemscore.Lipo.Weighted>
-12.8767

> <Gold.Chemscore.Internal_Hbond.Weighted>
0.0000

> <Gold.Chemscore.DEClash.Weighted>
0.0516

> <Gold.Chemscore.DEInternal.Weighted>
1.3413

> <Gold.Chemscore.Rot.Weighted>
3.2406

> <Gold.Chemscore.Internal.Correction.Weighted>
   9.000000E+99

> <Gold.Protein.RotatedTorsions>
[ 6907 6896 6895 6894 ] final   29.22 input  -60.11 | X-H torsion
[ 7974 7965 7964 7962 ] final   23.55 input  175.53 | X-H torsion
[ 8008 7997 7996 7995 ] final  -58.45 input   59.86 | X-H torsion
[ 10167 10162 10161 10158 ] final  -39.51 input  -65.29 | X-H torsion
[ 10718 10713 10712 10709 ] final  -37.01 input   66.30 | X-H torsion
[ 10763 10752 10751 10750 ] final  -52.11 input  -60.55 | X-H torsion
[ 11005 11000 10999 10996 ] final -120.94 input  -57.11 | X-H torsion

> <Gold.Protein.ActiveResidues>
 VAL166  LYS551  ARG553  GLY616  TRP617  ASP618  TYR619  PRO620  LYS621  CYS622 
 ASP623  PHE694  ASN695  SER759  ASP760  ASP761  ALA762  ILE779  LEU786  VAL792 
 PHE793  MET794  SER795  GLU796  ALA797  LYS798  CYS799  TRP800  GLU811  SER814 

> <Gold.Protein.RotatedAtoms>
  152.0284  134.9782  160.0571 H   0  0  0  0  0  0  0  0  0  0  0  0  # atno 6907 bound_to 6896
  152.1268  133.4380  159.4710 H   0  0  0  0  0  0  0  0  0  0  0  0  # atno 6908 bound_to 6896
  150.6853  134.2387  159.4507 H   0  0  0  0  0  0  0  0  0  0  0  0  # atno 6909 bound_to 6896
  146.1979  139.7729  142.8783 H   0  0  0  0  0  0  0  0  0  0  0  0  # atno 7974 bound_to 7965
  154.4309  140.1084  156.5959 H   0  0  0  0  0  0  0  0  0  0  0  0  # atno 8008 bound_to 7997
  155.5962  140.3492  155.4562 H   0  0  0  0  0  0  0  0  0  0  0  0  # atno 8009 bound_to 7997
  156.0208  140.1239  157.0348 H   0  0  0  0  0  0  0  0  0  0  0  0  # atno 8010 bound_to 7997
  140.7062  143.3210  151.2793 H   0  0  0  0  0  0  0  0  0  0  0  0  # atno 10167 bound_to 10162
  156.3201  130.4264  149.7968 H   0  0  0  0  0  0  0  0  0  0  0  0  # atno 10718 bound_to 10713
  154.1374  135.6510  153.4935 H   0  0  0  0  0  0  0  0  0  0  0  0  # atno 10763 bound_to 10752
  153.0176  135.5307  154.6939 H   0  0  0  0  0  0  0  0  0  0  0  0  # atno 10764 bound_to 10752
  154.6191  135.2962  155.0317 H   0  0  0  0  0  0  0  0  0  0  0  0  # atno 10765 bound_to 10752
  141.0107  134.0269  157.3417 H   0  0  0  0  0  0  0  0  0  0  0  0  # atno 11005 bound_to 11000
  145.3582  141.0321  143.3299 LP  0  0  0  0  0  0  0  0  0  0  0  0  # atno 17320 bound_to 7965
  144.8619  139.5164  143.6808 LP  0  0  0  0  0  0  0  0  0  0  0  0  # atno 17321 bound_to 7965
  139.6664  144.0098  152.2725 LP  0  0  0  0  0  0  0  0  0  0  0  0  # atno 17342 bound_to 10162
  139.9682  144.6511  150.8014 LP  0  0  0  0  0  0  0  0  0  0  0  0  # atno 17343 bound_to 10162
  156.5279  130.8244  151.3226 LP  0  0  0  0  0  0  0  0  0  0  0  0  # atno 17370 bound_to 10713
  157.7410  130.9861  150.2415 LP  0  0  0  0  0  0  0  0  0  0  0  0  # atno 17371 bound_to 10713
  139.9088  135.0186  156.7603 LP  0  0  0  0  0  0  0  0  0  0  0  0  # atno 17394 bound_to 11000
  140.6738  133.9535  155.7871 LP  0  0  0  0  0  0  0  0  0  0  0  0  # atno 17395 bound_to 11000

$$$$
