#       Name:                AV-unprocessed.smi:713
#       Creating user name   scv26
#       Creation time:       Fri Mar 27 00:46:54 2020


#       File generated by GOLD software.
#

@<TRIPOS>MOLECULE
AV-unprocessed.smi:713
    44    45     1
SMALL
NO_CHARGES


@<TRIPOS>ATOM
      1 ****        -3.2784  -1.2034  -2.9222 C.3            1 S1                 0.0000
      2 ****        -2.7635  -0.4337  -1.6887 C.3            1 S1                 0.0000
      3 ****        -1.2325  -0.3061  -1.6626 C.2            1 S1                 0.0000
      4 ****        -0.5209  -1.1313  -2.2370 O.2            1 S1                 0.0000
      5 ****        -0.7379   0.7368  -0.9768 N.am           1 S1                 0.0000
      6 ****         0.6794   1.0217  -0.7803 C.3            1 S1                 0.0000
      7 ****         0.8699   2.5245  -0.5080 C.3            1 S1                 0.0000
      8 ****         2.3428   2.8587  -0.2284 C.3            1 S1                 0.0000
      9 ****         2.8920   2.0187   0.9344 C.3            1 S1                 0.0000
     10 ****         2.7169   0.5123   0.6704 C.3            1 S1                 0.0000
     11 ****         3.3557  -0.4530   2.1143 S.o2           1 S1                 0.0000
     12 ****         3.2741  -2.1904   1.5119 C.3            1 S1                 0.0000
     13 ****         4.7686  -0.0979   2.3165 O.2            1 S1                 0.0000
     14 ****         2.4068  -0.3151   3.2296 O.2            1 S1                 0.0000
     15 ****         1.2403   0.1762   0.3816 C.3            1 S1                 0.0000
     16 ****        -3.2405  -1.0109  -0.4370 N.pl3          1 S1                 0.0000
     17 ****        -3.7557  -0.3490   0.6592 C.2            1 S1                 0.0000
     18 ****        -4.0281  -1.2854   1.6147 C.2            1 S1                 0.0000
     19 ****        -3.6297  -2.5099   1.0108 C.2            1 S1                 0.0000
     20 ****        -3.1516  -2.3427  -0.2110 N.2            1 S1                 0.0000
     21 ****        -2.9567  -0.7229  -3.8468 H              1 S1                 0.0000
     22 ****        -4.3683  -1.2329  -2.9332 H              1 S1                 0.0000
     23 ****        -2.9202  -2.2334  -2.9442 H              1 S1                 0.0000
     24 ****        -3.1713   0.5766  -1.7503 H              1 S1                 0.0000
     25 ****        -1.3928   1.3664  -0.5365 H              1 S1                 0.0000
     26 ****         1.2229   0.7720  -1.6937 H              1 S1                 0.0000
     27 ****         0.5170   3.1071  -1.3599 H              1 S1                 0.0000
     28 ****         0.2633   2.8265   0.3473 H              1 S1                 0.0000
     29 ****         2.9368   2.6751  -1.1247 H              1 S1                 0.0000
     30 ****         2.4463   3.9200  -0.0011 H              1 S1                 0.0000
     31 ****         3.9456   2.2524   1.0887 H              1 S1                 0.0000
     32 ****         2.3773   2.2928   1.8564 H              1 S1                 0.0000
     33 ****         3.3239   0.2325  -0.1914 H              1 S1                 0.0000
     34 ****         3.7286  -2.8482   2.2522 H              1 S1                 0.0000
     35 ****         3.8169  -2.2780   0.5710 H              1 S1                 0.0000
     36 ****         2.2363  -2.4870   1.3662 H              1 S1                 0.0000
     37 ****         0.6427   0.3474   1.2783 H              1 S1                 0.0000
     38 ****         1.1388  -0.8817   0.1414 H              1 S1                 0.0000
     39 ****        -3.8832   0.7235   0.6683 H              1 S1                 0.0000
     40 ****        -4.4433  -1.1207   2.5978 H              1 S1                 0.0000
     41 ****        -3.6689  -3.5077   1.4225 H              1 S1                 0.0000
     42 ****        -0.9384  -1.8959  -2.7280 LP             1 S1                 0.0000
     43 ****         0.4743  -1.0367  -2.2123 LP             1 S1                 0.0000
     44 ****        -2.8017  -3.0450  -0.8309 LP             1 S1                 0.0000
@<TRIPOS>BOND
    1    1    2 1     
    2    1   21 1     
    3    1   22 1     
    4    1   23 1     
    5    2    3 1     
    6    2   16 1     
    7    2   24 1     
    8    3    4 2     
    9    3    5 am    
   10    5    6 1     
   11    5   25 1     
   12    6   15 1     
   13    6    7 1     
   14    6   26 1     
   15    7    8 1     
   16    7   27 1     
   17    7   28 1     
   18    8    9 1     
   19    8   29 1     
   20    8   30 1     
   21    9   10 1     
   22    9   31 1     
   23    9   32 1     
   24   10   11 1     
   25   10   15 1     
   26   10   33 1     
   27   11   12 1     
   28   11   13 2     
   29   11   14 2     
   30   12   34 1     
   31   12   35 1     
   32   12   36 1     
   33   15   37 1     
   34   15   38 1     
   35   16   20 1     
   36   16   17 1     
   37   17   18 2     
   38   17   39 1     
   39   18   19 1     
   40   18   40 1     
   41   19   20 2     
   42   19   41 1     
   43    4   42 1     
   44    4   43 1     
   45   20   44 1     
@<TRIPOS>SUBSTRUCTURE
      1 S1             1
@<TRIPOS>SET
LONE_PAIRS      STATIC     ATOMS    <user>   **** ""
5 42 43 13 14 44
DONOR_HYDROGENS      STATIC     ATOMS    <user>   **** ""
1 25
ATOM$BLUE        STATIC     ATOMS    COLORGROUP SYSTEM
5 42 43 13 14 44
ATOM$RED        STATIC     ATOMS    COLORGROUP SYSTEM
1 25
