AV-unprocessed.smi:2804|AV-procd|sdf|10810|dock4
  -GOLD-   2272015243D 1   1.00000     0.00000
 Structure written by MMmdl.
 35 36  0  0  0  0  0  0  0  0  1 V2000
  149.3422  141.3513  154.9071 C   0  0  0  0  0  0  0  0  0  0  0  0
  149.9332  141.2734  156.3185 C   0  0  0  0  0  0  0  0  0  0  0  0
  151.0308  142.3221  156.5563 C   0  0  0  0  0  0  0  0  0  0  0  0
  151.6895  142.1156  157.8436 N   0  0  0  0  0  0  0  0  0  0  0  0
  152.2852  140.9772  158.2703 C   0  0  0  0  0  0  0  0  0  0  0  0
  152.3776  139.9274  157.6344 O   0  0  0  0  0  0  0  0  0  0  0  0
  152.7512  141.1914  159.5234 N   0  0  0  0  0  0  0  0  0  0  0  0
  153.4457  140.2204  160.3715 C   0  0  0  0  0  0  0  0  0  0  0  0
  154.0852  139.0336  159.6002 C   0  0  1  0  0  0  0  0  0  0  0  0
  155.2311  139.4138  158.8568 O   0  0  0  0  0  0  0  0  0  0  0  0
  154.4474  137.8454  160.5132 C   0  0  0  0  0  0  0  0  0  0  0  0
  153.3555  137.3869  161.1259 F   0  0  0  0  0  0  0  0  0  0  0  0
  155.0132  136.8612  159.8143 F   0  0  0  0  0  0  0  0  0  0  0  0
  155.3027  138.2509  161.4521 F   0  0  0  0  0  0  0  0  0  0  0  0
  152.4327  142.4998  159.9149 C   0  0  0  0  0  0  0  0  0  0  0  0
  152.6769  143.1915  161.1140 C   0  0  0  0  0  0  0  0  0  0  0  0
  152.2077  144.5232  161.1988 C   0  0  0  0  0  0  0  0  0  0  0  0
  151.5181  145.1217  160.1123 C   0  0  0  0  0  0  0  0  0  0  0  0
  151.2833  144.4009  158.9177 C   0  0  0  0  0  0  0  0  0  0  0  0
  151.7627  143.0807  158.8586 C   0  0  0  0  0  0  0  0  0  0  0  0
  148.5699  140.5946  154.7674 H   0  0  0  0  0  0  0  0  0  0  0  0
  150.1089  141.1876  154.1494 H   0  0  0  0  0  0  0  0  0  0  0  0
  148.8902  142.3262  154.7226 H   0  0  0  0  0  0  0  0  0  0  0  0
  149.1339  141.4057  157.0488 H   0  0  0  0  0  0  0  0  0  0  0  0
  150.3384  140.2740  156.4820 H   0  0  0  0  0  0  0  0  0  0  0  0
  151.7699  142.2779  155.7547 H   0  0  0  0  0  0  0  0  0  0  0  0
  150.6084  143.3268  156.5207 H   0  0  0  0  0  0  0  0  0  0  0  0
  154.1993  140.7389  160.9659 H   0  0  0  0  0  0  0  0  0  0  0  0
  152.7365  139.8326  161.1031 H   0  0  0  0  0  0  0  0  0  0  0  0
  153.3561  138.6798  158.8701 H   0  0  0  0  0  0  0  0  0  0  0  0
  156.0002  139.2079  159.3656 H   0  0  0  0  0  0  0  0  0  0  0  0
  153.1981  142.7297  161.9394 H   0  0  0  0  0  0  0  0  0  0  0  0
  152.3750  145.0911  162.1022 H   0  0  0  0  0  0  0  0  0  0  0  0
  151.1668  146.1394  160.1988 H   0  0  0  0  0  0  0  0  0  0  0  0
  150.7555  144.8500  158.0897 H   0  0  0  0  0  0  0  0  0  0  0  0
  1  2  1  0  0  0  0
  1 21  1  0  0  0  0
  1 22  1  0  0  0  0
  1 23  1  0  0  0  0
  2  3  1  0  0  0  0
  2 24  1  0  0  0  0
  2 25  1  0  0  0  0
  3  4  1  0  0  0  0
  3 26  1  0  0  0  0
  3 27  1  0  0  0  0
  4 20  1  0  0  0  0
  4  5  1  0  0  0  0
  5  6  2  0  0  0  0
  5  7  1  0  0  0  0
  7  8  1  0  0  0  0
  7 15  1  0  0  0  0
  8  9  1  0  0  0  0
  8 28  1  0  0  0  0
  8 29  1  0  0  0  0
  9 10  1  0  0  0  0
  9 11  1  0  0  0  0
  9 30  1  0  0  0  0
 10 31  1  0  0  0  0
 11 12  1  0  0  0  0
 11 13  1  0  0  0  0
 11 14  1  0  0  0  0
 15 20  2  0  0  0  0
 15 16  1  0  0  0  0
 16 17  2  0  0  0  0
 16 32  1  0  0  0  0
 17 18  1  0  0  0  0
 17 33  1  0  0  0  0
 18 19  2  0  0  0  0
 18 34  1  0  0  0  0
 19 20  1  0  0  0  0
 19 35  1  0  0  0  0
M  END
> <s_m_source_file>
AV-unprocessed.smi

> <i_m_source_file_index>
2804

> <i_lp_mmshare_version>
43012

> <i_f3d_flags>
0

> <s_epik_input>
W2NIXTFbY0hdW2NIXVtjSF1jKGMxMiluKFtDSDJdW0NIMl1bQ0gzXSljKD1PKW4yW0NIMl1bQ0BIXShbT0hdKUMoRikoRilG

> <s_epik_cmdline>
J2VwaWtfcHl0aG9uJywgJy1waCcsICc3LjAnLCAnLXRuJywgJzgnLCAnLW1hJywgJzIwMCcsICctbWV0YWxfYmluZGluZycsICctaW1hZScsICc8aW5maWxlLm1hZT4nLCAnLW9tYWUnLCAnPG91dGZpbGUubWFlPic=

> <r_epik_Ionization_Penalty>
0.0117937

> <r_epik_Ionization_Penalty_Charging>
3.30828e-09

> <r_epik_Ionization_Penalty_Neutral>
0.0117937

> <r_epik_State_Penalty>
0.00909547

> <r_epik_Charging_Adjusted_Penalty>
0.00909547

> <i_epik_Tot_Q>
0

> <i_epik_Tot_abs_Q>
0

> <r_epik_Metal_State_Penalty>
0.00909547

> <b_epik_Metal_Only>
0

> <s_lp_Force_Field>
OPLS_2005

> <r_lp_Energy>
49.0105

> <b_lp_Chiralities_Consistent>
1

> <s_lp_Variant>
AV-unprocessed.smi:2804-2

> <Gold.Version>
5.8.1

> <Gold.Id.Protein>
6NUR|6NUR_protein|mol2

> <Gold.PLP.Fitness>
45.8764

> <Gold.PLP.PLP>
-43.6210

> <Gold.PLP.part.hbond>
-1.6292

> <Gold.PLP.part.metal>
0.0000

> <Gold.PLP.part.buried>
-6.0544

> <Gold.PLP.part.nonpolar>
-36.2372

> <Gold.PLP.part.repulsive>
0.0000

> <Gold.PLP.ligand.clash>
0.0000

> <Gold.PLP.ligand.torsion>
0.4401

> <Gold.PLP.Chemscore.Hbond>
1.0000

> <Gold.PLP.Chemscore.CHOScore>
0.0000

> <Gold.PLP.Chemscore.Metal>
0.0000

> <Gold.Chemscore.Hbonds>
donor molecule, donor type, donor heavy atom, donor atom, acceptor molecule, acceptor atom, score
      P1  H  7997  8010       L1    10  1.00

> <Gold.PLP.Chemscore.Internal.Correction>
0.1357

> <Gold.Rescore>
     Score         DG    S(hbond)    S(metal)    S(lipo)     H(rot)  DE(clash)    DE(int)     intcor
     13.92     -15.79       0.99        0.00     110.46       2.32       0.00       1.87       ----

> <Gold.Chemscore.Fitness>
13.9180

> <Gold.Chemscore.DG>
-15.7911

> <Gold.Chemscore.ZeroCoef>
-5.4800

> <Gold.Chemscore.Hbond>
0.9922

> <Gold.Chemscore.Metal>
0.0000

> <Gold.Chemscore.Lipo>
110.4617

> <Gold.Chemscore.Internal_Hbond>
0.0000

> <Gold.Chemscore.DEClash>
0.0009

> <Gold.Chemscore.DEInternal>
1.8722

> <Gold.Chemscore.Rot>
2.3152

> <Gold.Chemscore.Internal.Correction>
   9.000000E+99

> <Gold.Chemscore.Hbonds>
donor molecule, donor type, donor heavy atom, donor atom, acceptor molecule, acceptor atom, score
      P1  H  7997  8010       L1    10  0.96

> <Gold.Chemscore.Hbond.Weighted>
-3.3139

> <Gold.Chemscore.Metal.Weighted>
-0.0000

> <Gold.Chemscore.Lipo.Weighted>
-12.9240

> <Gold.Chemscore.Internal_Hbond.Weighted>
0.0000

> <Gold.Chemscore.DEClash.Weighted>
0.0009

> <Gold.Chemscore.DEInternal.Weighted>
1.8722

> <Gold.Chemscore.Rot.Weighted>
5.9268

> <Gold.Chemscore.Internal.Correction.Weighted>
   9.000000E+99

> <Gold.Protein.RotatedTorsions>
[ 6907 6896 6895 6894 ] final -122.39 input  -60.11 | X-H torsion
[ 7974 7965 7964 7962 ] final  -18.65 input  175.53 | X-H torsion
[ 8008 7997 7996 7995 ] final  -17.07 input   59.86 | X-H torsion
[ 10167 10162 10161 10158 ] final  -26.81 input  -65.29 | X-H torsion
[ 10718 10713 10712 10709 ] final  -99.09 input   66.30 | X-H torsion
[ 10763 10752 10751 10750 ] final  139.25 input  -60.55 | X-H torsion
[ 11005 11000 10999 10996 ] final  -31.28 input  -57.11 | X-H torsion

> <Gold.Protein.ActiveResidues>
 VAL166  LYS551  ARG553  GLY616  TRP617  ASP618  TYR619  PRO620  LYS621  CYS622 
 ASP623  PHE694  ASN695  SER759  ASP760  ASP761  ALA762  ILE779  LEU786  VAL792 
 PHE793  MET794  SER795  GLU796  ALA797  LYS798  CYS799  TRP800  GLU811  SER814 

> <Gold.Protein.RotatedAtoms>
  150.8571  133.7698  159.3004 H   0  0  0  0  0  0  0  0  0  0  0  0  # atno 6907 bound_to 6896
  151.5352  135.1067  159.9922 H   0  0  0  0  0  0  0  0  0  0  0  0  # atno 6908 bound_to 6896
  152.4598  133.7755  159.6878 H   0  0  0  0  0  0  0  0  0  0  0  0  # atno 6909 bound_to 6896
  146.1881  140.3951  142.8468 H   0  0  0  0  0  0  0  0  0  0  0  0  # atno 7974 bound_to 7965
  154.5005  140.2152  155.9356 H   0  0  0  0  0  0  0  0  0  0  0  0  # atno 8008 bound_to 7997
  156.1427  140.3176  155.8489 H   0  0  0  0  0  0  0  0  0  0  0  0  # atno 8009 bound_to 7997
  155.4089  140.0489  157.3023 H   0  0  0  0  0  0  0  0  0  0  0  0  # atno 8010 bound_to 7997
  140.7281  143.4146  151.1049 H   0  0  0  0  0  0  0  0  0  0  0  0  # atno 10167 bound_to 10162
  156.0125  130.5267  150.6619 H   0  0  0  0  0  0  0  0  0  0  0  0  # atno 10718 bound_to 10713
  153.9030  135.3020  155.3448 H   0  0  0  0  0  0  0  0  0  0  0  0  # atno 10763 bound_to 10752
  154.7661  135.4910  153.9560 H   0  0  0  0  0  0  0  0  0  0  0  0  # atno 10764 bound_to 10752
  153.1234  135.6787  153.9398 H   0  0  0  0  0  0  0  0  0  0  0  0  # atno 10765 bound_to 10752
  140.9455  133.7253  156.1140 H   0  0  0  0  0  0  0  0  0  0  0  0  # atno 11005 bound_to 11000
  144.8435  140.6894  143.6214 LP  0  0  0  0  0  0  0  0  0  0  0  0  # atno 17320 bound_to 7965
  145.3876  139.1623  143.4247 LP  0  0  0  0  0  0  0  0  0  0  0  0  # atno 17321 bound_to 7965
  139.7784  143.8391  152.3133 LP  0  0  0  0  0  0  0  0  0  0  0  0  # atno 17342 bound_to 10162
  139.8334  144.7243  150.9422 LP  0  0  0  0  0  0  0  0  0  0  0  0  # atno 17343 bound_to 10162
  157.4360  131.0855  151.0991 LP  0  0  0  0  0  0  0  0  0  0  0  0  # atno 17370 bound_to 10713
  157.1550  130.6200  149.5593 LP  0  0  0  0  0  0  0  0  0  0  0  0  # atno 17371 bound_to 10713
  140.7676  134.3869  157.5514 LP  0  0  0  0  0  0  0  0  0  0  0  0  # atno 17394 bound_to 11000
  139.8832  134.9001  156.2781 LP  0  0  0  0  0  0  0  0  0  0  0  0  # atno 17395 bound_to 11000

$$$$
