#       Name:                AV-unprocessed.smi:142
#       Creating user name   scv26
#       Creation time:       Thu Mar 26 18:35:01 2020


#       File generated by GOLD software.
#

@<TRIPOS>MOLECULE
AV-unprocessed.smi:142
    60    63     1
SMALL
NO_CHARGES


@<TRIPOS>ATOM
      1 ****        -2.4975   3.0098  -2.2906 C.3            1 S1                 0.0000
      2 ****        -1.9016   1.5958  -2.2840 C.3            1 S1                 0.0000
      3 ****        -0.4552   1.6791  -2.4693 N.am           1 S1                 0.0000
      4 ****         0.3346   0.6553  -2.8280 C.2            1 S1                 0.0000
      5 ****        -0.0954  -0.4561  -3.1375 O.2            1 S1                 0.0000
      6 ****         1.8446   0.9276  -2.8208 C.3            1 S1                 0.0000
      7 ****         2.5728  -0.0818  -2.0220 N.am           1 S1                 0.0000
      8 ****         3.1834  -1.1771  -2.6812 C.2            1 S1                 0.0000
      9 ****         3.1563  -1.2824  -3.9081 O.2            1 S1                 0.0000
     10 ****         3.8221  -2.1576  -1.8107 C.2            1 S1                 0.0000
     11 ****         4.4166  -3.2369  -2.3468 F              1 S1                 0.0000
     12 ****         3.8177  -2.0041  -0.4706 C.2            1 S1                 0.0000
     13 ****         3.2348  -0.9229   0.1612 N.am           1 S1                 0.0000
     14 ****         3.2170  -0.8806   1.6741 C.3            1 S1                 0.0000
     15 ****         3.9035   0.3579   2.2702 C.3            1 S1                 0.0000
     16 ****         3.0279   0.6311   3.4746 C.3            1 S1                 0.0000
     17 ****         1.6494   0.2195   2.9693 C.3            1 S1                 0.0000
     18 ****         1.8896  -0.8963   2.1160 O.3            1 S1                 0.0000
     19 ****         2.5766   0.0609  -0.6127 C.2            1 S1                 0.0000
     20 ****         2.0088   1.0156  -0.0798 O.2            1 S1                 0.0000
     21 ****        -2.2864   0.8450  -1.0118 C.ar           1 S1                 0.0000
     22 ****        -1.5431   1.0021   0.1806 C.ar           1 S1                 0.0000
     23 ****        -1.9021   0.2950   1.3438 C.ar           1 S1                 0.0000
     24 ****        -3.0126  -0.5720   1.3290 C.ar           1 S1                 0.0000
     25 ****        -3.3760  -1.2847   2.4905 C.2            1 S1                 0.0000
     26 ****        -4.4883  -2.1486   2.4687 C.2            1 S1                 0.0000
     27 ****        -5.2399  -2.3026   1.2877 C.2            1 S1                 0.0000
     28 ****        -4.8811  -1.5934   0.1249 C.2            1 S1                 0.0000
     29 ****        -3.7683  -0.7271   0.1404 C.ar           1 S1                 0.0000
     30 ****        -3.4036  -0.0169  -1.0219 C.ar           1 S1                 0.0000
     31 ****        -3.5849   2.9762  -2.2167 H              1 S1                 0.0000
     32 ****        -2.2466   3.5384  -3.2108 H              1 S1                 0.0000
     33 ****        -2.1257   3.6024  -1.4539 H              1 S1                 0.0000
     34 ****        -2.3173   1.0576  -3.1381 H              1 S1                 0.0000
     35 ****        -0.0163   2.5587  -2.2394 H              1 S1                 0.0000
     36 ****         2.1885   0.9643  -3.8550 H              1 S1                 0.0000
     37 ****         2.0450   1.9295  -2.4362 H              1 S1                 0.0000
     38 ****         4.2973  -2.7651   0.1276 H              1 S1                 0.0000
     39 ****         3.6926  -1.8042   2.0065 H              1 S1                 0.0000
     40 ****         4.9410   0.1426   2.5263 H              1 S1                 0.0000
     41 ****         3.8837   1.2012   1.5815 H              1 S1                 0.0000
     42 ****         3.3266  -0.0078   4.3066 H              1 S1                 0.0000
     43 ****         3.0679   1.6685   3.8072 H              1 S1                 0.0000
     44 ****         0.9675  -0.0409   3.7789 H              1 S1                 0.0000
     45 ****         1.1941   1.0270   2.3957 H              1 S1                 0.0000
     46 ****        -0.6907   1.6644   0.2102 H              1 S1                 0.0000
     47 ****        -1.3211   0.4217   2.2454 H              1 S1                 0.0000
     48 ****        -2.8052  -1.1724   3.4008 H              1 S1                 0.0000
     49 ****        -4.7653  -2.6940   3.3589 H              1 S1                 0.0000
     50 ****        -6.0924  -2.9656   1.2737 H              1 S1                 0.0000
     51 ****        -5.4622  -1.7184  -0.7771 H              1 S1                 0.0000
     52 ****        -3.9790  -0.1381  -1.9285 H              1 S1                 0.0000
     53 ****        -1.0799  -0.6313  -3.1294 LP             1 S1                 0.0000
     54 ****         0.5398  -1.1835  -3.3969 LP             1 S1                 0.0000
     55 ****         2.6966  -0.5863  -4.4596 LP             1 S1                 0.0000
     56 ****         3.5939  -2.0640  -4.3526 LP             1 S1                 0.0000
     57 ****         1.7180  -1.7425   2.6205 LP             1 S1                 0.0000
     58 ****         1.2769  -0.8484   1.3272 LP             1 S1                 0.0000
     59 ****         1.5407   1.6968  -0.6428 LP             1 S1                 0.0000
     60 ****         2.0159   1.1094   0.9158 LP             1 S1                 0.0000
@<TRIPOS>BOND
    1    1    2 1     
    2    1   31 1     
    3    1   32 1     
    4    1   33 1     
    5    2    3 1     
    6    2   21 1     
    7    2   34 1     
    8    3    4 am    
    9    3   35 1     
   10    4    5 2     
   11    4    6 1     
   12    6    7 1     
   13    6   36 1     
   14    6   37 1     
   15    7   19 am    
   16    7    8 am    
   17    8    9 2     
   18    8   10 1     
   19   10   11 1     
   20   10   12 2     
   21   12   13 1     
   22   12   38 1     
   23   13   14 1     
   24   13   19 am    
   25   14   18 1     
   26   14   15 1     
   27   14   39 1     
   28   15   16 1     
   29   15   40 1     
   30   15   41 1     
   31   16   17 1     
   32   16   42 1     
   33   16   43 1     
   34   17   18 1     
   35   17   44 1     
   36   17   45 1     
   37   19   20 2     
   38   21   30 ar    
   39   21   22 ar    
   40   22   23 ar    
   41   22   46 1     
   42   23   24 ar    
   43   23   47 1     
   44   24   29 ar    
   45   24   25 1     
   46   25   26 2     
   47   25   48 1     
   48   26   27 1     
   49   26   49 1     
   50   27   28 2     
   51   27   50 1     
   52   28   29 1     
   53   28   51 1     
   54   29   30 ar    
   55   30   52 1     
   56    5   53 1     
   57    5   54 1     
   58    9   55 1     
   59    9   56 1     
   60   18   57 1     
   61   18   58 1     
   62   20   59 1     
   63   20   60 1     
@<TRIPOS>SUBSTRUCTURE
      1 S1             1
@<TRIPOS>SET
LONE_PAIRS      STATIC     ATOMS    <user>   **** ""
8 53 54 55 56 57 58 59 60
DONOR_HYDROGENS      STATIC     ATOMS    <user>   **** ""
1 35
ATOM$BLUE        STATIC     ATOMS    COLORGROUP SYSTEM
8 53 54 55 56 57 58 59 60
ATOM$RED        STATIC     ATOMS    COLORGROUP SYSTEM
1 35
