AV-unprocessed.smi:3218|AV-procd|sdf|12294|dock3
  -GOLD-   2272018133D 1   1.00000     0.00000
 Structure written by MMmdl.
 37 38  0  0  0  0  0  0  0  0  1 V2000
  144.4880  133.8393  150.1832 C   0  0  0  0  0  0  0  0  0  0  0  0
  144.5136  134.9732  151.1672 C   0  0  0  0  0  0  0  0  0  0  0  0
  143.4427  135.4532  151.9740 C   0  0  0  0  0  0  0  0  0  0  0  0
  143.7917  136.4759  152.7374 N   0  0  0  0  0  0  0  0  0  0  0  0
  145.0938  136.6825  152.4483 N   0  0  0  0  0  0  0  0  0  0  0  0
  145.8170  137.7525  153.1067 C   0  0  0  0  0  0  0  0  0  0  0  0
  146.5379  138.6473  152.0898 C   0  0  0  0  0  0  0  0  0  0  0  0
  147.8575  138.9942  152.5904 N   0  0  0  0  0  0  0  0  0  0  0  0
  147.7339  139.7293  153.8377 C   0  0  0  0  0  0  0  0  0  0  0  0
  148.7909  140.8428  153.8876 C   0  0  0  0  0  0  0  0  0  0  0  0
  149.4289  140.9045  155.1987 N   0  0  0  0  0  0  0  0  0  0  0  0
  148.7371  141.4878  156.3359 C   0  0  0  0  0  0  0  0  0  0  0  0
  149.7995  141.5800  157.4405 C   0  0  0  0  0  0  0  0  0  0  0  0
  150.9542  140.6832  156.9808 C   0  0  0  0  0  0  0  0  0  0  0  0
  150.6419  140.4358  155.5146 C   0  0  0  0  0  0  0  0  0  0  0  0
  151.4260  139.8760  154.7496 O   0  0  0  0  0  0  0  0  0  0  0  0
  145.5552  135.7913  151.5031 C   0  0  0  0  0  0  0  0  0  0  0  0
  143.8508  133.0234  150.5246 H   0  0  0  0  0  0  0  0  0  0  0  0
  145.4820  133.4228  150.0188 H   0  0  0  0  0  0  0  0  0  0  0  0
  144.1083  134.1596  149.2130 H   0  0  0  0  0  0  0  0  0  0  0  0
  142.4264  135.0913  152.0257 H   0  0  0  0  0  0  0  0  0  0  0  0
  145.1134  138.3357  153.7033 H   0  0  0  0  0  0  0  0  0  0  0  0
  146.5319  137.3091  153.8013 H   0  0  0  0  0  0  0  0  0  0  0  0
  146.6309  138.1277  151.1350 H   0  0  0  0  0  0  0  0  0  0  0  0
  145.9619  139.5570  151.9145 H   0  0  0  0  0  0  0  0  0  0  0  0
  148.3437  139.5602  151.9095 H   0  0  0  0  0  0  0  0  0  0  0  0
  146.7315  140.1530  153.9131 H   0  0  0  0  0  0  0  0  0  0  0  0
  147.8683  139.0495  154.6804 H   0  0  0  0  0  0  0  0  0  0  0  0
  149.5521  140.6721  153.1247 H   0  0  0  0  0  0  0  0  0  0  0  0
  148.3372  141.8093  153.6606 H   0  0  0  0  0  0  0  0  0  0  0  0
  148.3215  142.4661  156.0906 H   0  0  0  0  0  0  0  0  0  0  0  0
  147.9181  140.8320  156.6341 H   0  0  0  0  0  0  0  0  0  0  0  0
  150.1482  142.6091  157.5378 H   0  0  0  0  0  0  0  0  0  0  0  0
  149.4034  141.2750  158.4096 H   0  0  0  0  0  0  0  0  0  0  0  0
  151.9258  141.1615  157.1084 H   0  0  0  0  0  0  0  0  0  0  0  0
  150.9571  139.7328  157.5156 H   0  0  0  0  0  0  0  0  0  0  0  0
  146.5757  135.8147  151.1496 H   0  0  0  0  0  0  0  0  0  0  0  0
  1  2  1  0  0  0  0
  1 18  1  0  0  0  0
  1 19  1  0  0  0  0
  1 20  1  0  0  0  0
  2 17  2  0  0  0  0
  2  3  1  0  0  0  0
  3  4  2  0  0  0  0
  3 21  1  0  0  0  0
  4  5  1  0  0  0  0
  5  6  1  0  0  0  0
  5 17  1  0  0  0  0
  6  7  1  0  0  0  0
  6 22  1  0  0  0  0
  6 23  1  0  0  0  0
  7  8  1  0  0  0  0
  7 24  1  0  0  0  0
  7 25  1  0  0  0  0
  8  9  1  0  0  0  0
  8 26  1  0  0  0  0
  9 10  1  0  0  0  0
  9 27  1  0  0  0  0
  9 28  1  0  0  0  0
 10 11  1  0  0  0  0
 10 29  1  0  0  0  0
 10 30  1  0  0  0  0
 11 15  1  0  0  0  0
 11 12  1  0  0  0  0
 12 13  1  0  0  0  0
 12 31  1  0  0  0  0
 12 32  1  0  0  0  0
 13 14  1  0  0  0  0
 13 33  1  0  0  0  0
 13 34  1  0  0  0  0
 14 15  1  0  0  0  0
 14 35  1  0  0  0  0
 14 36  1  0  0  0  0
 15 16  2  0  0  0  0
 17 37  1  0  0  0  0
M  END
> <s_m_source_file>
AV-unprocessed.smi

> <i_m_source_file_index>
3218

> <i_lp_mmshare_version>
43012

> <i_f3d_flags>
0

> <s_epik_input>
W0NIM11jMVtjSF1ubihbY0hdMSlbQ0gyXVtDSDJdW05IXVtDSDJdW0NIMl1OMltDSDJdW0NIMl1bQ0gyXUMyPU8=

> <s_epik_cmdline>
J2VwaWtfcHl0aG9uJywgJy1waCcsICc3LjAnLCAnLXRuJywgJzgnLCAnLW1hJywgJzIwMCcsICctbWV0YWxfYmluZGluZycsICctaW1hZScsICc8aW5maWxlLm1hZT4nLCAnLW9tYWUnLCAnPG91dGZpbGUubWFlPic=

> <r_lp_tautomer_probability>
1

> <r_epik_Ionization_Penalty>
2.53806

> <r_epik_Ionization_Penalty_Charging>
0

> <r_epik_Ionization_Penalty_Neutral>
2.53806

> <r_epik_State_Penalty>
2.70334

> <r_epik_Charging_Adjusted_Penalty>
2.70334

> <i_epik_Tot_Q>
0

> <i_epik_Tot_abs_Q>
0

> <r_epik_Metal_State_Penalty>
2.70114

> <b_epik_Metal_Only>
0

> <s_lp_Force_Field>
OPLS_2005

> <r_lp_Energy>
17.5506

> <b_lp_Chiralities_Consistent>
1

> <s_lp_Variant>
AV-unprocessed.smi:3218-2

> <Gold.Version>
5.8.1

> <Gold.Id.Protein>
6NUR|6NUR_protein|mol2

> <Gold.PLP.Fitness>
39.2479

> <Gold.PLP.PLP>
-32.4985

> <Gold.PLP.part.hbond>
-2.7759

> <Gold.PLP.part.metal>
0.0000

> <Gold.PLP.part.buried>
-3.2302

> <Gold.PLP.part.nonpolar>
-27.5094

> <Gold.PLP.part.repulsive>
0.2071

> <Gold.PLP.ligand.clash>
0.0000

> <Gold.PLP.ligand.torsion>
1.1625

> <Gold.PLP.Chemscore.Hbond>
2.0000

> <Gold.PLP.Chemscore.CHOScore>
1.0000

> <Gold.PLP.Chemscore.Metal>
0.0000

> <Gold.Chemscore.Hbonds>
donor molecule, donor type, donor heavy atom, donor atom, acceptor molecule, acceptor atom, score
      L1  H     8    26       P1  7957  0.98
      P1  H  7989  7998       L1    16  1.00
      L1  C    17    37       P1  7948  1.00

> <Gold.PLP.Chemscore.Internal.Correction>
0.0742

> <Gold.Rescore>
     Score         DG    S(hbond)    S(metal)    S(lipo)     H(rot)  DE(clash)    DE(int)     intcor
     13.18     -14.24       1.96        0.00      61.50       1.95       0.02       1.04       ----

> <Gold.Chemscore.Fitness>
13.1786

> <Gold.Chemscore.DG>
-14.2362

> <Gold.Chemscore.ZeroCoef>
-5.4800

> <Gold.Chemscore.Hbond>
1.9590

> <Gold.Chemscore.Metal>
0.0000

> <Gold.Chemscore.Lipo>
61.5005

> <Gold.Chemscore.Internal_Hbond>
0.0000

> <Gold.Chemscore.DEClash>
0.0174

> <Gold.Chemscore.DEInternal>
1.0402

> <Gold.Chemscore.Rot>
1.9463

> <Gold.Chemscore.Internal.Correction>
   9.000000E+99

> <Gold.Chemscore.Hbonds>
donor molecule, donor type, donor heavy atom, donor atom, acceptor molecule, acceptor atom, score
      L1  H     8    26       P1  7957  0.90
      P1  H  7989  7998       L1    16  0.60

> <Gold.Chemscore.Hbond.Weighted>
-6.5431

> <Gold.Chemscore.Metal.Weighted>
-0.0000

> <Gold.Chemscore.Lipo.Weighted>
-7.1956

> <Gold.Chemscore.Internal_Hbond.Weighted>
0.0000

> <Gold.Chemscore.DEClash.Weighted>
0.0174

> <Gold.Chemscore.DEInternal.Weighted>
1.0402

> <Gold.Chemscore.Rot.Weighted>
4.9824

> <Gold.Chemscore.Internal.Correction.Weighted>
   9.000000E+99

> <Gold.Protein.RotatedTorsions>
[ 6907 6896 6895 6894 ] final  153.38 input  -60.11 | X-H torsion
[ 7974 7965 7964 7962 ] final  -21.87 input  175.53 | X-H torsion
[ 8008 7997 7996 7995 ] final   97.28 input   59.86 | X-H torsion
[ 10167 10162 10161 10158 ] final  159.14 input  -65.29 | X-H torsion
[ 10718 10713 10712 10709 ] final  100.73 input   66.30 | X-H torsion
[ 10763 10752 10751 10750 ] final  118.49 input  -60.55 | X-H torsion
[ 11005 11000 10999 10996 ] final -132.58 input  -57.11 | X-H torsion

> <Gold.Protein.ActiveResidues>
 VAL166  LYS551  ARG553  GLY616  TRP617  ASP618  TYR619  PRO620  LYS621  CYS622 
 ASP623  PHE694  ASN695  SER759  ASP760  ASP761  ALA762  ILE779  LEU786  VAL792 
 PHE793  MET794  SER795  GLU796  ALA797  LYS798  CYS799  TRP800  GLU811  SER814 

> <Gold.Protein.RotatedAtoms>
  152.0734  133.4118  159.4469 H   0  0  0  0  0  0  0  0  0  0  0  0  # atno 6907 bound_to 6896
  150.6863  134.3065  159.4737 H   0  0  0  0  0  0  0  0  0  0  0  0  # atno 6908 bound_to 6896
  152.0899  134.9414  160.0622 H   0  0  0  0  0  0  0  0  0  0  0  0  # atno 6909 bound_to 6896
  146.1708  140.4401  142.8533 H   0  0  0  0  0  0  0  0  0  0  0  0  # atno 7974 bound_to 7965
  156.0885  140.3260  155.7785 H   0  0  0  0  0  0  0  0  0  0  0  0  # atno 8008 bound_to 7997
  155.5035  140.0571  157.2952 H   0  0  0  0  0  0  0  0  0  0  0  0  # atno 8009 bound_to 7997
  154.4623  140.1973  156.0226 H   0  0  0  0  0  0  0  0  0  0  0  0  # atno 8010 bound_to 7997
  139.4830  144.4758  151.8513 H   0  0  0  0  0  0  0  0  0  0  0  0  # atno 10167 bound_to 10162
  157.6847  131.0706  150.5145 H   0  0  0  0  0  0  0  0  0  0  0  0  # atno 10718 bound_to 10713
  153.5685  135.3507  155.2828 H   0  0  0  0  0  0  0  0  0  0  0  0  # atno 10763 bound_to 10752
  154.8685  135.4153  154.2752 H   0  0  0  0  0  0  0  0  0  0  0  0  # atno 10764 bound_to 10752
  153.3513  135.7055  153.6856 H   0  0  0  0  0  0  0  0  0  0  0  0  # atno 10765 bound_to 10752
  140.9157  134.1510  157.4354 H   0  0  0  0  0  0  0  0  0  0  0  0  # atno 11005 bound_to 11000
  144.8160  140.6469  143.6384 LP  0  0  0  0  0  0  0  0  0  0  0  0  # atno 17320 bound_to 7965
  145.4345  139.1544  143.4004 LP  0  0  0  0  0  0  0  0  0  0  0  0  # atno 17321 bound_to 7965
  140.4230  144.2218  150.5887 LP  0  0  0  0  0  0  0  0  0  0  0  0  # atno 17342 bound_to 10162
  140.4855  143.2365  151.8894 LP  0  0  0  0  0  0  0  0  0  0  0  0  # atno 17343 bound_to 10162
  156.5461  130.4220  149.6130 LP  0  0  0  0  0  0  0  0  0  0  0  0  # atno 17370 bound_to 10713
  156.2943  130.7141  151.1998 LP  0  0  0  0  0  0  0  0  0  0  0  0  # atno 17371 bound_to 10713
  139.8765  134.9953  156.5735 LP  0  0  0  0  0  0  0  0  0  0  0  0  # atno 17394 bound_to 11000
  140.8053  133.8473  155.8762 LP  0  0  0  0  0  0  0  0  0  0  0  0  # atno 17395 bound_to 11000

$$$$
