AV-unprocessed.smi:2849|AV-procd|sdf|10959|dock2
  -GOLD-   2272015413D 1   1.00000     0.00000
 Structure written by MMmdl.
 55 58  0  0  0  0  0  0  0  0  2 V2000
  156.0017  132.5173  166.5962 C   0  0  0  0  0  0  0  0  0  0  0  0
  155.7437  133.5750  165.5903 N   0  3  2  0  0  0  0  0  0  0  0  0
  154.3177  133.9513  165.4315 C   0  0  2  0  0  0  0  0  0  0  0  0
  153.5080  132.8159  164.7557 C   0  0  0  0  0  0  0  0  0  0  0  0
  154.1237  132.3073  163.4386 C   0  0  0  0  0  0  0  0  0  0  0  0
  155.6563  132.1696  163.5182 C   0  0  0  0  0  0  0  0  0  0  0  0
  156.3584  133.3348  164.2619 C   0  0  1  0  0  0  0  0  0  0  0  0
  156.4010  134.6705  163.4836 C   0  0  0  0  0  0  0  0  0  0  0  0
  155.0397  135.4002  163.3900 C   0  0  2  0  0  0  0  0  0  0  0  0
  155.2685  136.7973  163.0262 N   0  0  0  0  0  0  0  0  0  0  0  0
  154.3851  137.5891  162.4004 C   0  0  0  0  0  0  0  0  0  0  0  0
  153.2606  137.2152  162.0701 O   0  0  0  0  0  0  0  0  0  0  0  0
  154.8988  138.8137  162.1903 N   0  0  0  0  0  0  0  0  0  0  0  0
  154.3235  139.9353  161.5303 C   0  0  0  0  0  0  0  0  0  0  0  0
  153.5382  139.8732  160.3547 C   0  0  0  0  0  0  0  0  0  0  0  0
  153.0314  141.0678  159.8076 C   0  0  0  0  0  0  0  0  0  0  0  0
  153.3132  142.2965  160.4500 C   0  0  0  0  0  0  0  0  0  0  0  0
  152.8365  143.5153  159.9289 N   0  0  0  0  0  0  0  0  0  0  0  0
  152.3826  144.5995  160.7854 C   0  0  0  0  0  0  0  0  0  0  0  0
  151.8932  145.6750  159.8171 C   0  0  0  0  0  0  0  0  0  0  0  0
  151.3613  144.8632  158.6352 C   0  0  0  0  0  0  0  0  0  0  0  0
  152.2612  143.6223  158.5958 C   0  0  0  0  0  0  0  0  0  0  0  0
  154.0601  142.3538  161.5775 N   0  0  0  0  0  0  0  0  0  0  0  0
  154.5436  141.2068  162.0973 C   0  0  0  0  0  0  0  0  0  0  0  0
  154.2373  135.3192  164.7143 C   0  0  0  0  0  0  0  0  0  0  0  0
  155.5586  131.5619  166.3169 H   0  0  0  0  0  0  0  0  0  0  0  0
  155.5947  132.8072  167.5654 H   0  0  0  0  0  0  0  0  0  0  0  0
  157.0741  132.3672  166.7219 H   0  0  0  0  0  0  0  0  0  0  0  0
  153.8988  134.0988  166.4282 H   0  0  0  0  0  0  0  0  0  0  0  0
  153.4338  131.9768  165.4478 H   0  0  0  0  0  0  0  0  0  0  0  0
  152.4809  133.1384  164.5828 H   0  0  0  0  0  0  0  0  0  0  0  0
  153.6855  131.3423  163.1825 H   0  0  0  0  0  0  0  0  0  0  0  0
  153.8433  132.9577  162.6144 H   0  0  0  0  0  0  0  0  0  0  0  0
  155.8906  131.2355  164.0295 H   0  0  0  0  0  0  0  0  0  0  0  0
  156.0693  132.0604  162.5148 H   0  0  0  0  0  0  0  0  0  0  0  0
  157.3959  133.0378  164.4236 H   0  0  0  0  0  0  0  0  0  0  0  0
  157.1114  135.3231  163.9944 H   0  0  0  0  0  0  0  0  0  0  0  0
  156.8105  134.5134  162.4848 H   0  0  0  0  0  0  0  0  0  0  0  0
  154.4624  134.9480  162.5871 H   0  0  0  0  0  0  0  0  0  0  0  0
  156.1704  137.1870  163.2584 H   0  0  0  0  0  0  0  0  0  0  0  0
  155.8476  138.9501  162.5075 H   0  0  0  0  0  0  0  0  0  0  0  0
  153.3063  138.9449  159.8581 H   0  0  0  0  0  0  0  0  0  0  0  0
  152.4419  141.0240  158.9040 H   0  0  0  0  0  0  0  0  0  0  0  0
  151.5654  144.2464  161.4158 H   0  0  0  0  0  0  0  0  0  0  0  0
  153.1820  144.9696  161.4284 H   0  0  0  0  0  0  0  0  0  0  0  0
  151.1434  146.3327  160.2577 H   0  0  0  0  0  0  0  0  0  0  0  0
  152.7337  146.2899  159.4922 H   0  0  0  0  0  0  0  0  0  0  0  0
  150.3325  144.5617  158.8363 H   0  0  0  0  0  0  0  0  0  0  0  0
  151.3689  145.4206  157.6982 H   0  0  0  0  0  0  0  0  0  0  0  0
  153.0678  143.7516  157.8735 H   0  0  0  0  0  0  0  0  0  0  0  0
  151.6904  142.7350  158.3201 H   0  0  0  0  0  0  0  0  0  0  0  0
  155.1319  141.3110  162.9974 H   0  0  0  0  0  0  0  0  0  0  0  0
  153.1959  135.5917  164.5394 H   0  0  0  0  0  0  0  0  0  0  0  0
  154.6265  136.0724  165.4017 H   0  0  0  0  0  0  0  0  0  0  0  0
  156.2027  134.3952  165.9600 H   0  0  0  0  0  0  0  0  0  0  0  0
  1  2  1  0  0  0  0
  1 26  1  0  0  0  0
  1 27  1  0  0  0  0
  1 28  1  0  0  0  0
  2  7  1  0  0  0  0
  2  3  1  0  0  0  0
  2 55  1  0  0  0  0
  3 25  1  0  0  0  0
  3  4  1  0  0  0  0
  3 29  1  0  0  0  0
  4  5  1  0  0  0  0
  4 30  1  0  0  0  0
  4 31  1  0  0  0  0
  5  6  1  0  0  0  0
  5 32  1  0  0  0  0
  5 33  1  0  0  0  0
  6  7  1  0  0  0  0
  6 34  1  0  0  0  0
  6 35  1  0  0  0  0
  7  8  1  0  0  0  0
  7 36  1  0  0  0  0
  8  9  1  0  0  0  0
  8 37  1  0  0  0  0
  8 38  1  0  0  0  0
  9 10  1  0  0  0  0
  9 25  1  0  0  0  0
  9 39  1  0  0  0  0
 10 11  1  0  0  0  0
 10 40  1  0  0  0  0
 11 12  2  0  0  0  0
 11 13  1  0  0  0  0
 13 14  1  0  0  0  0
 13 41  1  0  0  0  0
 14 24  1  0  0  0  0
 14 15  2  0  0  0  0
 15 16  1  0  0  0  0
 15 42  1  0  0  0  0
 16 17  2  0  0  0  0
 16 43  1  0  0  0  0
 17 18  1  0  0  0  0
 17 23  1  0  0  0  0
 18 22  1  0  0  0  0
 18 19  1  0  0  0  0
 19 20  1  0  0  0  0
 19 44  1  0  0  0  0
 19 45  1  0  0  0  0
 20 21  1  0  0  0  0
 20 46  1  0  0  0  0
 20 47  1  0  0  0  0
 21 22  1  0  0  0  0
 21 48  1  0  0  0  0
 21 49  1  0  0  0  0
 22 50  1  0  0  0  0
 22 51  1  0  0  0  0
 23 24  2  0  0  0  0
 24 52  1  0  0  0  0
 25 53  1  0  0  0  0
 25 54  1  0  0  0  0
M  CHG  1   2   1
M  END
> <s_m_source_file>
AV-unprocessed.smi

> <i_m_source_file_index>
2849

> <i_lp_mmshare_version>
43012

> <i_f3d_flags>
0

> <s_epik_input>
W0NIMl0xW0NIMl1bQ0gyXVtDQEhdKE4oW0NIM10pW0NIXTEyKVtDSDJdW0NASF0oW0NIMl0yKVtOSF1DKD1PKVtOSF1jM1tjSF1bY0hdYyhuW2NIXTMpTjRbQ0gyXVtDSDJdW0NIMl1bQ0gyXTQ=

> <s_epik_cmdline>
J2VwaWtfcHl0aG9uJywgJy1waCcsICc3LjAnLCAnLXRuJywgJzgnLCAnLW1hJywgJzIwMCcsICctbWV0YWxfYmluZGluZycsICctaW1hZScsICc8aW5maWxlLm1hZT4nLCAnLW9tYWUnLCAnPG91dGZpbGUubWFlPic=

> <r_lp_tautomer_probability>
1

> <r_epik_Ionization_Penalty>
0.07954

> <r_epik_Ionization_Penalty_Charging>
0.00089841

> <r_epik_Ionization_Penalty_Neutral>
0.0786416

> <r_epik_State_Penalty>
0.0689917

> <r_epik_Charging_Adjusted_Penalty>
0.0698901

> <i_epik_Tot_Q>
1

> <i_epik_Tot_abs_Q>
1

> <r_epik_Metal_State_Penalty>
0.060891

> <b_epik_Metal_Only>
0

> <s_lp_Force_Field>
OPLS_2005

> <r_lp_Energy>
61.678

> <b_lp_Chiralities_Consistent>
1

> <s_lp_Variant>
AV-unprocessed.smi:2849-3

> <Gold.Version>
5.8.1

> <Gold.Id.Protein>
6NUR|6NUR_protein|mol2

> <Gold.PLP.Fitness>
48.1630

> <Gold.PLP.PLP>
-49.9134

> <Gold.PLP.part.hbond>
-0.6722

> <Gold.PLP.part.metal>
0.0000

> <Gold.PLP.part.buried>
-3.3862

> <Gold.PLP.part.nonpolar>
-45.5950

> <Gold.PLP.part.repulsive>
0.0139

> <Gold.PLP.ligand.clash>
0.0000

> <Gold.PLP.ligand.torsion>
0.9499

> <Gold.PLP.Chemscore.Hbond>
0.0000

> <Gold.PLP.Chemscore.CHOScore>
0.0000

> <Gold.PLP.Chemscore.Metal>
0.0000

> <Gold.PLP.Chemscore.Internal.Correction>
0.1494

> <Gold.Rescore>
     Score         DG    S(hbond)    S(metal)    S(lipo)     H(rot)  DE(clash)    DE(int)     intcor
     17.67     -18.48       0.00        0.00     133.03       1.00       0.14       0.67       ----

> <Gold.Chemscore.Fitness>
17.6688

> <Gold.Chemscore.DG>
-18.4841

> <Gold.Chemscore.ZeroCoef>
-5.4800

> <Gold.Chemscore.Hbond>
0.0000

> <Gold.Chemscore.Metal>
0.0000

> <Gold.Chemscore.Lipo>
133.0262

> <Gold.Chemscore.Internal_Hbond>
0.0000

> <Gold.Chemscore.DEClash>
0.1429

> <Gold.Chemscore.DEInternal>
0.6723

> <Gold.Chemscore.Rot>
1.0000

> <Gold.Chemscore.Internal.Correction>
   9.000000E+99

> <Gold.Chemscore.Hbond.Weighted>
-0.0000

> <Gold.Chemscore.Metal.Weighted>
-0.0000

> <Gold.Chemscore.Lipo.Weighted>
-15.5641

> <Gold.Chemscore.Internal_Hbond.Weighted>
0.0000

> <Gold.Chemscore.DEClash.Weighted>
0.1429

> <Gold.Chemscore.DEInternal.Weighted>
0.6723

> <Gold.Chemscore.Rot.Weighted>
2.5600

> <Gold.Chemscore.Internal.Correction.Weighted>
   9.000000E+99

> <Gold.Protein.RotatedTorsions>
[ 6907 6896 6895 6894 ] final   80.34 input  -60.11 | X-H torsion
[ 7974 7965 7964 7962 ] final  130.49 input  175.53 | X-H torsion
[ 8008 7997 7996 7995 ] final   24.93 input   59.86 | X-H torsion
[ 10167 10162 10161 10158 ] final -107.15 input  -65.29 | X-H torsion
[ 10718 10713 10712 10709 ] final -126.82 input   66.30 | X-H torsion
[ 10763 10752 10751 10750 ] final -146.22 input  -60.55 | X-H torsion
[ 11005 11000 10999 10996 ] final  139.37 input  -57.11 | X-H torsion

> <Gold.Protein.ActiveResidues>
 VAL166  LYS551  ARG553  GLY616  TRP617  ASP618  TYR619  PRO620  LYS621  CYS622 
 ASP623  PHE694  ASN695  SER759  ASP760  ASP761  ALA762  ILE779  LEU786  VAL792 
 PHE793  MET794  SER795  GLU796  ALA797  LYS798  CYS799  TRP800  GLU811  SER814 

> <Gold.Protein.RotatedAtoms>
  152.5231  134.3373  159.9204 H   0  0  0  0  0  0  0  0  0  0  0  0  # atno 6907 bound_to 6896
  151.3322  133.3989  159.2671 H   0  0  0  0  0  0  0  0  0  0  0  0  # atno 6908 bound_to 6896
  150.9871  134.9232  159.7936 H   0  0  0  0  0  0  0  0  0  0  0  0  # atno 6909 bound_to 6896
  145.0174  139.4163  143.5214 H   0  0  0  0  0  0  0  0  0  0  0  0  # atno 7974 bound_to 7965
  155.0039  140.3128  155.4856 H   0  0  0  0  0  0  0  0  0  0  0  0  # atno 8008 bound_to 7997
  156.2920  140.2227  156.5091 H   0  0  0  0  0  0  0  0  0  0  0  0  # atno 8009 bound_to 7997
  154.7594  140.0460  157.0949 H   0  0  0  0  0  0  0  0  0  0  0  0  # atno 8010 bound_to 7997
  140.1800  143.3974  152.1288 H   0  0  0  0  0  0  0  0  0  0  0  0  # atno 10167 bound_to 10162
  156.1800  130.6725  151.0292 H   0  0  0  0  0  0  0  0  0  0  0  0  # atno 10718 bound_to 10713
  154.8346  135.3392  154.6628 H   0  0  0  0  0  0  0  0  0  0  0  0  # atno 10763 bound_to 10752
  153.7244  135.6956  153.5009 H   0  0  0  0  0  0  0  0  0  0  0  0  # atno 10764 bound_to 10752
  153.2358  135.4401  155.0597 H   0  0  0  0  0  0  0  0  0  0  0  0  # atno 10765 bound_to 10752
  140.0250  134.9379  157.0550 H   0  0  0  0  0  0  0  0  0  0  0  0  # atno 11005 bound_to 11000
  146.3480  139.9653  142.8712 LP  0  0  0  0  0  0  0  0  0  0  0  0  # atno 17320 bound_to 7965
  145.1941  140.9825  143.4194 LP  0  0  0  0  0  0  0  0  0  0  0  0  # atno 17321 bound_to 7965
  139.5300  144.7148  151.5090 LP  0  0  0  0  0  0  0  0  0  0  0  0  # atno 17342 bound_to 10162
  140.6526  143.8666  150.6801 LP  0  0  0  0  0  0  0  0  0  0  0  0  # atno 17343 bound_to 10162
  157.6861  131.0824  150.7237 LP  0  0  0  0  0  0  0  0  0  0  0  0  # atno 17370 bound_to 10713
  156.7295  130.4705  149.5503 LP  0  0  0  0  0  0  0  0  0  0  0  0  # atno 17371 bound_to 10713
  140.4322  134.1768  155.7169 LP  0  0  0  0  0  0  0  0  0  0  0  0  # atno 17394 bound_to 11000
  141.1797  133.8440  157.1301 LP  0  0  0  0  0  0  0  0  0  0  0  0  # atno 17395 bound_to 11000

$$$$
