AV-unprocessed.smi:54|AV-procd|sdf|539|dock1
  -GOLD-   2262016423D 1   1.00000     0.00000
 Structure written by MMmdl.
 44 46  0  0  0  0  0  0  0  0  1 V2000
  153.1557  141.8749  161.4985 C   0  0  0  0  0  0  0  0  0  0  0  0
  153.5424  142.1970  160.0458 C   0  0  0  0  0  0  0  0  0  0  0  0
  152.6240  143.2763  159.4501 C   0  0  0  0  0  0  0  0  0  0  0  0
  153.5128  140.9293  159.1842 C   0  0  0  0  0  0  0  0  0  0  0  0
  154.4264  140.1037  159.2070 O   0  0  0  0  0  0  0  0  0  0  0  0
  152.3349  140.7725  158.3493 N   0  0  0  0  0  0  0  0  0  0  0  0
  152.0553  139.7551  157.5016 C   0  0  0  0  0  0  0  0  0  0  0  0
  150.8880  139.6198  156.8888 N   0  0  0  0  0  0  0  0  0  0  0  0
  150.7980  138.5274  156.0723 C   0  0  0  0  0  0  0  0  0  0  0  0
  151.7791  137.5859  155.8450 C   0  0  0  0  0  0  0  0  0  0  0  0
  151.3200  136.6215  154.9548 N   0  0  0  0  0  0  0  0  0  0  0  0
  150.1048  137.0024  154.6738 C   0  0  0  0  0  0  0  0  0  0  0  0
  149.7139  138.1608  155.3053 N   0  0  0  0  0  0  0  0  0  0  0  0
  148.4130  138.9026  155.2319 C   0  0  2  0  0  0  0  0  0  0  0  0
  147.4819  138.0935  154.5773 O   0  0  0  0  0  0  0  0  0  0  0  0
  147.3151  138.5440  153.2397 C   0  0  1  0  0  0  0  0  0  0  0  0
  146.0125  137.9989  152.6298 C   0  0  0  0  0  0  0  0  0  0  0  0
  145.7400  138.6447  151.4046 O   0  0  0  0  0  0  0  0  0  0  0  0
  147.4430  140.0673  153.3685 C   0  0  1  0  0  0  0  0  0  0  0  0
  146.2301  140.6479  153.8108 O   0  0  0  0  0  0  0  0  0  0  0  0
  148.5267  140.2239  154.4286 C   0  0  2  0  0  0  0  0  0  0  0  0
  149.7849  140.4165  153.8029 O   0  0  0  0  0  0  0  0  0  0  0  0
  153.0458  137.7143  156.5054 C   0  0  0  0  0  0  0  0  0  0  0  0
  154.0257  136.9769  156.4239 O   0  0  0  0  0  0  0  0  0  0  0  0
  153.0997  138.8464  157.3293 N   0  0  0  0  0  0  0  0  0  0  0  0
  148.1192  139.0465  156.2725 H   0  0  0  0  0  0  0  0  0  0  0  0
  148.1608  138.1715  152.6590 H   0  0  0  0  0  0  0  0  0  0  0  0
  147.7112  140.5341  152.4195 H   0  0  0  0  0  0  0  0  0  0  0  0
  148.3391  141.0723  155.0884 H   0  0  0  0  0  0  0  0  0  0  0  0
  153.8016  141.1034  161.9199 H   0  0  0  0  0  0  0  0  0  0  0  0
  152.1255  141.5238  161.5719 H   0  0  0  0  0  0  0  0  0  0  0  0
  153.2482  142.7586  162.1301 H   0  0  0  0  0  0  0  0  0  0  0  0
  154.5622  142.5846  160.0470 H   0  0  0  0  0  0  0  0  0  0  0  0
  152.8986  143.5062  158.4197 H   0  0  0  0  0  0  0  0  0  0  0  0
  152.6912  144.2031  160.0205 H   0  0  0  0  0  0  0  0  0  0  0  0
  151.5797  142.9617  159.4544 H   0  0  0  0  0  0  0  0  0  0  0  0
  151.6420  141.5023  158.4241 H   0  0  0  0  0  0  0  0  0  0  0  0
  149.4701  136.4469  153.9993 H   0  0  0  0  0  0  0  0  0  0  0  0
  146.1130  136.9303  152.4392 H   0  0  0  0  0  0  0  0  0  0  0  0
  145.1671  138.1210  153.3072 H   0  0  0  0  0  0  0  0  0  0  0  0
  144.9252  139.1163  151.4887 H   0  0  0  0  0  0  0  0  0  0  0  0
  145.5427  140.3925  153.2144 H   0  0  0  0  0  0  0  0  0  0  0  0
  149.6714  140.3258  152.8691 H   0  0  0  0  0  0  0  0  0  0  0  0
  153.9650  139.0017  157.8249 H   0  0  0  0  0  0  0  0  0  0  0  0
  1  2  1  0  0  0  0
  1 30  1  0  0  0  0
  1 31  1  0  0  0  0
  1 32  1  0  0  0  0
  2  3  1  0  0  0  0
  2  4  1  0  0  0  0
  2 33  1  0  0  0  0
  3 34  1  0  0  0  0
  3 35  1  0  0  0  0
  3 36  1  0  0  0  0
  4  5  2  0  0  0  0
  4  6  1  0  0  0  0
  6 37  1  0  0  0  0
  6  7  1  0  0  0  0
  7 25  1  0  0  0  0
  7  8  2  0  0  0  0
  8  9  1  0  0  0  0
  9 13  1  0  0  0  0
  9 10  2  0  0  0  0
 10 11  1  0  0  0  0
 10 23  1  0  0  0  0
 11 12  2  0  0  0  0
 12 13  1  0  0  0  0
 12 38  1  0  0  0  0
 13 14  1  0  0  0  0
 14 26  1  0  0  0  0
 14 21  1  0  0  0  0
 14 15  1  0  0  0  0
 15 16  1  0  0  0  0
 16 27  1  0  0  0  0
 16 17  1  0  0  0  0
 16 19  1  0  0  0  0
 17 18  1  0  0  0  0
 17 39  1  0  0  0  0
 17 40  1  0  0  0  0
 18 41  1  0  0  0  0
 19 28  1  0  0  0  0
 19 20  1  0  0  0  0
 19 21  1  0  0  0  0
 20 42  1  0  0  0  0
 21 29  1  0  0  0  0
 21 22  1  0  0  0  0
 22 43  1  0  0  0  0
 23 24  2  0  0  0  0
 23 25  1  0  0  0  0
 25 44  1  0  0  0  0
M  END
> <s_m_source_file>
AV-unprocessed.smi

> <i_m_source_file_index>
54

> <i_lp_mmshare_version>
43012

> <i_f3d_flags>
0

> <s_epik_input>
W0NIM11bQ0hdKFtDSDNdKUMoPU8pW05IXWMobjEpW25IXWMoPU8pYyhjMTIpbltjSF1uMltDQEBIXTNPW0NASF0oW0NIMl1bT0hdKVtDQEBIXShbT0hdKVtDQEhdM1tPSF0=

> <s_epik_cmdline>
J2VwaWtfcHl0aG9uJywgJy1waCcsICc3LjAnLCAnLXRuJywgJzgnLCAnLW1hJywgJzIwMCcsICctbWV0YWxfYmluZGluZycsICctaW1hZScsICc8aW5maWxlLm1hZT4nLCAnLW9tYWUnLCAnPG91dGZpbGUubWFlPic=

> <r_lp_tautomer_probability>
0.85571

> <r_epik_Ionization_Penalty>
0.0316551

> <r_epik_Ionization_Penalty_Charging>
0.0316043

> <r_epik_Ionization_Penalty_Neutral>
5.07097e-05

> <r_epik_State_Penalty>
3.15494e-07

> <r_epik_Charging_Adjusted_Penalty>
0.0316047

> <i_epik_Tot_Q>
0

> <i_epik_Tot_abs_Q>
0

> <r_epik_Metal_State_Penalty>
0.421206

> <b_epik_Metal_Only>
0

> <s_epik_Chemistry_Notes>
This compound contains an acetal/aminal-like group ( X-CH(R)-Y where X, Y are N, S, or O) that may be acid/base labile, releasing an aldehyde.

> <s_lp_Force_Field>
OPLS_2005

> <r_lp_Energy>
38.2372

> <b_lp_Chiralities_Consistent>
1

> <s_lp_Variant>
AV-unprocessed.smi:54-11

> <Gold.Version>
5.8.1

> <Gold.Id.Protein>
6NUR|6NUR_protein|mol2

> <Gold.PLP.Fitness>
53.4117

> <Gold.PLP.PLP>
-34.8547

> <Gold.PLP.part.hbond>
-7.8081

> <Gold.PLP.part.metal>
0.0000

> <Gold.PLP.part.buried>
-4.2269

> <Gold.PLP.part.nonpolar>
-25.0657

> <Gold.PLP.part.repulsive>
2.0416

> <Gold.PLP.ligand.clash>
0.0000

> <Gold.PLP.ligand.torsion>
0.8985

> <Gold.PLP.Chemscore.Hbond>
5.7105

> <Gold.PLP.Chemscore.CHOScore>
1.0000

> <Gold.PLP.Chemscore.Metal>
0.0000

> <Gold.Chemscore.Hbonds>
donor molecule, donor type, donor heavy atom, donor atom, acceptor molecule, acceptor atom, score
      L1  H    18    41       P1 10175  0.94
      L1  H    20    42       P1 10175  1.00
      L1  H    22    43       P1  7957  1.00
      P1  H  7989  7998       L1    22  0.26
      P1  H  7997  8009       L1     5  0.99
      P1  H 10752 10763       L1    24  0.50
      P1  H 10752 10765       L1    11  1.00
      L1  C    12    38       P1  7948  1.00

> <Gold.PLP.Chemscore.Internal.Correction>
0.2225

> <Gold.Rescore>
     Score         DG    S(hbond)    S(metal)    S(lipo)     H(rot)  DE(clash)    DE(int)     intcor
     16.10     -17.96       4.59        0.00      64.21       4.05       0.84       1.02       ----

> <Gold.Chemscore.Fitness>
16.0992

> <Gold.Chemscore.DG>
-17.9567

> <Gold.Chemscore.ZeroCoef>
-5.4800

> <Gold.Chemscore.Hbond>
4.5899

> <Gold.Chemscore.Metal>
0.0000

> <Gold.Chemscore.Lipo>
64.2109

> <Gold.Chemscore.Internal_Hbond>
0.0000

> <Gold.Chemscore.DEClash>
0.8419

> <Gold.Chemscore.DEInternal>
1.0155

> <Gold.Chemscore.Rot>
4.0493

> <Gold.Chemscore.Internal.Correction>
   9.000000E+99

> <Gold.Chemscore.Hbonds>
donor molecule, donor type, donor heavy atom, donor atom, acceptor molecule, acceptor atom, score
      L1  H    18    41       P1 10175  0.74
      L1  H    20    42       P1 10175  0.90
      L1  H    22    43       P1  7957  1.00
      P1  H  7989  7998       L1    22  0.01
      P1  H  7997  8009       L1     5  0.36
      P1  H 10752 10763       L1    24  0.48
      P1  H 10752 10765       L1    11  0.52

> <Gold.Chemscore.Hbond.Weighted>
-15.3302

> <Gold.Chemscore.Metal.Weighted>
-0.0000

> <Gold.Chemscore.Lipo.Weighted>
-7.5127

> <Gold.Chemscore.Internal_Hbond.Weighted>
0.0000

> <Gold.Chemscore.DEClash.Weighted>
0.8419

> <Gold.Chemscore.DEInternal.Weighted>
1.0155

> <Gold.Chemscore.Rot.Weighted>
10.3662

> <Gold.Chemscore.Internal.Correction.Weighted>
   9.000000E+99

> <Gold.Protein.RotatedTorsions>
[ 6907 6896 6895 6894 ] final -170.32 input  -60.11 | X-H torsion
[ 7974 7965 7964 7962 ] final  -39.24 input  175.53 | X-H torsion
[ 8008 7997 7996 7995 ] final  124.38 input   59.86 | X-H torsion
[ 10167 10162 10161 10158 ] final   63.67 input  -65.29 | X-H torsion
[ 10718 10713 10712 10709 ] final   27.58 input   66.30 | X-H torsion
[ 10763 10752 10751 10750 ] final  160.89 input  -60.55 | X-H torsion
[ 11005 11000 10999 10996 ] final  137.06 input  -57.11 | X-H torsion

> <Gold.Protein.ActiveResidues>
 VAL166  LYS551  ARG553  GLY616  TRP617  ASP618  TYR619  PRO620  LYS621  CYS622 
 ASP623  PHE694  ASN695  SER759  ASP760  ASP761  ALA762  ILE779  LEU786  VAL792 
 PHE793  MET794  SER795  GLU796  ALA797  LYS798  CYS799  TRP800  GLU811  SER814 

> <Gold.Protein.RotatedAtoms>
  151.5058  133.3495  159.2876 H   0  0  0  0  0  0  0  0  0  0  0  0  # atno 6907 bound_to 6896
  150.8743  134.8126  159.7189 H   0  0  0  0  0  0  0  0  0  0  0  0  # atno 6908 bound_to 6896
  152.4720  134.4947  159.9758 H   0  0  0  0  0  0  0  0  0  0  0  0  # atno 6909 bound_to 6896
  146.0414  140.6603  142.9085 H   0  0  0  0  0  0  0  0  0  0  0  0  # atno 7974 bound_to 7965
  156.2799  140.2741  156.1779 H   0  0  0  0  0  0  0  0  0  0  0  0  # atno 8008 bound_to 7997
  155.0587  140.0386  157.2587 H   0  0  0  0  0  0  0  0  0  0  0  0  # atno 8009 bound_to 7997
  154.7135  140.2673  155.6612 H   0  0  0  0  0  0  0  0  0  0  0  0  # atno 8010 bound_to 7997
  140.1305  144.4647  150.6867 H   0  0  0  0  0  0  0  0  0  0  0  0  # atno 10167 bound_to 10162
  157.2221  130.6983  149.6274 H   0  0  0  0  0  0  0  0  0  0  0  0  # atno 10718 bound_to 10713
  154.2545  135.2770  155.2803 H   0  0  0  0  0  0  0  0  0  0  0  0  # atno 10763 bound_to 10752
  154.5437  135.5695  153.6865 H   0  0  0  0  0  0  0  0  0  0  0  0  # atno 10764 bound_to 10752
  152.9974  135.6257  154.2693 H   0  0  0  0  0  0  0  0  0  0  0  0  # atno 10765 bound_to 10752
  140.0088  134.9448  157.0233 H   0  0  0  0  0  0  0  0  0  0  0  0  # atno 11005 bound_to 11000
  144.7076  140.3915  143.7105 LP  0  0  0  0  0  0  0  0  0  0  0  0  # atno 17320 bound_to 7965
  145.6878  139.1632  143.2664 LP  0  0  0  0  0  0  0  0  0  0  0  0  # atno 17321 bound_to 7965
  140.6820  143.2331  151.5360 LP  0  0  0  0  0  0  0  0  0  0  0  0  # atno 17342 bound_to 10162
  139.5522  144.2366  152.1550 LP  0  0  0  0  0  0  0  0  0  0  0  0  # atno 17343 bound_to 10162
  155.9681  130.4516  150.5744 LP  0  0  0  0  0  0  0  0  0  0  0  0  # atno 17370 bound_to 10713
  157.3565  131.0742  151.1671 LP  0  0  0  0  0  0  0  0  0  0  0  0  # atno 17371 bound_to 10713
  140.4592  134.1502  155.7189 LP  0  0  0  0  0  0  0  0  0  0  0  0  # atno 17394 bound_to 11000
  141.1696  133.8635  157.1611 LP  0  0  0  0  0  0  0  0  0  0  0  0  # atno 17395 bound_to 11000

$$$$
