AV-unprocessed.smi:1875|AV-procd|sdf|7612|dock6
  -GOLD-   22720 9333D 1   1.00000     0.00000
 Structure written by MMmdl.
 48 50  0  0  0  0  0  0  0  0  2 V2000
  151.3509  131.2088  155.3828 C   0  0  0  0  0  0  0  0  0  0  0  0
  150.3051  132.1087  154.7578 C   0  0  0  0  0  0  0  0  0  0  0  0
  149.7018  131.6563  153.6544 N   0  0  0  0  0  0  0  0  0  0  0  0
  148.7635  132.4532  153.0984 C   0  0  0  0  0  0  0  0  0  0  0  0
  148.4318  133.7062  153.6530 C   0  0  0  0  0  0  0  0  0  0  0  0
  149.1316  134.0742  154.8214 C   0  0  0  0  0  0  0  0  0  0  0  0
  148.8838  135.4019  155.5055 C   0  0  0  0  0  0  0  0  0  0  0  0
  149.3701  136.5077  154.6602 N   0  3  0  0  0  0  0  0  0  0  0  0
  150.6576  137.0829  155.0966 C   0  0  0  0  0  0  0  0  0  0  0  0
  150.5861  138.6173  155.1594 C   0  0  2  0  0  0  0  0  0  0  0  0
  150.6746  139.1327  153.8444 O   0  0  0  0  0  0  0  0  0  0  0  0
  151.7126  139.2151  156.0242 C   0  0  0  0  0  0  0  0  0  0  0  0
  151.3515  140.5017  156.5922 N   0  0  0  0  0  0  0  0  0  0  0  0
  150.5004  141.4059  156.0703 C   0  0  0  0  0  0  0  0  0  0  0  0
  150.3104  142.5296  156.7547 N   0  0  0  0  0  0  0  0  0  0  0  0
  151.1340  142.3321  157.8497 C   0  0  0  0  0  0  0  0  0  0  0  0
  151.3921  143.1604  158.9634 C   0  0  0  0  0  0  0  0  0  0  0  0
  152.2859  142.7521  159.9788 C   0  0  0  0  0  0  0  0  0  0  0  0
  152.5358  143.6762  161.1576 C   0  0  0  0  0  0  0  0  0  0  0  0
  152.9367  141.4952  159.8894 C   0  0  0  0  0  0  0  0  0  0  0  0
  153.8999  141.0353  160.9694 C   0  0  0  0  0  0  0  0  0  0  0  0
  152.6903  140.6550  158.7834 C   0  0  0  0  0  0  0  0  0  0  0  0
  151.7991  141.0729  157.7790 C   0  0  0  0  0  0  0  0  0  0  0  0
  150.0725  133.2742  155.3702 N   0  0  0  0  0  0  0  0  0  0  0  0
  151.7599  130.5113  154.6505 H   0  0  0  0  0  0  0  0  0  0  0  0
  150.9106  130.6320  156.1964 H   0  0  0  0  0  0  0  0  0  0  0  0
  152.1773  131.7954  155.7857 H   0  0  0  0  0  0  0  0  0  0  0  0
  148.2768  132.0910  152.2049 H   0  0  0  0  0  0  0  0  0  0  0  0
  147.6825  134.3420  153.2050 H   0  0  0  0  0  0  0  0  0  0  0  0
  147.8173  135.5245  155.6990 H   0  0  0  0  0  0  0  0  0  0  0  0
  149.3936  135.4193  156.4701 H   0  0  0  0  0  0  0  0  0  0  0  0
  149.4771  136.1611  153.7170 H   0  0  0  0  0  0  0  0  0  0  0  0
  150.8916  136.6847  156.0848 H   0  0  0  0  0  0  0  0  0  0  0  0
  151.4561  136.7621  154.4256 H   0  0  0  0  0  0  0  0  0  0  0  0
  149.6237  138.9157  155.5782 H   0  0  0  0  0  0  0  0  0  0  0  0
  149.8018  139.3070  153.5259 H   0  0  0  0  0  0  0  0  0  0  0  0
  151.9547  138.5391  156.8454 H   0  0  0  0  0  0  0  0  0  0  0  0
  152.6261  139.3329  155.4400 H   0  0  0  0  0  0  0  0  0  0  0  0
  149.9928  141.2297  155.1331 H   0  0  0  0  0  0  0  0  0  0  0  0
  150.8958  144.1174  159.0315 H   0  0  0  0  0  0  0  0  0  0  0  0
  153.5941  143.9279  161.2286 H   0  0  0  0  0  0  0  0  0  0  0  0
  152.2289  143.1992  162.0889 H   0  0  0  0  0  0  0  0  0  0  0  0
  151.9772  144.6075  161.0586 H   0  0  0  0  0  0  0  0  0  0  0  0
  154.2990  140.0441  160.7517 H   0  0  0  0  0  0  0  0  0  0  0  0
  153.3964  140.9880  161.9353 H   0  0  0  0  0  0  0  0  0  0  0  0
  154.7407  141.7245  161.0498 H   0  0  0  0  0  0  0  0  0  0  0  0
  153.1811  139.6966  158.7033 H   0  0  0  0  0  0  0  0  0  0  0  0
  148.6726  137.2380  154.6552 H   0  0  0  0  0  0  0  0  0  0  0  0
  1  2  1  0  0  0  0
  1 25  1  0  0  0  0
  1 26  1  0  0  0  0
  1 27  1  0  0  0  0
  2 24  1  0  0  0  0
  2  3  2  0  0  0  0
  3  4  1  0  0  0  0
  4  5  2  0  0  0  0
  4 28  1  0  0  0  0
  5  6  1  0  0  0  0
  5 29  1  0  0  0  0
  6  7  1  0  0  0  0
  6 24  2  0  0  0  0
  7  8  1  0  0  0  0
  7 30  1  0  0  0  0
  7 31  1  0  0  0  0
  8  9  1  0  0  0  0
  8 32  1  0  0  0  0
  8 48  1  0  0  0  0
  9 10  1  0  0  0  0
  9 33  1  0  0  0  0
  9 34  1  0  0  0  0
 10 11  1  0  0  0  0
 10 12  1  0  0  0  0
 10 35  1  0  0  0  0
 11 36  1  0  0  0  0
 12 13  1  0  0  0  0
 12 37  1  0  0  0  0
 12 38  1  0  0  0  0
 13 23  1  0  0  0  0
 13 14  1  0  0  0  0
 14 15  2  0  0  0  0
 14 39  1  0  0  0  0
 15 16  1  0  0  0  0
 16 23  2  0  0  0  0
 16 17  1  0  0  0  0
 17 18  2  0  0  0  0
 17 40  1  0  0  0  0
 18 19  1  0  0  0  0
 18 20  1  0  0  0  0
 19 41  1  0  0  0  0
 19 42  1  0  0  0  0
 19 43  1  0  0  0  0
 20 21  1  0  0  0  0
 20 22  2  0  0  0  0
 21 44  1  0  0  0  0
 21 45  1  0  0  0  0
 21 46  1  0  0  0  0
 22 23  1  0  0  0  0
 22 47  1  0  0  0  0
M  CHG  1   8   1
M  END
> <s_m_source_file>
AV-unprocessed.smi

> <i_m_source_file_index>
1875

> <i_lp_mmshare_version>
43012

> <i_f3d_flags>
0

> <s_epik_input>
W0NIM11jMW5bY0hdW2NIXWMobjEpW0NIMl1bTkhdW0NIMl1bQ0BIXShbT0hdKVtDSDJdbihbY0hdbjIpYyhjMjMpW2NIXWMoW0NIM10pYyhbY0hdMylbQ0gzXQ==

> <s_epik_cmdline>
J2VwaWtfcHl0aG9uJywgJy1waCcsICc3LjAnLCAnLXRuJywgJzgnLCAnLW1hJywgJzIwMCcsICctbWV0YWxfYmluZGluZycsICctaW1hZScsICc8aW5maWxlLm1hZT4nLCAnLW9tYWUnLCAnPG91dGZpbGUubWFlPic=

> <r_lp_tautomer_probability>
1

> <r_epik_Ionization_Penalty>
0.192455

> <r_epik_Ionization_Penalty_Charging>
0.102343

> <r_epik_Ionization_Penalty_Neutral>
0.0901122

> <r_epik_State_Penalty>
0.175389

> <r_epik_Charging_Adjusted_Penalty>
0.277732

> <i_epik_Tot_Q>
1

> <i_epik_Tot_abs_Q>
1

> <r_epik_Metal_State_Penalty>
0.167659

> <b_epik_Metal_Only>
0

> <s_epik_Chemistry_Notes>
This compound contains an electron-poor aromatic ring that is susceptible to covalent hydrolysis at low pH, typically resulting in measured values for nitrogen ring protonation that are around two units higher than predicted values.

> <s_lp_Force_Field>
OPLS_2005

> <r_lp_Energy>
2.18652

> <b_lp_Chiralities_Consistent>
1

> <s_lp_Variant>
AV-unprocessed.smi:1875-1

> <Gold.Version>
5.8.1

> <Gold.Id.Protein>
6NUR|6NUR_protein|mol2

> <Gold.PLP.Fitness>
53.5454

> <Gold.PLP.PLP>
-44.5250

> <Gold.PLP.part.hbond>
-3.0000

> <Gold.PLP.part.metal>
0.0000

> <Gold.PLP.part.buried>
-2.7770

> <Gold.PLP.part.nonpolar>
-40.2955

> <Gold.PLP.part.repulsive>
2.5473

> <Gold.PLP.ligand.clash>
0.0000

> <Gold.PLP.ligand.torsion>
1.5413

> <Gold.PLP.Chemscore.Hbond>
3.0000

> <Gold.PLP.Chemscore.CHOScore>
1.0000

> <Gold.PLP.Chemscore.Metal>
0.0000

> <Gold.Chemscore.Hbonds>
donor molecule, donor type, donor heavy atom, donor atom, acceptor molecule, acceptor atom, score
      L1  H     8    32       P1  7948  2.00
      P1  H  7989  7998       L1    11  1.00
      L1  C     4    28       P1 10747  1.00

> <Gold.PLP.Chemscore.Internal.Correction>
0.1031

> <Gold.Rescore>
     Score         DG    S(hbond)    S(metal)    S(lipo)     H(rot)  DE(clash)    DE(int)     intcor
     14.53     -18.02       1.77        0.00     117.91       2.80       1.95       1.54       ----

> <Gold.Chemscore.Fitness>
14.5292

> <Gold.Chemscore.DG>
-18.0223

> <Gold.Chemscore.ZeroCoef>
-5.4800

> <Gold.Chemscore.Hbond>
1.7745

> <Gold.Chemscore.Metal>
0.0000

> <Gold.Chemscore.Lipo>
117.9095

> <Gold.Chemscore.Internal_Hbond>
0.0000

> <Gold.Chemscore.DEClash>
1.9548

> <Gold.Chemscore.DEInternal>
1.5383

> <Gold.Chemscore.Rot>
2.8047

> <Gold.Chemscore.Internal.Correction>
   9.000000E+99

> <Gold.Chemscore.Hbonds>
donor molecule, donor type, donor heavy atom, donor atom, acceptor molecule, acceptor atom, score
      L1  H     8    32       P1  7948  0.62
      L1  H    11    36       P1  7957  0.01
      P1  H  7989  7998       L1    11  0.36

> <Gold.Chemscore.Hbond.Weighted>
-5.9269

> <Gold.Chemscore.Metal.Weighted>
-0.0000

> <Gold.Chemscore.Lipo.Weighted>
-13.7954

> <Gold.Chemscore.Internal_Hbond.Weighted>
0.0000

> <Gold.Chemscore.DEClash.Weighted>
1.9548

> <Gold.Chemscore.DEInternal.Weighted>
1.5383

> <Gold.Chemscore.Rot.Weighted>
7.1801

> <Gold.Chemscore.Internal.Correction.Weighted>
   9.000000E+99

> <Gold.Protein.RotatedTorsions>
[ 6907 6896 6895 6894 ] final  -96.45 input  -60.11 | X-H torsion
[ 7974 7965 7964 7962 ] final    0.45 input  175.53 | X-H torsion
[ 8008 7997 7996 7995 ] final    5.55 input   59.86 | X-H torsion
[ 10167 10162 10161 10158 ] final  -42.02 input  -65.29 | X-H torsion
[ 10718 10713 10712 10709 ] final   87.58 input   66.30 | X-H torsion
[ 10763 10752 10751 10750 ] final -106.40 input  -60.55 | X-H torsion
[ 11005 11000 10999 10996 ] final  -19.57 input  -57.11 | X-H torsion

> <Gold.Protein.ActiveResidues>
 VAL166  LYS551  ARG553  GLY616  TRP617  ASP618  TYR619  PRO620  LYS621  CYS622 
 ASP623  PHE694  ASN695  SER759  ASP760  ASP761  ALA762  ILE779  LEU786  VAL792 
 PHE793  MET794  SER795  GLU796  ALA797  LYS798  CYS799  TRP800  GLU811  SER814 

> <Gold.Protein.RotatedAtoms>
  150.6989  134.1500  159.4136 H   0  0  0  0  0  0  0  0  0  0  0  0  # atno 6907 bound_to 6896
  151.9483  135.0179  160.0549 H   0  0  0  0  0  0  0  0  0  0  0  0  # atno 6908 bound_to 6896
  152.2033  133.4822  159.5107 H   0  0  0  0  0  0  0  0  0  0  0  0  # atno 6909 bound_to 6896
  146.2434  140.1136  142.8343 H   0  0  0  0  0  0  0  0  0  0  0  0  # atno 7974 bound_to 7965
  154.7298  140.2728  155.6467 H   0  0  0  0  0  0  0  0  0  0  0  0  # atno 8008 bound_to 7997
  156.2846  140.2718  156.1919 H   0  0  0  0  0  0  0  0  0  0  0  0  # atno 8009 bound_to 7997
  155.0397  140.0371  157.2495 H   0  0  0  0  0  0  0  0  0  0  0  0  # atno 8010 bound_to 7997
  140.6983  143.3061  151.3149 H   0  0  0  0  0  0  0  0  0  0  0  0  # atno 10167 bound_to 10162
  157.6941  131.0261  150.3145 H   0  0  0  0  0  0  0  0  0  0  0  0  # atno 10718 bound_to 10713
  154.8010  135.4713  154.0275 H   0  0  0  0  0  0  0  0  0  0  0  0  # atno 10763 bound_to 10752
  153.1781  135.6836  153.8523 H   0  0  0  0  0  0  0  0  0  0  0  0  # atno 10764 bound_to 10752
  153.8082  135.3220  155.3375 H   0  0  0  0  0  0  0  0  0  0  0  0  # atno 10765 bound_to 10752
  140.8379  133.7948  155.9829 H   0  0  0  0  0  0  0  0  0  0  0  0  # atno 11005 bound_to 11000
  145.0466  140.8986  143.5020 LP  0  0  0  0  0  0  0  0  0  0  0  0  # atno 17320 bound_to 7965
  145.1226  139.2684  143.5581 LP  0  0  0  0  0  0  0  0  0  0  0  0  # atno 17321 bound_to 7965
  139.6468  144.0437  152.2596 LP  0  0  0  0  0  0  0  0  0  0  0  0  # atno 17342 bound_to 10162
  139.9960  144.6327  150.7772 LP  0  0  0  0  0  0  0  0  0  0  0  0  # atno 17343 bound_to 10162
  156.3641  130.3852  149.7227 LP  0  0  0  0  0  0  0  0  0  0  0  0  # atno 17370 bound_to 10713
  156.4664  130.7976  151.2995 LP  0  0  0  0  0  0  0  0  0  0  0  0  # atno 17371 bound_to 10713
  140.8927  134.2475  157.5085 LP  0  0  0  0  0  0  0  0  0  0  0  0  # atno 17394 bound_to 11000
  139.8704  134.9669  156.4579 LP  0  0  0  0  0  0  0  0  0  0  0  0  # atno 17395 bound_to 11000

$$$$
