AV-unprocessed.smi:667|AV-procd|sdf|3256|dock10
  -GOLD-   22720 0203D 1   1.00000     0.00000
 Structure written by MMmdl.
 48 49  0  0  0  0  0  0  0  0  1 V2000
  151.5261  139.1848  156.2249 C   0  0  0  0  0  0  0  0  0  0  0  0
  151.7410  140.2244  157.2874 C   0  0  0  0  0  0  0  0  0  0  0  0
  152.7360  140.0747  158.1456 N   0  0  0  0  0  0  0  0  0  0  0  0
  152.6607  141.1520  158.9524 N   0  0  0  0  0  0  0  0  0  0  0  0
  153.6197  141.3014  160.0297 C   0  0  0  0  0  0  0  0  0  0  0  0
  151.6177  141.9867  158.6001 C   0  0  0  0  0  0  0  0  0  0  0  0
  151.3243  143.2554  159.3344 C   0  0  0  0  0  0  0  0  0  0  0  0
  150.9884  141.4119  157.5280 C   0  0  0  0  0  0  0  0  0  0  0  0
  149.7812  141.9055  156.7701 C   0  0  0  0  0  0  0  0  0  0  0  0
  148.5877  142.0547  157.7162 C   0  0  0  0  0  0  0  0  0  0  0  0
  148.1726  141.0827  158.3484 O   0  0  0  0  0  0  0  0  0  0  0  0
  148.0488  143.2801  157.8091 N   0  0  0  0  0  0  0  0  0  0  0  0
  146.9341  143.6406  158.6784 C   0  0  0  0  0  0  0  0  0  0  0  0
  147.3753  143.7808  160.1562 C   0  0  1  0  0  0  0  0  0  0  0  0
  148.4735  144.8219  160.3360 C   0  0  0  0  0  0  0  0  0  0  0  0
  147.7053  146.1261  160.5698 C   0  0  0  0  0  0  0  0  0  0  0  0
  146.3519  145.7500  160.8061 O   0  0  0  0  0  0  0  0  0  0  0  0
  146.3021  144.3594  161.0941 C   0  0  1  0  0  0  0  0  0  0  0  0
  144.8659  143.8032  160.9664 C   0  0  0  0  0  0  0  0  0  0  0  0
  143.9843  144.2855  162.1296 C   0  0  0  0  0  0  0  0  0  0  0  0
  144.8533  142.2659  160.9000 C   0  0  0  0  0  0  0  0  0  0  0  0
  151.2083  139.6414  155.2882 H   0  0  0  0  0  0  0  0  0  0  0  0
  150.7569  138.4737  156.5261 H   0  0  0  0  0  0  0  0  0  0  0  0
  152.4388  138.6236  156.0216 H   0  0  0  0  0  0  0  0  0  0  0  0
  153.0918  141.4060  160.9779 H   0  0  0  0  0  0  0  0  0  0  0  0
  154.2270  142.1907  159.8593 H   0  0  0  0  0  0  0  0  0  0  0  0
  154.2754  140.4314  160.0863 H   0  0  0  0  0  0  0  0  0  0  0  0
  150.7170  143.9279  158.7287 H   0  0  0  0  0  0  0  0  0  0  0  0
  152.2422  143.7846  159.5903 H   0  0  0  0  0  0  0  0  0  0  0  0
  150.7823  143.0500  160.2576 H   0  0  0  0  0  0  0  0  0  0  0  0
  149.9909  142.8590  156.2834 H   0  0  0  0  0  0  0  0  0  0  0  0
  149.5018  141.2182  155.9715 H   0  0  0  0  0  0  0  0  0  0  0  0
  148.4505  144.0197  157.2512 H   0  0  0  0  0  0  0  0  0  0  0  0
  146.5088  144.5776  158.3178 H   0  0  0  0  0  0  0  0  0  0  0  0
  146.1505  142.8905  158.5708 H   0  0  0  0  0  0  0  0  0  0  0  0
  147.7083  142.8085  160.5220 H   0  0  0  0  0  0  0  0  0  0  0  0
  149.0622  144.5814  161.2223 H   0  0  0  0  0  0  0  0  0  0  0  0
  149.1641  144.8896  159.4956 H   0  0  0  0  0  0  0  0  0  0  0  0
  148.1054  146.6722  161.4248 H   0  0  0  0  0  0  0  0  0  0  0  0
  147.7483  146.7799  159.6984 H   0  0  0  0  0  0  0  0  0  0  0  0
  146.6364  144.2280  162.1257 H   0  0  0  0  0  0  0  0  0  0  0  0
  144.4192  144.1871  160.0491 H   0  0  0  0  0  0  0  0  0  0  0  0
  144.3750  143.9476  163.0903 H   0  0  0  0  0  0  0  0  0  0  0  0
  142.9658  143.9085  162.0334 H   0  0  0  0  0  0  0  0  0  0  0  0
  143.9257  145.3739  162.1588 H   0  0  0  0  0  0  0  0  0  0  0  0
  145.2876  141.8287  161.7994 H   0  0  0  0  0  0  0  0  0  0  0  0
  145.4176  141.8924  160.0458 H   0  0  0  0  0  0  0  0  0  0  0  0
  143.8360  141.8858  160.8048 H   0  0  0  0  0  0  0  0  0  0  0  0
  1  2  1  0  0  0  0
  1 22  1  0  0  0  0
  1 23  1  0  0  0  0
  1 24  1  0  0  0  0
  2  8  1  0  0  0  0
  2  3  2  0  0  0  0
  3  4  1  0  0  0  0
  4  5  1  0  0  0  0
  4  6  1  0  0  0  0
  5 25  1  0  0  0  0
  5 26  1  0  0  0  0
  5 27  1  0  0  0  0
  6  7  1  0  0  0  0
  6  8  2  0  0  0  0
  7 28  1  0  0  0  0
  7 29  1  0  0  0  0
  7 30  1  0  0  0  0
  8  9  1  0  0  0  0
  9 10  1  0  0  0  0
  9 31  1  0  0  0  0
  9 32  1  0  0  0  0
 10 11  2  0  0  0  0
 10 12  1  0  0  0  0
 12 13  1  0  0  0  0
 12 33  1  0  0  0  0
 13 14  1  0  0  0  0
 13 34  1  0  0  0  0
 13 35  1  0  0  0  0
 14 18  1  0  0  0  0
 14 15  1  0  0  0  0
 14 36  1  0  0  0  0
 15 16  1  0  0  0  0
 15 37  1  0  0  0  0
 15 38  1  0  0  0  0
 16 17  1  0  0  0  0
 16 39  1  0  0  0  0
 16 40  1  0  0  0  0
 17 18  1  0  0  0  0
 18 19  1  0  0  0  0
 18 41  1  0  0  0  0
 19 20  1  0  0  0  0
 19 21  1  0  0  0  0
 19 42  1  0  0  0  0
 20 43  1  0  0  0  0
 20 44  1  0  0  0  0
 20 45  1  0  0  0  0
 21 46  1  0  0  0  0
 21 47  1  0  0  0  0
 21 48  1  0  0  0  0
M  END
> <s_m_source_file>
AV-unprocessed.smi

> <i_m_source_file_index>
667

> <i_lp_mmshare_version>
43012

> <i_f3d_flags>
0

> <s_epik_input>
W0NIM11jMW5uKFtDSDNdKWMoW0NIM10pYzFbQ0gyXUMoPU8pW05IXVtDSDJdW0NAQEhdMltDSDJdW0NIMl1PW0NASF0yW0NIXShbQ0gzXSlbQ0gzXQ==

> <s_epik_cmdline>
J2VwaWtfcHl0aG9uJywgJy1waCcsICc3LjAnLCAnLXRuJywgJzgnLCAnLW1hJywgJzIwMCcsICctbWV0YWxfYmluZGluZycsICctaW1hZScsICc8aW5maWxlLm1hZT4nLCAnLW9tYWUnLCAnPG91dGZpbGUubWFlPic=

> <r_lp_tautomer_probability>
1

> <r_epik_Ionization_Penalty>
0.00315488

> <r_epik_Ionization_Penalty_Charging>
0

> <r_epik_Ionization_Penalty_Neutral>
0.00315488

> <r_epik_State_Penalty>
0.00222269

> <r_epik_Charging_Adjusted_Penalty>
0.00222269

> <i_epik_Tot_Q>
0

> <i_epik_Tot_abs_Q>
0

> <r_epik_Metal_State_Penalty>
-0

> <b_epik_Metal_Only>
0

> <s_lp_Force_Field>
OPLS_2005

> <r_lp_Energy>
16.6838

> <b_lp_Chiralities_Consistent>
1

> <s_lp_Variant>
AV-unprocessed.smi:667-2

> <Gold.Version>
5.8.1

> <Gold.Id.Protein>
6NUR|6NUR_protein|mol2

> <Gold.PLP.Fitness>
39.2525

> <Gold.PLP.PLP>
-36.9687

> <Gold.PLP.part.hbond>
-4.0000

> <Gold.PLP.part.metal>
0.0000

> <Gold.PLP.part.buried>
0.8570

> <Gold.PLP.part.nonpolar>
-32.6251

> <Gold.PLP.part.repulsive>
0.2905

> <Gold.PLP.ligand.clash>
0.0000

> <Gold.PLP.ligand.torsion>
0.2974

> <Gold.PLP.Chemscore.Hbond>
0.9440

> <Gold.PLP.Chemscore.CHOScore>
0.0000

> <Gold.PLP.Chemscore.Metal>
0.0000

> <Gold.Chemscore.Hbonds>
donor molecule, donor type, donor heavy atom, donor atom, acceptor molecule, acceptor atom, score
      L1  H    12    33       P1  8028  0.15
      P1  H  7997  8010       L1     3  0.68

> <Gold.PLP.Chemscore.Internal.Correction>
0.0466

> <Gold.Rescore>
     Score         DG    S(hbond)    S(metal)    S(lipo)     H(rot)  DE(clash)    DE(int)     intcor
     13.77     -14.56       0.73        0.00      90.00       1.52       0.66       0.13       ----

> <Gold.Chemscore.Fitness>
13.7689

> <Gold.Chemscore.DG>
-14.5574

> <Gold.Chemscore.ZeroCoef>
-5.4800

> <Gold.Chemscore.Hbond>
0.7312

> <Gold.Chemscore.Metal>
0.0000

> <Gold.Chemscore.Lipo>
89.9979

> <Gold.Chemscore.Internal_Hbond>
0.0000

> <Gold.Chemscore.DEClash>
0.6584

> <Gold.Chemscore.DEInternal>
0.1302

> <Gold.Chemscore.Rot>
1.5213

> <Gold.Chemscore.Internal.Correction>
   9.000000E+99

> <Gold.Chemscore.Hbonds>
donor molecule, donor type, donor heavy atom, donor atom, acceptor molecule, acceptor atom, score
      P1  H  7997  8010       L1     3  0.20

> <Gold.Chemscore.Hbond.Weighted>
-2.4422

> <Gold.Chemscore.Metal.Weighted>
-0.0000

> <Gold.Chemscore.Lipo.Weighted>
-10.5298

> <Gold.Chemscore.Internal_Hbond.Weighted>
0.0000

> <Gold.Chemscore.DEClash.Weighted>
0.6584

> <Gold.Chemscore.DEInternal.Weighted>
0.1302

> <Gold.Chemscore.Rot.Weighted>
3.8945

> <Gold.Chemscore.Internal.Correction.Weighted>
   9.000000E+99

> <Gold.Protein.RotatedTorsions>
[ 6907 6896 6895 6894 ] final  151.06 input  -60.11 | X-H torsion
[ 7974 7965 7964 7962 ] final  -93.47 input  175.53 | X-H torsion
[ 8008 7997 7996 7995 ] final   48.00 input   59.86 | X-H torsion
[ 10167 10162 10161 10158 ] final  165.75 input  -65.29 | X-H torsion
[ 10718 10713 10712 10709 ] final   29.41 input   66.30 | X-H torsion
[ 10763 10752 10751 10750 ] final  -51.38 input  -60.55 | X-H torsion
[ 11005 11000 10999 10996 ] final  -18.49 input  -57.11 | X-H torsion

> <Gold.Protein.ActiveResidues>
 VAL166  LYS551  ARG553  GLY616  TRP617  ASP618  TYR619  PRO620  LYS621  CYS622 
 ASP623  PHE694  ASN695  SER759  ASP760  ASP761  ALA762  ILE779  LEU786  VAL792 
 PHE793  MET794  SER795  GLU796  ALA797  LYS798  CYS799  TRP800  GLU811  SER814 

> <Gold.Protein.RotatedAtoms>
  152.1058  133.4274  159.4607 H   0  0  0  0  0  0  0  0  0  0  0  0  # atno 6907 bound_to 6896
  150.6865  134.2706  159.4596 H   0  0  0  0  0  0  0  0  0  0  0  0  # atno 6908 bound_to 6896
  152.0571  134.9617  160.0625 H   0  0  0  0  0  0  0  0  0  0  0  0  # atno 6909 bound_to 6896
  145.3861  140.9523  143.2366 H   0  0  0  0  0  0  0  0  0  0  0  0  # atno 7974 bound_to 7965
  155.3784  140.3427  155.4246 H   0  0  0  0  0  0  0  0  0  0  0  0  # atno 8008 bound_to 7997
  156.1624  140.1605  156.8623 H   0  0  0  0  0  0  0  0  0  0  0  0  # atno 8009 bound_to 7997
  154.5152  140.0780  156.8049 H   0  0  0  0  0  0  0  0  0  0  0  0  # atno 8010 bound_to 7997
  139.4911  144.4099  151.9311 H   0  0  0  0  0  0  0  0  0  0  0  0  # atno 10167 bound_to 10162
  157.2462  130.7093  149.6382 H   0  0  0  0  0  0  0  0  0  0  0  0  # atno 10718 bound_to 10713
  154.1256  135.6528  153.4912 H   0  0  0  0  0  0  0  0  0  0  0  0  # atno 10763 bound_to 10752
  153.0211  135.5281  154.7052 H   0  0  0  0  0  0  0  0  0  0  0  0  # atno 10764 bound_to 10752
  154.6272  135.2972  155.0228 H   0  0  0  0  0  0  0  0  0  0  0  0  # atno 10765 bound_to 10752
  140.8273  133.8023  155.9722 H   0  0  0  0  0  0  0  0  0  0  0  0  # atno 11005 bound_to 11000
  144.8473  139.5377  143.6873 LP  0  0  0  0  0  0  0  0  0  0  0  0  # atno 17320 bound_to 7965
  146.2819  139.6901  142.9223 LP  0  0  0  0  0  0  0  0  0  0  0  0  # atno 17321 bound_to 7965
  140.3540  144.3054  150.5944 LP  0  0  0  0  0  0  0  0  0  0  0  0  # atno 17342 bound_to 10162
  140.5460  143.2214  151.8006 LP  0  0  0  0  0  0  0  0  0  0  0  0  # atno 17343 bound_to 10162
  155.9668  130.4442  150.5452 LP  0  0  0  0  0  0  0  0  0  0  0  0  # atno 17370 bound_to 10713
  157.3326  131.0702  151.1849 LP  0  0  0  0  0  0  0  0  0  0  0  0  # atno 17371 bound_to 10713
  140.9035  134.2348  157.5028 LP  0  0  0  0  0  0  0  0  0  0  0  0  # atno 17394 bound_to 11000
  139.8706  134.9718  156.4748 LP  0  0  0  0  0  0  0  0  0  0  0  0  # atno 17395 bound_to 11000

$$$$
