#       Name:                AV-unprocessed.smi:1627
#       Creating user name   scv26
#       Creation time:       Fri Mar 27 07:18:58 2020


#       File generated by GOLD software.
#

@<TRIPOS>MOLECULE
AV-unprocessed.smi:1627
    48    49     1
SMALL
NO_CHARGES


@<TRIPOS>ATOM
      1 ****         1.1660  -5.3008  -1.8502 C.3            1 S1                 0.0000
      2 ****         1.7409  -4.2245  -0.9175 C.3            1 S1                 0.0000
      3 ****         3.1431  -4.1496  -1.1638 O.3            1 S1                 0.0000
      4 ****         3.8964  -3.4088  -0.2087 C.3            1 S1                 0.0000
      5 ****         5.3885  -3.5188  -0.5446 C.3            1 S1                 0.0000
      6 ****         6.0932  -2.8371   0.3577 F              1 S1                 0.0000
      7 ****         5.7753  -4.7937  -0.5144 F              1 S1                 0.0000
      8 ****         5.6281  -3.0062  -1.7512 F              1 S1                 0.0000
      9 ****         1.0781  -2.8593  -1.1654 C.2            1 S1                 0.0000
     10 ****         1.0729  -2.3830  -2.3003 O.2            1 S1                 0.0000
     11 ****         0.5693  -2.2512  -0.0778 N.am           1 S1                 0.0000
     12 ****        -0.0961  -0.9986   0.0112 C.ar           1 S1                 0.0000
     13 ****        -0.7337  -0.3529  -1.0727 C.ar           1 S1                 0.0000
     14 ****        -1.3764   0.8804  -0.8517 C.ar           1 S1                 0.0000
     15 ****        -1.3756   1.4418   0.4503 C.ar           1 S1                 0.0000
     16 ****        -2.0091   2.6718   0.7410 N.pl3          1 S1                 0.0000
     17 ****        -1.2328   3.6294   1.5354 C.3            1 S1                 0.0000
     18 ****        -2.1392   4.6990   2.1681 C.3            1 S1                 0.0000
     19 ****        -3.0152   5.3796   1.1073 C.3            1 S1                 0.0000
     20 ****        -3.8190   4.3216   0.3391 C.3            1 S1                 0.0000
     21 ****        -2.8939   3.2542  -0.2701 C.3            1 S1                 0.0000
     22 ****        -0.7735   0.8100   1.4867 N.ar           1 S1                 0.0000
     23 ****        -0.1599  -0.3717   1.2706 C.ar           1 S1                 0.0000
     24 ****         0.0877  -5.4020  -1.7223 H              1 S1                 0.0000
     25 ****         1.6143  -6.2722  -1.6409 H              1 S1                 0.0000
     26 ****         1.3597  -5.0695  -2.8985 H              1 S1                 0.0000
     27 ****         1.5707  -4.5398   0.1139 H              1 S1                 0.0000
     28 ****         3.6011  -2.3588  -0.2070 H              1 S1                 0.0000
     29 ****         3.7146  -3.8006   0.7932 H              1 S1                 0.0000
     30 ****         0.7242  -2.7211   0.8025 H              1 S1                 0.0000
     31 ****        -0.7553  -0.7798  -2.0632 H              1 S1                 0.0000
     32 ****        -1.8508   1.3707  -1.6881 H              1 S1                 0.0000
     33 ****        -0.6728   3.1373   2.3303 H              1 S1                 0.0000
     34 ****        -0.4979   4.1038   0.8839 H              1 S1                 0.0000
     35 ****        -2.7744   4.2363   2.9248 H              1 S1                 0.0000
     36 ****        -1.5324   5.4424   2.6855 H              1 S1                 0.0000
     37 ****        -3.6880   6.0977   1.5768 H              1 S1                 0.0000
     38 ****        -2.3879   5.9423   0.4148 H              1 S1                 0.0000
     39 ****        -4.5303   3.8440   1.0143 H              1 S1                 0.0000
     40 ****        -4.4080   4.7956  -0.4462 H              1 S1                 0.0000
     41 ****        -2.2880   3.6930  -1.0642 H              1 S1                 0.0000
     42 ****        -3.5132   2.4786  -0.7217 H              1 S1                 0.0000
     43 ****         0.3002  -0.8285   2.1348 H              1 S1                 0.0000
     44 ****         3.2761  -3.7231  -2.0585 LP             1 S1                 0.0000
     45 ****         3.5025  -5.0826  -1.1826 LP             1 S1                 0.0000
     46 ****         1.4980  -2.8834  -3.0546 LP             1 S1                 0.0000
     47 ****         0.6435  -1.4956  -2.4682 LP             1 S1                 0.0000
     48 ****        -0.7839   1.2149   2.4009 LP             1 S1                 0.0000
@<TRIPOS>BOND
    1    1    2 1     
    2    1   24 1     
    3    1   25 1     
    4    1   26 1     
    5    2    3 1     
    6    2    9 1     
    7    2   27 1     
    8    3    4 1     
    9    4    5 1     
   10    4   28 1     
   11    4   29 1     
   12    5    6 1     
   13    5    7 1     
   14    5    8 1     
   15    9   10 2     
   16    9   11 am    
   17   11   12 1     
   18   11   30 1     
   19   12   23 ar    
   20   12   13 ar    
   21   13   14 ar    
   22   13   31 1     
   23   14   15 ar    
   24   14   32 1     
   25   15   16 1     
   26   15   22 ar    
   27   16   21 1     
   28   16   17 1     
   29   17   18 1     
   30   17   33 1     
   31   17   34 1     
   32   18   19 1     
   33   18   35 1     
   34   18   36 1     
   35   19   20 1     
   36   19   37 1     
   37   19   38 1     
   38   20   21 1     
   39   20   39 1     
   40   20   40 1     
   41   21   41 1     
   42   21   42 1     
   43   22   23 ar    
   44   23   43 1     
   45    3   44 1     
   46    3   45 1     
   47   10   46 1     
   48   10   47 1     
   49   22   48 1     
@<TRIPOS>SUBSTRUCTURE
      1 S1             1
@<TRIPOS>SET
LONE_PAIRS      STATIC     ATOMS    <user>   **** ""
5 44 45 46 47 48
DONOR_HYDROGENS      STATIC     ATOMS    <user>   **** ""
1 30
ATOM$BLUE        STATIC     ATOMS    COLORGROUP SYSTEM
5 44 45 46 47 48
ATOM$RED        STATIC     ATOMS    COLORGROUP SYSTEM
1 30
