AV-unprocessed.smi:79|AV-procd|sdf|782|dock9
  -GOLD-   2262017143D 1   1.00000     0.00000
 Structure written by MMmdl.
 56 59  0  0  0  0  0  0  0  0  2 V2000
  146.0781  132.2661  150.6618 C   0  0  0  0  0  0  0  0  0  0  0  0
  146.3626  133.7701  150.7633 C   0  0  1  0  0  0  0  0  0  0  0  0
  145.3747  134.4573  150.0223 O   0  0  0  0  0  0  0  0  0  0  0  0
  146.3374  134.2677  152.2218 C   0  0  0  0  0  0  0  0  0  0  0  0
  146.6932  133.2031  153.1948 N   0  3  2  0  0  0  0  0  0  0  0  0
  145.9219  133.2820  154.4652 C   0  0  0  0  0  0  0  0  0  0  0  0
  146.2880  132.1266  155.4158 C   0  0  0  0  0  0  0  0  0  0  0  0
  147.7273  132.0849  155.6524 N   0  0  0  0  0  0  0  0  0  0  0  0
  148.1150  132.8942  156.6719 C   0  0  0  0  0  0  0  0  0  0  0  0
  148.9117  133.9705  156.4402 N   0  0  0  0  0  0  0  0  0  0  0  0
  149.2646  134.7768  157.4458 C   0  0  0  0  0  0  0  0  0  0  0  0
  148.9305  134.6967  158.7351 N   0  0  0  0  0  0  0  0  0  0  0  0
  148.1231  133.6234  158.9717 C   0  0  0  0  0  0  0  0  0  0  0  0
  147.6703  132.6826  158.0053 C   0  0  0  0  0  0  0  0  0  0  0  0
  146.8619  131.7298  158.6118 N   0  0  0  0  0  0  0  0  0  0  0  0
  146.8385  132.0864  159.8672 C   0  0  0  0  0  0  0  0  0  0  0  0
  147.5756  133.2089  160.1737 N   0  0  0  0  0  0  0  0  0  0  0  0
  147.7231  133.8269  161.4828 C   0  0  0  0  0  0  0  0  0  0  0  0
  146.8454  135.0761  161.6856 C   0  0  0  0  0  0  0  0  0  0  0  0
  145.3813  134.6255  161.8638 C   0  0  0  0  0  0  0  0  0  0  0  0
  145.1685  133.9472  163.0859 O   0  0  0  0  0  0  0  0  0  0  0  0
  147.3781  136.0791  162.7191 C   0  0  0  0  0  0  0  0  0  0  0  0
  147.3119  137.1740  161.7790 O   0  0  0  0  0  0  0  0  0  0  0  0
  147.0799  136.2350  160.7060 C   0  0  0  0  0  0  0  0  0  0  0  0
  148.5125  131.9888  154.4157 C   0  0  2  0  0  0  0  0  0  0  0  0
  150.0274  131.8229  154.6434 C   0  0  0  0  0  0  0  0  0  0  0  0
  148.1596  133.1233  153.4282 C   0  0  0  0  0  0  0  0  0  0  0  0
  146.8244  131.6900  151.2096 H   0  0  0  0  0  0  0  0  0  0  0  0
  146.1024  131.9306  149.6244 H   0  0  0  0  0  0  0  0  0  0  0  0
  145.0988  132.0151  151.0712 H   0  0  0  0  0  0  0  0  0  0  0  0
  147.3312  133.9653  150.3045 H   0  0  0  0  0  0  0  0  0  0  0  0
  145.7465  134.7247  149.1951 H   0  0  0  0  0  0  0  0  0  0  0  0
  147.0349  135.1019  152.3148 H   0  0  0  0  0  0  0  0  0  0  0  0
  145.3538  134.6680  152.4734 H   0  0  0  0  0  0  0  0  0  0  0  0
  146.1197  134.2394  154.9499 H   0  0  0  0  0  0  0  0  0  0  0  0
  144.8518  133.2475  154.2653 H   0  0  0  0  0  0  0  0  0  0  0  0
  145.7367  132.2234  156.3520 H   0  0  0  0  0  0  0  0  0  0  0  0
  145.9816  131.1752  154.9795 H   0  0  0  0  0  0  0  0  0  0  0  0
  149.9036  135.6058  157.1791 H   0  0  0  0  0  0  0  0  0  0  0  0
  146.2776  131.5356  160.6076 H   0  0  0  0  0  0  0  0  0  0  0  0
  147.5034  133.0789  162.2455 H   0  0  0  0  0  0  0  0  0  0  0  0
  148.7772  134.0755  161.6114 H   0  0  0  0  0  0  0  0  0  0  0  0
  144.7020  135.4778  161.8475 H   0  0  0  0  0  0  0  0  0  0  0  0
  145.0779  133.9632  161.0525 H   0  0  0  0  0  0  0  0  0  0  0  0
  145.8519  133.3038  163.1959 H   0  0  0  0  0  0  0  0  0  0  0  0
  146.7288  136.2264  163.5828 H   0  0  0  0  0  0  0  0  0  0  0  0
  148.4031  135.8847  163.0384 H   0  0  0  0  0  0  0  0  0  0  0  0
  147.9656  136.1190  160.0805 H   0  0  0  0  0  0  0  0  0  0  0  0
  146.2102  136.4936  160.1014 H   0  0  0  0  0  0  0  0  0  0  0  0
  148.1851  131.0583  153.9496 H   0  0  0  0  0  0  0  0  0  0  0  0
  150.5326  131.5873  153.7065 H   0  0  0  0  0  0  0  0  0  0  0  0
  150.2317  131.0073  155.3378 H   0  0  0  0  0  0  0  0  0  0  0  0
  150.4937  132.7245  155.0391 H   0  0  0  0  0  0  0  0  0  0  0  0
  148.6633  132.9409  152.4779 H   0  0  0  0  0  0  0  0  0  0  0  0
  148.5214  134.0859  153.7903 H   0  0  0  0  0  0  0  0  0  0  0  0
  146.4382  132.3283  152.7585 H   0  0  0  0  0  0  0  0  0  0  0  0
  1  2  1  0  0  0  0
  1 28  1  0  0  0  0
  1 29  1  0  0  0  0
  1 30  1  0  0  0  0
  2  3  1  0  0  0  0
  2  4  1  0  0  0  0
  2 31  1  0  0  0  0
  3 32  1  0  0  0  0
  4  5  1  0  0  0  0
  4 33  1  0  0  0  0
  4 34  1  0  0  0  0
  5 27  1  0  0  0  0
  5  6  1  0  0  0  0
  5 56  1  0  0  0  0
  6  7  1  0  0  0  0
  6 35  1  0  0  0  0
  6 36  1  0  0  0  0
  7  8  1  0  0  0  0
  7 37  1  0  0  0  0
  7 38  1  0  0  0  0
  8  9  1  0  0  0  0
  8 25  1  0  0  0  0
  9 14  1  0  0  0  0
  9 10  2  0  0  0  0
 10 11  1  0  0  0  0
 11 12  2  0  0  0  0
 11 39  1  0  0  0  0
 12 13  1  0  0  0  0
 13 17  1  0  0  0  0
 13 14  2  0  0  0  0
 14 15  1  0  0  0  0
 15 16  2  0  0  0  0
 16 17  1  0  0  0  0
 16 40  1  0  0  0  0
 17 18  1  0  0  0  0
 18 19  1  0  0  0  0
 18 41  1  0  0  0  0
 18 42  1  0  0  0  0
 19 24  1  0  0  0  0
 19 20  1  0  0  0  0
 19 22  1  0  0  0  0
 20 21  1  0  0  0  0
 20 43  1  0  0  0  0
 20 44  1  0  0  0  0
 21 45  1  0  0  0  0
 22 23  1  0  0  0  0
 22 46  1  0  0  0  0
 22 47  1  0  0  0  0
 23 24  1  0  0  0  0
 24 48  1  0  0  0  0
 24 49  1  0  0  0  0
 25 26  1  0  0  0  0
 25 27  1  0  0  0  0
 25 50  1  0  0  0  0
 26 51  1  0  0  0  0
 26 52  1  0  0  0  0
 26 53  1  0  0  0  0
 27 54  1  0  0  0  0
 27 55  1  0  0  0  0
M  CHG  1   5   1
M  END
> <s_m_source_file>
AV-unprocessed.smi

> <i_m_source_file_index>
79

> <i_lp_mmshare_version>
43012

> <i_f3d_flags>
0

> <s_epik_input>
W0NIM11bQ0BIXShbT0hdKVtDSDJdTjFbQ0gyXVtDSDJdTihbQ0BASF0oW0NIM10pW0NIMl0xKWMobltjSF1uMiljKGMyMyluW2NIXW4zW0NIMl1DNChbQ0gyXVtPSF0pW0NIMl1PW0NIMl00

> <s_epik_cmdline>
J2VwaWtfcHl0aG9uJywgJy1waCcsICc3LjAnLCAnLXRuJywgJzgnLCAnLW1hJywgJzIwMCcsICctbWV0YWxfYmluZGluZycsICctaW1hZScsICc8aW5maWxlLm1hZT4nLCAnLW9tYWUnLCAnPG91dGZpbGUubWFlPic=

> <r_lp_tautomer_probability>
1

> <r_epik_Ionization_Penalty>
0.00515943

> <r_epik_Ionization_Penalty_Charging>
0.00509693

> <r_epik_Ionization_Penalty_Neutral>
6.25007e-05

> <r_epik_State_Penalty>
-0

> <r_epik_Charging_Adjusted_Penalty>
0.00509693

> <i_epik_Tot_Q>
1

> <i_epik_Tot_abs_Q>
1

> <r_epik_Metal_State_Penalty>
-0

> <b_epik_Metal_Only>
0

> <s_lp_Force_Field>
OPLS_2005

> <r_lp_Energy>
48.9332

> <b_lp_Chiralities_Consistent>
1

> <s_lp_Variant>
AV-unprocessed.smi:79-6

> <Gold.Version>
5.8.1

> <Gold.Id.Protein>
6NUR|6NUR_protein|mol2

> <Gold.PLP.Fitness>
46.3723

> <Gold.PLP.PLP>
-38.0007

> <Gold.PLP.part.hbond>
-5.0000

> <Gold.PLP.part.metal>
0.0000

> <Gold.PLP.part.buried>
-5.9970

> <Gold.PLP.part.nonpolar>
-26.8553

> <Gold.PLP.part.repulsive>
0.0000

> <Gold.PLP.ligand.clash>
0.0000

> <Gold.PLP.ligand.torsion>
1.7661

> <Gold.PLP.Chemscore.Hbond>
3.7120

> <Gold.PLP.Chemscore.CHOScore>
0.0000

> <Gold.PLP.Chemscore.Metal>
0.0000

> <Gold.Chemscore.Hbonds>
donor molecule, donor type, donor heavy atom, donor atom, acceptor molecule, acceptor atom, score
      L1  H     3    32       P1  7921  1.00
      P1  H  6896  6909       L1    12  0.95
      P1  H  6931  6943       L1    23  0.90
      P1  H  6934  6947       L1    23  0.83

> <Gold.PLP.Chemscore.Internal.Correction>
0.7679

> <Gold.Rescore>
     Score         DG    S(hbond)    S(metal)    S(lipo)     H(rot)  DE(clash)    DE(int)     intcor
     11.31     -14.35       2.86        0.00      75.67       3.72       0.17       2.87       ----

> <Gold.Chemscore.Fitness>
11.3148

> <Gold.Chemscore.DG>
-14.3474

> <Gold.Chemscore.ZeroCoef>
-5.4800

> <Gold.Chemscore.Hbond>
2.8575

> <Gold.Chemscore.Metal>
0.0000

> <Gold.Chemscore.Lipo>
75.6668

> <Gold.Chemscore.Internal_Hbond>
0.0000

> <Gold.Chemscore.DEClash>
0.1656

> <Gold.Chemscore.DEInternal>
2.8670

> <Gold.Chemscore.Rot>
3.7226

> <Gold.Chemscore.Internal.Correction>
   9.000000E+99

> <Gold.Chemscore.Hbonds>
donor molecule, donor type, donor heavy atom, donor atom, acceptor molecule, acceptor atom, score
      L1  H     3    32       P1  7921  0.93
      P1  H  6896  6909       L1    12  0.14
      P1  H  6931  6943       L1    23  0.57
      P1  H  6934  6947       L1    23  0.46

> <Gold.Chemscore.Hbond.Weighted>
-9.5442

> <Gold.Chemscore.Metal.Weighted>
-0.0000

> <Gold.Chemscore.Lipo.Weighted>
-8.8530

> <Gold.Chemscore.Internal_Hbond.Weighted>
0.0000

> <Gold.Chemscore.DEClash.Weighted>
0.1656

> <Gold.Chemscore.DEInternal.Weighted>
2.8670

> <Gold.Chemscore.Rot.Weighted>
9.5298

> <Gold.Chemscore.Internal.Correction.Weighted>
   9.000000E+99

> <Gold.Protein.RotatedTorsions>
[ 6907 6896 6895 6894 ] final   32.89 input  -60.11 | X-H torsion
[ 7974 7965 7964 7962 ] final   74.80 input  175.53 | X-H torsion
[ 8008 7997 7996 7995 ] final  -44.51 input   59.86 | X-H torsion
[ 10167 10162 10161 10158 ] final  -94.69 input  -65.29 | X-H torsion
[ 10718 10713 10712 10709 ] final -126.55 input   66.30 | X-H torsion
[ 10763 10752 10751 10750 ] final   50.10 input  -60.55 | X-H torsion
[ 11005 11000 10999 10996 ] final -114.76 input  -57.11 | X-H torsion

> <Gold.Protein.ActiveResidues>
 VAL166  LYS551  ARG553  GLY616  TRP617  ASP618  TYR619  PRO620  LYS621  CYS622 
 ASP623  PHE694  ASN695  SER759  ASP760  ASP761  ALA762  ILE779  LEU786  VAL792 
 PHE793  MET794  SER795  GLU796  ALA797  LYS798  CYS799  TRP800  GLU811  SER814 

> <Gold.Protein.RotatedAtoms>
  152.0808  134.9472  160.0573 H   0  0  0  0  0  0  0  0  0  0  0  0  # atno 6907 bound_to 6896
  152.0762  133.4125  159.4489 H   0  0  0  0  0  0  0  0  0  0  0  0  # atno 6908 bound_to 6896
  150.6836  134.2955  159.4728 H   0  0  0  0  0  0  0  0  0  0  0  0  # atno 6909 bound_to 6896
  145.7237  139.2658  143.1581 H   0  0  0  0  0  0  0  0  0  0  0  0  # atno 7974 bound_to 7965
  154.3997  140.1420  156.3695 H   0  0  0  0  0  0  0  0  0  0  0  0  # atno 8008 bound_to 7997
  155.8106  140.3473  155.5435 H   0  0  0  0  0  0  0  0  0  0  0  0  # atno 8009 bound_to 7997
  155.8390  140.0924  157.1736 H   0  0  0  0  0  0  0  0  0  0  0  0  # atno 8010 bound_to 7997
  140.3118  143.3100  152.0140 H   0  0  0  0  0  0  0  0  0  0  0  0  # atno 10167 bound_to 10162
  156.1775  130.6709  151.0261 H   0  0  0  0  0  0  0  0  0  0  0  0  # atno 10718 bound_to 10713
  152.9785  135.5890  154.4197 H   0  0  0  0  0  0  0  0  0  0  0  0  # atno 10763 bound_to 10752
  154.3823  135.2767  155.2206 H   0  0  0  0  0  0  0  0  0  0  0  0  # atno 10764 bound_to 10752
  154.4114  135.6080  153.6009 H   0  0  0  0  0  0  0  0  0  0  0  0  # atno 10765 bound_to 10752
  141.0531  133.9655  157.2801 H   0  0  0  0  0  0  0  0  0  0  0  0  # atno 11005 bound_to 11000
  146.0602  140.7979  142.9739 LP  0  0  0  0  0  0  0  0  0  0  0  0  # atno 17320 bound_to 7965
  144.6910  140.3184  143.7236 LP  0  0  0  0  0  0  0  0  0  0  0  0  # atno 17321 bound_to 7965
  139.4892  144.6378  151.6939 LP  0  0  0  0  0  0  0  0  0  0  0  0  # atno 17342 bound_to 10162
  140.5561  144.0345  150.6148 LP  0  0  0  0  0  0  0  0  0  0  0  0  # atno 17343 bound_to 10162
  157.6846  131.0828  150.7278 LP  0  0  0  0  0  0  0  0  0  0  0  0  # atno 17370 bound_to 10713
  156.7336  130.4717  149.5494 LP  0  0  0  0  0  0  0  0  0  0  0  0  # atno 17371 bound_to 10713
  139.9367  135.0195  156.8578 LP  0  0  0  0  0  0  0  0  0  0  0  0  # atno 17394 bound_to 11000
  140.6017  134.0166  155.7540 LP  0  0  0  0  0  0  0  0  0  0  0  0  # atno 17395 bound_to 11000

$$$$
