AV-unprocessed.smi:2397|AV-procd|sdf|9493|dock2
  -GOLD-   2272013123D 1   1.00000     0.00000
 Structure written by MMmdl.
 36 37  0  0  0  0  0  0  0  0  1 V2000
  146.5790  138.6479  151.4373 C   0  0  0  0  0  0  0  0  0  0  0  0
  146.6907  138.4053  152.9507 C   0  0  0  0  0  0  0  0  0  0  0  0
  145.3419  138.0740  153.6074 C   0  0  0  0  0  0  0  0  0  0  0  0
  147.4038  139.5490  153.6599 C   0  0  0  0  0  0  0  0  0  0  0  0
  146.8842  140.7708  153.5085 N   0  0  0  0  0  0  0  0  0  0  0  0
  147.5147  141.7838  154.1386 C   0  0  0  0  0  0  0  0  0  0  0  0
  148.6680  141.5715  154.9195 C   0  0  0  0  0  0  0  0  0  0  0  0
  149.1402  140.2393  155.0061 C   0  0  0  0  0  0  0  0  0  0  0  0
  150.2761  139.8726  155.7561 N   0  0  0  0  0  0  0  0  0  0  0  0
  150.6991  140.9484  156.6503 C   0  0  0  0  0  0  0  0  0  0  0  0
  151.7869  140.4570  157.6158 C   0  0  0  0  0  0  0  0  0  0  0  0
  152.8666  139.9169  156.8664 O   0  0  0  0  0  0  0  0  0  0  0  0
  152.4592  138.7843  156.1081 C   0  0  0  0  0  0  0  0  0  0  0  0
  151.3807  139.1824  155.0728 C   0  0  1  0  0  0  0  0  0  0  0  0
  150.9729  137.9161  154.2971 C   0  0  0  0  0  0  0  0  0  0  0  0
  150.3453  138.0954  153.1322 N   0  0  0  0  0  0  0  0  0  0  0  0
  151.2306  136.7957  154.7343 O   0  0  0  0  0  0  0  0  0  0  0  0
  148.4895  139.2356  154.3747 N   0  0  0  0  0  0  0  0  0  0  0  0
  147.5620  138.8060  150.9929 H   0  0  0  0  0  0  0  0  0  0  0  0
  145.9690  139.5247  151.2183 H   0  0  0  0  0  0  0  0  0  0  0  0
  146.1230  137.7942  150.9358 H   0  0  0  0  0  0  0  0  0  0  0  0
  147.3123  137.5159  153.0699 H   0  0  0  0  0  0  0  0  0  0  0  0
  145.4689  137.8390  154.6644 H   0  0  0  0  0  0  0  0  0  0  0  0
  144.8751  137.2118  153.1308 H   0  0  0  0  0  0  0  0  0  0  0  0
  144.6464  138.9104  153.5332 H   0  0  0  0  0  0  0  0  0  0  0  0
  147.0946  142.7717  154.0222 H   0  0  0  0  0  0  0  0  0  0  0  0
  149.1510  142.3963  155.4209 H   0  0  0  0  0  0  0  0  0  0  0  0
  151.0785  141.7811  156.0562 H   0  0  0  0  0  0  0  0  0  0  0  0
  149.8561  141.3293  157.2288 H   0  0  0  0  0  0  0  0  0  0  0  0
  152.1543  141.2854  158.2217 H   0  0  0  0  0  0  0  0  0  0  0  0
  151.3909  139.7087  158.3046 H   0  0  0  0  0  0  0  0  0  0  0  0
  153.3380  138.3779  155.6058 H   0  0  0  0  0  0  0  0  0  0  0  0
  152.0947  138.0059  156.7817 H   0  0  0  0  0  0  0  0  0  0  0  0
  151.8363  139.8885  154.3764 H   0  0  0  0  0  0  0  0  0  0  0  0
  150.0571  137.2970  152.5855 H   0  0  0  0  0  0  0  0  0  0  0  0
  150.1614  139.0318  152.8026 H   0  0  0  0  0  0  0  0  0  0  0  0
  1  2  1  0  0  0  0
  1 19  1  0  0  0  0
  1 20  1  0  0  0  0
  1 21  1  0  0  0  0
  2  3  1  0  0  0  0
  2  4  1  0  0  0  0
  2 22  1  0  0  0  0
  3 23  1  0  0  0  0
  3 24  1  0  0  0  0
  3 25  1  0  0  0  0
  4 18  1  0  0  0  0
  4  5  2  0  0  0  0
  5  6  1  0  0  0  0
  6  7  2  0  0  0  0
  6 26  1  0  0  0  0
  7  8  1  0  0  0  0
  7 27  1  0  0  0  0
  8  9  1  0  0  0  0
  8 18  2  0  0  0  0
  9 14  1  0  0  0  0
  9 10  1  0  0  0  0
 10 11  1  0  0  0  0
 10 28  1  0  0  0  0
 10 29  1  0  0  0  0
 11 12  1  0  0  0  0
 11 30  1  0  0  0  0
 11 31  1  0  0  0  0
 12 13  1  0  0  0  0
 13 14  1  0  0  0  0
 13 32  1  0  0  0  0
 13 33  1  0  0  0  0
 14 15  1  0  0  0  0
 14 34  1  0  0  0  0
 15 16  1  0  0  0  0
 15 17  2  0  0  0  0
 16 35  1  0  0  0  0
 16 36  1  0  0  0  0
M  END
> <s_m_source_file>
AV-unprocessed.smi

> <i_m_source_file_index>
2397

> <i_lp_mmshare_version>
43012

> <i_f3d_flags>
0

> <s_epik_input>
W0NIM11bQ0hdKFtDSDNdKWMxbltjSF1bY0hdYyhuMSlOMltDSDJdW0NIMl1PW0NIMl1bQ0BIXTJDKD1PKVtOSDJd

> <s_epik_cmdline>
J2VwaWtfcHl0aG9uJywgJy1waCcsICc3LjAnLCAnLXRuJywgJzgnLCAnLW1hJywgJzIwMCcsICctbWV0YWxfYmluZGluZycsICctaW1hZScsICc8aW5maWxlLm1hZT4nLCAnLW9tYWUnLCAnPG91dGZpbGUubWFlPic=

> <r_lp_tautomer_probability>
1

> <r_epik_Ionization_Penalty>
0.0323151

> <r_epik_Ionization_Penalty_Charging>
0

> <r_epik_Ionization_Penalty_Neutral>
0.0323151

> <r_epik_State_Penalty>
0.0267324

> <r_epik_Charging_Adjusted_Penalty>
0.0267324

> <i_epik_Tot_Q>
0

> <i_epik_Tot_abs_Q>
0

> <r_epik_Metal_State_Penalty>
0.0253461

> <b_epik_Metal_Only>
0

> <s_lp_Force_Field>
OPLS_2005

> <r_lp_Energy>
6.33426

> <b_lp_Chiralities_Consistent>
1

> <s_lp_Variant>
AV-unprocessed.smi:2397-1

> <Gold.Version>
5.8.1

> <Gold.Id.Protein>
6NUR|6NUR_protein|mol2

> <Gold.PLP.Fitness>
36.3216

> <Gold.PLP.PLP>
-28.2733

> <Gold.PLP.part.hbond>
-4.7912

> <Gold.PLP.part.metal>
0.0000

> <Gold.PLP.part.buried>
2.9002

> <Gold.PLP.part.nonpolar>
-27.6638

> <Gold.PLP.part.repulsive>
0.5797

> <Gold.PLP.ligand.clash>
0.3510

> <Gold.PLP.ligand.torsion>
0.7247

> <Gold.PLP.Chemscore.Hbond>
3.1725

> <Gold.PLP.Chemscore.CHOScore>
0.0000

> <Gold.PLP.Chemscore.Metal>
0.0000

> <Gold.Chemscore.Hbonds>
donor molecule, donor type, donor heavy atom, donor atom, acceptor molecule, acceptor atom, score
      L1  H    16    35       P1  7948  0.45
      L1  H    16    36       P1  7957  0.82
      P1  H  7997  8009       L1    12  1.00
      P1  H 10752 10763       L1    17  0.88

> <Gold.PLP.Chemscore.Internal.Correction>
0.3314

> <Gold.Rescore>
     Score         DG    S(hbond)    S(metal)    S(lipo)     H(rot)  DE(clash)    DE(int)     intcor
      9.84     -14.72       2.17        0.00      55.31       1.74       0.28       4.60       ----

> <Gold.Chemscore.Fitness>
9.8399

> <Gold.Chemscore.DG>
-14.7224

> <Gold.Chemscore.ZeroCoef>
-5.4800

> <Gold.Chemscore.Hbond>
2.1655

> <Gold.Chemscore.Metal>
0.0000

> <Gold.Chemscore.Lipo>
55.3061

> <Gold.Chemscore.Internal_Hbond>
0.0000

> <Gold.Chemscore.DEClash>
0.2818

> <Gold.Chemscore.DEInternal>
4.6006

> <Gold.Chemscore.Rot>
1.7426

> <Gold.Chemscore.Internal.Correction>
   9.000000E+99

> <Gold.Chemscore.Hbonds>
donor molecule, donor type, donor heavy atom, donor atom, acceptor molecule, acceptor atom, score
      L1  H    16    35       P1  7948  0.02
      L1  H    16    36       P1  7957  0.55
      P1  H  7997  8009       L1    12  0.37
      P1  H 10752 10763       L1    17  0.86

> <Gold.Chemscore.Hbond.Weighted>
-7.2326

> <Gold.Chemscore.Metal.Weighted>
-0.0000

> <Gold.Chemscore.Lipo.Weighted>
-6.4708

> <Gold.Chemscore.Internal_Hbond.Weighted>
0.0000

> <Gold.Chemscore.DEClash.Weighted>
0.2818

> <Gold.Chemscore.DEInternal.Weighted>
4.6006

> <Gold.Chemscore.Rot.Weighted>
4.4610

> <Gold.Chemscore.Internal.Correction.Weighted>
   9.000000E+99

> <Gold.Protein.RotatedTorsions>
[ 6907 6896 6895 6894 ] final  134.45 input  -60.11 | X-H torsion
[ 7974 7965 7964 7962 ] final -168.87 input  175.53 | X-H torsion
[ 8008 7997 7996 7995 ] final -167.05 input   59.86 | X-H torsion
[ 10167 10162 10161 10158 ] final -120.47 input  -65.29 | X-H torsion
[ 10718 10713 10712 10709 ] final  -18.38 input   66.30 | X-H torsion
[ 10763 10752 10751 10750 ] final   55.09 input  -60.55 | X-H torsion
[ 11005 11000 10999 10996 ] final  142.80 input  -57.11 | X-H torsion

> <Gold.Protein.ActiveResidues>
 VAL166  LYS551  ARG553  GLY616  TRP617  ASP618  TYR619  PRO620  LYS621  CYS622 
 ASP623  PHE694  ASN695  SER759  ASP760  ASP761  ALA762  ILE779  LEU786  VAL792 
 PHE793  MET794  SER795  GLU796  ALA797  LYS798  CYS799  TRP800  GLU811  SER814 

> <Gold.Protein.RotatedAtoms>
  152.3112  133.5755  159.5681 H   0  0  0  0  0  0  0  0  0  0  0  0  # atno 6907 bound_to 6896
  150.7324  134.0149  159.3691 H   0  0  0  0  0  0  0  0  0  0  0  0  # atno 6908 bound_to 6896
  151.8042  135.0700  160.0455 H   0  0  0  0  0  0  0  0  0  0  0  0  # atno 6909 bound_to 6896
  144.7195  140.2306  143.6304 H   0  0  0  0  0  0  0  0  0  0  0  0  # atno 7974 bound_to 7965
  155.8723  140.0995  157.1542 H   0  0  0  0  0  0  0  0  0  0  0  0  # atno 8008 bound_to 7997
  154.3998  140.1344  156.4157 H   0  0  0  0  0  0  0  0  0  0  0  0  # atno 8009 bound_to 7997
  155.7736  140.3460  155.5262 H   0  0  0  0  0  0  0  0  0  0  0  0  # atno 8010 bound_to 7997
  140.0355  143.5205  152.2156 H   0  0  0  0  0  0  0  0  0  0  0  0  # atno 10167 bound_to 10162
  156.5603  130.4724  149.6410 H   0  0  0  0  0  0  0  0  0  0  0  0  # atno 10718 bound_to 10713
  152.9812  135.5722  154.5010 H   0  0  0  0  0  0  0  0  0  0  0  0  # atno 10763 bound_to 10752
  154.4530  135.2779  155.1770 H   0  0  0  0  0  0  0  0  0  0  0  0  # atno 10764 bound_to 10752
  154.3390  135.6233  153.5640 H   0  0  0  0  0  0  0  0  0  0  0  0  # atno 10765 bound_to 10752
  140.0505  134.9258  157.1008 H   0  0  0  0  0  0  0  0  0  0  0  0  # atno 11005 bound_to 11000
  145.8414  139.2132  143.1825 LP  0  0  0  0  0  0  0  0  0  0  0  0  # atno 17320 bound_to 7965
  146.0343  140.8228  142.9860 LP  0  0  0  0  0  0  0  0  0  0  0  0  # atno 17321 bound_to 7965
  139.6048  144.7593  151.3088 LP  0  0  0  0  0  0  0  0  0  0  0  0  # atno 17342 bound_to 10162
  140.7283  143.6939  150.7900 LP  0  0  0  0  0  0  0  0  0  0  0  0  # atno 17343 bound_to 10162
  156.2805  130.7068  151.1891 LP  0  0  0  0  0  0  0  0  0  0  0  0  # atno 17370 bound_to 10713
  157.7370  131.0557  150.5382 LP  0  0  0  0  0  0  0  0  0  0  0  0  # atno 17371 bound_to 10713
  140.3925  134.2169  155.7165 LP  0  0  0  0  0  0  0  0  0  0  0  0  # atno 17394 bound_to 11000
  141.1928  133.8165  157.0826 LP  0  0  0  0  0  0  0  0  0  0  0  0  # atno 17395 bound_to 11000

$$$$
