AV-unprocessed.smi:1633|AV-procd|sdf|6532|dock1
  -GOLD-   22720 7213D 1   1.00000     0.00000
 Structure written by MMmdl.
 51 53  0  0  0  0  0  0  0  0  2 V2000
  147.4467  135.4000  158.0925 C   0  0  0  0  0  0  0  0  0  0  0  0
  148.8497  135.3502  157.4836 C   0  0  0  0  0  0  0  0  0  0  0  0
  149.7899  135.0557  158.2210 O   0  0  0  0  0  0  0  0  0  0  0  0
  149.0125  135.6278  156.1678 N   0  0  0  0  0  0  0  0  0  0  0  0
  150.3253  135.6445  155.5166 C   0  0  0  0  0  0  0  0  0  0  0  0
  150.6571  137.0851  155.0880 C   0  0  0  0  0  0  0  0  0  0  0  0
  149.5912  137.6521  154.2194 N   0  3  0  0  0  0  0  0  0  0  0  0
  149.9078  139.0306  153.7655 C   0  0  0  0  0  0  0  0  0  0  0  0
  149.1135  140.1064  154.5322 C   0  0  2  0  0  0  0  0  0  0  0  0
  148.0594  140.5621  153.7056 O   0  0  0  0  0  0  0  0  0  0  0  0
  150.0028  141.2998  154.9313 C   0  0  0  0  0  0  0  0  0  0  0  0
  150.9975  140.9375  155.9253 N   0  0  0  0  0  0  0  0  0  0  0  0
  151.8710  139.9142  155.8609 C   0  0  0  0  0  0  0  0  0  0  0  0
  152.6938  139.7505  156.8923 N   0  0  0  0  0  0  0  0  0  0  0  0
  152.3129  140.7911  157.7220 C   0  0  0  0  0  0  0  0  0  0  0  0
  152.7956  141.1754  158.9919 C   0  0  0  0  0  0  0  0  0  0  0  0
  152.2464  142.2867  159.6703 C   0  0  0  0  0  0  0  0  0  0  0  0
  152.7930  142.6621  161.0363 C   0  0  0  0  0  0  0  0  0  0  0  0
  151.1986  143.0353  159.0760 C   0  0  0  0  0  0  0  0  0  0  0  0
  150.5949  144.2349  159.7851 C   0  0  0  0  0  0  0  0  0  0  0  0
  150.7040  142.6646  157.8082 C   0  0  0  0  0  0  0  0  0  0  0  0
  151.2565  141.5548  157.1447 C   0  0  0  0  0  0  0  0  0  0  0  0
  148.2330  137.5154  154.8150 C   0  0  0  0  0  0  0  0  0  0  0  0
  147.9543  136.0655  155.2520 C   0  0  0  0  0  0  0  0  0  0  0  0
  147.0190  136.3989  158.0013 H   0  0  0  0  0  0  0  0  0  0  0  0
  147.4795  135.1475  159.1529 H   0  0  0  0  0  0  0  0  0  0  0  0
  146.7866  134.6842  157.6017 H   0  0  0  0  0  0  0  0  0  0  0  0
  151.1218  135.2575  156.1536 H   0  0  0  0  0  0  0  0  0  0  0  0
  150.2994  134.9898  154.6441 H   0  0  0  0  0  0  0  0  0  0  0  0
  150.7781  137.7160  155.9703 H   0  0  0  0  0  0  0  0  0  0  0  0
  151.6093  137.0948  154.5559 H   0  0  0  0  0  0  0  0  0  0  0  0
  150.9807  139.2044  153.8604 H   0  0  0  0  0  0  0  0  0  0  0  0
  149.6774  139.1261  152.7029 H   0  0  0  0  0  0  0  0  0  0  0  0
  148.6791  139.6852  155.4383 H   0  0  0  0  0  0  0  0  0  0  0  0
  148.3631  140.5740  152.8100 H   0  0  0  0  0  0  0  0  0  0  0  0
  150.5234  141.6909  154.0559 H   0  0  0  0  0  0  0  0  0  0  0  0
  149.3978  142.1182  155.3237 H   0  0  0  0  0  0  0  0  0  0  0  0
  151.9007  139.2484  155.0109 H   0  0  0  0  0  0  0  0  0  0  0  0
  153.5943  140.6053  159.4436 H   0  0  0  0  0  0  0  0  0  0  0  0
  153.2252  143.6624  161.0122 H   0  0  0  0  0  0  0  0  0  0  0  0
  153.5705  141.9689  161.3587 H   0  0  0  0  0  0  0  0  0  0  0  0
  151.9999  142.6446  161.7840 H   0  0  0  0  0  0  0  0  0  0  0  0
  149.8224  144.7085  159.1784 H   0  0  0  0  0  0  0  0  0  0  0  0
  151.3609  144.9823  159.9929 H   0  0  0  0  0  0  0  0  0  0  0  0
  150.1409  143.9317  160.7287 H   0  0  0  0  0  0  0  0  0  0  0  0
  149.9040  143.2244  157.3463 H   0  0  0  0  0  0  0  0  0  0  0  0
  148.1457  138.1814  155.6750 H   0  0  0  0  0  0  0  0  0  0  0  0
  147.4714  137.8213  154.0992 H   0  0  0  0  0  0  0  0  0  0  0  0
  147.9479  135.4096  154.3801 H   0  0  0  0  0  0  0  0  0  0  0  0
  146.9527  135.9976  155.6738 H   0  0  0  0  0  0  0  0  0  0  0  0
  149.5940  137.0820  153.3851 H   0  0  0  0  0  0  0  0  0  0  0  0
  1  2  1  0  0  0  0
  1 25  1  0  0  0  0
  1 26  1  0  0  0  0
  1 27  1  0  0  0  0
  2  3  2  0  0  0  0
  2  4  1  0  0  0  0
  4 24  1  0  0  0  0
  4  5  1  0  0  0  0
  5  6  1  0  0  0  0
  5 28  1  0  0  0  0
  5 29  1  0  0  0  0
  6  7  1  0  0  0  0
  6 30  1  0  0  0  0
  6 31  1  0  0  0  0
  7  8  1  0  0  0  0
  7 23  1  0  0  0  0
  7 51  1  0  0  0  0
  8  9  1  0  0  0  0
  8 32  1  0  0  0  0
  8 33  1  0  0  0  0
  9 10  1  0  0  0  0
  9 11  1  0  0  0  0
  9 34  1  0  0  0  0
 10 35  1  0  0  0  0
 11 12  1  0  0  0  0
 11 36  1  0  0  0  0
 11 37  1  0  0  0  0
 12 22  1  0  0  0  0
 12 13  1  0  0  0  0
 13 14  2  0  0  0  0
 13 38  1  0  0  0  0
 14 15  1  0  0  0  0
 15 22  2  0  0  0  0
 15 16  1  0  0  0  0
 16 17  2  0  0  0  0
 16 39  1  0  0  0  0
 17 18  1  0  0  0  0
 17 19  1  0  0  0  0
 18 40  1  0  0  0  0
 18 41  1  0  0  0  0
 18 42  1  0  0  0  0
 19 20  1  0  0  0  0
 19 21  2  0  0  0  0
 20 43  1  0  0  0  0
 20 44  1  0  0  0  0
 20 45  1  0  0  0  0
 21 22  1  0  0  0  0
 21 46  1  0  0  0  0
 23 24  1  0  0  0  0
 23 47  1  0  0  0  0
 23 48  1  0  0  0  0
 24 49  1  0  0  0  0
 24 50  1  0  0  0  0
M  CHG  1   7   1
M  END
> <s_m_source_file>
AV-unprocessed.smi

> <i_m_source_file_index>
1633

> <i_lp_mmshare_version>
43012

> <i_f3d_flags>
0

> <s_epik_input>
W0NIM11DKD1PKU4xW0NIMl1bQ0gyXU4oW0NIMl1bQ0gyXTEpW0NIMl1bQ0BIXShbT0hdKVtDSDJdbihbY0hdbjIpYyhjMjMpW2NIXWMoW0NIM10pYyhbY0hdMylbQ0gzXQ==

> <s_epik_cmdline>
J2VwaWtfcHl0aG9uJywgJy1waCcsICc3LjAnLCAnLXRuJywgJzgnLCAnLW1hJywgJzIwMCcsICctbWV0YWxfYmluZGluZycsICctaW1hZScsICc8aW5maWxlLm1hZT4nLCAnLW9tYWUnLCAnPG91dGZpbGUubWFlPic=

> <r_epik_Ionization_Penalty>
0.0939669

> <r_epik_Ionization_Penalty_Charging>
0.00645254

> <r_epik_Ionization_Penalty_Neutral>
0.0875144

> <r_epik_State_Penalty>
0.0777239

> <r_epik_Charging_Adjusted_Penalty>
0.0841764

> <i_epik_Tot_Q>
1

> <i_epik_Tot_abs_Q>
1

> <r_epik_Metal_State_Penalty>
7.71307e-05

> <b_epik_Metal_Only>
0

> <s_lp_Force_Field>
OPLS_2005

> <r_lp_Energy>
43.6945

> <b_lp_Chiralities_Consistent>
1

> <s_lp_Variant>
AV-unprocessed.smi:1633-1

> <Gold.Version>
5.8.1

> <Gold.Id.Protein>
6NUR|6NUR_protein|mol2

> <Gold.PLP.Fitness>
51.6588

> <Gold.PLP.PLP>
-39.0289

> <Gold.PLP.part.hbond>
-4.0000

> <Gold.PLP.part.metal>
0.0000

> <Gold.PLP.part.buried>
-2.7416

> <Gold.PLP.part.nonpolar>
-32.6754

> <Gold.PLP.part.repulsive>
0.0000

> <Gold.PLP.ligand.clash>
0.0000

> <Gold.PLP.ligand.torsion>
1.2426

> <Gold.PLP.Chemscore.Hbond>
5.0000

> <Gold.PLP.Chemscore.CHOScore>
0.0000

> <Gold.PLP.Chemscore.Metal>
0.0000

> <Gold.Chemscore.Hbonds>
donor molecule, donor type, donor heavy atom, donor atom, acceptor molecule, acceptor atom, score
      L1  H     7    51       P1  7948  2.00
      L1  H    10    35       P1  7957  0.76
      P1  H  6896  6908       L1     3  0.96
      P1  H  7997  8010       L1    14  1.00

> <Gold.PLP.Chemscore.Internal.Correction>
0.1152

> <Gold.Rescore>
     Score         DG    S(hbond)    S(metal)    S(lipo)     H(rot)  DE(clash)    DE(int)     intcor
     20.78     -23.32       3.70        0.00      94.26       2.16       0.28       2.26       ----

> <Gold.Chemscore.Fitness>
20.7754

> <Gold.Chemscore.DG>
-23.3207

> <Gold.Chemscore.ZeroCoef>
-5.4800

> <Gold.Chemscore.Hbond>
3.6958

> <Gold.Chemscore.Metal>
0.0000

> <Gold.Chemscore.Lipo>
94.2583

> <Gold.Chemscore.Internal_Hbond>
0.0000

> <Gold.Chemscore.DEClash>
0.2811

> <Gold.Chemscore.DEInternal>
2.2642

> <Gold.Chemscore.Rot>
2.1608

> <Gold.Chemscore.Internal.Correction>
   9.000000E+99

> <Gold.Chemscore.Hbonds>
donor molecule, donor type, donor heavy atom, donor atom, acceptor molecule, acceptor atom, score
      L1  H     7    51       P1  7948  0.78
      L1  H    10    35       P1  7957  0.74
      P1  H  6896  6908       L1     3  0.92
      P1  H  7997  8010       L1    14  0.33

> <Gold.Chemscore.Hbond.Weighted>
-12.3441

> <Gold.Chemscore.Metal.Weighted>
-0.0000

> <Gold.Chemscore.Lipo.Weighted>
-11.0282

> <Gold.Chemscore.Internal_Hbond.Weighted>
0.0000

> <Gold.Chemscore.DEClash.Weighted>
0.2811

> <Gold.Chemscore.DEInternal.Weighted>
2.2642

> <Gold.Chemscore.Rot.Weighted>
5.5317

> <Gold.Chemscore.Internal.Correction.Weighted>
   9.000000E+99

> <Gold.Protein.RotatedTorsions>
[ 6907 6896 6895 6894 ] final  172.95 input  -60.11 | X-H torsion
[ 7974 7965 7964 7962 ] final  169.93 input  175.53 | X-H torsion
[ 8008 7997 7996 7995 ] final   60.09 input   59.86 | X-H torsion
[ 10167 10162 10161 10158 ] final  100.24 input  -65.29 | X-H torsion
[ 10718 10713 10712 10709 ] final   37.91 input   66.30 | X-H torsion
[ 10763 10752 10751 10750 ] final   15.28 input  -60.55 | X-H torsion
[ 11005 11000 10999 10996 ] final  145.99 input  -57.11 | X-H torsion

> <Gold.Protein.ActiveResidues>
 VAL166  LYS551  ARG553  GLY616  TRP617  ASP618  TYR619  PRO620  LYS621  CYS622 
 ASP623  PHE694  ASN695  SER759  ASP760  ASP761  ALA762  ILE779  LEU786  VAL792 
 PHE793  MET794  SER795  GLU796  ALA797  LYS798  CYS799  TRP800  GLU811  SER814 

> <Gold.Protein.RotatedAtoms>
  151.7761  133.3345  159.3457 H   0  0  0  0  0  0  0  0  0  0  0  0  # atno 6907 bound_to 6896
  150.7443  134.5974  159.6028 H   0  0  0  0  0  0  0  0  0  0  0  0  # atno 6908 bound_to 6896
  152.3308  134.7263  160.0341 H   0  0  0  0  0  0  0  0  0  0  0  0  # atno 6909 bound_to 6896
  144.7339  139.9128  143.6416 H   0  0  0  0  0  0  0  0  0  0  0  0  # atno 7974 bound_to 7965
  155.5767  140.3491  155.4529 H   0  0  0  0  0  0  0  0  0  0  0  0  # atno 8008 bound_to 7997
  156.0404  140.1294  157.0187 H   0  0  0  0  0  0  0  0  0  0  0  0  # atno 8009 bound_to 7997
  154.4389  140.1025  156.6214 H   0  0  0  0  0  0  0  0  0  0  0  0  # atno 8010 bound_to 7997
  139.7545  144.6974  151.0383 H   0  0  0  0  0  0  0  0  0  0  0  0  # atno 10167 bound_to 10162
  157.3526  130.7606  149.6989 H   0  0  0  0  0  0  0  0  0  0  0  0  # atno 10718 bound_to 10713
  153.1540  135.6784  153.8839 H   0  0  0  0  0  0  0  0  0  0  0  0  # atno 10763 bound_to 10752
  153.8256  135.3124  155.3415 H   0  0  0  0  0  0  0  0  0  0  0  0  # atno 10764 bound_to 10752
  154.7884  135.4849  154.0084 H   0  0  0  0  0  0  0  0  0  0  0  0  # atno 10765 bound_to 10752
  140.0757  134.9126  157.1418 H   0  0  0  0  0  0  0  0  0  0  0  0  # atno 11005 bound_to 11000
  146.0988  139.3982  143.0359 LP  0  0  0  0  0  0  0  0  0  0  0  0  # atno 17320 bound_to 7965
  145.7607  140.9936  143.1201 LP  0  0  0  0  0  0  0  0  0  0  0  0  # atno 17321 bound_to 7965
  140.7801  143.4769  151.0070 LP  0  0  0  0  0  0  0  0  0  0  0  0  # atno 17342 bound_to 10162
  139.8457  143.7505  152.3179 LP  0  0  0  0  0  0  0  0  0  0  0  0  # atno 17343 bound_to 10162
  155.9724  130.4136  150.4091 LP  0  0  0  0  0  0  0  0  0  0  0  0  # atno 17370 bound_to 10713
  157.2157  131.0470  151.2575 LP  0  0  0  0  0  0  0  0  0  0  0  0  # atno 17371 bound_to 10713
  140.3562  134.2544  155.7192 LP  0  0  0  0  0  0  0  0  0  0  0  0  # atno 17394 bound_to 11000
  141.2028  133.7927  157.0370 LP  0  0  0  0  0  0  0  0  0  0  0  0  # atno 17395 bound_to 11000

$$$$
