#       Name:                AV-unprocessed.smi:3122
#       Creating user name   scv26
#       Creation time:       Fri Mar 27 17:28:23 2020


#       File generated by GOLD software.
#

@<TRIPOS>MOLECULE
AV-unprocessed.smi:3122
    36    37     1
SMALL
NO_CHARGES


@<TRIPOS>ATOM
      1 ****        -3.6600  -1.3166   2.1954 C.3            1 S1                 0.0000
      2 ****        -3.1015  -0.8296   0.8500 C.3            1 S1                 0.0000
      3 ****        -3.6327  -1.6522  -0.3323 C.3            1 S1                 0.0000
      4 ****        -1.6062  -0.7727   0.8493 C.2            1 S1                 0.0000
      5 ****        -0.7543  -1.7377   1.2079 N.2            1 S1                 0.0000
      6 ****         0.5035  -1.2519   0.9310 N.2            1 S1                 0.0000
      7 ****         0.3181  -0.0352   0.4108 C.2            1 S1                 0.0000
      8 ****         1.3531   0.9008  -0.1250 C.3            1 S1                 0.0000
      9 ****         1.6465   0.6562  -1.6177 C.3            1 S1                 0.0000
     10 ****         2.7215   1.5364  -2.0733 N.3            1 S1                 0.0000
     11 ****         3.9163   1.3855  -1.2436 C.3            1 S1                 0.0000
     12 ****         3.5700   1.6022   0.2406 C.3            1 S1                 0.0000
     13 ****         2.5445   0.6947   0.6295 O.3            1 S1                 0.0000
     14 ****        -0.9917   0.3054   0.2966 O.3            1 S1                 0.0000
     15 ****        -3.3146  -0.6849   3.0144 H              1 S1                 0.0000
     16 ****        -3.3492  -2.3399   2.4094 H              1 S1                 0.0000
     17 ****        -4.7501  -1.2936   2.1994 H              1 S1                 0.0000
     18 ****        -3.4551   0.1931   0.7136 H              1 S1                 0.0000
     19 ****        -3.2821  -1.2448  -1.2812 H              1 S1                 0.0000
     20 ****        -4.7227  -1.6503  -0.3550 H              1 S1                 0.0000
     21 ****        -3.3019  -2.6898  -0.2730 H              1 S1                 0.0000
     22 ****         0.9974   1.9214   0.0278 H              1 S1                 0.0000
     23 ****         1.9323  -0.3853  -1.7709 H              1 S1                 0.0000
     24 ****         0.7473   0.8258  -2.2105 H              1 S1                 0.0000
     25 ****         2.9492   1.3232  -3.0393 H              1 S1                 0.0000
     26 ****         4.3385   0.3890  -1.3786 H              1 S1                 0.0000
     27 ****         4.6820   2.0951  -1.5572 H              1 S1                 0.0000
     28 ****         4.4492   1.4255   0.8601 H              1 S1                 0.0000
     29 ****         3.2537   2.6306   0.4229 H              1 S1                 0.0000
     30 ****        -0.9835  -2.6297   1.5974 LP             1 S1                 0.0000
     31 ****         1.3763  -1.7144   1.0870 LP             1 S1                 0.0000
     32 ****         2.4052   2.4821  -1.9982 LP             1 S1                 0.0000
     33 ****         2.8651  -0.2410   0.4820 LP             1 S1                 0.0000
     34 ****         2.3423   0.8287   1.5996 LP             1 S1                 0.0000
     35 ****        -1.1965   1.1419   0.8048 LP             1 S1                 0.0000
     36 ****        -1.2553   0.4241  -0.6607 LP             1 S1                 0.0000
@<TRIPOS>BOND
    1    1    2 1     
    2    1   15 1     
    3    1   16 1     
    4    1   17 1     
    5    2    3 1     
    6    2    4 1     
    7    2   18 1     
    8    3   19 1     
    9    3   20 1     
   10    3   21 1     
   11    4   14 1     
   12    4    5 2     
   13    5    6 1     
   14    6    7 2     
   15    7    8 1     
   16    7   14 1     
   17    8   13 1     
   18    8    9 1     
   19    8   22 1     
   20    9   10 1     
   21    9   23 1     
   22    9   24 1     
   23   10   11 1     
   24   10   25 1     
   25   11   12 1     
   26   11   26 1     
   27   11   27 1     
   28   12   13 1     
   29   12   28 1     
   30   12   29 1     
   31    5   30 1     
   32    6   31 1     
   33   10   32 1     
   34   13   33 1     
   35   13   34 1     
   36   14   35 1     
   37   14   36 1     
@<TRIPOS>SUBSTRUCTURE
      1 S1             1
@<TRIPOS>SET
LONE_PAIRS      STATIC     ATOMS    <user>   **** ""
7 30 31 32 33 34 35 36
DONOR_HYDROGENS      STATIC     ATOMS    <user>   **** ""
1 25
ATOM$BLUE        STATIC     ATOMS    COLORGROUP SYSTEM
7 30 31 32 33 34 35 36
ATOM$RED        STATIC     ATOMS    COLORGROUP SYSTEM
1 25
