#       Name:                AV-unprocessed.smi:2121
#       Creating user name   scv26
#       Creation time:       Fri Mar 27 11:39:06 2020


#       File generated by GOLD software.
#

@<TRIPOS>MOLECULE
AV-unprocessed.smi:2121
    57    58     1
SMALL
NO_CHARGES


@<TRIPOS>ATOM
      1 ****        -4.7766  -0.3781   3.5020 C.3            1 S1                 0.0000
      2 ****        -4.3701  -1.6225   2.6924 C.3            1 S1                 0.0000
      3 ****        -2.8470  -1.7618   2.5054 C.3            1 S1                 0.0000
      4 ****        -2.3526  -0.8099   1.5135 N.3            1 S1                 0.0000
      5 ****        -0.9586  -0.6133   1.4195 C.ar           1 S1                 0.0000
      6 ****        -0.4453   0.4828   0.6875 C.ar           1 S1                 0.0000
      7 ****         0.9485   0.6639   0.6080 C.ar           1 S1                 0.0000
      8 ****         1.7985  -0.2578   1.2576 C.ar           1 S1                 0.0000
      9 ****         3.3175  -0.1377   1.2335 C.3            1 S1                 0.0000
     10 ****         3.8497   0.7369   0.1938 N.am           1 S1                 0.0000
     11 ****         4.0069   0.3955  -1.0940 C.2            1 S1                 0.0000
     12 ****         3.7446  -0.7255  -1.5328 O.2            1 S1                 0.0000
     13 ****         4.5458   1.4941  -2.0238 C.3            1 S1                 0.0000
     14 ****         6.0225   1.1929  -2.3281 C.3            1 S1                 0.0000
     15 ****         3.8118   1.5037  -3.2885 N.am           1 S1                 0.0000
     16 ****         2.5934   2.0352  -3.4683 C.2            1 S1                 0.0000
     17 ****         2.1564   1.8891  -4.7195 N.am           1 S1                 0.0000
     18 ****         1.9399   2.5955  -2.5901 O.2            1 S1                 0.0000
     19 ****         1.1948  -1.3139   1.9688 C.ar           1 S1                 0.0000
     20 ****        -0.1405  -1.4900   2.0520 N.ar           1 S1                 0.0000
     21 ****        -3.0671  -0.8795   0.2436 C.3            1 S1                 0.0000
     22 ****        -4.5812  -0.7193   0.4714 C.3            1 S1                 0.0000
     23 ****        -5.3783  -0.9285  -0.8203 C.3            1 S1                 0.0000
     24 ****        -5.0291  -1.6821   1.4253 O.3            1 S1                 0.0000
     25 ****        -4.3692  -0.4261   4.5122 H              1 S1                 0.0000
     26 ****        -5.8610  -0.3067   3.5868 H              1 S1                 0.0000
     27 ****        -4.4133   0.5455   3.0522 H              1 S1                 0.0000
     28 ****        -4.7149  -2.4901   3.2553 H              1 S1                 0.0000
     29 ****        -2.3443  -1.6146   3.4622 H              1 S1                 0.0000
     30 ****        -2.6104  -2.7723   2.1691 H              1 S1                 0.0000
     31 ****        -1.1008   1.1911   0.2029 H              1 S1                 0.0000
     32 ****         1.3451   1.5042   0.0578 H              1 S1                 0.0000
     33 ****         3.6420   0.2523   2.1983 H              1 S1                 0.0000
     34 ****         3.7579  -1.1321   1.1405 H              1 S1                 0.0000
     35 ****         4.0948   1.6771   0.4688 H              1 S1                 0.0000
     36 ****         4.4636   2.4711  -1.5428 H              1 S1                 0.0000
     37 ****         6.6186   1.1681  -1.4147 H              1 S1                 0.0000
     38 ****         6.4507   1.9610  -2.9729 H              1 S1                 0.0000
     39 ****         6.1462   0.2330  -2.8323 H              1 S1                 0.0000
     40 ****         4.2598   1.0583  -4.0756 H              1 S1                 0.0000
     41 ****         1.2526   2.2492  -4.9874 H              1 S1                 0.0000
     42 ****         2.7378   1.4186  -5.3979 H              1 S1                 0.0000
     43 ****         1.8008  -2.0403   2.4902 H              1 S1                 0.0000
     44 ****        -2.7266  -0.1139  -0.4523 H              1 S1                 0.0000
     45 ****        -2.8571  -1.8438  -0.2212 H              1 S1                 0.0000
     46 ****        -4.7913   0.2859   0.8374 H              1 S1                 0.0000
     47 ****        -5.0844  -0.2084  -1.5843 H              1 S1                 0.0000
     48 ****        -6.4470  -0.8064  -0.6423 H              1 S1                 0.0000
     49 ****        -5.2198  -1.9291  -1.2239 H              1 S1                 0.0000
     50 ****        -2.6035   0.0691   1.9189 LP             1 S1                 0.0000
     51 ****         3.3959  -1.4337  -0.9190 LP             1 S1                 0.0000
     52 ****         3.8805  -0.9272  -2.5028 LP             1 S1                 0.0000
     53 ****         2.3124   2.6785  -1.6658 LP             1 S1                 0.0000
     54 ****         1.0360   2.9681  -2.8003 LP             1 S1                 0.0000
     55 ****        -0.5205  -2.2550   2.5719 LP             1 S1                 0.0000
     56 ****        -6.0071  -1.5386   1.5763 LP             1 S1                 0.0000
     57 ****        -4.8814  -2.5932   1.0405 LP             1 S1                 0.0000
@<TRIPOS>BOND
    1    1    2 1     
    2    1   25 1     
    3    1   26 1     
    4    1   27 1     
    5    2   24 1     
    6    2    3 1     
    7    2   28 1     
    8    3    4 1     
    9    3   29 1     
   10    3   30 1     
   11    4    5 1     
   12    4   21 1     
   13    5   20 ar    
   14    5    6 ar    
   15    6    7 ar    
   16    6   31 1     
   17    7    8 ar    
   18    7   32 1     
   19    8    9 1     
   20    8   19 ar    
   21    9   10 1     
   22    9   33 1     
   23    9   34 1     
   24   10   11 am    
   25   10   35 1     
   26   11   12 2     
   27   11   13 1     
   28   13   14 1     
   29   13   15 1     
   30   13   36 1     
   31   14   37 1     
   32   14   38 1     
   33   14   39 1     
   34   15   16 am    
   35   15   40 1     
   36   16   17 am    
   37   16   18 2     
   38   17   41 1     
   39   17   42 1     
   40   19   20 ar    
   41   19   43 1     
   42   21   22 1     
   43   21   44 1     
   44   21   45 1     
   45   22   23 1     
   46   22   24 1     
   47   22   46 1     
   48   23   47 1     
   49   23   48 1     
   50   23   49 1     
   51    4   50 1     
   52   12   51 1     
   53   12   52 1     
   54   18   53 1     
   55   18   54 1     
   56   20   55 1     
   57   24   56 1     
   58   24   57 1     
@<TRIPOS>SUBSTRUCTURE
      1 S1             1
@<TRIPOS>SET
LONE_PAIRS      STATIC     ATOMS    <user>   **** ""
8 50 51 52 53 54 55 56 57
DONOR_HYDROGENS      STATIC     ATOMS    <user>   **** ""
4 35 40 41 42
ATOM$BLUE        STATIC     ATOMS    COLORGROUP SYSTEM
8 50 51 52 53 54 55 56 57
ATOM$RED        STATIC     ATOMS    COLORGROUP SYSTEM
4 35 40 41 42
