AV-unprocessed.smi:1005|AV-procd|sdf|4373|dock2
  -GOLD-   22720 2283D 1   1.00000     0.00000
 Structure written by MMmdl.
 57 59  0  0  0  0  0  0  0  0  3 V2000
  153.2295  142.3523  161.7756 C   0  0  0  0  0  0  0  0  0  0  0  0
  152.6386  142.1129  160.3973 C   0  0  0  0  0  0  0  0  0  0  0  0
  152.9859  140.9366  159.6956 C   0  0  0  0  0  0  0  0  0  0  0  0
  152.4562  140.6752  158.4133 C   0  0  0  0  0  0  0  0  0  0  0  0
  152.6544  139.6035  157.5599 N   0  0  0  0  0  0  0  0  0  0  0  0
  151.8892  139.9383  156.5256 C   0  0  0  0  0  0  0  0  0  0  0  0
  151.2054  141.0958  156.6140 N   0  0  0  0  0  0  0  0  0  0  0  0
  150.2993  141.6562  155.6278 C   0  0  0  0  0  0  0  0  0  0  0  0
  149.4309  140.5795  154.9464 C   0  0  1  0  0  0  0  0  0  0  0  0
  150.2240  139.9301  153.9735 O   0  0  0  0  0  0  0  0  0  0  0  0
  148.8852  139.5186  155.9276 C   0  0  0  0  0  0  0  0  0  0  0  0
  147.9169  138.5946  155.2848 N   0  3  2  0  0  0  0  0  0  0  0  0
  146.5390  138.7143  155.8217 C   0  0  0  0  0  0  0  0  0  0  0  0
  145.5926  137.7544  155.0837 C   0  0  0  0  0  0  0  0  0  0  0  0
  146.0840  136.4242  155.1955 O   0  0  0  0  0  0  0  0  0  0  0  0
  147.3658  136.2634  154.5974 C   0  0  2  0  0  0  0  0  0  0  0  0
  147.7379  134.7710  154.7107 C   0  0  0  0  0  0  0  0  0  0  0  0
  149.0623  134.4457  154.1202 N   0  3  0  0  0  0  0  0  0  0  0  0
  149.1337  133.0795  153.5518 C   0  0  0  0  0  0  0  0  0  0  0  0
  150.1694  134.6946  155.0701 C   0  0  0  0  0  0  0  0  0  0  0  0
  148.3675  137.1829  155.3284 C   0  0  0  0  0  0  0  0  0  0  0  0
  151.5606  141.6296  157.8483 C   0  0  0  0  0  0  0  0  0  0  0  0
  151.2117  142.8064  158.5342 C   0  0  0  0  0  0  0  0  0  0  0  0
  151.7499  143.0518  159.8147 C   0  0  0  0  0  0  0  0  0  0  0  0
  151.3648  144.3240  160.5488 C   0  0  0  0  0  0  0  0  0  0  0  0
  153.9021  141.5449  162.0666 H   0  0  0  0  0  0  0  0  0  0  0  0
  152.4390  142.4153  162.5239 H   0  0  0  0  0  0  0  0  0  0  0  0
  153.7979  143.2824  161.7922 H   0  0  0  0  0  0  0  0  0  0  0  0
  153.6646  140.2223  160.1383 H   0  0  0  0  0  0  0  0  0  0  0  0
  151.8119  139.2989  155.6583 H   0  0  0  0  0  0  0  0  0  0  0  0
  149.6698  142.3948  156.1261 H   0  0  0  0  0  0  0  0  0  0  0  0
  150.8875  142.1960  154.8840 H   0  0  0  0  0  0  0  0  0  0  0  0
  148.6103  141.0755  154.4299 H   0  0  0  0  0  0  0  0  0  0  0  0
  149.7745  139.9699  153.1424 H   0  0  0  0  0  0  0  0  0  0  0  0
  149.7289  138.9536  156.3273 H   0  0  0  0  0  0  0  0  0  0  0  0
  148.4008  139.9845  156.7868 H   0  0  0  0  0  0  0  0  0  0  0  0
  146.5394  138.4857  156.8890 H   0  0  0  0  0  0  0  0  0  0  0  0
  146.1716  139.7344  155.7157 H   0  0  0  0  0  0  0  0  0  0  0  0
  144.5956  137.8003  155.5221 H   0  0  0  0  0  0  0  0  0  0  0  0
  145.4921  138.0339  154.0337 H   0  0  0  0  0  0  0  0  0  0  0  0
  147.2922  136.5506  153.5479 H   0  0  0  0  0  0  0  0  0  0  0  0
  147.7332  134.4975  155.7669 H   0  0  0  0  0  0  0  0  0  0  0  0
  146.9738  134.1535  154.2356 H   0  0  0  0  0  0  0  0  0  0  0  0
  148.9726  132.3255  154.3236 H   0  0  0  0  0  0  0  0  0  0  0  0
  150.1127  132.9019  153.1053 H   0  0  0  0  0  0  0  0  0  0  0  0
  148.3919  132.9310  152.7684 H   0  0  0  0  0  0  0  0  0  0  0  0
  150.0819  134.0551  155.9496 H   0  0  0  0  0  0  0  0  0  0  0  0
  150.1706  135.7340  155.4005 H   0  0  0  0  0  0  0  0  0  0  0  0
  151.1339  134.4995  154.6002 H   0  0  0  0  0  0  0  0  0  0  0  0
  149.3498  137.1033  154.8612 H   0  0  0  0  0  0  0  0  0  0  0  0
  148.4799  136.8708  156.3683 H   0  0  0  0  0  0  0  0  0  0  0  0
  150.5361  143.5153  158.0794 H   0  0  0  0  0  0  0  0  0  0  0  0
  150.6808  144.9337  159.9577 H   0  0  0  0  0  0  0  0  0  0  0  0
  152.2493  144.9252  160.7614 H   0  0  0  0  0  0  0  0  0  0  0  0
  150.8719  144.0865  161.4919 H   0  0  0  0  0  0  0  0  0  0  0  0
  149.2075  135.0892  153.3554 H   0  0  0  0  0  0  0  0  0  0  0  0
  147.8820  138.8551  154.3090 H   0  0  0  0  0  0  0  0  0  0  0  0
  1  2  1  0  0  0  0
  1 26  1  0  0  0  0
  1 27  1  0  0  0  0
  1 28  1  0  0  0  0
  2 24  1  0  0  0  0
  2  3  2  0  0  0  0
  3  4  1  0  0  0  0
  3 29  1  0  0  0  0
  4 22  2  0  0  0  0
  4  5  1  0  0  0  0
  5  6  2  0  0  0  0
  6  7  1  0  0  0  0
  6 30  1  0  0  0  0
  7  8  1  0  0  0  0
  7 22  1  0  0  0  0
  8  9  1  0  0  0  0
  8 31  1  0  0  0  0
  8 32  1  0  0  0  0
  9 10  1  0  0  0  0
  9 11  1  0  0  0  0
  9 33  1  0  0  0  0
 10 34  1  0  0  0  0
 11 12  1  0  0  0  0
 11 35  1  0  0  0  0
 11 36  1  0  0  0  0
 12 21  1  0  0  0  0
 12 13  1  0  0  0  0
 12 57  1  0  0  0  0
 13 14  1  0  0  0  0
 13 37  1  0  0  0  0
 13 38  1  0  0  0  0
 14 15  1  0  0  0  0
 14 39  1  0  0  0  0
 14 40  1  0  0  0  0
 15 16  1  0  0  0  0
 16 17  1  0  0  0  0
 16 21  1  0  0  0  0
 16 41  1  0  0  0  0
 17 18  1  0  0  0  0
 17 42  1  0  0  0  0
 17 43  1  0  0  0  0
 18 19  1  0  0  0  0
 18 20  1  0  0  0  0
 18 56  1  0  0  0  0
 19 44  1  0  0  0  0
 19 45  1  0  0  0  0
 19 46  1  0  0  0  0
 20 47  1  0  0  0  0
 20 48  1  0  0  0  0
 20 49  1  0  0  0  0
 21 50  1  0  0  0  0
 21 51  1  0  0  0  0
 22 23  1  0  0  0  0
 23 24  2  0  0  0  0
 23 52  1  0  0  0  0
 24 25  1  0  0  0  0
 25 53  1  0  0  0  0
 25 54  1  0  0  0  0
 25 55  1  0  0  0  0
M  CHG  1  12   1
M  CHG  1  18   1
M  END
> <s_m_source_file>
AV-unprocessed.smi

> <i_m_source_file_index>
1005

> <i_lp_mmshare_version>
43012

> <i_f3d_flags>
0

> <s_epik_input>
W0NIM11jKFtjSF0xKWMoW0NIM10pW2NIXWMoYzEyKW4oW2NIXW4yKVtDSDJdW0NASF0oW09IXSlbQ0gyXU4zW0NIMl1bQ0gyXU9bQ0BIXShbQ0gyXTMpW0NIMl1OKFtDSDNdKVtDSDNd

> <s_epik_cmdline>
J2VwaWtfcHl0aG9uJywgJy1waCcsICc3LjAnLCAnLXRuJywgJzgnLCAnLW1hJywgJzIwMCcsICctbWV0YWxfYmluZGluZycsICctaW1hZScsICc8aW5maWxlLm1hZT4nLCAnLW9tYWUnLCAnPG91dGZpbGUubWFlPic=

> <r_epik_Ionization_Penalty>
1.0968

> <r_epik_Ionization_Penalty_Charging>
1.0096

> <r_epik_Ionization_Penalty_Neutral>
0.0871956

> <r_epik_State_Penalty>
1.31185

> <r_epik_Charging_Adjusted_Penalty>
2.32145

> <i_epik_Tot_Q>
2

> <i_epik_Tot_abs_Q>
2

> <r_epik_Metal_State_Penalty>
1.22442

> <b_epik_Metal_Only>
0

> <s_lp_Force_Field>
OPLS_2005

> <r_lp_Energy>
33.9928

> <b_lp_Chiralities_Consistent>
1

> <s_lp_Variant>
AV-unprocessed.smi:1005-12

> <Gold.Version>
5.8.1

> <Gold.Id.Protein>
6NUR|6NUR_protein|mol2

> <Gold.PLP.Fitness>
55.6867

> <Gold.PLP.PLP>
-43.8838

> <Gold.PLP.part.hbond>
-4.0000

> <Gold.PLP.part.metal>
0.0000

> <Gold.PLP.part.buried>
-5.4393

> <Gold.PLP.part.nonpolar>
-33.7392

> <Gold.PLP.part.repulsive>
0.0266

> <Gold.PLP.ligand.clash>
0.0000

> <Gold.PLP.ligand.torsion>
1.5573

> <Gold.PLP.Chemscore.Hbond>
4.9200

> <Gold.PLP.Chemscore.CHOScore>
0.0000

> <Gold.PLP.Chemscore.Metal>
0.0000

> <Gold.Chemscore.Hbonds>
donor molecule, donor type, donor heavy atom, donor atom, acceptor molecule, acceptor atom, score
      L1  H    10    34       P1  7957  1.00
      L1  H    18    56       P1  7948  1.70
      P1  H  7989  7998       L1    10  0.79
      P1  H  7997  8009       L1     5  0.75

> <Gold.PLP.Chemscore.Internal.Correction>
0.1575

> <Gold.Rescore>
     Score         DG    S(hbond)    S(metal)    S(lipo)     H(rot)  DE(clash)    DE(int)     intcor
     19.46     -21.21       2.75        0.00     110.13       2.48       0.09       1.66       ----

> <Gold.Chemscore.Fitness>
19.4559

> <Gold.Chemscore.DG>
-21.2059

> <Gold.Chemscore.ZeroCoef>
-5.4800

> <Gold.Chemscore.Hbond>
2.7526

> <Gold.Chemscore.Metal>
0.0000

> <Gold.Chemscore.Lipo>
110.1256

> <Gold.Chemscore.Internal_Hbond>
0.0000

> <Gold.Chemscore.DEClash>
0.0935

> <Gold.Chemscore.DEInternal>
1.6564

> <Gold.Chemscore.Rot>
2.4814

> <Gold.Chemscore.Internal.Correction>
   9.000000E+99

> <Gold.Chemscore.Hbonds>
donor molecule, donor type, donor heavy atom, donor atom, acceptor molecule, acceptor atom, score
      L1  H    10    34       P1  7957  0.96
      L1  H    18    56       P1  7948  0.15
      P1  H  7989  7998       L1    10  0.09
      P1  H  7997  8009       L1     5  0.03

> <Gold.Chemscore.Hbond.Weighted>
-9.1935

> <Gold.Chemscore.Metal.Weighted>
-0.0000

> <Gold.Chemscore.Lipo.Weighted>
-12.8847

> <Gold.Chemscore.Internal_Hbond.Weighted>
0.0000

> <Gold.Chemscore.DEClash.Weighted>
0.0935

> <Gold.Chemscore.DEInternal.Weighted>
1.6564

> <Gold.Chemscore.Rot.Weighted>
6.3524

> <Gold.Chemscore.Internal.Correction.Weighted>
   9.000000E+99

> <Gold.Protein.RotatedTorsions>
[ 6907 6896 6895 6894 ] final -122.97 input  -60.11 | X-H torsion
[ 7974 7965 7964 7962 ] final  165.34 input  175.53 | X-H torsion
[ 8008 7997 7996 7995 ] final -180.00 input   59.86 | X-H torsion
[ 10167 10162 10161 10158 ] final   88.29 input  -65.29 | X-H torsion
[ 10718 10713 10712 10709 ] final  -80.48 input   66.30 | X-H torsion
[ 10763 10752 10751 10750 ] final  -40.53 input  -60.55 | X-H torsion
[ 11005 11000 10999 10996 ] final   85.99 input  -57.11 | X-H torsion

> <Gold.Protein.ActiveResidues>
 VAL166  LYS551  ARG553  GLY616  TRP617  ASP618  TYR619  PRO620  LYS621  CYS622 
 ASP623  PHE694  ASN695  SER759  ASP760  ASP761  ALA762  ILE779  LEU786  VAL792 
 PHE793  MET794  SER795  GLU796  ALA797  LYS798  CYS799  TRP800  GLU811  SER814 

> <Gold.Protein.RotatedAtoms>
  150.8626  133.7621  159.2987 H   0  0  0  0  0  0  0  0  0  0  0  0  # atno 6907 bound_to 6896
  151.5259  135.1066  159.9900 H   0  0  0  0  0  0  0  0  0  0  0  0  # atno 6908 bound_to 6896
  152.4637  133.7833  159.6918 H   0  0  0  0  0  0  0  0  0  0  0  0  # atno 6909 bound_to 6896
  144.7507  139.8456  143.6367 H   0  0  0  0  0  0  0  0  0  0  0  0  # atno 7974 bound_to 7965
  156.0370  140.1295  157.0197 H   0  0  0  0  0  0  0  0  0  0  0  0  # atno 8008 bound_to 7997
  154.4374  140.1038  156.6252 H   0  0  0  0  0  0  0  0  0  0  0  0  # atno 8009 bound_to 7997
  155.5723  140.3466  155.4521 H   0  0  0  0  0  0  0  0  0  0  0  0  # atno 8010 bound_to 7997
  139.8687  144.6504  150.8974 H   0  0  0  0  0  0  0  0  0  0  0  0  # atno 10167 bound_to 10162
  156.0069  130.4575  150.3806 H   0  0  0  0  0  0  0  0  0  0  0  0  # atno 10718 bound_to 10713
  153.9474  135.6754  153.4744 H   0  0  0  0  0  0  0  0  0  0  0  0  # atno 10763 bound_to 10752
  153.0901  135.4879  154.8670 H   0  0  0  0  0  0  0  0  0  0  0  0  # atno 10764 bound_to 10752
  154.7344  135.3145  154.8795 H   0  0  0  0  0  0  0  0  0  0  0  0  # atno 10765 bound_to 10752
  139.8956  134.8324  156.2658 H   0  0  0  0  0  0  0  0  0  0  0  0  # atno 11005 bound_to 11000
  146.1452  139.4520  143.0083 LP  0  0  0  0  0  0  0  0  0  0  0  0  # atno 17320 bound_to 7965
  145.6956  141.0151  143.1532 LP  0  0  0  0  0  0  0  0  0  0  0  0  # atno 17321 bound_to 7965
  140.7764  143.3682  151.1699 LP  0  0  0  0  0  0  0  0  0  0  0  0  # atno 17342 bound_to 10162
  139.7304  143.9081  152.3017 LP  0  0  0  0  0  0  0  0  0  0  0  0  # atno 17343 bound_to 10162
  157.1886  131.0410  151.2712 LP  0  0  0  0  0  0  0  0  0  0  0  0  # atno 17370 bound_to 10713
  157.4081  130.7370  149.6818 LP  0  0  0  0  0  0  0  0  0  0  0  0  # atno 17371 bound_to 10713
  141.0133  133.7083  156.1147 LP  0  0  0  0  0  0  0  0  0  0  0  0  # atno 17394 bound_to 11000
  140.7337  134.4226  157.5563 LP  0  0  0  0  0  0  0  0  0  0  0  0  # atno 17395 bound_to 11000

$$$$
