AV-unprocessed.smi:714|AV-procd|sdf|3482|dock9
  -GOLD-   22720 0473D 1   1.00000     0.00000
 Structure written by MMmdl.
 38 39  0  0  0  0  0  0  0  0  1 V2000
  144.8973  146.7927  159.0872 C   0  0  0  0  0  0  0  0  0  0  0  0
  144.6796  145.6046  158.9077 C   0  0  0  0  0  0  0  0  0  0  0  0
  144.4159  144.1692  158.7113 C   0  0  0  0  0  0  0  0  0  0  0  0
  145.3556  143.5506  157.7830 N   0  0  0  0  0  0  0  0  0  0  0  0
  146.1715  142.5179  158.0615 C   0  0  0  0  0  0  0  0  0  0  0  0
  146.1761  141.9736  159.1669 O   0  0  0  0  0  0  0  0  0  0  0  0
  147.0323  142.1287  156.9414 C   0  0  0  0  0  0  0  0  0  0  0  0
  146.5504  142.0083  155.5752 C   0  0  0  0  0  0  0  0  0  0  0  0
  147.3939  141.6743  154.5810 C   0  0  0  0  0  0  0  0  0  0  0  0
  148.8154  141.4161  154.8245 C   0  0  0  0  0  0  0  0  0  0  0  0
  149.5807  141.1381  153.9006 O   0  0  0  0  0  0  0  0  0  0  0  0
  149.2314  141.5097  156.1313 N   0  0  0  0  0  0  0  0  0  0  0  0
  150.6327  141.2611  156.5567 C   0  0  2  0  0  0  0  0  0  0  0  0
  150.7620  140.1019  157.5657 C   0  0  0  0  0  0  0  0  0  0  0  0
  151.6540  140.6260  158.7013 C   0  0  0  0  0  0  0  0  0  0  0  0
  151.8331  142.0444  158.4369 N   0  0  0  0  0  0  0  0  0  0  0  0
  152.5439  142.8930  159.3911 C   0  0  0  0  0  0  0  0  0  0  0  0
  151.8149  144.2245  159.6508 C   0  0  0  0  0  0  0  0  0  0  0  0
  152.1256  145.0835  158.6807 F   0  0  0  0  0  0  0  0  0  0  0  0
  150.4924  144.0598  159.6602 F   0  0  0  0  0  0  0  0  0  0  0  0
  152.1995  144.7440  160.8168 F   0  0  0  0  0  0  0  0  0  0  0  0
  151.3015  142.4337  157.2730 C   0  0  0  0  0  0  0  0  0  0  0  0
  151.3380  143.5704  156.8032 O   0  0  0  0  0  0  0  0  0  0  0  0
  148.3378  141.8772  157.1606 C   0  0  0  0  0  0  0  0  0  0  0  0
  145.0879  147.8300  159.2488 H   0  0  0  0  0  0  0  0  0  0  0  0
  144.4279  143.6734  159.6832 H   0  0  0  0  0  0  0  0  0  0  0  0
  143.4074  144.0655  158.3113 H   0  0  0  0  0  0  0  0  0  0  0  0
  145.4012  143.9465  156.8555 H   0  0  0  0  0  0  0  0  0  0  0  0
  145.5144  142.1841  155.3252 H   0  0  0  0  0  0  0  0  0  0  0  0
  147.0133  141.5931  153.5734 H   0  0  0  0  0  0  0  0  0  0  0  0
  151.2742  141.0440  155.7016 H   0  0  0  0  0  0  0  0  0  0  0  0
  149.7972  139.7893  157.9663 H   0  0  0  0  0  0  0  0  0  0  0  0
  151.2018  139.2218  157.0953 H   0  0  0  0  0  0  0  0  0  0  0  0
  151.1916  140.4681  159.6763 H   0  0  0  0  0  0  0  0  0  0  0  0
  152.6240  140.1271  158.6992 H   0  0  0  0  0  0  0  0  0  0  0  0
  152.6588  142.3502  160.3303 H   0  0  0  0  0  0  0  0  0  0  0  0
  153.5541  143.0847  159.0264 H   0  0  0  0  0  0  0  0  0  0  0  0
  148.7851  141.9468  158.1420 H   0  0  0  0  0  0  0  0  0  0  0  0
  1  2  3  0  0  0  0
  1 25  1  0  0  0  0
  2  3  1  0  0  0  0
  3  4  1  0  0  0  0
  3 26  1  0  0  0  0
  3 27  1  0  0  0  0
  4  5  1  0  0  0  0
  4 28  1  0  0  0  0
  5  6  2  0  0  0  0
  5  7  1  0  0  0  0
  7 24  2  0  0  0  0
  7  8  1  0  0  0  0
  8  9  2  0  0  0  0
  8 29  1  0  0  0  0
  9 10  1  0  0  0  0
  9 30  1  0  0  0  0
 10 11  2  0  0  0  0
 10 12  1  0  0  0  0
 12 13  1  0  0  0  0
 12 24  1  0  0  0  0
 13 22  1  0  0  0  0
 13 14  1  0  0  0  0
 13 31  1  0  0  0  0
 14 15  1  0  0  0  0
 14 32  1  0  0  0  0
 14 33  1  0  0  0  0
 15 16  1  0  0  0  0
 15 34  1  0  0  0  0
 15 35  1  0  0  0  0
 16 17  1  0  0  0  0
 16 22  1  0  0  0  0
 17 18  1  0  0  0  0
 17 36  1  0  0  0  0
 17 37  1  0  0  0  0
 18 19  1  0  0  0  0
 18 20  1  0  0  0  0
 18 21  1  0  0  0  0
 22 23  2  0  0  0  0
 24 38  1  0  0  0  0
M  END
> <s_m_source_file>
AV-unprocessed.smi

> <i_m_source_file_index>
714

> <i_lp_mmshare_version>
43012

> <i_f3d_flags>
0

> <s_epik_input>
W0NIXSNDW0NIMl1bTkhdQyg9TyljMVtjSF1bY0hdYyg9TyluKFtjSF0xKVtDQEBIXTJbQ0gyXVtDSDJdTihDMj1PKVtDSDJdQyhGKShGKUY=

> <s_epik_cmdline>
J2VwaWtfcHl0aG9uJywgJy1waCcsICc3LjAnLCAnLXRuJywgJzgnLCAnLW1hJywgJzIwMCcsICctbWV0YWxfYmluZGluZycsICctaW1hZScsICc8aW5maWxlLm1hZT4nLCAnLW9tYWUnLCAnPG91dGZpbGUubWFlPic=

> <r_lp_tautomer_probability>
1

> <r_epik_Ionization_Penalty>
2.95503e-06

> <r_epik_Ionization_Penalty_Charging>
5.74209e-08

> <r_epik_Ionization_Penalty_Neutral>
2.89761e-06

> <r_epik_State_Penalty>
-0

> <r_epik_Charging_Adjusted_Penalty>
5.74209e-08

> <i_epik_Tot_Q>
0

> <i_epik_Tot_abs_Q>
0

> <r_epik_Metal_State_Penalty>
-0

> <b_epik_Metal_Only>
0

> <s_lp_Force_Field>
OPLS_2005

> <r_lp_Energy>
34.0974

> <b_lp_Chiralities_Consistent>
1

> <s_lp_Variant>
AV-unprocessed.smi:714-1

> <Gold.Version>
5.8.1

> <Gold.Id.Protein>
6NUR|6NUR_protein|mol2

> <Gold.PLP.Fitness>
47.4962

> <Gold.PLP.PLP>
-43.3820

> <Gold.PLP.part.hbond>
-3.0000

> <Gold.PLP.part.metal>
0.0000

> <Gold.PLP.part.buried>
-6.7255

> <Gold.PLP.part.nonpolar>
-36.3940

> <Gold.PLP.part.repulsive>
2.7040

> <Gold.PLP.ligand.clash>
0.0149

> <Gold.PLP.ligand.torsion>
1.2645

> <Gold.PLP.Chemscore.Hbond>
2.1623

> <Gold.PLP.Chemscore.CHOScore>
0.0000

> <Gold.PLP.Chemscore.Metal>
0.0000

> <Gold.Chemscore.Hbonds>
donor molecule, donor type, donor heavy atom, donor atom, acceptor molecule, acceptor atom, score
      P1  H  6934  6946       L1     6  0.99
      P1  H  7989  7998       L1    11  0.31
      P1  H  8011  8017       L1    11  0.86

> <Gold.PLP.Chemscore.Internal.Correction>
0.1712

> <Gold.Rescore>
     Score         DG    S(hbond)    S(metal)    S(lipo)     H(rot)  DE(clash)    DE(int)     intcor
     11.77     -15.53       1.93        0.00      66.16       1.61       1.17       2.58       ----

> <Gold.Chemscore.Fitness>
11.7750

> <Gold.Chemscore.DG>
-15.5270

> <Gold.Chemscore.ZeroCoef>
-5.4800

> <Gold.Chemscore.Hbond>
1.9271

> <Gold.Chemscore.Metal>
0.0000

> <Gold.Chemscore.Lipo>
66.1636

> <Gold.Chemscore.Internal_Hbond>
0.0000

> <Gold.Chemscore.DEClash>
1.1702

> <Gold.Chemscore.DEInternal>
2.5818

> <Gold.Chemscore.Rot>
1.6136

> <Gold.Chemscore.Internal.Correction>
   9.000000E+99

> <Gold.Chemscore.Hbonds>
donor molecule, donor type, donor heavy atom, donor atom, acceptor molecule, acceptor atom, score
      P1  H  6934  6946       L1     6  0.87
      P1  H  7989  7998       L1    11  0.29
      P1  H  8011  8017       L1    11  0.77

> <Gold.Chemscore.Hbond.Weighted>
-6.4366

> <Gold.Chemscore.Metal.Weighted>
-0.0000

> <Gold.Chemscore.Lipo.Weighted>
-7.7411

> <Gold.Chemscore.Internal_Hbond.Weighted>
0.0000

> <Gold.Chemscore.DEClash.Weighted>
1.1702

> <Gold.Chemscore.DEInternal.Weighted>
2.5818

> <Gold.Chemscore.Rot.Weighted>
4.1308

> <Gold.Chemscore.Internal.Correction.Weighted>
   9.000000E+99

> <Gold.Protein.RotatedTorsions>
[ 6907 6896 6895 6894 ] final -142.25 input  -60.11 | X-H torsion
[ 7974 7965 7964 7962 ] final  -97.32 input  175.53 | X-H torsion
[ 8008 7997 7996 7995 ] final  -51.16 input   59.86 | X-H torsion
[ 10167 10162 10161 10158 ] final  156.98 input  -65.29 | X-H torsion
[ 10718 10713 10712 10709 ] final   14.12 input   66.30 | X-H torsion
[ 10763 10752 10751 10750 ] final  126.23 input  -60.55 | X-H torsion
[ 11005 11000 10999 10996 ] final   22.09 input  -57.11 | X-H torsion

> <Gold.Protein.ActiveResidues>
 VAL166  LYS551  ARG553  GLY616  TRP617  ASP618  TYR619  PRO620  LYS621  CYS622 
 ASP623  PHE694  ASN695  SER759  ASP760  ASP761  ALA762  ILE779  LEU786  VAL792 
 PHE793  MET794  SER795  GLU796  ALA797  LYS798  CYS799  TRP800  GLU811  SER814 

> <Gold.Protein.RotatedAtoms>
  151.0845  133.5364  159.2618 H   0  0  0  0  0  0  0  0  0  0  0  0  # atno 6907 bound_to 6896
  151.2254  135.0534  159.8976 H   0  0  0  0  0  0  0  0  0  0  0  0  # atno 6908 bound_to 6896
  152.5427  134.0642  159.8219 H   0  0  0  0  0  0  0  0  0  0  0  0  # atno 6909 bound_to 6896
  145.3352  140.9449  143.2639 H   0  0  0  0  0  0  0  0  0  0  0  0  # atno 7974 bound_to 7965
  154.4077  140.1255  156.4783 H   0  0  0  0  0  0  0  0  0  0  0  0  # atno 8008 bound_to 7997
  155.7110  140.3494  155.4954 H   0  0  0  0  0  0  0  0  0  0  0  0  # atno 8009 bound_to 7997
  155.9300  140.1068  157.1130 H   0  0  0  0  0  0  0  0  0  0  0  0  # atno 8010 bound_to 7997
  139.4822  144.4959  151.8240 H   0  0  0  0  0  0  0  0  0  0  0  0  # atno 10167 bound_to 10162
  157.0345  130.6206  149.5740 H   0  0  0  0  0  0  0  0  0  0  0  0  # atno 10718 bound_to 10713
  153.6899  135.3300  155.3199 H   0  0  0  0  0  0  0  0  0  0  0  0  # atno 10763 bound_to 10752
  154.8442  135.4429  154.1519 H   0  0  0  0  0  0  0  0  0  0  0  0  # atno 10764 bound_to 10752
  153.2558  135.6986  153.7708 H   0  0  0  0  0  0  0  0  0  0  0  0  # atno 10765 bound_to 10752
  140.3844  134.1886  155.7663 H   0  0  0  0  0  0  0  0  0  0  0  0  # atno 11005 bound_to 11000
  144.8833  139.4874  143.6713 LP  0  0  0  0  0  0  0  0  0  0  0  0  # atno 17320 bound_to 7965
  146.3029  139.7486  142.9077 LP  0  0  0  0  0  0  0  0  0  0  0  0  # atno 17321 bound_to 7965
  140.4447  144.1938  150.5893 LP  0  0  0  0  0  0  0  0  0  0  0  0  # atno 17342 bound_to 10162
  140.4647  143.2435  151.9172 LP  0  0  0  0  0  0  0  0  0  0  0  0  # atno 17343 bound_to 10162
  156.0058  130.5145  150.7825 LP  0  0  0  0  0  0  0  0  0  0  0  0  # atno 17370 bound_to 10713
  157.5152  131.0928  151.0148 LP  0  0  0  0  0  0  0  0  0  0  0  0  # atno 17371 bound_to 10713
  141.1912  133.8199  157.0887 LP  0  0  0  0  0  0  0  0  0  0  0  0  # atno 17394 bound_to 11000
  140.0454  134.9833  157.1039 LP  0  0  0  0  0  0  0  0  0  0  0  0  # atno 17395 bound_to 11000

$$$$
