#       Name:                AV-unprocessed.smi:3139
#       Creating user name   scv26
#       Creation time:       Fri Mar 27 17:35:31 2020


#       File generated by GOLD software.
#

@<TRIPOS>MOLECULE
AV-unprocessed.smi:3139
    40    40     1
SMALL
NO_CHARGES


@<TRIPOS>ATOM
      1 ****        -2.8199   1.8135   0.6858 C.3            1 S1                 0.0000
      2 ****        -1.9726   0.7239  -0.0036 C.3            1 S1                 0.0000
      3 ****        -0.4601   0.9782   0.1084 C.2            1 S1                 0.0000
      4 ****        -0.0286   2.0848   0.4354 O.2            1 S1                 0.0000
      5 ****         0.3342  -0.0714  -0.1553 N.am           1 S1                 0.0000
      6 ****         1.7955  -0.0835  -0.0823 C.3            1 S1                 0.0000
      7 ****         2.3532  -0.8249   1.1667 C.3            1 S1                 0.0000
      8 ****         3.8813  -0.9776   1.0247 C.3            1 S1                 0.0000
      9 ****         2.0485  -0.0054   2.4446 C.3            1 S1                 0.0000
     10 ****         1.7389  -2.2454   1.2757 C.2            1 S1                 0.0000
     11 ****         1.2782  -2.6179   2.3783 O.co2          1 S1                 0.0000
     12 ****         1.7482  -2.9506   0.2417 O.co2          1 S1                -1.0000
     13 ****        -2.3560   0.5254  -1.3973 N.pl3          1 S1                 0.0000
     14 ****        -2.5439  -0.6700  -2.0616 C.2            1 S1                 0.0000
     15 ****        -2.8537  -0.3760  -3.3584 C.2            1 S1                 0.0000
     16 ****        -2.8184   1.0453  -3.3995 C.2            1 S1                 0.0000
     17 ****        -2.5130   1.5816  -2.2295 N.2            1 S1                 0.0000
     18 ****        -2.5650   1.8979   1.7428 H              1 S1                 0.0000
     19 ****        -3.8823   1.5759   0.6252 H              1 S1                 0.0000
     20 ****        -2.6747   2.7949   0.2321 H              1 S1                 0.0000
     21 ****        -2.1735  -0.2133   0.5183 H              1 S1                 0.0000
     22 ****        -0.1061  -0.9455  -0.4041 H              1 S1                 0.0000
     23 ****         2.1523  -0.5691  -0.9915 H              1 S1                 0.0000
     24 ****         2.1955   0.9309  -0.1254 H              1 S1                 0.0000
     25 ****         4.3695  -0.0042   0.9672 H              1 S1                 0.0000
     26 ****         4.1508  -1.5289   0.1226 H              1 S1                 0.0000
     27 ****         4.3114  -1.5087   1.8750 H              1 S1                 0.0000
     28 ****         2.4402   1.0088   2.3614 H              1 S1                 0.0000
     29 ****         2.5019  -0.4529   3.3301 H              1 S1                 0.0000
     30 ****         0.9769   0.0771   2.6299 H              1 S1                 0.0000
     31 ****        -2.4409  -1.6214  -1.5606 H              1 S1                 0.0000
     32 ****        -3.0667  -1.0708  -4.1571 H              1 S1                 0.0000
     33 ****        -3.0001   1.6990  -4.2398 H              1 S1                 0.0000
     34 ****        -0.6644   2.8313   0.6318 LP             1 S1                 0.0000
     35 ****         0.9574   2.2366   0.5044 LP             1 S1                 0.0000
     36 ****         0.8849  -3.5325   2.4726 LP             1 S1                 0.0000
     37 ****         1.3034  -2.0009   3.1649 LP             1 S1                 0.0000
     38 ****         1.3706  -3.8763   0.2644 LP             1 S1                 0.0000
     39 ****         2.1331  -2.5883  -0.6072 LP             1 S1                 0.0000
     40 ****        -2.4189   2.5524  -2.0086 LP             1 S1                 0.0000
@<TRIPOS>BOND
    1    1    2 1     
    2    1   18 1     
    3    1   19 1     
    4    1   20 1     
    5    2    3 1     
    6    2   13 1     
    7    2   21 1     
    8    3    4 2     
    9    3    5 am    
   10    5    6 1     
   11    5   22 1     
   12    6    7 1     
   13    6   23 1     
   14    6   24 1     
   15    7    8 1     
   16    7    9 1     
   17    7   10 1     
   18    8   25 1     
   19    8   26 1     
   20    8   27 1     
   21    9   28 1     
   22    9   29 1     
   23    9   30 1     
   24   10   11 ar    
   25   10   12 ar    
   26   13   17 1     
   27   13   14 1     
   28   14   15 2     
   29   14   31 1     
   30   15   16 1     
   31   15   32 1     
   32   16   17 2     
   33   16   33 1     
   34    4   34 1     
   35    4   35 1     
   36   11   36 1     
   37   11   37 1     
   38   12   38 1     
   39   12   39 1     
   40   17   40 1     
@<TRIPOS>SUBSTRUCTURE
      1 S1             1
@<TRIPOS>SET
LONE_PAIRS      STATIC     ATOMS    <user>   **** ""
7 34 35 36 37 38 39 40
DONOR_HYDROGENS      STATIC     ATOMS    <user>   **** ""
1 22
ATOM$BLUE        STATIC     ATOMS    COLORGROUP SYSTEM
7 34 35 36 37 38 39 40
ATOM$RED        STATIC     ATOMS    COLORGROUP SYSTEM
1 22
