AV-unprocessed.smi:2134|AV-procd|sdf|8695|dock5
  -GOLD-   2272011453D 1   1.00000     0.00000
 Structure written by MMmdl.
 36 37  0  0  0  0  0  0  0  0  2 V2000
  151.1379  137.7078  154.5165 C   0  0  0  0  0  0  0  0  0  0  0  0
  149.9944  138.6181  154.5137 N   0  0  0  0  0  0  0  0  0  0  0  0
  148.7792  138.0209  154.2481 N   0  0  0  0  0  0  0  0  0  0  0  0
  147.7143  138.7131  153.9894 C   0  0  0  0  0  0  0  0  0  0  0  0
  146.4335  138.0213  153.6867 C   0  0  0  0  0  0  0  0  0  0  0  0
  145.3604  138.4661  154.0956 O   0  0  0  0  0  0  0  0  0  0  0  0
  146.5281  136.9089  152.9339 N   0  0  0  0  0  0  0  0  0  0  0  0
  145.4075  136.0924  152.4734 C   0  0  0  0  0  0  0  0  0  0  0  0
  145.5796  135.6338  151.0122 C   0  0  0  0  0  0  0  0  0  0  0  0
  145.4714  134.1295  150.8296 C   0  0  0  0  0  0  0  0  0  0  0  0
  144.2092  133.5045  150.7168 C   0  0  0  0  0  0  0  0  0  0  0  0
  144.1416  132.1025  150.5800 C   0  0  0  0  0  0  0  0  0  0  0  0
  145.3377  131.3567  150.5580 C   0  0  0  0  0  0  0  0  0  0  0  0
  146.5267  131.9892  150.6653 N   0  3  0  0  0  0  0  0  0  0  0  0
  146.6340  133.3295  150.7961 C   0  0  0  0  0  0  0  0  0  0  0  0
  147.7680  140.2274  153.9550 C   0  0  0  0  0  0  0  0  0  0  0  0
  148.8920  140.7883  154.8486 C   0  0  0  0  0  0  0  0  0  0  0  0
  150.1629  139.9361  154.7861 C   0  0  0  0  0  0  0  0  0  0  0  0
  151.2577  140.4553  155.0030 O   0  0  0  0  0  0  0  0  0  0  0  0
  151.6191  137.6986  155.4954 H   0  0  0  0  0  0  0  0  0  0  0  0
  151.8770  138.0163  153.7759 H   0  0  0  0  0  0  0  0  0  0  0  0
  150.8463  136.6824  154.2838 H   0  0  0  0  0  0  0  0  0  0  0  0
  147.4514  136.6145  152.6487 H   0  0  0  0  0  0  0  0  0  0  0  0
  145.3364  135.2194  153.1224 H   0  0  0  0  0  0  0  0  0  0  0  0
  144.4661  136.6320  152.5903 H   0  0  0  0  0  0  0  0  0  0  0  0
  144.8347  136.1251  150.3848 H   0  0  0  0  0  0  0  0  0  0  0  0
  146.5509  135.9603  150.6389 H   0  0  0  0  0  0  0  0  0  0  0  0
  143.3015  134.0894  150.7455 H   0  0  0  0  0  0  0  0  0  0  0  0
  143.1856  131.6065  150.4969 H   0  0  0  0  0  0  0  0  0  0  0  0
  145.3789  130.2818  150.4598 H   0  0  0  0  0  0  0  0  0  0  0  0
  147.6387  133.7171  150.8832 H   0  0  0  0  0  0  0  0  0  0  0  0
  147.9107  140.5584  152.9258 H   0  0  0  0  0  0  0  0  0  0  0  0
  146.8196  140.6530  154.2859 H   0  0  0  0  0  0  0  0  0  0  0  0
  149.1171  141.8193  154.5733 H   0  0  0  0  0  0  0  0  0  0  0  0
  148.5603  140.8058  155.8874 H   0  0  0  0  0  0  0  0  0  0  0  0
  147.3806  131.4308  150.6501 H   0  0  0  0  0  0  0  0  0  0  0  0
  1  2  1  0  0  0  0
  1 20  1  0  0  0  0
  1 21  1  0  0  0  0
  1 22  1  0  0  0  0
  2 18  1  0  0  0  0
  2  3  1  0  0  0  0
  3  4  2  0  0  0  0
  4  5  1  0  0  0  0
  4 16  1  0  0  0  0
  5  6  2  0  0  0  0
  5  7  1  0  0  0  0
  7  8  1  0  0  0  0
  7 23  1  0  0  0  0
  8  9  1  0  0  0  0
  8 24  1  0  0  0  0
  8 25  1  0  0  0  0
  9 10  1  0  0  0  0
  9 26  1  0  0  0  0
  9 27  1  0  0  0  0
 10 15  1  0  0  0  0
 10 11  2  0  0  0  0
 11 12  1  0  0  0  0
 11 28  1  0  0  0  0
 12 13  2  0  0  0  0
 12 29  1  0  0  0  0
 13 14  1  0  0  0  0
 13 30  1  0  0  0  0
 14 15  2  0  0  0  0
 14 36  1  0  0  0  0
 15 31  1  0  0  0  0
 16 17  1  0  0  0  0
 16 32  1  0  0  0  0
 16 33  1  0  0  0  0
 17 18  1  0  0  0  0
 17 34  1  0  0  0  0
 17 35  1  0  0  0  0
 18 19  2  0  0  0  0
M  CHG  1  14   1
M  END
> <s_m_source_file>
AV-unprocessed.smi

> <i_m_source_file_index>
2134

> <i_lp_mmshare_version>
43012

> <i_f3d_flags>
0

> <s_epik_input>
Tz1DMVtDSDJdW0NIMl1DKD1OTjFbQ0gzXSlDKD1PKVtOSF1bQ0gyXVtDSDJdYzJbY0hdW2NIXVtjSF1uW2NIXTI=

> <s_epik_cmdline>
J2VwaWtfcHl0aG9uJywgJy1waCcsICc3LjAnLCAnLXRuJywgJzgnLCAnLW1hJywgJzIwMCcsICctbWV0YWxfYmluZGluZycsICctaW1hZScsICc8aW5maWxlLm1hZT4nLCAnLW9tYWUnLCAnPG91dGZpbGUubWFlPic=

> <r_epik_Ionization_Penalty>
2.46483

> <r_epik_Ionization_Penalty_Charging>
2.46471

> <r_epik_Ionization_Penalty_Neutral>
0.00011851

> <r_epik_State_Penalty>
2.62717

> <r_epik_Charging_Adjusted_Penalty>
5.09187

> <i_epik_Tot_Q>
1

> <i_epik_Tot_abs_Q>
1

> <r_epik_Metal_State_Penalty>
2.80118

> <b_epik_Metal_Only>
0

> <s_epik_Chemistry_Notes>
This compound has an imine and may undergo hydrolysis.

> <s_lp_Force_Field>
OPLS_2005

> <r_lp_Energy>
23.6794

> <b_lp_Chiralities_Consistent>
1

> <s_lp_Variant>
AV-unprocessed.smi:2134-2

> <Gold.Version>
5.8.1

> <Gold.Id.Protein>
6NUR|6NUR_protein|mol2

> <Gold.PLP.Fitness>
40.4621

> <Gold.PLP.PLP>
-34.3053

> <Gold.PLP.part.hbond>
-2.9821

> <Gold.PLP.part.metal>
0.0000

> <Gold.PLP.part.buried>
-6.1211

> <Gold.PLP.part.nonpolar>
-27.7537

> <Gold.PLP.part.repulsive>
1.9894

> <Gold.PLP.ligand.clash>
0.0000

> <Gold.PLP.ligand.torsion>
1.4254

> <Gold.PLP.Chemscore.Hbond>
3.0000

> <Gold.PLP.Chemscore.CHOScore>
0.0000

> <Gold.PLP.Chemscore.Metal>
0.0000

> <Gold.Chemscore.Hbonds>
donor molecule, donor type, donor heavy atom, donor atom, acceptor molecule, acceptor atom, score
      L1  H     7    23       P1  7948  1.00
      L1  H    14    36       P1 10747  1.00
      P1  H  7989  7998       L1    19  0.99

> <Gold.PLP.Chemscore.Internal.Correction>
0.0075

> <Gold.Rescore>
     Score         DG    S(hbond)    S(metal)    S(lipo)     H(rot)  DE(clash)    DE(int)     intcor
     16.09     -17.77       2.20        0.00      75.33       1.52       0.24       1.44       ----

> <Gold.Chemscore.Fitness>
16.0906

> <Gold.Chemscore.DG>
-17.7719

> <Gold.Chemscore.ZeroCoef>
-5.4800

> <Gold.Chemscore.Hbond>
2.2033

> <Gold.Chemscore.Metal>
0.0000

> <Gold.Chemscore.Lipo>
75.3254

> <Gold.Chemscore.Internal_Hbond>
0.0000

> <Gold.Chemscore.DEClash>
0.2375

> <Gold.Chemscore.DEInternal>
1.4438

> <Gold.Chemscore.Rot>
1.5157

> <Gold.Chemscore.Internal.Correction>
   9.000000E+99

> <Gold.Chemscore.Hbonds>
donor molecule, donor type, donor heavy atom, donor atom, acceptor molecule, acceptor atom, score
      L1  H     7    23       P1  7948  1.00
      L1  H    14    36       P1 10747  1.00
      P1  H  7989  7998       L1    19  0.24

> <Gold.Chemscore.Hbond.Weighted>
-7.3589

> <Gold.Chemscore.Metal.Weighted>
-0.0000

> <Gold.Chemscore.Lipo.Weighted>
-8.8131

> <Gold.Chemscore.Internal_Hbond.Weighted>
0.0000

> <Gold.Chemscore.DEClash.Weighted>
0.2375

> <Gold.Chemscore.DEInternal.Weighted>
1.4438

> <Gold.Chemscore.Rot.Weighted>
3.8801

> <Gold.Chemscore.Internal.Correction.Weighted>
   9.000000E+99

> <Gold.Protein.RotatedTorsions>
[ 6907 6896 6895 6894 ] final  104.18 input  -60.11 | X-H torsion
[ 7974 7965 7964 7962 ] final  -44.91 input  175.53 | X-H torsion
[ 8008 7997 7996 7995 ] final  110.79 input   59.86 | X-H torsion
[ 10167 10162 10161 10158 ] final  138.12 input  -65.29 | X-H torsion
[ 10718 10713 10712 10709 ] final  168.80 input   66.30 | X-H torsion
[ 10763 10752 10751 10750 ] final  166.79 input  -60.55 | X-H torsion
[ 11005 11000 10999 10996 ] final -130.25 input  -57.11 | X-H torsion

> <Gold.Protein.ActiveResidues>
 VAL166  LYS551  ARG553  GLY616  TRP617  ASP618  TYR619  PRO620  LYS621  CYS622 
 ASP623  PHE694  ASN695  SER759  ASP760  ASP761  ALA762  ILE779  LEU786  VAL792 
 PHE793  MET794  SER795  GLU796  ALA797  LYS798  CYS799  TRP800  GLU811  SER814 

> <Gold.Protein.RotatedAtoms>
  152.5272  133.9715  159.7764 H   0  0  0  0  0  0  0  0  0  0  0  0  # atno 6907 bound_to 6896
  150.9986  133.6070  159.2705 H   0  0  0  0  0  0  0  0  0  0  0  0  # atno 6908 bound_to 6896
  151.3187  135.0819  159.9351 H   0  0  0  0  0  0  0  0  0  0  0  0  # atno 6909 bound_to 6896
  145.9873  140.7218  142.9334 H   0  0  0  0  0  0  0  0  0  0  0  0  # atno 7974 bound_to 7965
  156.2078  140.3032  155.9666 H   0  0  0  0  0  0  0  0  0  0  0  0  # atno 8008 bound_to 7997
  155.2798  140.0437  157.3031 H   0  0  0  0  0  0  0  0  0  0  0  0  # atno 8009 bound_to 7997
  154.5657  140.2333  155.8275 H   0  0  0  0  0  0  0  0  0  0  0  0  # atno 8010 bound_to 7997
  139.5121  144.6371  151.5667 H   0  0  0  0  0  0  0  0  0  0  0  0  # atno 10167 bound_to 10162
  157.0319  131.0262  151.2742 H   0  0  0  0  0  0  0  0  0  0  0  0  # atno 10718 bound_to 10713
  154.3442  135.2753  155.2406 H   0  0  0  0  0  0  0  0  0  0  0  0  # atno 10763 bound_to 10752
  154.4664  135.5894  153.6294 H   0  0  0  0  0  0  0  0  0  0  0  0  # atno 10764 bound_to 10752
  152.9855  135.6077  154.3646 H   0  0  0  0  0  0  0  0  0  0  0  0  # atno 10765 bound_to 10752
  140.9362  134.1254  157.4192 H   0  0  0  0  0  0  0  0  0  0  0  0  # atno 11005 bound_to 11000
  144.6878  140.3011  143.7263 LP  0  0  0  0  0  0  0  0  0  0  0  0  # atno 17320 bound_to 7965
  145.7681  139.1848  143.2228 LP  0  0  0  0  0  0  0  0  0  0  0  0  # atno 17321 bound_to 7965
  140.6124  143.9411  150.6463 LP  0  0  0  0  0  0  0  0  0  0  0  0  # atno 17342 bound_to 10162
  140.2658  143.3491  152.1282 LP  0  0  0  0  0  0  0  0  0  0  0  0  # atno 17343 bound_to 10162
  157.5171  130.7975  149.7768 LP  0  0  0  0  0  0  0  0  0  0  0  0  # atno 17370 bound_to 10713
  156.0067  130.3852  150.2407 LP  0  0  0  0  0  0  0  0  0  0  0  0  # atno 17371 bound_to 10713
  139.8808  135.0021  156.6109 LP  0  0  0  0  0  0  0  0  0  0  0  0  # atno 17394 bound_to 11000
  140.7796  133.8670  155.8557 LP  0  0  0  0  0  0  0  0  0  0  0  0  # atno 17395 bound_to 11000

$$$$
