#       Name:                AV-unprocessed.smi:668
#       Creating user name   scv26
#       Creation time:       Fri Mar 27 00:21:28 2020


#       File generated by GOLD software.
#

@<TRIPOS>MOLECULE
AV-unprocessed.smi:668
    45    46     1
SMALL
NO_CHARGES


@<TRIPOS>ATOM
      1 ****        -7.0415   1.9487   0.1708 C.3            1 S1                 0.0000
      2 ****        -6.4841   0.6398   0.2148 O.3            1 S1                 0.0000
      3 ****        -5.1120   0.5096   0.1480 C.ar           1 S1                 0.0000
      4 ****        -4.5551  -0.7840   0.1752 C.ar           1 S1                 0.0000
      5 ****        -3.1559  -0.9267   0.1020 C.ar           1 S1                 0.0000
      6 ****        -2.3526   0.2357   0.0069 C.ar           1 S1                 0.0000
      7 ****        -0.9327   0.2430  -0.0856 N.am           1 S1                 0.0000
      8 ****        -0.0624  -0.7769   0.0119 C.2            1 S1                 0.0000
      9 ****        -0.3527  -1.9511   0.2363 O.2            1 S1                 0.0000
     10 ****         1.1966  -0.3499  -0.1586 N.am           1 S1                 0.0000
     11 ****         2.3913  -1.1967  -0.1123 C.3            1 S1                 0.0000
     12 ****         2.7986  -1.5347   1.3384 C.3            1 S1                 0.0000
     13 ****         4.2799  -1.1752   1.4807 C.3            1 S1                 0.0000
     14 ****         4.8128  -1.1005   0.0501 C.3            1 S1                 0.0000
     15 ****         3.6425  -0.5785  -0.7985 C.3            1 S1                 0.0000
     16 ****         3.6657   0.9639  -0.8735 C.2            1 S1                 0.0000
     17 ****         3.7938   1.5094  -2.0859 N.am           1 S1                 0.0000
     18 ****         3.5668   1.6528   0.1405 O.2            1 S1                 0.0000
     19 ****        -3.0104   1.4833  -0.0143 C.ar           1 S1                 0.0000
     20 ****        -4.3504   1.6272   0.0547 N.ar           1 S1                 0.0000
     21 ****        -8.1279   1.8803   0.2237 H              1 S1                 0.0000
     22 ****        -6.7877   2.4593  -0.7594 H              1 S1                 0.0000
     23 ****        -6.7062   2.5534   1.0145 H              1 S1                 0.0000
     24 ****        -5.1910  -1.6541   0.2469 H              1 S1                 0.0000
     25 ****        -2.7419  -1.9217   0.1133 H              1 S1                 0.0000
     26 ****        -0.5220   1.1523  -0.2388 H              1 S1                 0.0000
     27 ****         1.3465   0.6343  -0.3266 H              1 S1                 0.0000
     28 ****         2.1669  -2.1309  -0.6311 H              1 S1                 0.0000
     29 ****         2.2033  -0.9999   2.0801 H              1 S1                 0.0000
     30 ****         2.6498  -2.5997   1.5204 H              1 S1                 0.0000
     31 ****         4.3767  -0.2021   1.9633 H              1 S1                 0.0000
     32 ****         4.8264  -1.8958   2.0897 H              1 S1                 0.0000
     33 ****         5.7092  -0.4822  -0.0192 H              1 S1                 0.0000
     34 ****         5.0872  -2.0999  -0.2901 H              1 S1                 0.0000
     35 ****         3.7286  -0.9660  -1.8153 H              1 S1                 0.0000
     36 ****         3.8123   2.5137  -2.1891 H              1 S1                 0.0000
     37 ****         3.8698   0.9131  -2.8972 H              1 S1                 0.0000
     38 ****        -2.4433   2.3997  -0.0904 H              1 S1                 0.0000
     39 ****        -6.8676   0.1289  -0.5545 LP             1 S1                 0.0000
     40 ****        -6.7796   0.2211   1.0735 LP             1 S1                 0.0000
     41 ****        -1.3090  -2.2141   0.3639 LP             1 S1                 0.0000
     42 ****         0.3677  -2.6425   0.2911 LP             1 S1                 0.0000
     43 ****         3.4692   1.2155   1.0345 LP             1 S1                 0.0000
     44 ****         3.5840   2.6503   0.0710 LP             1 S1                 0.0000
     45 ****        -4.7705   2.5345   0.0375 LP             1 S1                 0.0000
@<TRIPOS>BOND
    1    1    2 1     
    2    1   21 1     
    3    1   22 1     
    4    1   23 1     
    5    2    3 1     
    6    3   20 ar    
    7    3    4 ar    
    8    4    5 ar    
    9    4   24 1     
   10    5    6 ar    
   11    5   25 1     
   12    6    7 1     
   13    6   19 ar    
   14    7    8 am    
   15    7   26 1     
   16    8    9 2     
   17    8   10 am    
   18   10   11 1     
   19   10   27 1     
   20   11   15 1     
   21   11   12 1     
   22   11   28 1     
   23   12   13 1     
   24   12   29 1     
   25   12   30 1     
   26   13   14 1     
   27   13   31 1     
   28   13   32 1     
   29   14   15 1     
   30   14   33 1     
   31   14   34 1     
   32   15   16 1     
   33   15   35 1     
   34   16   17 am    
   35   16   18 2     
   36   17   36 1     
   37   17   37 1     
   38   19   20 ar    
   39   19   38 1     
   40    2   39 1     
   41    2   40 1     
   42    9   41 1     
   43    9   42 1     
   44   18   43 1     
   45   18   44 1     
   46   20   45 1     
@<TRIPOS>SUBSTRUCTURE
      1 S1             1
@<TRIPOS>SET
LONE_PAIRS      STATIC     ATOMS    <user>   **** ""
7 39 40 41 42 43 44 45
DONOR_HYDROGENS      STATIC     ATOMS    <user>   **** ""
4 26 27 36 37
ATOM$BLUE        STATIC     ATOMS    COLORGROUP SYSTEM
7 39 40 41 42 43 44 45
ATOM$RED        STATIC     ATOMS    COLORGROUP SYSTEM
4 26 27 36 37
