AV-unprocessed.smi:751|AV-procd|sdf|3594|dock2
  -GOLD-   22720 0583D 1   1.00000     0.00000
 Structure written by MMmdl.
 32 33  0  0  0  0  0  0  0  0  1 V2000
  153.4640  137.6967  159.6924 N   0  0  0  0  0  0  0  0  0  0  0  0
  153.1770  138.8134  159.5961 C   0  0  0  0  0  0  0  0  0  0  0  0
  152.8152  140.2197  159.4748 C   0  0  0  0  0  0  0  0  0  0  0  0
  153.2049  141.1067  160.4992 C   0  0  0  0  0  0  0  0  0  0  0  0
  152.8632  142.4650  160.3981 C   0  0  0  0  0  0  0  0  0  0  0  0
  152.1383  142.8824  159.2657 C   0  0  0  0  0  0  0  0  0  0  0  0
  151.7254  144.3344  159.0699 C   0  0  0  0  0  0  0  0  0  0  0  0
  151.9551  145.0649  160.1618 F   0  0  0  0  0  0  0  0  0  0  0  0
  152.4121  144.8628  158.0564 F   0  0  0  0  0  0  0  0  0  0  0  0
  150.4242  144.3973  158.7863 F   0  0  0  0  0  0  0  0  0  0  0  0
  151.7670  142.0281  158.2874 N   0  0  0  0  0  0  0  0  0  0  0  0
  152.0844  140.7084  158.3569 C   0  0  0  0  0  0  0  0  0  0  0  0
  151.6644  139.8480  157.2983 N   0  0  0  0  0  0  0  0  0  0  0  0
  150.2891  140.0510  156.8542 C   0  0  0  0  0  0  0  0  0  0  0  0
  150.8080  139.8018  155.4400 C   0  0  0  0  0  0  0  0  0  0  0  0
  150.2873  140.7353  154.5092 O   0  0  0  0  0  0  0  0  0  0  0  0
  148.8783  140.6431  154.3666 C   0  0  0  0  0  0  0  0  0  0  0  0
  148.5113  139.2232  153.9372 C   0  0  0  0  0  0  0  0  0  0  0  0
  149.0464  138.7721  152.7993 N   0  0  0  0  0  0  0  0  0  0  0  0
  147.7663  138.5353  154.6316 O   0  0  0  0  0  0  0  0  0  0  0  0
  152.1941  140.1639  155.9746 C   0  0  0  0  0  0  0  0  0  0  0  0
  153.7608  140.7541  161.3564 H   0  0  0  0  0  0  0  0  0  0  0  0
  153.1533  143.1594  161.1726 H   0  0  0  0  0  0  0  0  0  0  0  0
  149.5954  139.2921  157.2164 H   0  0  0  0  0  0  0  0  0  0  0  0
  149.9107  141.0635  157.0028 H   0  0  0  0  0  0  0  0  0  0  0  0
  150.7112  138.7580  155.1327 H   0  0  0  0  0  0  0  0  0  0  0  0
  148.3762  140.8678  155.3088 H   0  0  0  0  0  0  0  0  0  0  0  0
  148.5278  141.3585  153.6209 H   0  0  0  0  0  0  0  0  0  0  0  0
  148.8351  137.8366  152.4825 H   0  0  0  0  0  0  0  0  0  0  0  0
  149.6642  139.3649  152.2645 H   0  0  0  0  0  0  0  0  0  0  0  0
  152.4531  141.2122  155.8192 H   0  0  0  0  0  0  0  0  0  0  0  0
  152.9867  139.4901  155.6486 H   0  0  0  0  0  0  0  0  0  0  0  0
  1  2  3  0  0  0  0
  2  3  1  0  0  0  0
  3 12  1  0  0  0  0
  3  4  2  0  0  0  0
  4  5  1  0  0  0  0
  4 22  1  0  0  0  0
  5  6  2  0  0  0  0
  5 23  1  0  0  0  0
  6  7  1  0  0  0  0
  6 11  1  0  0  0  0
  7  8  1  0  0  0  0
  7  9  1  0  0  0  0
  7 10  1  0  0  0  0
 11 12  2  0  0  0  0
 12 13  1  0  0  0  0
 13 21  1  0  0  0  0
 13 14  1  0  0  0  0
 14 15  1  0  0  0  0
 14 24  1  0  0  0  0
 14 25  1  0  0  0  0
 15 16  1  0  0  0  0
 15 21  1  0  0  0  0
 15 26  1  0  0  0  0
 16 17  1  0  0  0  0
 17 18  1  0  0  0  0
 17 27  1  0  0  0  0
 17 28  1  0  0  0  0
 18 19  1  0  0  0  0
 18 20  2  0  0  0  0
 19 29  1  0  0  0  0
 19 30  1  0  0  0  0
 21 31  1  0  0  0  0
 21 32  1  0  0  0  0
M  END
> <s_m_source_file>
AV-unprocessed.smi

> <i_m_source_file_index>
751

> <i_lp_mmshare_version>
43012

> <i_f3d_flags>
0

> <s_epik_input>
TiNDYzFbY0hdW2NIXWMoQyhGKShGKUYpbmMxTjJbQ0gyXVtDSF0oW0NIMl0yKU9bQ0gyXUMoPU8pW05IMl0=

> <s_epik_cmdline>
J2VwaWtfcHl0aG9uJywgJy1waCcsICc3LjAnLCAnLXRuJywgJzgnLCAnLW1hJywgJzIwMCcsICctbWV0YWxfYmluZGluZycsICctaW1hZScsICc8aW5maWxlLm1hZT4nLCAnLW9tYWUnLCAnPG91dGZpbGUubWFlPic=

> <r_lp_tautomer_probability>
1

> <r_epik_Ionization_Penalty>
6.47511e-08

> <r_epik_Ionization_Penalty_Charging>
0

> <r_epik_Ionization_Penalty_Neutral>
6.47511e-08

> <r_epik_State_Penalty>
-0

> <r_epik_Charging_Adjusted_Penalty>
0

> <i_epik_Tot_Q>
0

> <i_epik_Tot_abs_Q>
0

> <r_epik_Metal_State_Penalty>
-0

> <b_epik_Metal_Only>
0

> <s_lp_Force_Field>
OPLS_2005

> <r_lp_Energy>
25.0077

> <b_lp_Chiralities_Consistent>
1

> <s_lp_Variant>
AV-unprocessed.smi:751-1

> <Gold.Version>
5.8.1

> <Gold.Id.Protein>
6NUR|6NUR_protein|mol2

> <Gold.PLP.Fitness>
52.6277

> <Gold.PLP.PLP>
-45.0149

> <Gold.PLP.part.hbond>
-2.7395

> <Gold.PLP.part.metal>
0.0000

> <Gold.PLP.part.buried>
-6.8760

> <Gold.PLP.part.nonpolar>
-36.2911

> <Gold.PLP.part.repulsive>
0.2690

> <Gold.PLP.ligand.clash>
0.0000

> <Gold.PLP.ligand.torsion>
0.5459

> <Gold.PLP.Chemscore.Hbond>
2.7680

> <Gold.PLP.Chemscore.CHOScore>
0.0000

> <Gold.PLP.Chemscore.Metal>
0.0000

> <Gold.Chemscore.Hbonds>
donor molecule, donor type, donor heavy atom, donor atom, acceptor molecule, acceptor atom, score
      L1  H    19    29       P1  7948  1.00
      L1  H    19    30       P1  7957  0.29
      P1  H  7989  7998       L1    16  0.80

> <Gold.PLP.Chemscore.Internal.Correction>
0.4005

> <Gold.Rescore>
     Score         DG    S(hbond)    S(metal)    S(lipo)     H(rot)  DE(clash)    DE(int)     intcor
     14.61     -15.35       2.29        0.00      75.62       2.59       0.26       0.49       ----

> <Gold.Chemscore.Fitness>
14.6056

> <Gold.Chemscore.DG>
-15.3505

> <Gold.Chemscore.ZeroCoef>
-5.4800

> <Gold.Chemscore.Hbond>
2.2906

> <Gold.Chemscore.Metal>
0.0000

> <Gold.Chemscore.Lipo>
75.6170

> <Gold.Chemscore.Internal_Hbond>
0.0000

> <Gold.Chemscore.DEClash>
0.2566

> <Gold.Chemscore.DEInternal>
0.4884

> <Gold.Chemscore.Rot>
2.5888

> <Gold.Chemscore.Internal.Correction>
   9.000000E+99

> <Gold.Chemscore.Hbonds>
donor molecule, donor type, donor heavy atom, donor atom, acceptor molecule, acceptor atom, score
      L1  H    19    29       P1  7948  1.00
      L1  H    19    30       P1  7957  0.27
      P1  H  7989  7998       L1    16  0.20

> <Gold.Chemscore.Hbond.Weighted>
-7.6506

> <Gold.Chemscore.Metal.Weighted>
-0.0000

> <Gold.Chemscore.Lipo.Weighted>
-8.8472

> <Gold.Chemscore.Internal_Hbond.Weighted>
0.0000

> <Gold.Chemscore.DEClash.Weighted>
0.2566

> <Gold.Chemscore.DEInternal.Weighted>
0.4884

> <Gold.Chemscore.Rot.Weighted>
6.6272

> <Gold.Chemscore.Internal.Correction.Weighted>
   9.000000E+99

> <Gold.Protein.RotatedTorsions>
[ 6907 6896 6895 6894 ] final   48.35 input  -60.11 | X-H torsion
[ 7974 7965 7964 7962 ] final   -0.12 input  175.53 | X-H torsion
[ 8008 7997 7996 7995 ] final  131.68 input   59.86 | X-H torsion
[ 10167 10162 10161 10158 ] final   66.89 input  -65.29 | X-H torsion
[ 10718 10713 10712 10709 ] final -154.53 input   66.30 | X-H torsion
[ 10763 10752 10751 10750 ] final   35.86 input  -60.55 | X-H torsion
[ 11005 11000 10999 10996 ] final  -70.10 input  -57.11 | X-H torsion

> <Gold.Protein.ActiveResidues>
 VAL166  LYS551  ARG553  GLY616  TRP617  ASP618  TYR619  PRO620  LYS621  CYS622 
 ASP623  PHE694  ASN695  SER759  ASP760  ASP761  ALA762  ILE779  LEU786  VAL792 
 PHE793  MET794  SER795  GLU796  ALA797  LYS798  CYS799  TRP800  GLU811  SER814 

> <Gold.Protein.RotatedAtoms>
  152.2785  134.7854  160.0400 H   0  0  0  0  0  0  0  0  0  0  0  0  # atno 6907 bound_to 6896
  151.8442  133.3423  159.3661 H   0  0  0  0  0  0  0  0  0  0  0  0  # atno 6908 bound_to 6896
  150.7180  134.5290  159.5735 H   0  0  0  0  0  0  0  0  0  0  0  0  # atno 6909 bound_to 6896
  146.2430  140.1221  142.8340 H   0  0  0  0  0  0  0  0  0  0  0  0  # atno 7974 bound_to 7965
  156.2973  140.2565  156.2965 H   0  0  0  0  0  0  0  0  0  0  0  0  # atno 8008 bound_to 7997
  154.9459  140.0395  157.2139 H   0  0  0  0  0  0  0  0  0  0  0  0  # atno 8009 bound_to 7997
  154.8082  140.2840  155.5876 H   0  0  0  0  0  0  0  0  0  0  0  0  # atno 8010 bound_to 7997
  140.0955  144.4950  150.7071 H   0  0  0  0  0  0  0  0  0  0  0  0  # atno 10167 bound_to 10162
  156.5006  130.8389  151.2607 H   0  0  0  0  0  0  0  0  0  0  0  0  # atno 10718 bound_to 10713
  153.0101  135.6322  154.1894 H   0  0  0  0  0  0  0  0  0  0  0  0  # atno 10763 bound_to 10752
  154.1636  135.2822  155.3103 H   0  0  0  0  0  0  0  0  0  0  0  0  # atno 10764 bound_to 10752
  154.5963  135.5602  153.7389 H   0  0  0  0  0  0  0  0  0  0  0  0  # atno 10765 bound_to 10752
  141.1567  133.6781  156.6700 H   0  0  0  0  0  0  0  0  0  0  0  0  # atno 11005 bound_to 11000
  145.0397  140.8936  143.5060 LP  0  0  0  0  0  0  0  0  0  0  0  0  # atno 17320 bound_to 7965
  145.1300  139.2638  143.5544 LP  0  0  0  0  0  0  0  0  0  0  0  0  # atno 17321 bound_to 7965
  140.7006  143.2432  151.4875 LP  0  0  0  0  0  0  0  0  0  0  0  0  # atno 17342 bound_to 10162
  139.5701  144.1949  152.1823 LP  0  0  0  0  0  0  0  0  0  0  0  0  # atno 17343 bound_to 10162
  157.7463  130.9983  150.2847 LP  0  0  0  0  0  0  0  0  0  0  0  0  # atno 17370 bound_to 10713
  156.3336  130.3804  149.7469 LP  0  0  0  0  0  0  0  0  0  0  0  0  # atno 17371 bound_to 10713
  140.3182  134.8030  157.4231 LP  0  0  0  0  0  0  0  0  0  0  0  0  # atno 17394 bound_to 11000
  140.1120  134.5333  155.8258 LP  0  0  0  0  0  0  0  0  0  0  0  0  # atno 17395 bound_to 11000

$$$$
