AV-unprocessed.smi:1265|AV-procd|sdf|5318|dock5
  -GOLD-   22720 4443D 1   1.00000     0.00000
 Structure written by MMmdl.
 45 47  0  0  0  0  0  0  0  0  2 V2000
  144.8651  136.5340  153.5186 O   0  0  0  0  0  0  0  0  0  0  0  0
  146.0014  136.5286  153.0452 C   0  0  0  0  0  0  0  0  0  0  0  0
  146.9143  137.4779  153.2944 N   0  0  0  0  0  0  0  0  0  0  0  0
  146.7211  138.6473  154.1516 C   0  0  0  0  0  0  0  0  0  0  0  0
  148.0654  139.3645  154.5088 C   0  0  2  0  0  0  0  0  0  0  0  0
  149.2153  138.4219  154.3451 N   0  0  0  0  0  0  0  0  0  0  0  0
  149.2238  137.2514  155.2346 C   0  0  0  0  0  0  0  0  0  0  0  0
  150.3960  136.2992  154.9412 C   0  0  0  0  0  0  0  0  0  0  0  0
  151.6259  137.0045  155.0371 O   0  0  0  0  0  0  0  0  0  0  0  0
  151.6874  138.0987  154.1328 C   0  0  0  0  0  0  0  0  0  0  0  0
  150.5313  139.0716  154.4181 C   0  0  0  0  0  0  0  0  0  0  0  0
  147.9372  139.9396  155.9495 C   0  0  0  0  0  0  0  0  0  0  0  0
  146.9545  141.1156  155.9388 C   0  0  0  0  0  0  0  0  0  0  0  0
  147.1150  141.9346  154.3350 S   0  0  0  0  0  0  0  0  0  0  0  0
  148.1788  140.6411  153.6365 C   0  0  0  0  0  0  0  0  0  0  0  0
  146.5018  135.5739  152.2421 N   0  0  0  0  0  0  0  0  0  0  0  0
  145.8527  134.4160  151.7343 C   0  0  0  0  0  0  0  0  0  0  0  0
  144.4772  134.2605  152.0159 C   0  0  0  0  0  0  0  0  0  0  0  0
  143.7957  133.1188  151.5475 C   0  0  0  0  0  0  0  0  0  0  0  0
  144.4628  132.1787  150.8444 N   0  3  0  0  0  0  0  0  0  0  0  0
  145.7802  132.2752  150.5637 C   0  0  0  0  0  0  0  0  0  0  0  0
  146.5144  133.3950  151.0050 C   0  0  0  0  0  0  0  0  0  0  0  0
  147.8268  137.3803  152.8735 H   0  0  0  0  0  0  0  0  0  0  0  0
  146.0442  139.3240  153.6321 H   0  0  0  0  0  0  0  0  0  0  0  0
  146.1593  138.3711  155.0436 H   0  0  0  0  0  0  0  0  0  0  0  0
  149.2779  137.5611  156.2775 H   0  0  0  0  0  0  0  0  0  0  0  0
  148.3155  136.6651  155.1183 H   0  0  0  0  0  0  0  0  0  0  0  0
  150.4014  135.4758  155.6556 H   0  0  0  0  0  0  0  0  0  0  0  0
  150.2967  135.8593  153.9477 H   0  0  0  0  0  0  0  0  0  0  0  0
  152.6455  138.6046  154.2522 H   0  0  0  0  0  0  0  0  0  0  0  0
  151.6427  137.7359  153.1047 H   0  0  0  0  0  0  0  0  0  0  0  0
  150.6096  139.8826  153.6976 H   0  0  0  0  0  0  0  0  0  0  0  0
  150.6754  139.5130  155.4049 H   0  0  0  0  0  0  0  0  0  0  0  0
  147.6591  139.1865  156.6861 H   0  0  0  0  0  0  0  0  0  0  0  0
  148.8792  140.3639  156.2894 H   0  0  0  0  0  0  0  0  0  0  0  0
  145.9284  140.7668  156.0558 H   0  0  0  0  0  0  0  0  0  0  0  0
  147.1526  141.8159  156.7506 H   0  0  0  0  0  0  0  0  0  0  0  0
  149.1913  141.0411  153.6447 H   0  0  0  0  0  0  0  0  0  0  0  0
  147.9180  140.4619  152.5930 H   0  0  0  0  0  0  0  0  0  0  0  0
  147.4806  135.6598  152.0099 H   0  0  0  0  0  0  0  0  0  0  0  0
  143.9437  135.0109  152.5816 H   0  0  0  0  0  0  0  0  0  0  0  0
  142.7454  132.9299  151.7157 H   0  0  0  0  0  0  0  0  0  0  0  0
  146.2072  131.4555  150.0043 H   0  0  0  0  0  0  0  0  0  0  0  0
  147.5706  133.4416  150.7874 H   0  0  0  0  0  0  0  0  0  0  0  0
  143.9516  131.3591  150.5157 H   0  0  0  0  0  0  0  0  0  0  0  0
  1  2  2  0  0  0  0
  2  3  1  0  0  0  0
  2 16  1  0  0  0  0
  3  4  1  0  0  0  0
  3 23  1  0  0  0  0
  4  5  1  0  0  0  0
  4 24  1  0  0  0  0
  4 25  1  0  0  0  0
  5 15  1  0  0  0  0
  5  6  1  0  0  0  0
  5 12  1  0  0  0  0
  6 11  1  0  0  0  0
  6  7  1  0  0  0  0
  7  8  1  0  0  0  0
  7 26  1  0  0  0  0
  7 27  1  0  0  0  0
  8  9  1  0  0  0  0
  8 28  1  0  0  0  0
  8 29  1  0  0  0  0
  9 10  1  0  0  0  0
 10 11  1  0  0  0  0
 10 30  1  0  0  0  0
 10 31  1  0  0  0  0
 11 32  1  0  0  0  0
 11 33  1  0  0  0  0
 12 13  1  0  0  0  0
 12 34  1  0  0  0  0
 12 35  1  0  0  0  0
 13 14  1  0  0  0  0
 13 36  1  0  0  0  0
 13 37  1  0  0  0  0
 14 15  1  0  0  0  0
 15 38  1  0  0  0  0
 15 39  1  0  0  0  0
 16 17  1  0  0  0  0
 16 40  1  0  0  0  0
 17 22  1  0  0  0  0
 17 18  2  0  0  0  0
 18 19  1  0  0  0  0
 18 41  1  0  0  0  0
 19 20  2  0  0  0  0
 19 42  1  0  0  0  0
 20 21  1  0  0  0  0
 20 45  1  0  0  0  0
 21 22  2  0  0  0  0
 21 43  1  0  0  0  0
 22 44  1  0  0  0  0
M  CHG  1  20   1
M  END
> <s_m_source_file>
AV-unprocessed.smi

> <i_m_source_file_index>
1265

> <i_lp_mmshare_version>
43012

> <i_f3d_flags>
0

> <s_epik_input>
W2NIXTFbY0hdbltjSF1bY0hdYzFbTkhdQyg9TylbTkhdW0NIMl1bQ0BdMihbQ0gyXVtDSDJdU1tDSDJdMilOM1tDSDJdW0NIMl1PW0NIMl1bQ0gyXTM=

> <s_epik_cmdline>
J2VwaWtfcHl0aG9uJywgJy1waCcsICc3LjAnLCAnLXRuJywgJzgnLCAnLW1hJywgJzIwMCcsICctbWV0YWxfYmluZGluZycsICctaW1hZScsICc8aW5maWxlLm1hZT4nLCAnLW9tYWUnLCAnPG91dGZpbGUubWFlPic=

> <r_epik_Ionization_Penalty>
1.06168

> <r_epik_Ionization_Penalty_Charging>
1.04215

> <r_epik_Ionization_Penalty_Neutral>
0.019527

> <r_epik_State_Penalty>
1.12733

> <r_epik_Charging_Adjusted_Penalty>
2.16948

> <i_epik_Tot_Q>
1

> <i_epik_Tot_abs_Q>
1

> <r_epik_Metal_State_Penalty>
1.22116

> <b_epik_Metal_Only>
0

> <s_lp_Force_Field>
OPLS_2005

> <r_lp_Energy>
64.854

> <b_lp_Chiralities_Consistent>
1

> <s_lp_Variant>
AV-unprocessed.smi:1265-4

> <Gold.Version>
5.8.1

> <Gold.Id.Protein>
6NUR|6NUR_protein|mol2

> <Gold.PLP.Fitness>
39.0499

> <Gold.PLP.PLP>
-32.2494

> <Gold.PLP.part.hbond>
-2.9709

> <Gold.PLP.part.metal>
0.0000

> <Gold.PLP.part.buried>
-5.0655

> <Gold.PLP.part.nonpolar>
-25.6595

> <Gold.PLP.part.repulsive>
0.5521

> <Gold.PLP.ligand.clash>
0.0000

> <Gold.PLP.ligand.torsion>
0.9903

> <Gold.PLP.Chemscore.Hbond>
2.8960

> <Gold.PLP.Chemscore.CHOScore>
0.0000

> <Gold.PLP.Chemscore.Metal>
0.0000

> <Gold.Chemscore.Hbonds>
donor molecule, donor type, donor heavy atom, donor atom, acceptor molecule, acceptor atom, score
      L1  H     3    23       P1  7948  0.91
      L1  H    16    40       P1  7948  1.00
      P1  H 10752 10764       L1     9  1.00

> <Gold.PLP.Chemscore.Internal.Correction>
0.0932

> <Gold.Rescore>
     Score         DG    S(hbond)    S(metal)    S(lipo)     H(rot)  DE(clash)    DE(int)     intcor
     17.63     -20.34       2.73        0.00      81.42       1.47       0.14       2.56       ----

> <Gold.Chemscore.Fitness>
17.6333

> <Gold.Chemscore.DG>
-20.3427

> <Gold.Chemscore.ZeroCoef>
-5.4800

> <Gold.Chemscore.Hbond>
2.7277

> <Gold.Chemscore.Metal>
0.0000

> <Gold.Chemscore.Lipo>
81.4226

> <Gold.Chemscore.Internal_Hbond>
0.0000

> <Gold.Chemscore.DEClash>
0.1450

> <Gold.Chemscore.DEInternal>
2.5644

> <Gold.Chemscore.Rot>
1.4743

> <Gold.Chemscore.Internal.Correction>
   9.000000E+99

> <Gold.Chemscore.Hbonds>
donor molecule, donor type, donor heavy atom, donor atom, acceptor molecule, acceptor atom, score
      L1  H     3    23       P1  7948  0.88
      L1  H    16    40       P1  7948  0.96
      P1  H 10752 10764       L1     9  0.33

> <Gold.Chemscore.Hbond.Weighted>
-9.1105

> <Gold.Chemscore.Metal.Weighted>
-0.0000

> <Gold.Chemscore.Lipo.Weighted>
-9.5264

> <Gold.Chemscore.Internal_Hbond.Weighted>
0.0000

> <Gold.Chemscore.DEClash.Weighted>
0.1450

> <Gold.Chemscore.DEInternal.Weighted>
2.5644

> <Gold.Chemscore.Rot.Weighted>
3.7742

> <Gold.Chemscore.Internal.Correction.Weighted>
   9.000000E+99

> <Gold.Protein.RotatedTorsions>
[ 6907 6896 6895 6894 ] final  102.67 input  -60.11 | X-H torsion
[ 7974 7965 7964 7962 ] final   30.62 input  175.53 | X-H torsion
[ 8008 7997 7996 7995 ] final  121.48 input   59.86 | X-H torsion
[ 10167 10162 10161 10158 ] final  -60.53 input  -65.29 | X-H torsion
[ 10718 10713 10712 10709 ] final  136.04 input   66.30 | X-H torsion
[ 10763 10752 10751 10750 ] final  -53.51 input  -60.55 | X-H torsion
[ 11005 11000 10999 10996 ] final  119.05 input  -57.11 | X-H torsion

> <Gold.Protein.ActiveResidues>
 VAL166  LYS551  ARG553  GLY616  TRP617  ASP618  TYR619  PRO620  LYS621  CYS622 
 ASP623  PHE694  ASN695  SER759  ASP760  ASP761  ALA762  ILE779  LEU786  VAL792 
 PHE793  MET794  SER795  GLU796  ALA797  LYS798  CYS799  TRP800  GLU811  SER814 

> <Gold.Protein.RotatedAtoms>
  152.5317  133.9941  159.7864 H   0  0  0  0  0  0  0  0  0  0  0  0  # atno 6907 bound_to 6896
  151.0172  133.5902  159.2682 H   0  0  0  0  0  0  0  0  0  0  0  0  # atno 6908 bound_to 6896
  151.2955  135.0761  159.9273 H   0  0  0  0  0  0  0  0  0  0  0  0  # atno 6909 bound_to 6896
  146.1601  139.6765  142.9039 H   0  0  0  0  0  0  0  0  0  0  0  0  # atno 7974 bound_to 7965
  156.2688  140.2807  156.1315 H   0  0  0  0  0  0  0  0  0  0  0  0  # atno 8008 bound_to 7997
  155.1050  140.0390  157.2725 H   0  0  0  0  0  0  0  0  0  0  0  0  # atno 8009 bound_to 7997
  154.6786  140.2604  155.6937 H   0  0  0  0  0  0  0  0  0  0  0  0  # atno 8010 bound_to 7997
  140.6065  143.2375  151.5809 H   0  0  0  0  0  0  0  0  0  0  0  0  # atno 10167 bound_to 10162
  157.4508  131.1066  151.0036 H   0  0  0  0  0  0  0  0  0  0  0  0  # atno 10718 bound_to 10713
  154.1599  135.6476  153.4983 H   0  0  0  0  0  0  0  0  0  0  0  0  # atno 10763 bound_to 10752
  153.0113  135.5358  154.6721 H   0  0  0  0  0  0  0  0  0  0  0  0  # atno 10764 bound_to 10752
  154.6032  135.2946  155.0485 H   0  0  0  0  0  0  0  0  0  0  0  0  # atno 10765 bound_to 10752
  139.9132  134.9625  156.7596 H   0  0  0  0  0  0  0  0  0  0  0  0  # atno 11005 bound_to 11000
  145.4610  141.0433  143.2751 LP  0  0  0  0  0  0  0  0  0  0  0  0  # atno 17320 bound_to 7965
  144.8015  139.6131  143.7069 LP  0  0  0  0  0  0  0  0  0  0  0  0  # atno 17321 bound_to 7965
  139.5329  144.2865  152.1187 LP  0  0  0  0  0  0  0  0  0  0  0  0  # atno 17342 bound_to 10162
  140.2055  144.4615  150.6410 LP  0  0  0  0  0  0  0  0  0  0  0  0  # atno 17343 bound_to 10162
  157.0866  130.5925  149.5431 LP  0  0  0  0  0  0  0  0  0  0  0  0  # atno 17370 bound_to 10713
  155.9986  130.5060  150.7577 LP  0  0  0  0  0  0  0  0  0  0  0  0  # atno 17371 bound_to 10713
  140.6708  133.9561  155.7855 LP  0  0  0  0  0  0  0  0  0  0  0  0  # atno 17394 bound_to 11000
  141.0579  134.0390  157.3698 LP  0  0  0  0  0  0  0  0  0  0  0  0  # atno 17395 bound_to 11000

$$$$
