AV-unprocessed.smi:646|AV-procd|sdf|3167|dock3
  -GOLD-   22720 0 93D 1   1.00000     0.00000
 Structure written by MMmdl.
 44 45  0  0  0  0  0  0  0  0  1 V2000
  152.6539  139.5530  155.2971 C   0  0  0  0  0  0  0  0  0  0  0  0
  151.5043  140.0659  155.9591 O   0  0  0  0  0  0  0  0  0  0  0  0
  150.2385  139.4721  155.6388 C   0  0  1  0  0  0  0  0  0  0  0  0
  149.9541  139.5916  154.1365 C   0  0  0  0  0  0  0  0  0  0  0  0
  150.1007  138.1000  156.3267 C   0  0  0  0  0  0  0  0  0  0  0  0
  149.6599  138.8550  157.5787 C   0  0  2  0  0  0  0  0  0  0  0  0
  148.5977  138.1692  158.3042 N   0  0  0  0  0  0  0  0  0  0  0  0
  148.7976  137.1645  159.1697 C   0  0  0  0  0  0  0  0  0  0  0  0
  149.8987  136.6558  159.3782 O   0  0  0  0  0  0  0  0  0  0  0  0
  147.5713  136.6812  159.9425 C   0  0  0  0  0  0  0  0  0  0  0  0
  147.8170  135.2808  160.4454 C   0  0  0  0  0  0  0  0  0  0  0  0
  148.4196  134.1921  159.7512 C   0  0  0  0  0  0  0  0  0  0  0  0
  148.9615  134.1620  158.3510 C   0  0  0  0  0  0  0  0  0  0  0  0
  148.4943  133.1072  160.5036 N   0  0  0  0  0  0  0  0  0  0  0  0
  147.9331  133.4559  161.7357 O   0  0  0  0  0  0  0  0  0  0  0  0
  147.5413  134.7539  161.6772 C   0  0  0  0  0  0  0  0  0  0  0  0
  146.9254  135.3237  162.9098 C   0  0  0  0  0  0  0  0  0  0  0  0
  149.1743  140.0024  156.6549 C   0  0  0  0  0  0  0  0  0  0  0  0
  149.3819  141.4242  157.1882 C   0  0  0  0  0  0  0  0  0  0  0  0
  147.7064  139.9429  156.1881 C   0  0  0  0  0  0  0  0  0  0  0  0
  153.5452  139.9986  155.7386 H   0  0  0  0  0  0  0  0  0  0  0  0
  152.6582  139.8104  154.2381 H   0  0  0  0  0  0  0  0  0  0  0  0
  152.7433  138.4717  155.3951 H   0  0  0  0  0  0  0  0  0  0  0  0
  148.9518  139.2467  153.8848 H   0  0  0  0  0  0  0  0  0  0  0  0
  150.6387  138.9867  153.5424 H   0  0  0  0  0  0  0  0  0  0  0  0
  150.0386  140.6247  153.7986 H   0  0  0  0  0  0  0  0  0  0  0  0
  149.3138  137.4835  155.8880 H   0  0  0  0  0  0  0  0  0  0  0  0
  151.0199  137.5286  156.4499 H   0  0  0  0  0  0  0  0  0  0  0  0
  150.5123  139.1383  158.2007 H   0  0  0  0  0  0  0  0  0  0  0  0
  147.6596  138.5248  158.1920 H   0  0  0  0  0  0  0  0  0  0  0  0
  147.3719  137.3749  160.7601 H   0  0  0  0  0  0  0  0  0  0  0  0
  146.6972  136.7193  159.2915 H   0  0  0  0  0  0  0  0  0  0  0  0
  148.3429  134.7558  157.6779 H   0  0  0  0  0  0  0  0  0  0  0  0
  148.9979  133.1465  157.9551 H   0  0  0  0  0  0  0  0  0  0  0  0
  149.9720  134.5701  158.3177 H   0  0  0  0  0  0  0  0  0  0  0  0
  147.2619  136.3478  163.0723 H   0  0  0  0  0  0  0  0  0  0  0  0
  147.1941  134.7385  163.7898 H   0  0  0  0  0  0  0  0  0  0  0  0
  145.8386  135.3330  162.8278 H   0  0  0  0  0  0  0  0  0  0  0  0
  148.6362  141.6838  157.9406 H   0  0  0  0  0  0  0  0  0  0  0  0
  149.3159  142.1625  156.3886 H   0  0  0  0  0  0  0  0  0  0  0  0
  150.3562  141.5443  157.6620 H   0  0  0  0  0  0  0  0  0  0  0  0
  147.0152  140.1699  157.0003 H   0  0  0  0  0  0  0  0  0  0  0  0
  147.4337  138.9589  155.8065 H   0  0  0  0  0  0  0  0  0  0  0  0
  147.5108  140.6622  155.3923 H   0  0  0  0  0  0  0  0  0  0  0  0
  1  2  1  0  0  0  0
  1 21  1  0  0  0  0
  1 22  1  0  0  0  0
  1 23  1  0  0  0  0
  2  3  1  0  0  0  0
  3 18  1  0  0  0  0
  3  4  1  0  0  0  0
  3  5  1  0  0  0  0
  4 24  1  0  0  0  0
  4 25  1  0  0  0  0
  4 26  1  0  0  0  0
  5  6  1  0  0  0  0
  5 27  1  0  0  0  0
  5 28  1  0  0  0  0
  6  7  1  0  0  0  0
  6 18  1  0  0  0  0
  6 29  1  0  0  0  0
  7  8  1  0  0  0  0
  7 30  1  0  0  0  0
  8  9  2  0  0  0  0
  8 10  1  0  0  0  0
 10 11  1  0  0  0  0
 10 31  1  0  0  0  0
 10 32  1  0  0  0  0
 11 16  2  0  0  0  0
 11 12  1  0  0  0  0
 12 13  1  0  0  0  0
 12 14  2  0  0  0  0
 13 33  1  0  0  0  0
 13 34  1  0  0  0  0
 13 35  1  0  0  0  0
 14 15  1  0  0  0  0
 15 16  1  0  0  0  0
 16 17  1  0  0  0  0
 17 36  1  0  0  0  0
 17 37  1  0  0  0  0
 17 38  1  0  0  0  0
 18 19  1  0  0  0  0
 18 20  1  0  0  0  0
 19 39  1  0  0  0  0
 19 40  1  0  0  0  0
 19 41  1  0  0  0  0
 20 42  1  0  0  0  0
 20 43  1  0  0  0  0
 20 44  1  0  0  0  0
M  END
> <s_m_source_file>
AV-unprocessed.smi

> <i_m_source_file_index>
646

> <i_lp_mmshare_version>
43012

> <i_f3d_flags>
0

> <s_epik_input>
W0NIM11PW0NAQF0xKFtDSDNdKVtDSDJdW0NASF0oQzEoW0NIM10pW0NIM10pW05IXUMoPU8pW0NIMl1jMmMoW0NIM10pbm9jMltDSDNd

> <s_epik_cmdline>
J2VwaWtfcHl0aG9uJywgJy1waCcsICc3LjAnLCAnLXRuJywgJzgnLCAnLW1hJywgJzIwMCcsICctbWV0YWxfYmluZGluZycsICctaW1hZScsICc8aW5maWxlLm1hZT4nLCAnLW9tYWUnLCAnPG91dGZpbGUubWFlPic=

> <r_lp_tautomer_probability>
1

> <r_epik_Ionization_Penalty>
2.13169e-08

> <r_epik_Ionization_Penalty_Charging>
0

> <r_epik_Ionization_Penalty_Neutral>
2.13169e-08

> <r_epik_State_Penalty>
-0

> <r_epik_Charging_Adjusted_Penalty>
0

> <i_epik_Tot_Q>
0

> <i_epik_Tot_abs_Q>
0

> <r_epik_Metal_State_Penalty>
-0

> <b_epik_Metal_Only>
0

> <s_lp_Force_Field>
OPLS_2005

> <r_lp_Energy>
15.7725

> <b_lp_Chiralities_Consistent>
1

> <s_lp_Variant>
AV-unprocessed.smi:646-3

> <Gold.Version>
5.8.1

> <Gold.Id.Protein>
6NUR|6NUR_protein|mol2

> <Gold.PLP.Fitness>
29.4519

> <Gold.PLP.PLP>
-27.6381

> <Gold.PLP.part.hbond>
-1.0000

> <Gold.PLP.part.metal>
0.0000

> <Gold.PLP.part.buried>
-3.0853

> <Gold.PLP.part.nonpolar>
-23.1918

> <Gold.PLP.part.repulsive>
0.1515

> <Gold.PLP.ligand.clash>
0.0000

> <Gold.PLP.ligand.torsion>
0.7848

> <Gold.PLP.Chemscore.Hbond>
1.0000

> <Gold.PLP.Chemscore.CHOScore>
0.0000

> <Gold.PLP.Chemscore.Metal>
0.0000

> <Gold.Chemscore.Hbonds>
donor molecule, donor type, donor heavy atom, donor atom, acceptor molecule, acceptor atom, score
      P1  H  6896  6908       L1     9  0.88

> <Gold.PLP.Chemscore.Internal.Correction>
0.3835

> <Gold.Rescore>
     Score         DG    S(hbond)    S(metal)    S(lipo)     H(rot)  DE(clash)    DE(int)     intcor
     12.75     -13.60       0.99        0.00      73.78       1.49       0.03       0.82       ----

> <Gold.Chemscore.Fitness>
12.7510

> <Gold.Chemscore.DG>
-13.6022

> <Gold.Chemscore.ZeroCoef>
-5.4800

> <Gold.Chemscore.Hbond>
0.9915

> <Gold.Chemscore.Metal>
0.0000

> <Gold.Chemscore.Lipo>
73.7809

> <Gold.Chemscore.Internal_Hbond>
0.0000

> <Gold.Chemscore.DEClash>
0.0343

> <Gold.Chemscore.DEInternal>
0.8169

> <Gold.Chemscore.Rot>
1.4928

> <Gold.Chemscore.Internal.Correction>
   9.000000E+99

> <Gold.Chemscore.Hbonds>
donor molecule, donor type, donor heavy atom, donor atom, acceptor molecule, acceptor atom, score
      P1  H  6896  6908       L1     9  0.84

> <Gold.Chemscore.Hbond.Weighted>
-3.3115

> <Gold.Chemscore.Metal.Weighted>
-0.0000

> <Gold.Chemscore.Lipo.Weighted>
-8.6324

> <Gold.Chemscore.Internal_Hbond.Weighted>
0.0000

> <Gold.Chemscore.DEClash.Weighted>
0.0343

> <Gold.Chemscore.DEInternal.Weighted>
0.8169

> <Gold.Chemscore.Rot.Weighted>
3.8217

> <Gold.Chemscore.Internal.Correction.Weighted>
   9.000000E+99

> <Gold.Protein.RotatedTorsions>
[ 6907 6896 6895 6894 ] final -176.36 input  -60.11 | X-H torsion
[ 7974 7965 7964 7962 ] final   29.77 input  175.53 | X-H torsion
[ 8008 7997 7996 7995 ] final -135.85 input   59.86 | X-H torsion
[ 10167 10162 10161 10158 ] final  101.65 input  -65.29 | X-H torsion
[ 10718 10713 10712 10709 ] final -160.55 input   66.30 | X-H torsion
[ 10763 10752 10751 10750 ] final -106.02 input  -60.55 | X-H torsion
[ 11005 11000 10999 10996 ] final  126.42 input  -57.11 | X-H torsion

> <Gold.Protein.ActiveResidues>
 VAL166  LYS551  ARG553  GLY616  TRP617  ASP618  TYR619  PRO620  LYS621  CYS622 
 ASP623  PHE694  ASN695  SER759  ASP760  ASP761  ALA762  ILE779  LEU786  VAL792 
 PHE793  MET794  SER795  GLU796  ALA797  LYS798  CYS799  TRP800  GLU811  SER814 

> <Gold.Protein.RotatedAtoms>
  151.6035  133.3354  159.3052 H   0  0  0  0  0  0  0  0  0  0  0  0  # atno 6907 bound_to 6896
  150.8195  134.7398  159.6771 H   0  0  0  0  0  0  0  0  0  0  0  0  # atno 6908 bound_to 6896
  152.4289  134.5821  160.0002 H   0  0  0  0  0  0  0  0  0  0  0  0  # atno 6909 bound_to 6896
  146.1652  139.6878  142.9006 H   0  0  0  0  0  0  0  0  0  0  0  0  # atno 7974 bound_to 7965
  155.3855  140.0496  157.3042 H   0  0  0  0  0  0  0  0  0  0  0  0  # atno 8008 bound_to 7997
  154.5061  140.2175  155.9209 H   0  0  0  0  0  0  0  0  0  0  0  0  # atno 8009 bound_to 7997
  156.1527  140.3132  155.8681 H   0  0  0  0  0  0  0  0  0  0  0  0  # atno 8010 bound_to 7997
  139.7419  144.7009  151.0562 H   0  0  0  0  0  0  0  0  0  0  0  0  # atno 10167 bound_to 10162
  156.5837  130.8740  151.2871 H   0  0  0  0  0  0  0  0  0  0  0  0  # atno 10718 bound_to 10713
  154.7985  135.4727  154.0219 H   0  0  0  0  0  0  0  0  0  0  0  0  # atno 10763 bound_to 10752
  153.1742  135.6830  153.8572 H   0  0  0  0  0  0  0  0  0  0  0  0  # atno 10764 bound_to 10752
  153.8144  135.3212  155.3382 H   0  0  0  0  0  0  0  0  0  0  0  0  # atno 10765 bound_to 10752
  139.9455  134.9630  156.8704 H   0  0  0  0  0  0  0  0  0  0  0  0  # atno 11005 bound_to 11000
  145.4486  141.0427  143.2817 LP  0  0  0  0  0  0  0  0  0  0  0  0  # atno 17320 bound_to 7965
  144.8082  139.6011  143.7041 LP  0  0  0  0  0  0  0  0  0  0  0  0  # atno 17321 bound_to 7965
  140.7787  143.4914  150.9889 LP  0  0  0  0  0  0  0  0  0  0  0  0  # atno 17342 bound_to 10162
  139.8602  143.7325  152.3174 LP  0  0  0  0  0  0  0  0  0  0  0  0  # atno 17343 bound_to 10162
  157.7320  130.9709  150.1909 LP  0  0  0  0  0  0  0  0  0  0  0  0  # atno 17370 bound_to 10713
  156.2609  130.3711  149.8131 LP  0  0  0  0  0  0  0  0  0  0  0  0  # atno 17371 bound_to 10713
  140.5845  134.0321  155.7476 LP  0  0  0  0  0  0  0  0  0  0  0  0  # atno 17394 bound_to 11000
  141.1104  133.9625  157.2920 LP  0  0  0  0  0  0  0  0  0  0  0  0  # atno 17395 bound_to 11000

$$$$
