AV-unprocessed.smi:2392|AV-procd|sdf|9487|dock3
  -GOLD-   2272013113D 1   1.00000     0.00000
 Structure written by MMmdl.
 42 43  0  0  0  0  0  0  0  0  2 V2000
  153.3285  140.6660  159.7580 C   0  0  0  0  0  0  0  0  0  0  0  0
  152.7809  141.9143  159.0990 C   0  0  0  0  0  0  0  0  0  0  0  0
  153.2702  143.1896  159.4435 C   0  0  0  0  0  0  0  0  0  0  0  0
  152.7152  144.3090  158.7980 C   0  0  0  0  0  0  0  0  0  0  0  0
  151.6997  144.1087  157.8428 C   0  0  0  0  0  0  0  0  0  0  0  0
  151.2648  142.7954  157.5560 C   0  0  0  0  0  0  0  0  0  0  0  0
  150.2331  142.7011  156.5844 N   0  0  0  0  0  0  0  0  0  0  0  0
  150.0336  141.7287  155.6775 C   0  0  0  0  0  0  0  0  0  0  0  0
  150.7560  140.7450  155.5130 O   0  0  0  0  0  0  0  0  0  0  0  0
  148.9327  141.9612  154.9481 N   0  0  0  0  0  0  0  0  0  0  0  0
  148.4386  141.0894  153.8888 C   0  0  0  0  0  0  0  0  0  0  0  0
  146.9274  141.2814  153.6597 C   0  0  0  0  0  0  0  0  0  0  0  0
  146.2093  139.9883  153.5392 N   0  3  0  0  0  0  0  0  0  0  0  0
  146.8243  139.0939  152.5239 C   0  0  0  0  0  0  0  0  0  0  0  0
  145.9804  137.8248  152.3170 C   0  0  0  0  0  0  0  0  0  0  0  0
  145.7755  137.0795  153.6419 C   0  0  0  0  0  0  0  0  0  0  0  0
  145.1755  138.0274  154.6884 C   0  0  0  0  0  0  0  0  0  0  0  0
  146.0348  139.2939  154.8438 C   0  0  0  0  0  0  0  0  0  0  0  0
  151.8075  141.7220  158.1828 N   0  0  0  0  0  0  0  0  0  0  0  0
  154.2313  140.8848  160.3291 H   0  0  0  0  0  0  0  0  0  0  0  0
  153.5762  139.9138  159.0082 H   0  0  0  0  0  0  0  0  0  0  0  0
  152.5881  140.2432  160.4375 H   0  0  0  0  0  0  0  0  0  0  0  0
  154.0487  143.3096  160.1825 H   0  0  0  0  0  0  0  0  0  0  0  0
  153.0607  145.3049  159.0322 H   0  0  0  0  0  0  0  0  0  0  0  0
  151.2614  144.9584  157.3394 H   0  0  0  0  0  0  0  0  0  0  0  0
  149.5629  143.4556  156.5903 H   0  0  0  0  0  0  0  0  0  0  0  0
  148.3952  142.7926  155.1464 H   0  0  0  0  0  0  0  0  0  0  0  0
  149.0092  141.2736  152.9781 H   0  0  0  0  0  0  0  0  0  0  0  0
  148.6421  140.0579  154.1777 H   0  0  0  0  0  0  0  0  0  0  0  0
  146.5292  141.8399  154.5082 H   0  0  0  0  0  0  0  0  0  0  0  0
  146.7342  141.8905  152.7753 H   0  0  0  0  0  0  0  0  0  0  0  0
  146.9134  139.6200  151.5726 H   0  0  0  0  0  0  0  0  0  0  0  0
  147.8360  138.8289  152.8360 H   0  0  0  0  0  0  0  0  0  0  0  0
  145.0117  138.0938  151.8939 H   0  0  0  0  0  0  0  0  0  0  0  0
  146.4632  137.1693  151.5916 H   0  0  0  0  0  0  0  0  0  0  0  0
  145.1237  136.2179  153.4944 H   0  0  0  0  0  0  0  0  0  0  0  0
  146.7308  136.6925  153.9990 H   0  0  0  0  0  0  0  0  0  0  0  0
  144.1627  138.3055  154.3940 H   0  0  0  0  0  0  0  0  0  0  0  0
  145.0893  137.5155  155.6475 H   0  0  0  0  0  0  0  0  0  0  0  0
  147.0128  139.0339  155.2522 H   0  0  0  0  0  0  0  0  0  0  0  0
  145.5594  139.9557  155.5668 H   0  0  0  0  0  0  0  0  0  0  0  0
  145.2853  140.2071  153.1951 H   0  0  0  0  0  0  0  0  0  0  0  0
  1  2  1  0  0  0  0
  1 20  1  0  0  0  0
  1 21  1  0  0  0  0
  1 22  1  0  0  0  0
  2 19  1  0  0  0  0
  2  3  2  0  0  0  0
  3  4  1  0  0  0  0
  3 23  1  0  0  0  0
  4  5  2  0  0  0  0
  4 24  1  0  0  0  0
  5  6  1  0  0  0  0
  5 25  1  0  0  0  0
  6  7  1  0  0  0  0
  6 19  2  0  0  0  0
  7  8  1  0  0  0  0
  7 26  1  0  0  0  0
  8  9  2  0  0  0  0
  8 10  1  0  0  0  0
 10 11  1  0  0  0  0
 10 27  1  0  0  0  0
 11 12  1  0  0  0  0
 11 28  1  0  0  0  0
 11 29  1  0  0  0  0
 12 13  1  0  0  0  0
 12 30  1  0  0  0  0
 12 31  1  0  0  0  0
 13 18  1  0  0  0  0
 13 14  1  0  0  0  0
 13 42  1  0  0  0  0
 14 15  1  0  0  0  0
 14 32  1  0  0  0  0
 14 33  1  0  0  0  0
 15 16  1  0  0  0  0
 15 34  1  0  0  0  0
 15 35  1  0  0  0  0
 16 17  1  0  0  0  0
 16 36  1  0  0  0  0
 16 37  1  0  0  0  0
 17 18  1  0  0  0  0
 17 38  1  0  0  0  0
 17 39  1  0  0  0  0
 18 40  1  0  0  0  0
 18 41  1  0  0  0  0
M  CHG  1  13   1
M  END
> <s_m_source_file>
AV-unprocessed.smi

> <i_m_source_file_index>
2392

> <i_lp_mmshare_version>
43012

> <i_f3d_flags>
0

> <s_epik_input>
W0NIM11jMVtjSF1bY0hdW2NIXWMobjEpW05IXUMoPU8pW05IXVtDSDJdW0NIMl1OMltDSDJdW0NIMl1bQ0gyXVtDSDJdW0NIMl0y

> <s_epik_cmdline>
J2VwaWtfcHl0aG9uJywgJy1waCcsICc3LjAnLCAnLXRuJywgJzgnLCAnLW1hJywgJzIwMCcsICctbWV0YWxfYmluZGluZycsICctaW1hZScsICc8aW5maWxlLm1hZT4nLCAnLW9tYWUnLCAnPG91dGZpbGUubWFlPic=

> <r_epik_Ionization_Penalty>
0.00217954

> <r_epik_Ionization_Penalty_Charging>
0.00211816

> <r_epik_Ionization_Penalty_Neutral>
6.13832e-05

> <r_epik_State_Penalty>
0.00145254

> <r_epik_Charging_Adjusted_Penalty>
0.0035707

> <i_epik_Tot_Q>
1

> <i_epik_Tot_abs_Q>
1

> <r_epik_Metal_State_Penalty>
-0

> <b_epik_Metal_Only>
0

> <s_lp_Force_Field>
OPLS_2005

> <r_lp_Energy>
16.6108

> <b_lp_Chiralities_Consistent>
1

> <s_lp_Variant>
AV-unprocessed.smi:2392-1

> <Gold.Version>
5.8.1

> <Gold.Id.Protein>
6NUR|6NUR_protein|mol2

> <Gold.PLP.Fitness>
52.4445

> <Gold.PLP.PLP>
-40.7676

> <Gold.PLP.part.hbond>
-4.0000

> <Gold.PLP.part.metal>
0.0000

> <Gold.PLP.part.buried>
-3.1488

> <Gold.PLP.part.nonpolar>
-33.6949

> <Gold.PLP.part.repulsive>
0.3490

> <Gold.PLP.ligand.clash>
0.0000

> <Gold.PLP.ligand.torsion>
0.7900

> <Gold.PLP.Chemscore.Hbond>
4.4134

> <Gold.PLP.Chemscore.CHOScore>
0.0000

> <Gold.PLP.Chemscore.Metal>
0.0000

> <Gold.Chemscore.Hbonds>
donor molecule, donor type, donor heavy atom, donor atom, acceptor molecule, acceptor atom, score
      L1  H     7    26       P1  8028  0.90
      L1  H    10    27       P1  8028  0.70
      L1  H    13    42       P1 10175  2.00
      P1  H  7989  7998       L1     9  0.50

> <Gold.PLP.Chemscore.Internal.Correction>
0.0166

> <Gold.Rescore>
     Score         DG    S(hbond)    S(metal)    S(lipo)     H(rot)  DE(clash)    DE(int)     intcor
     21.58     -23.69       3.22        0.00      96.02       1.47       0.27       1.83       ----

> <Gold.Chemscore.Fitness>
21.5822

> <Gold.Chemscore.DG>
-23.6910

> <Gold.Chemscore.ZeroCoef>
-5.4800

> <Gold.Chemscore.Hbond>
3.2153

> <Gold.Chemscore.Metal>
0.0000

> <Gold.Chemscore.Lipo>
96.0206

> <Gold.Chemscore.Internal_Hbond>
0.0000

> <Gold.Chemscore.DEClash>
0.2738

> <Gold.Chemscore.DEInternal>
1.8350

> <Gold.Chemscore.Rot>
1.4698

> <Gold.Chemscore.Internal.Correction>
   9.000000E+99

> <Gold.Chemscore.Hbonds>
donor molecule, donor type, donor heavy atom, donor atom, acceptor molecule, acceptor atom, score
      L1  H     7    26       P1  8028  0.88
      L1  H    10    27       P1  8028  0.65
      L1  H    13    42       P1 10175  1.00
      P1  H  7989  7998       L1     9  0.32

> <Gold.Chemscore.Hbond.Weighted>
-10.7392

> <Gold.Chemscore.Metal.Weighted>
-0.0000

> <Gold.Chemscore.Lipo.Weighted>
-11.2344

> <Gold.Chemscore.Internal_Hbond.Weighted>
0.0000

> <Gold.Chemscore.DEClash.Weighted>
0.2738

> <Gold.Chemscore.DEInternal.Weighted>
1.8350

> <Gold.Chemscore.Rot.Weighted>
3.7626

> <Gold.Chemscore.Internal.Correction.Weighted>
   9.000000E+99

> <Gold.Protein.RotatedTorsions>
[ 6907 6896 6895 6894 ] final  117.20 input  -60.11 | X-H torsion
[ 7974 7965 7964 7962 ] final  113.84 input  175.53 | X-H torsion
[ 8008 7997 7996 7995 ] final -142.64 input   59.86 | X-H torsion
[ 10167 10162 10161 10158 ] final  -30.49 input  -65.29 | X-H torsion
[ 10718 10713 10712 10709 ] final  -91.51 input   66.30 | X-H torsion
[ 10763 10752 10751 10750 ] final  -40.79 input  -60.55 | X-H torsion
[ 11005 11000 10999 10996 ] final  179.38 input  -57.11 | X-H torsion

> <Gold.Protein.ActiveResidues>
 VAL166  LYS551  ARG553  GLY616  TRP617  ASP618  TYR619  PRO620  LYS621  CYS622 
 ASP623  PHE694  ASN695  SER759  ASP760  ASP761  ALA762  ILE779  LEU786  VAL792 
 PHE793  MET794  SER795  GLU796  ALA797  LYS798  CYS799  TRP800  GLU811  SER814 

> <Gold.Protein.RotatedAtoms>
  152.4627  133.7857  159.6874 H   0  0  0  0  0  0  0  0  0  0  0  0  # atno 6907 bound_to 6896
  150.8578  133.7678  159.3009 H   0  0  0  0  0  0  0  0  0  0  0  0  # atno 6908 bound_to 6896
  151.5253  135.1071  159.9941 H   0  0  0  0  0  0  0  0  0  0  0  0  # atno 6909 bound_to 6896
  145.2119  139.2902  143.4264 H   0  0  0  0  0  0  0  0  0  0  0  0  # atno 7974 bound_to 7965
  155.4975  140.0573  157.2944 H   0  0  0  0  0  0  0  0  0  0  0  0  # atno 8008 bound_to 7997
  154.4600  140.1991  156.0222 H   0  0  0  0  0  0  0  0  0  0  0  0  # atno 8009 bound_to 7997
  156.0871  140.3238  155.7772 H   0  0  0  0  0  0  0  0  0  0  0  0  # atno 8010 bound_to 7997
  140.7248  143.3844  151.1541 H   0  0  0  0  0  0  0  0  0  0  0  0  # atno 10167 bound_to 10162
  155.9994  130.4951  150.5485 H   0  0  0  0  0  0  0  0  0  0  0  0  # atno 10718 bound_to 10713
  153.9517  135.6750  153.4744 H   0  0  0  0  0  0  0  0  0  0  0  0  # atno 10763 bound_to 10752
  153.0881  135.4888  154.8633 H   0  0  0  0  0  0  0  0  0  0  0  0  # atno 10764 bound_to 10752
  154.7321  135.3140  154.8832 H   0  0  0  0  0  0  0  0  0  0  0  0  # atno 10765 bound_to 10752
  140.4056  134.6738  157.4586 H   0  0  0  0  0  0  0  0  0  0  0  0  # atno 11005 bound_to 11000
  146.3395  140.2397  142.8595 LP  0  0  0  0  0  0  0  0  0  0  0  0  # atno 17320 bound_to 7965
  144.9848  140.8493  143.5375 LP  0  0  0  0  0  0  0  0  0  0  0  0  # atno 17321 bound_to 7965
  139.7439  143.8882  152.3058 LP  0  0  0  0  0  0  0  0  0  0  0  0  # atno 17342 bound_to 10162
  139.8713  144.7067  150.8985 LP  0  0  0  0  0  0  0  0  0  0  0  0  # atno 17343 bound_to 10162
  157.3412  131.0717  151.1787 LP  0  0  0  0  0  0  0  0  0  0  0  0  # atno 17370 bound_to 10713
  157.2634  130.6670  149.5985 LP  0  0  0  0  0  0  0  0  0  0  0  0  # atno 17371 bound_to 10713
  140.0305  134.6414  155.9114 LP  0  0  0  0  0  0  0  0  0  0  0  0  # atno 17394 bound_to 11000
  141.1840  133.6552  156.5141 LP  0  0  0  0  0  0  0  0  0  0  0  0  # atno 17395 bound_to 11000

$$$$
