AV-unprocessed.smi:2031|AV-procd|sdf|8230|dock10
  -GOLD-   2272010503D 1   1.00000     0.00000
 Structure written by MMmdl.
 41 42  0  0  0  0  0  0  0  0  3 V2000
  152.9897  141.8505  159.6166 C   0  0  0  0  0  0  0  0  0  0  0  0
  152.2241  141.2372  158.4950 C   0  0  0  0  0  0  0  0  0  0  0  0
  151.0758  141.5949  157.8465 C   0  0  0  0  0  0  0  0  0  0  0  0
  150.9171  140.5646  156.8816 C   0  0  0  0  0  0  0  0  0  0  0  0
  149.8127  140.5735  155.9888 N   0  0  0  0  0  0  0  0  0  0  0  0
  149.7130  140.0220  154.7654 C   0  0  0  0  0  0  0  0  0  0  0  0
  150.6691  139.4072  154.2780 O   0  0  0  0  0  0  0  0  0  0  0  0
  148.4914  140.2355  154.2031 N   0  5  0  0  0  0  0  0  0  0  0  0
  147.7899  139.2895  153.3369 C   0  0  0  0  0  0  0  0  0  0  0  0
  147.4114  138.0307  154.1404 C   0  0  0  0  0  0  0  0  0  0  0  0
  146.7496  137.0109  153.2771 N   0  3  0  0  0  0  0  0  0  0  0  0
  145.8232  137.5762  152.2590 C   0  0  0  0  0  0  0  0  0  0  0  0
  146.0556  136.9053  150.8943 C   0  0  0  0  0  0  0  0  0  0  0  0
  145.4785  135.4872  150.7677 C   0  0  0  0  0  0  0  0  0  0  0  0
  145.9564  134.5058  151.8507 C   0  0  0  0  0  0  0  0  0  0  0  0
  145.3799  134.8420  153.2355 C   0  0  0  0  0  0  0  0  0  0  0  0
  146.1901  135.8663  154.0551 C   0  0  0  0  0  0  0  0  0  0  0  0
  151.8823  139.6588  156.9384 N   0  0  0  0  0  0  0  0  0  0  0  0
  152.7245  140.0853  157.9720 O   0  0  0  0  0  0  0  0  0  0  0  0
  152.4935  142.7496  159.9823 H   0  0  0  0  0  0  0  0  0  0  0  0
  153.9937  142.1256  159.2932 H   0  0  0  0  0  0  0  0  0  0  0  0
  153.0808  141.1524  160.4489 H   0  0  0  0  0  0  0  0  0  0  0  0
  150.4513  142.4559  158.0326 H   0  0  0  0  0  0  0  0  0  0  0  0
  148.9944  141.0661  156.3145 H   0  0  0  0  0  0  0  0  0  0  0  0
  146.8810  139.7304  152.9265 H   0  0  0  0  0  0  0  0  0  0  0  0
  148.3825  138.9857  152.4729 H   0  0  0  0  0  0  0  0  0  0  0  0
  148.2921  137.6036  154.6231 H   0  0  0  0  0  0  0  0  0  0  0  0
  146.7582  138.3443  154.9551 H   0  0  0  0  0  0  0  0  0  0  0  0
  144.7831  137.5061  152.5801 H   0  0  0  0  0  0  0  0  0  0  0  0
  146.0128  138.6394  152.1129 H   0  0  0  0  0  0  0  0  0  0  0  0
  145.6018  137.5239  150.1192 H   0  0  0  0  0  0  0  0  0  0  0  0
  147.1238  136.8907  150.6721 H   0  0  0  0  0  0  0  0  0  0  0  0
  144.3888  135.5352  150.7742 H   0  0  0  0  0  0  0  0  0  0  0  0
  145.7499  135.0909  149.7885 H   0  0  0  0  0  0  0  0  0  0  0  0
  145.6144  133.5086  151.5712 H   0  0  0  0  0  0  0  0  0  0  0  0
  147.0455  134.4520  151.8818 H   0  0  0  0  0  0  0  0  0  0  0  0
  144.3490  135.1816  153.1296 H   0  0  0  0  0  0  0  0  0  0  0  0
  145.3156  133.9250  153.8221 H   0  0  0  0  0  0  0  0  0  0  0  0
  147.0171  135.3471  154.5406 H   0  0  0  0  0  0  0  0  0  0  0  0
  145.5547  136.2443  154.8572 H   0  0  0  0  0  0  0  0  0  0  0  0
  147.5063  136.6274  152.7289 H   0  0  0  0  0  0  0  0  0  0  0  0
  1  2  1  0  0  0  0
  1 20  1  0  0  0  0
  1 21  1  0  0  0  0
  1 22  1  0  0  0  0
  2 19  1  0  0  0  0
  2  3  2  0  0  0  0
  3  4  1  0  0  0  0
  3 23  1  0  0  0  0
  4  5  1  0  0  0  0
  4 18  2  0  0  0  0
  5  6  1  0  0  0  0
  5 24  1  0  0  0  0
  6  7  2  0  0  0  0
  6  8  1  0  0  0  0
  8  9  1  0  0  0  0
  9 10  1  0  0  0  0
  9 25  1  0  0  0  0
  9 26  1  0  0  0  0
 10 11  1  0  0  0  0
 10 27  1  0  0  0  0
 10 28  1  0  0  0  0
 11 17  1  0  0  0  0
 11 12  1  0  0  0  0
 11 41  1  0  0  0  0
 12 13  1  0  0  0  0
 12 29  1  0  0  0  0
 12 30  1  0  0  0  0
 13 14  1  0  0  0  0
 13 31  1  0  0  0  0
 13 32  1  0  0  0  0
 14 15  1  0  0  0  0
 14 33  1  0  0  0  0
 14 34  1  0  0  0  0
 15 16  1  0  0  0  0
 15 35  1  0  0  0  0
 15 36  1  0  0  0  0
 16 17  1  0  0  0  0
 16 37  1  0  0  0  0
 16 38  1  0  0  0  0
 17 39  1  0  0  0  0
 17 40  1  0  0  0  0
 18 19  1  0  0  0  0
M  CHG  1   8  -1
M  CHG  1  11   1
M  END
> <s_m_source_file>
AV-unprocessed.smi

> <i_m_source_file_index>
2031

> <i_lp_mmshare_version>
43012

> <i_f3d_flags>
0

> <s_epik_input>
W0NIM11jMVtjSF1jKG5vMSlbTkhdQyg9TylbTkhdW0NIMl1bQ0gyXU4yW0NIMl1bQ0gyXVtDSDJdW0NIMl1bQ0gyXVtDSDJdMg==

> <s_epik_cmdline>
J2VwaWtfcHl0aG9uJywgJy1waCcsICc3LjAnLCAnLXRuJywgJzgnLCAnLW1hJywgJzIwMCcsICctbWV0YWxfYmluZGluZycsICctaW1hZScsICc8aW5maWxlLm1hZT4nLCAnLW9tYWUnLCAnPG91dGZpbGUubWFlPic=

> <r_epik_Ionization_Penalty>
6.7666

> <r_epik_Ionization_Penalty_Charging>
6.7666

> <r_epik_Ionization_Penalty_Neutral>
5.77131e-06

> <r_epik_State_Penalty>
6.79217

> <r_epik_Charging_Adjusted_Penalty>
13.5588

> <i_epik_Tot_Q>
0

> <i_epik_Tot_abs_Q>
2

> <r_epik_Metal_State_Penalty>
2.72569

> <b_epik_Metal_Only>
1

> <s_lp_Force_Field>
OPLS_2005

> <r_lp_Energy>
19.0994

> <b_lp_Chiralities_Consistent>
1

> <s_lp_Variant>
AV-unprocessed.smi:2031-3

> <Gold.Version>
5.8.1

> <Gold.Id.Protein>
6NUR|6NUR_protein|mol2

> <Gold.PLP.Fitness>
37.7859

> <Gold.PLP.PLP>
-26.7868

> <Gold.PLP.part.hbond>
-3.0000

> <Gold.PLP.part.metal>
0.0000

> <Gold.PLP.part.buried>
0.7415

> <Gold.PLP.part.nonpolar>
-24.4202

> <Gold.PLP.part.repulsive>
0.3410

> <Gold.PLP.ligand.clash>
0.0000

> <Gold.PLP.ligand.torsion>
0.5310

> <Gold.PLP.Chemscore.Hbond>
4.0000

> <Gold.PLP.Chemscore.CHOScore>
0.0000

> <Gold.PLP.Chemscore.Metal>
0.0000

> <Gold.Chemscore.Hbonds>
donor molecule, donor type, donor heavy atom, donor atom, acceptor molecule, acceptor atom, score
      L1  H    11    41       P1  7948  2.00
      P1  H  7989  7998       L1     7  1.00
      P1  H  7997  8009       L1    19  0.68

> <Gold.PLP.Chemscore.Internal.Correction>
0.0611

> <Gold.Rescore>
     Score         DG    S(hbond)    S(metal)    S(lipo)     H(rot)  DE(clash)    DE(int)     intcor
     14.90     -17.19       2.50        0.00      62.37       1.54       0.42       1.87       ----

> <Gold.Chemscore.Fitness>
14.8951

> <Gold.Chemscore.DG>
-17.1861

> <Gold.Chemscore.ZeroCoef>
-5.4800

> <Gold.Chemscore.Hbond>
2.5011

> <Gold.Chemscore.Metal>
0.0000

> <Gold.Chemscore.Lipo>
62.3676

> <Gold.Chemscore.Internal_Hbond>
0.0000

> <Gold.Chemscore.DEClash>
0.4225

> <Gold.Chemscore.DEInternal>
1.8684

> <Gold.Chemscore.Rot>
1.5409

> <Gold.Chemscore.Internal.Correction>
   9.000000E+99

> <Gold.Chemscore.Hbonds>
donor molecule, donor type, donor heavy atom, donor atom, acceptor molecule, acceptor atom, score
      L1  H    11    41       P1  7948  1.00
      P1  H  7989  7998       L1     7  0.26
      P1  H  7997  8009       L1    19  0.08

> <Gold.Chemscore.Hbond.Weighted>
-8.3537

> <Gold.Chemscore.Metal.Weighted>
-0.0000

> <Gold.Chemscore.Lipo.Weighted>
-7.2970

> <Gold.Chemscore.Internal_Hbond.Weighted>
0.0000

> <Gold.Chemscore.DEClash.Weighted>
0.4225

> <Gold.Chemscore.DEInternal.Weighted>
1.8684

> <Gold.Chemscore.Rot.Weighted>
3.9446

> <Gold.Chemscore.Internal.Correction.Weighted>
   9.000000E+99

> <Gold.Protein.RotatedTorsions>
[ 6907 6896 6895 6894 ] final   40.77 input  -60.11 | X-H torsion
[ 7974 7965 7964 7962 ] final -102.56 input  175.53 | X-H torsion
[ 8008 7997 7996 7995 ] final  170.07 input   59.86 | X-H torsion
[ 10167 10162 10161 10158 ] final   90.65 input  -65.29 | X-H torsion
[ 10718 10713 10712 10709 ] final   57.59 input   66.30 | X-H torsion
[ 10763 10752 10751 10750 ] final   63.69 input  -60.55 | X-H torsion
[ 11005 11000 10999 10996 ] final -162.34 input  -57.11 | X-H torsion

> <Gold.Protein.ActiveResidues>
 VAL166  LYS551  ARG553  GLY616  TRP617  ASP618  TYR619  PRO620  LYS621  CYS622 
 ASP623  PHE694  ASN695  SER759  ASP760  ASP761  ALA762  ILE779  LEU786  VAL792 
 PHE793  MET794  SER795  GLU796  ALA797  LYS798  CYS799  TRP800  GLU811  SER814 

> <Gold.Protein.RotatedAtoms>
  152.1867  134.8707  160.0521 H   0  0  0  0  0  0  0  0  0  0  0  0  # atno 6907 bound_to 6896
  151.9611  133.3690  159.4044 H   0  0  0  0  0  0  0  0  0  0  0  0  # atno 6908 bound_to 6896
  150.6927  134.4163  159.5228 H   0  0  0  0  0  0  0  0  0  0  0  0  # atno 6909 bound_to 6896
  145.2671  140.9287  143.3007 H   0  0  0  0  0  0  0  0  0  0  0  0  # atno 7974 bound_to 7965
  156.1399  140.1547  156.8937 H   0  0  0  0  0  0  0  0  0  0  0  0  # atno 8008 bound_to 7997
  154.4978  140.0833  156.7773 H   0  0  0  0  0  0  0  0  0  0  0  0  # atno 8009 bound_to 7997
  155.4098  140.3418  155.4265 H   0  0  0  0  0  0  0  0  0  0  0  0  # atno 8010 bound_to 7997
  139.8452  144.6621  150.9236 H   0  0  0  0  0  0  0  0  0  0  0  0  # atno 10167 bound_to 10162
  157.5527  130.8777  149.8987 H   0  0  0  0  0  0  0  0  0  0  0  0  # atno 10718 bound_to 10713
  153.0027  135.5420  154.6392 H   0  0  0  0  0  0  0  0  0  0  0  0  # atno 10763 bound_to 10752
  154.5651  135.2837  155.0884 H   0  0  0  0  0  0  0  0  0  0  0  0  # atno 10764 bound_to 10752
  154.2071  135.6474  153.5157 H   0  0  0  0  0  0  0  0  0  0  0  0  # atno 10765 bound_to 10752
  140.6104  134.4855  157.5215 H   0  0  0  0  0  0  0  0  0  0  0  0  # atno 11005 bound_to 11000
  144.9367  139.4235  143.6468 LP  0  0  0  0  0  0  0  0  0  0  0  0  # atno 17320 bound_to 7965
  146.3258  139.8306  142.8909 LP  0  0  0  0  0  0  0  0  0  0  0  0  # atno 17321 bound_to 7965
  140.7794  143.3877  151.1365 LP  0  0  0  0  0  0  0  0  0  0  0  0  # atno 17342 bound_to 10162
  139.7520  143.8765  152.3079 LP  0  0  0  0  0  0  0  0  0  0  0  0  # atno 17343 bound_to 10162
  156.0591  130.3703  150.1024 LP  0  0  0  0  0  0  0  0  0  0  0  0  # atno 17370 bound_to 10713
  156.9195  130.9678  151.3551 LP  0  0  0  0  0  0  0  0  0  0  0  0  # atno 17371 bound_to 10713
  139.9195  134.8178  156.1258 LP  0  0  0  0  0  0  0  0  0  0  0  0  # atno 17394 bound_to 11000
  141.0812  133.6753  156.2340 LP  0  0  0  0  0  0  0  0  0  0  0  0  # atno 17395 bound_to 11000

$$$$
