AV-unprocessed.smi:2249|AV-procd|sdf|9098|dock8
  -GOLD-   2272012293D 1   1.00000     0.00000
 Structure written by MMmdl.
 38 39  0  0  0  0  0  0  0  0  1 V2000
  150.6601  144.8091  159.3835 C   0  0  0  0  0  0  0  0  0  0  0  0
  151.9681  144.0190  159.1924 C   0  0  2  0  0  0  0  0  0  0  0  0
  151.8722  143.2470  157.9537 N   0  0  0  0  0  0  0  0  0  0  0  0
  150.8339  142.4810  157.5880 C   0  0  0  0  0  0  0  0  0  0  0  0
  149.8240  142.3310  158.2761 O   0  0  0  0  0  0  0  0  0  0  0  0
  151.0529  141.9115  156.3899 N   0  0  0  0  0  0  0  0  0  0  0  0
  150.2403  141.0838  155.6806 C   0  0  0  0  0  0  0  0  0  0  0  0
  148.9490  141.2849  155.2753 C   0  0  0  0  0  0  0  0  0  0  0  0
  148.6521  140.0763  154.5828 C   0  0  0  0  0  0  0  0  0  0  0  0
  149.6676  139.2219  154.5682 N   0  0  0  0  0  0  0  0  0  0  0  0
  150.6561  139.8436  155.2474 N   0  0  0  0  0  0  0  0  0  0  0  0
  151.9354  139.1859  155.4308 C   0  0  0  0  0  0  0  0  0  0  0  0
  152.2978  143.0787  160.3813 C   0  0  0  0  0  0  0  0  0  0  0  0
  152.5289  143.8441  161.7002 C   0  0  0  0  0  0  0  0  0  0  0  0
  152.9308  142.8900  162.8369 C   0  0  0  0  0  0  0  0  0  0  0  0
  154.0950  142.1595  162.4720 O   0  0  0  0  0  0  0  0  0  0  0  0
  153.8895  141.3354  161.3315 C   0  0  0  0  0  0  0  0  0  0  0  0
  153.5411  142.2033  160.1119 C   0  0  0  0  0  0  0  0  0  0  0  0
  150.7255  145.5031  160.2208 H   0  0  0  0  0  0  0  0  0  0  0  0
  149.8158  144.1429  159.5636 H   0  0  0  0  0  0  0  0  0  0  0  0
  150.4283  145.4053  158.5002 H   0  0  0  0  0  0  0  0  0  0  0  0
  152.7861  144.7360  159.0998 H   0  0  0  0  0  0  0  0  0  0  0  0
  152.6594  143.3071  157.3245 H   0  0  0  0  0  0  0  0  0  0  0  0
  151.9377  142.1232  155.9527 H   0  0  0  0  0  0  0  0  0  0  0  0
  148.3091  142.1395  155.4347 H   0  0  0  0  0  0  0  0  0  0  0  0
  147.7323  139.7949  154.0914 H   0  0  0  0  0  0  0  0  0  0  0  0
  152.0840  138.9658  156.4879 H   0  0  0  0  0  0  0  0  0  0  0  0
  152.7370  139.8390  155.0855 H   0  0  0  0  0  0  0  0  0  0  0  0
  151.9728  138.2531  154.8661 H   0  0  0  0  0  0  0  0  0  0  0  0
  151.4475  142.4108  160.5290 H   0  0  0  0  0  0  0  0  0  0  0  0
  153.3108  144.5921  161.5628 H   0  0  0  0  0  0  0  0  0  0  0  0
  151.6298  144.3821  161.9985 H   0  0  0  0  0  0  0  0  0  0  0  0
  153.1421  143.4570  163.7437 H   0  0  0  0  0  0  0  0  0  0  0  0
  152.1166  142.2036  163.0746 H   0  0  0  0  0  0  0  0  0  0  0  0
  154.8010  140.7695  161.1393 H   0  0  0  0  0  0  0  0  0  0  0  0
  153.1002  140.6086  161.5304 H   0  0  0  0  0  0  0  0  0  0  0  0
  153.3814  141.5541  159.2508 H   0  0  0  0  0  0  0  0  0  0  0  0
  154.3930  142.8392  159.8670 H   0  0  0  0  0  0  0  0  0  0  0  0
  1  2  1  0  0  0  0
  1 19  1  0  0  0  0
  1 20  1  0  0  0  0
  1 21  1  0  0  0  0
  2  3  1  0  0  0  0
  2 13  1  0  0  0  0
  2 22  1  0  0  0  0
  3  4  1  0  0  0  0
  3 23  1  0  0  0  0
  4  5  2  0  0  0  0
  4  6  1  0  0  0  0
  6  7  1  0  0  0  0
  6 24  1  0  0  0  0
  7 11  1  0  0  0  0
  7  8  2  0  0  0  0
  8  9  1  0  0  0  0
  8 25  1  0  0  0  0
  9 10  2  0  0  0  0
  9 26  1  0  0  0  0
 10 11  1  0  0  0  0
 11 12  1  0  0  0  0
 12 27  1  0  0  0  0
 12 28  1  0  0  0  0
 12 29  1  0  0  0  0
 13 18  1  0  0  0  0
 13 14  1  0  0  0  0
 13 30  1  0  0  0  0
 14 15  1  0  0  0  0
 14 31  1  0  0  0  0
 14 32  1  0  0  0  0
 15 16  1  0  0  0  0
 15 33  1  0  0  0  0
 15 34  1  0  0  0  0
 16 17  1  0  0  0  0
 17 18  1  0  0  0  0
 17 35  1  0  0  0  0
 17 36  1  0  0  0  0
 18 37  1  0  0  0  0
 18 38  1  0  0  0  0
M  END
> <s_m_source_file>
AV-unprocessed.smi

> <i_m_source_file_index>
2249

> <i_lp_mmshare_version>
43012

> <i_f3d_flags>
0

> <s_epik_input>
W0NIMl0xW0NIMl1PW0NIMl1bQ0gyXVtDSF0xW0NASF0oW0NIM10pW05IXUMoPU8pW05IXWMyW2NIXVtjSF1ubjJbQ0gzXQ==

> <s_epik_cmdline>
J2VwaWtfcHl0aG9uJywgJy1waCcsICc3LjAnLCAnLXRuJywgJzgnLCAnLW1hJywgJzIwMCcsICctbWV0YWxfYmluZGluZycsICctaW1hZScsICc8aW5maWxlLm1hZT4nLCAnLW9tYWUnLCAnPG91dGZpbGUubWFlPic=

> <r_lp_tautomer_probability>
1

> <r_epik_Ionization_Penalty>
4.67687e-05

> <r_epik_Ionization_Penalty_Charging>
0

> <r_epik_Ionization_Penalty_Neutral>
4.67687e-05

> <r_epik_State_Penalty>
-0

> <r_epik_Charging_Adjusted_Penalty>
0

> <i_epik_Tot_Q>
0

> <i_epik_Tot_abs_Q>
0

> <r_epik_Metal_State_Penalty>
-0

> <b_epik_Metal_Only>
0

> <s_lp_Force_Field>
OPLS_2005

> <r_lp_Energy>
12.7763

> <b_lp_Chiralities_Consistent>
1

> <s_lp_Variant>
AV-unprocessed.smi:2249-1

> <Gold.Version>
5.8.1

> <Gold.Id.Protein>
6NUR|6NUR_protein|mol2

> <Gold.PLP.Fitness>
42.3731

> <Gold.PLP.PLP>
-43.7784

> <Gold.PLP.part.hbond>
-1.0000

> <Gold.PLP.part.metal>
0.0000

> <Gold.PLP.part.buried>
-2.6638

> <Gold.PLP.part.nonpolar>
-39.8854

> <Gold.PLP.part.repulsive>
0.4243

> <Gold.PLP.ligand.clash>
0.0000

> <Gold.PLP.ligand.torsion>
0.7118

> <Gold.PLP.Chemscore.Hbond>
0.0000

> <Gold.PLP.Chemscore.CHOScore>
0.0000

> <Gold.PLP.Chemscore.Metal>
0.0000

> <Gold.PLP.Chemscore.Internal.Correction>
0.0182

> <Gold.Rescore>
     Score         DG    S(hbond)    S(metal)    S(lipo)     H(rot)  DE(clash)    DE(int)     intcor
     11.72     -13.87       0.00        0.00      99.27       1.26       0.26       1.89       ----

> <Gold.Chemscore.Fitness>
11.7198

> <Gold.Chemscore.DG>
-13.8717

> <Gold.Chemscore.ZeroCoef>
-5.4800

> <Gold.Chemscore.Hbond>
0.0000

> <Gold.Chemscore.Metal>
0.0000

> <Gold.Chemscore.Lipo>
99.2657

> <Gold.Chemscore.Internal_Hbond>
0.0000

> <Gold.Chemscore.DEClash>
0.2583

> <Gold.Chemscore.DEInternal>
1.8936

> <Gold.Chemscore.Rot>
1.2588

> <Gold.Chemscore.Internal.Correction>
   9.000000E+99

> <Gold.Chemscore.Hbond.Weighted>
-0.0000

> <Gold.Chemscore.Metal.Weighted>
-0.0000

> <Gold.Chemscore.Lipo.Weighted>
-11.6141

> <Gold.Chemscore.Internal_Hbond.Weighted>
0.0000

> <Gold.Chemscore.DEClash.Weighted>
0.2583

> <Gold.Chemscore.DEInternal.Weighted>
1.8936

> <Gold.Chemscore.Rot.Weighted>
3.2224

> <Gold.Chemscore.Internal.Correction.Weighted>
   9.000000E+99

> <Gold.Protein.RotatedTorsions>
[ 6907 6896 6895 6894 ] final   90.09 input  -60.11 | X-H torsion
[ 7974 7965 7964 7962 ] final  -19.09 input  175.53 | X-H torsion
[ 8008 7997 7996 7995 ] final -147.80 input   59.86 | X-H torsion
[ 10167 10162 10161 10158 ] final   94.41 input  -65.29 | X-H torsion
[ 10718 10713 10712 10709 ] final   13.62 input   66.30 | X-H torsion
[ 10763 10752 10751 10750 ] final   -6.63 input  -60.55 | X-H torsion
[ 11005 11000 10999 10996 ] final  -51.96 input  -57.11 | X-H torsion

> <Gold.Protein.ActiveResidues>
 VAL166  LYS551  ARG553  GLY616  TRP617  ASP618  TYR619  PRO620  LYS621  CYS622 
 ASP623  PHE694  ASN695  SER759  ASP760  ASP761  ALA762  ILE779  LEU786  VAL792 
 PHE793  MET794  SER795  GLU796  ALA797  LYS798  CYS799  TRP800  GLU811  SER814 

> <Gold.Protein.RotatedAtoms>
  152.5442  134.1866  159.8656 H   0  0  0  0  0  0  0  0  0  0  0  0  # atno 6907 bound_to 6896
  151.1864  133.4686  159.2602 H   0  0  0  0  0  0  0  0  0  0  0  0  # atno 6908 bound_to 6896
  151.1126  135.0047  159.8556 H   0  0  0  0  0  0  0  0  0  0  0  0  # atno 6909 bound_to 6896
  146.1859  140.4013  142.8476 H   0  0  0  0  0  0  0  0  0  0  0  0  # atno 7974 bound_to 7965
  155.5814  140.0643  157.2782 H   0  0  0  0  0  0  0  0  0  0  0  0  # atno 8008 bound_to 7997
  154.4331  140.1851  156.1027 H   0  0  0  0  0  0  0  0  0  0  0  0  # atno 8009 bound_to 7997
  156.0302  140.3307  155.7135 H   0  0  0  0  0  0  0  0  0  0  0  0  # atno 8010 bound_to 7997
  139.8086  144.6783  150.9670 H   0  0  0  0  0  0  0  0  0  0  0  0  # atno 10167 bound_to 10162
  157.0272  130.6178  149.5730 H   0  0  0  0  0  0  0  0  0  0  0  0  # atno 10718 bound_to 10713
  153.4150  135.7008  153.6333 H   0  0  0  0  0  0  0  0  0  0  0  0  # atno 10763 bound_to 10752
  153.4811  135.3693  155.2443 H   0  0  0  0  0  0  0  0  0  0  0  0  # atno 10764 bound_to 10752
  154.8719  135.4066  154.3509 H   0  0  0  0  0  0  0  0  0  0  0  0  # atno 10765 bound_to 10752
  141.0899  133.6635  156.3954 H   0  0  0  0  0  0  0  0  0  0  0  0  # atno 11005 bound_to 11000
  144.8397  140.6837  143.6237 LP  0  0  0  0  0  0  0  0  0  0  0  0  # atno 17320 bound_to 7965
  145.3939  139.1611  143.4214 LP  0  0  0  0  0  0  0  0  0  0  0  0  # atno 17321 bound_to 7965
  140.7818  143.4208  151.0845 LP  0  0  0  0  0  0  0  0  0  0  0  0  # atno 17342 bound_to 10162
  139.7876  143.8265  152.3147 LP  0  0  0  0  0  0  0  0  0  0  0  0  # atno 17343 bound_to 10162
  156.0082  130.5171  150.7900 LP  0  0  0  0  0  0  0  0  0  0  0  0  # atno 17370 bound_to 10713
  157.5205  131.0931  151.0085 LP  0  0  0  0  0  0  0  0  0  0  0  0  # atno 17371 bound_to 10713
  140.5277  134.6243  157.5339 LP  0  0  0  0  0  0  0  0  0  0  0  0  # atno 17394 bound_to 11000
  139.9723  134.7273  156.0017 LP  0  0  0  0  0  0  0  0  0  0  0  0  # atno 17395 bound_to 11000

$$$$
