AV-unprocessed.smi:1766|AV-procd|sdf|7138|dock5
  -GOLD-   22720 8373D 1   1.00000     0.00000
 Structure written by MMmdl.
 40 42  0  0  0  0  0  0  0  0  2 V2000
  149.8169  135.6668  154.4263 N   0  0  0  0  0  0  0  0  0  0  0  0
  150.8430  136.1726  155.1152 C   0  0  0  0  0  0  0  0  0  0  0  0
  151.2882  135.6224  156.1211 O   0  0  0  0  0  0  0  0  0  0  0  0
  151.4446  137.4839  154.5985 C   0  0  0  0  0  0  0  0  0  0  0  0
  150.4028  138.5530  154.4684 C   0  0  0  0  0  0  0  0  0  0  0  0
  149.3323  138.5228  153.6245 N   0  3  0  0  0  0  0  0  0  0  0  0
  148.5781  139.6866  153.7742 C   0  0  0  0  0  0  0  0  0  0  0  0
  147.4119  140.1020  153.1388 C   0  0  0  0  0  0  0  0  0  0  0  0
  146.8910  141.3533  153.5271 C   0  0  0  0  0  0  0  0  0  0  0  0
  147.5268  142.1399  154.5090 C   0  0  0  0  0  0  0  0  0  0  0  0
  148.7106  141.7096  155.1427 C   0  0  0  0  0  0  0  0  0  0  0  0
  149.2186  140.4687  154.7570 C   0  0  0  0  0  0  0  0  0  0  0  0
  150.3355  139.7265  155.1631 N   0  0  0  0  0  0  0  0  0  0  0  0
  151.2276  140.2610  156.2059 C   0  0  0  0  0  0  0  0  0  0  0  0
  150.5900  140.2257  157.6100 C   0  0  1  0  0  0  0  0  0  0  0  0
  150.9199  138.9913  158.2118 O   0  0  0  0  0  0  0  0  0  0  0  0
  150.9994  141.4150  158.4679 C   0  0  0  0  0  0  0  0  0  0  0  0
  150.7923  142.7372  158.0159 C   0  0  0  0  0  0  0  0  0  0  0  0
  151.1454  143.8294  158.8321 C   0  0  0  0  0  0  0  0  0  0  0  0
  151.7075  143.6065  160.1037 C   0  0  0  0  0  0  0  0  0  0  0  0
  152.0420  144.6563  160.8904 F   0  0  0  0  0  0  0  0  0  0  0  0
  151.9189  142.2908  160.5582 C   0  0  0  0  0  0  0  0  0  0  0  0
  151.5666  141.1983  159.7424 C   0  0  0  0  0  0  0  0  0  0  0  0
  149.3843  134.8070  154.7331 H   0  0  0  0  0  0  0  0  0  0  0  0
  149.4708  136.1440  153.6063 H   0  0  0  0  0  0  0  0  0  0  0  0
  152.2278  137.8315  155.2734 H   0  0  0  0  0  0  0  0  0  0  0  0
  151.9145  137.3044  153.6317 H   0  0  0  0  0  0  0  0  0  0  0  0
  146.9232  139.5009  152.3861 H   0  0  0  0  0  0  0  0  0  0  0  0
  145.9857  141.7170  153.0627 H   0  0  0  0  0  0  0  0  0  0  0  0
  147.0983  143.0934  154.7822 H   0  0  0  0  0  0  0  0  0  0  0  0
  149.1845  142.3224  155.8947 H   0  0  0  0  0  0  0  0  0  0  0  0
  152.1292  139.6471  156.1935 H   0  0  0  0  0  0  0  0  0  0  0  0
  151.5480  141.2673  155.9364 H   0  0  0  0  0  0  0  0  0  0  0  0
  149.5044  140.2342  157.5076 H   0  0  0  0  0  0  0  0  0  0  0  0
  151.8223  138.7921  158.0137 H   0  0  0  0  0  0  0  0  0  0  0  0
  150.3514  142.9184  157.0464 H   0  0  0  0  0  0  0  0  0  0  0  0
  150.9812  144.8384  158.4838 H   0  0  0  0  0  0  0  0  0  0  0  0
  152.3488  142.1189  161.5340 H   0  0  0  0  0  0  0  0  0  0  0  0
  151.7241  140.1925  160.1031 H   0  0  0  0  0  0  0  0  0  0  0  0
  149.1360  137.7603  152.9890 H   0  0  0  0  0  0  0  0  0  0  0  0
  1  2  1  0  0  0  0
  1 24  1  0  0  0  0
  1 25  1  0  0  0  0
  2  3  2  0  0  0  0
  2  4  1  0  0  0  0
  4  5  1  0  0  0  0
  4 26  1  0  0  0  0
  4 27  1  0  0  0  0
  5 13  1  0  0  0  0
  5  6  2  0  0  0  0
  6  7  1  0  0  0  0
  6 40  1  0  0  0  0
  7 12  2  0  0  0  0
  7  8  1  0  0  0  0
  8  9  2  0  0  0  0
  8 28  1  0  0  0  0
  9 10  1  0  0  0  0
  9 29  1  0  0  0  0
 10 11  2  0  0  0  0
 10 30  1  0  0  0  0
 11 12  1  0  0  0  0
 11 31  1  0  0  0  0
 12 13  1  0  0  0  0
 13 14  1  0  0  0  0
 14 15  1  0  0  0  0
 14 32  1  0  0  0  0
 14 33  1  0  0  0  0
 15 16  1  0  0  0  0
 15 17  1  0  0  0  0
 15 34  1  0  0  0  0
 16 35  1  0  0  0  0
 17 23  1  0  0  0  0
 17 18  2  0  0  0  0
 18 19  1  0  0  0  0
 18 36  1  0  0  0  0
 19 20  2  0  0  0  0
 19 37  1  0  0  0  0
 20 21  1  0  0  0  0
 20 22  1  0  0  0  0
 22 23  2  0  0  0  0
 22 38  1  0  0  0  0
 23 39  1  0  0  0  0
M  CHG  1   6   1
M  END
> <s_m_source_file>
AV-unprocessed.smi

> <i_m_source_file_index>
1766

> <i_lp_mmshare_version>
43012

> <i_f3d_flags>
0

> <s_epik_input>
W2NIXTFbY0hdW2NIXVtjSF1jKGMxMiluKGMobjIpW0NIMl1DKD1PKVtOSDJdKVtDSDJdW0NASF0oW09IXSljM1tjSF1bY0hdYyhGKVtjSF1bY0hdMw==

> <s_epik_cmdline>
J2VwaWtfcHl0aG9uJywgJy1waCcsICc3LjAnLCAnLXRuJywgJzgnLCAnLW1hJywgJzIwMCcsICctbWV0YWxfYmluZGluZycsICctaW1hZScsICc8aW5maWxlLm1hZT4nLCAnLW9tYWUnLCAnPG91dGZpbGUubWFlPic=

> <r_epik_Ionization_Penalty>
1.66646

> <r_epik_Ionization_Penalty_Charging>
1.66645

> <r_epik_Ionization_Penalty_Neutral>
2.12833e-06

> <r_epik_State_Penalty>
1.76975

> <r_epik_Charging_Adjusted_Penalty>
3.43621

> <i_epik_Tot_Q>
1

> <i_epik_Tot_abs_Q>
1

> <r_epik_Metal_State_Penalty>
1.80493

> <b_epik_Metal_Only>
0

> <s_lp_Force_Field>
OPLS_2005

> <r_lp_Energy>
15.5136

> <b_lp_Chiralities_Consistent>
1

> <s_lp_Variant>
AV-unprocessed.smi:1766-4

> <Gold.Version>
5.8.1

> <Gold.Id.Protein>
6NUR|6NUR_protein|mol2

> <Gold.PLP.Fitness>
61.2429

> <Gold.PLP.PLP>
-50.4571

> <Gold.PLP.part.hbond>
-4.6001

> <Gold.PLP.part.metal>
0.0000

> <Gold.PLP.part.buried>
3.9116

> <Gold.PLP.part.nonpolar>
-49.3919

> <Gold.PLP.part.repulsive>
0.1571

> <Gold.PLP.ligand.clash>
0.0000

> <Gold.PLP.ligand.torsion>
0.6349

> <Gold.PLP.Chemscore.Hbond>
4.0000

> <Gold.PLP.Chemscore.CHOScore>
0.0000

> <Gold.PLP.Chemscore.Metal>
0.0000

> <Gold.Chemscore.Hbonds>
donor molecule, donor type, donor heavy atom, donor atom, acceptor molecule, acceptor atom, score
      L1  H     1    25       P1  7948  1.00
      L1  H     6    40       P1  7948  2.00
      P1  H 10752 10764       L1     3  0.30

> <Gold.PLP.Chemscore.Internal.Correction>
0.0556

> <Gold.Rescore>
     Score         DG    S(hbond)    S(metal)    S(lipo)     H(rot)  DE(clash)    DE(int)     intcor
     16.62     -19.23       2.45        0.00     114.32       3.05       1.71       0.90       ----

> <Gold.Chemscore.Fitness>
16.6170

> <Gold.Chemscore.DG>
-19.2262

> <Gold.Chemscore.ZeroCoef>
-5.4800

> <Gold.Chemscore.Hbond>
2.4464

> <Gold.Chemscore.Metal>
0.0000

> <Gold.Chemscore.Lipo>
114.3209

> <Gold.Chemscore.Internal_Hbond>
0.0000

> <Gold.Chemscore.DEClash>
1.7111

> <Gold.Chemscore.DEInternal>
0.8981

> <Gold.Chemscore.Rot>
3.0470

> <Gold.Chemscore.Internal.Correction>
   9.000000E+99

> <Gold.Chemscore.Hbonds>
donor molecule, donor type, donor heavy atom, donor atom, acceptor molecule, acceptor atom, score
      L1  H     1    25       P1  7948  0.58
      L1  H     6    40       P1  7948  0.99
      P1  H 10752 10764       L1     3  0.02

> <Gold.Chemscore.Hbond.Weighted>
-8.1710

> <Gold.Chemscore.Metal.Weighted>
-0.0000

> <Gold.Chemscore.Lipo.Weighted>
-13.3755

> <Gold.Chemscore.Internal_Hbond.Weighted>
0.0000

> <Gold.Chemscore.DEClash.Weighted>
1.7111

> <Gold.Chemscore.DEInternal.Weighted>
0.8981

> <Gold.Chemscore.Rot.Weighted>
7.8004

> <Gold.Chemscore.Internal.Correction.Weighted>
   9.000000E+99

> <Gold.Protein.RotatedTorsions>
[ 6907 6896 6895 6894 ] final  161.12 input  -60.11 | X-H torsion
[ 7974 7965 7964 7962 ] final  138.87 input  175.53 | X-H torsion
[ 8008 7997 7996 7995 ] final  -63.07 input   59.86 | X-H torsion
[ 10167 10162 10161 10158 ] final   41.37 input  -65.29 | X-H torsion
[ 10718 10713 10712 10709 ] final  -48.12 input   66.30 | X-H torsion
[ 10763 10752 10751 10750 ] final  -16.99 input  -60.55 | X-H torsion
[ 11005 11000 10999 10996 ] final   16.64 input  -57.11 | X-H torsion

> <Gold.Protein.ActiveResidues>
 VAL166  LYS551  ARG553  GLY616  TRP617  ASP618  TYR619  PRO620  LYS621  CYS622 
 ASP623  PHE694  ASN695  SER759  ASP760  ASP761  ALA762  ILE779  LEU786  VAL792 
 PHE793  MET794  SER795  GLU796  ALA797  LYS798  CYS799  TRP800  GLU811  SER814 

> <Gold.Protein.RotatedAtoms>
  151.9603  133.3693  159.4032 H   0  0  0  0  0  0  0  0  0  0  0  0  # atno 6907 bound_to 6896
  150.6965  134.4247  159.5230 H   0  0  0  0  0  0  0  0  0  0  0  0  # atno 6908 bound_to 6896
  152.1935  134.8651  160.0566 H   0  0  0  0  0  0  0  0  0  0  0  0  # atno 6909 bound_to 6896
  144.9331  139.5022  143.5608 H   0  0  0  0  0  0  0  0  0  0  0  0  # atno 7974 bound_to 7965
  154.4534  140.0982  156.6685 H   0  0  0  0  0  0  0  0  0  0  0  0  # atno 8008 bound_to 7997
  155.5214  140.3479  155.4389 H   0  0  0  0  0  0  0  0  0  0  0  0  # atno 8009 bound_to 7997
  156.0728  140.1353  156.9797 H   0  0  0  0  0  0  0  0  0  0  0  0  # atno 8010 bound_to 7997
  140.3650  144.2179  150.6136 H   0  0  0  0  0  0  0  0  0  0  0  0  # atno 10167 bound_to 10162
  156.2018  130.4156  149.9230 H   0  0  0  0  0  0  0  0  0  0  0  0  # atno 10718 bound_to 10713
  153.5670  135.7008  153.5521 H   0  0  0  0  0  0  0  0  0  0  0  0  # atno 10763 bound_to 10752
  153.3378  135.4029  155.1547 H   0  0  0  0  0  0  0  0  0  0  0  0  # atno 10764 bound_to 10752
  154.8639  135.3735  154.5190 H   0  0  0  0  0  0  0  0  0  0  0  0  # atno 10765 bound_to 10752
  140.4449  134.1284  155.7695 H   0  0  0  0  0  0  0  0  0  0  0  0  # atno 11005 bound_to 11000
  146.3255  139.8297  142.8911 LP  0  0  0  0  0  0  0  0  0  0  0  0  # atno 17320 bound_to 7965
  145.3109  141.0219  143.3555 LP  0  0  0  0  0  0  0  0  0  0  0  0  # atno 17321 bound_to 7965
  140.5090  143.2296  151.8565 LP  0  0  0  0  0  0  0  0  0  0  0  0  # atno 17342 bound_to 10162
  139.4810  144.4972  151.9108 LP  0  0  0  0  0  0  0  0  0  0  0  0  # atno 17343 bound_to 10162
  156.6937  130.8906  151.3591 LP  0  0  0  0  0  0  0  0  0  0  0  0  # atno 17370 bound_to 10713
  157.6990  130.9312  150.0729 LP  0  0  0  0  0  0  0  0  0  0  0  0  # atno 17371 bound_to 10713
  141.1689  133.8647  157.1630 LP  0  0  0  0  0  0  0  0  0  0  0  0  # atno 17394 bound_to 11000
  140.0045  135.0014  157.0263 LP  0  0  0  0  0  0  0  0  0  0  0  0  # atno 17395 bound_to 11000

$$$$
