AV-unprocessed.smi:1834|AV-procd|sdf|7471|dock2
  -GOLD-   22720 9163D 1   1.00000     0.00000
 Structure written by MMmdl.
 46 47  0  0  0  0  0  0  0  0  2 V2000
  148.7312  134.5383  154.7076 C   0  0  0  0  0  0  0  0  0  0  0  0
  148.1243  133.6752  153.5922 C   0  0  0  0  0  0  0  0  0  0  0  0
  147.0902  134.3962  152.8063 N   0  3  1  0  0  0  0  0  0  0  0  0
  146.5626  133.5676  151.6908 C   0  0  0  0  0  0  0  0  0  0  0  0
  145.5783  134.3600  150.8150 C   0  0  0  0  0  0  0  0  0  0  0  0
  144.4424  134.9597  151.6576 C   0  0  0  0  0  0  0  0  0  0  0  0
  144.9968  135.7919  152.8291 C   0  0  2  0  0  0  0  0  0  0  0  0
  145.5668  137.1502  152.3535 C   0  0  0  0  0  0  0  0  0  0  0  0
  146.9469  137.3623  152.7813 N   0  0  0  0  0  0  0  0  0  0  0  0
  147.3713  138.3879  153.5338 C   0  0  0  0  0  0  0  0  0  0  0  0
  146.6226  139.2679  153.9589 O   0  0  0  0  0  0  0  0  0  0  0  0
  148.6974  138.3246  153.7437 N   0  0  0  0  0  0  0  0  0  0  0  0
  149.4955  139.2157  154.3900 C   0  0  0  0  0  0  0  0  0  0  0  0
  149.1721  140.4378  154.9132 C   0  0  0  0  0  0  0  0  0  0  0  0
  150.4157  140.8915  155.4415 C   0  0  0  0  0  0  0  0  0  0  0  0
  150.7028  142.1819  156.1510 C   0  0  0  0  0  0  0  0  0  0  0  0
  151.4014  140.0222  155.2498 N   0  0  0  0  0  0  0  0  0  0  0  0
  150.8369  138.9834  154.5969 N   0  0  0  0  0  0  0  0  0  0  0  0
  151.6423  137.8377  154.2207 C   0  0  0  0  0  0  0  0  0  0  0  0
  145.9884  134.9333  153.6500 C   0  0  0  0  0  0  0  0  0  0  0  0
  149.5096  133.9874  155.2359 H   0  0  0  0  0  0  0  0  0  0  0  0
  147.9908  134.8402  155.4476 H   0  0  0  0  0  0  0  0  0  0  0  0
  149.1895  135.4397  154.3010 H   0  0  0  0  0  0  0  0  0  0  0  0
  148.9380  133.3758  152.9303 H   0  0  0  0  0  0  0  0  0  0  0  0
  147.7075  132.7542  154.0020 H   0  0  0  0  0  0  0  0  0  0  0  0
  147.3870  133.2153  151.0697 H   0  0  0  0  0  0  0  0  0  0  0  0
  146.0717  132.6820  152.0978 H   0  0  0  0  0  0  0  0  0  0  0  0
  146.1110  135.1499  150.2849 H   0  0  0  0  0  0  0  0  0  0  0  0
  145.1621  133.7087  150.0458 H   0  0  0  0  0  0  0  0  0  0  0  0
  143.7855  135.5654  151.0323 H   0  0  0  0  0  0  0  0  0  0  0  0
  143.8260  134.1503  152.0514 H   0  0  0  0  0  0  0  0  0  0  0  0
  144.1553  136.0232  153.4837 H   0  0  0  0  0  0  0  0  0  0  0  0
  145.4807  137.2526  151.2712 H   0  0  0  0  0  0  0  0  0  0  0  0
  144.9706  137.9601  152.7750 H   0  0  0  0  0  0  0  0  0  0  0  0
  147.6269  136.6793  152.4797 H   0  0  0  0  0  0  0  0  0  0  0  0
  149.1731  137.5206  153.3613 H   0  0  0  0  0  0  0  0  0  0  0  0
  148.2177  140.9418  154.9261 H   0  0  0  0  0  0  0  0  0  0  0  0
  149.8142  142.8116  156.1988 H   0  0  0  0  0  0  0  0  0  0  0  0
  151.4822  142.7472  155.6395 H   0  0  0  0  0  0  0  0  0  0  0  0
  151.0362  142.0018  157.1731 H   0  0  0  0  0  0  0  0  0  0  0  0
  151.5943  137.6950  153.1408 H   0  0  0  0  0  0  0  0  0  0  0  0
  151.2617  136.9442  154.7164 H   0  0  0  0  0  0  0  0  0  0  0  0
  152.6832  137.9872  154.5112 H   0  0  0  0  0  0  0  0  0  0  0  0
  145.4535  134.0953  154.0998 H   0  0  0  0  0  0  0  0  0  0  0  0
  146.3850  135.5097  154.4838 H   0  0  0  0  0  0  0  0  0  0  0  0
  147.5524  135.1880  152.3814 H   0  0  0  0  0  0  0  0  0  0  0  0
  1  2  1  0  0  0  0
  1 21  1  0  0  0  0
  1 22  1  0  0  0  0
  1 23  1  0  0  0  0
  2  3  1  0  0  0  0
  2 24  1  0  0  0  0
  2 25  1  0  0  0  0
  3 20  1  0  0  0  0
  3  4  1  0  0  0  0
  3 46  1  0  0  0  0
  4  5  1  0  0  0  0
  4 26  1  0  0  0  0
  4 27  1  0  0  0  0
  5  6  1  0  0  0  0
  5 28  1  0  0  0  0
  5 29  1  0  0  0  0
  6  7  1  0  0  0  0
  6 30  1  0  0  0  0
  6 31  1  0  0  0  0
  7  8  1  0  0  0  0
  7 20  1  0  0  0  0
  7 32  1  0  0  0  0
  8  9  1  0  0  0  0
  8 33  1  0  0  0  0
  8 34  1  0  0  0  0
  9 10  1  0  0  0  0
  9 35  1  0  0  0  0
 10 11  2  0  0  0  0
 10 12  1  0  0  0  0
 12 13  1  0  0  0  0
 12 36  1  0  0  0  0
 13 18  1  0  0  0  0
 13 14  2  0  0  0  0
 14 15  1  0  0  0  0
 14 37  1  0  0  0  0
 15 16  1  0  0  0  0
 15 17  2  0  0  0  0
 16 38  1  0  0  0  0
 16 39  1  0  0  0  0
 16 40  1  0  0  0  0
 17 18  1  0  0  0  0
 18 19  1  0  0  0  0
 19 41  1  0  0  0  0
 19 42  1  0  0  0  0
 19 43  1  0  0  0  0
 20 44  1  0  0  0  0
 20 45  1  0  0  0  0
M  CHG  1   3   1
M  END
> <s_m_source_file>
AV-unprocessed.smi

> <i_m_source_file_index>
1834

> <i_lp_mmshare_version>
43012

> <i_f3d_flags>
0

> <s_epik_input>
W0NIM11bQ0gyXU4xW0NIMl1bQ0gyXVtDSDJdW0NASF0oW0NIMl0xKVtDSDJdW05IXUMoPU8pW05IXWMyW2NIXWMoW0NIM10pbm4yW0NIM10=

> <s_epik_cmdline>
J2VwaWtfcHl0aG9uJywgJy1waCcsICc3LjAnLCAnLXRuJywgJzgnLCAnLW1hJywgJzIwMCcsICctbWV0YWxfYmluZGluZycsICctaW1hZScsICc8aW5maWxlLm1hZT4nLCAnLW9tYWUnLCAnPG91dGZpbGUubWFlPic=

> <r_lp_tautomer_probability>
1

> <r_epik_Ionization_Penalty>
0.000466842

> <r_epik_Ionization_Penalty_Charging>
0.000378984

> <r_epik_Ionization_Penalty_Neutral>
8.78572e-05

> <r_epik_State_Penalty>
0.000231434

> <r_epik_Charging_Adjusted_Penalty>
0.000610418

> <i_epik_Tot_Q>
1

> <i_epik_Tot_abs_Q>
1

> <r_epik_Metal_State_Penalty>
-0

> <b_epik_Metal_Only>
0

> <s_lp_Force_Field>
OPLS_2005

> <r_lp_Energy>
21.0152

> <b_lp_Chiralities_Consistent>
1

> <s_lp_Variant>
AV-unprocessed.smi:1834-3

> <Gold.Version>
5.8.1

> <Gold.Id.Protein>
6NUR|6NUR_protein|mol2

> <Gold.PLP.Fitness>
43.9472

> <Gold.PLP.PLP>
-33.5562

> <Gold.PLP.part.hbond>
-4.1246

> <Gold.PLP.part.metal>
0.0000

> <Gold.PLP.part.buried>
-2.3436

> <Gold.PLP.part.nonpolar>
-27.9055

> <Gold.PLP.part.repulsive>
0.2443

> <Gold.PLP.ligand.clash>
0.0000

> <Gold.PLP.ligand.torsion>
0.7534

> <Gold.PLP.Chemscore.Hbond>
3.9560

> <Gold.PLP.Chemscore.CHOScore>
0.0000

> <Gold.PLP.Chemscore.Metal>
0.0000

> <Gold.Chemscore.Hbonds>
donor molecule, donor type, donor heavy atom, donor atom, acceptor molecule, acceptor atom, score
      L1  H     3    46       P1  7948  2.00
      L1  H     9    35       P1  7948  0.99
      L1  H    12    36       P1  7948  0.78
      P1  H  7989  7998       L1    17  0.14

> <Gold.PLP.Chemscore.Internal.Correction>
0.0299

> <Gold.Rescore>
     Score         DG    S(hbond)    S(metal)    S(lipo)     H(rot)  DE(clash)    DE(int)     intcor
     15.64     -19.09       2.82        0.00      67.08       1.43       0.37       3.08       ----

> <Gold.Chemscore.Fitness>
15.6353

> <Gold.Chemscore.DG>
-19.0876

> <Gold.Chemscore.ZeroCoef>
-5.4800

> <Gold.Chemscore.Hbond>
2.8196

> <Gold.Chemscore.Metal>
0.0000

> <Gold.Chemscore.Lipo>
67.0833

> <Gold.Chemscore.Internal_Hbond>
0.0000

> <Gold.Chemscore.DEClash>
0.3740

> <Gold.Chemscore.DEInternal>
3.0783

> <Gold.Chemscore.Rot>
1.4291

> <Gold.Chemscore.Internal.Correction>
   9.000000E+99

> <Gold.Chemscore.Hbonds>
donor molecule, donor type, donor heavy atom, donor atom, acceptor molecule, acceptor atom, score
      L1  H     3    46       P1  7948  0.98
      L1  H     9    35       P1  7948  0.90
      L1  H    12    36       P1  7948  0.76

> <Gold.Chemscore.Hbond.Weighted>
-9.4173

> <Gold.Chemscore.Metal.Weighted>
-0.0000

> <Gold.Chemscore.Lipo.Weighted>
-7.8487

> <Gold.Chemscore.Internal_Hbond.Weighted>
0.0000

> <Gold.Chemscore.DEClash.Weighted>
0.3740

> <Gold.Chemscore.DEInternal.Weighted>
3.0783

> <Gold.Chemscore.Rot.Weighted>
3.6584

> <Gold.Chemscore.Internal.Correction.Weighted>
   9.000000E+99

> <Gold.Protein.RotatedTorsions>
[ 6907 6896 6895 6894 ] final   92.87 input  -60.11 | X-H torsion
[ 7974 7965 7964 7962 ] final -179.18 input  175.53 | X-H torsion
[ 8008 7997 7996 7995 ] final  136.63 input   59.86 | X-H torsion
[ 10167 10162 10161 10158 ] final   91.35 input  -65.29 | X-H torsion
[ 10718 10713 10712 10709 ] final  153.51 input   66.30 | X-H torsion
[ 10763 10752 10751 10750 ] final   88.51 input  -60.55 | X-H torsion
[ 11005 11000 10999 10996 ] final  -81.28 input  -57.11 | X-H torsion

> <Gold.Protein.ActiveResidues>
 VAL166  LYS551  ARG553  GLY616  TRP617  ASP618  TYR619  PRO620  LYS621  CYS622 
 ASP623  PHE694  ASN695  SER759  ASP760  ASP761  ALA762  ILE779  LEU786  VAL792 
 PHE793  MET794  SER795  GLU796  ALA797  LYS798  CYS799  TRP800  GLU811  SER814 

> <Gold.Protein.RotatedAtoms>
  152.5453  134.1435  159.8488 H   0  0  0  0  0  0  0  0  0  0  0  0  # atno 6907 bound_to 6896
  151.1469  133.4926  159.2603 H   0  0  0  0  0  0  0  0  0  0  0  0  # atno 6908 bound_to 6896
  151.1513  135.0239  159.8724 H   0  0  0  0  0  0  0  0  0  0  0  0  # atno 6909 bound_to 6896
  144.7135  140.0757  143.6427 H   0  0  0  0  0  0  0  0  0  0  0  0  # atno 7974 bound_to 7965
  156.3004  140.2440  156.3777 H   0  0  0  0  0  0  0  0  0  0  0  0  # atno 8008 bound_to 7997
  154.8730  140.0415  157.1756 H   0  0  0  0  0  0  0  0  0  0  0  0  # atno 8009 bound_to 7997
  154.8775  140.2944  155.5448 H   0  0  0  0  0  0  0  0  0  0  0  0  # atno 8010 bound_to 7997
  139.8383  144.6654  150.9315 H   0  0  0  0  0  0  0  0  0  0  0  0  # atno 10167 bound_to 10162
  157.2439  131.0765  151.1774 H   0  0  0  0  0  0  0  0  0  0  0  0  # atno 10718 bound_to 10713
  153.1776  135.4504  154.9985 H   0  0  0  0  0  0  0  0  0  0  0  0  # atno 10763 bound_to 10752
  154.8008  135.3255  154.7556 H   0  0  0  0  0  0  0  0  0  0  0  0  # atno 10764 bound_to 10752
  153.8025  135.6961  153.4908 H   0  0  0  0  0  0  0  0  0  0  0  0  # atno 10765 bound_to 10752
  141.1667  133.7189  156.8399 H   0  0  0  0  0  0  0  0  0  0  0  0  # atno 11005 bound_to 11000
  145.9745  139.2895  143.1079 LP  0  0  0  0  0  0  0  0  0  0  0  0  # atno 17320 bound_to 7965
  145.9079  140.9199  143.0469 LP  0  0  0  0  0  0  0  0  0  0  0  0  # atno 17321 bound_to 7965
  140.7800  143.3937  151.1267 LP  0  0  0  0  0  0  0  0  0  0  0  0  # atno 17342 bound_to 10162
  139.7585  143.8671  152.3094 LP  0  0  0  0  0  0  0  0  0  0  0  0  # atno 17343 bound_to 10162
  157.3350  130.7004  149.6347 LP  0  0  0  0  0  0  0  0  0  0  0  0  # atno 17370 bound_to 10713
  155.9669  130.4296  150.4841 LP  0  0  0  0  0  0  0  0  0  0  0  0  # atno 17371 bound_to 10713
  140.1991  134.8910  157.3148 LP  0  0  0  0  0  0  0  0  0  0  0  0  # atno 17394 bound_to 11000
  140.2207  134.4027  155.7567 LP  0  0  0  0  0  0  0  0  0  0  0  0  # atno 17395 bound_to 11000

$$$$
