AV-unprocessed.smi:35|AV-procd|sdf|255|dock6
  -GOLD-   2262016 13D 1   1.00000     0.00000
 Structure written by MMmdl.
 29 30  0  0  0  0  0  0  0  0  1 V2000
  151.4844  137.1385  159.9810 O   0  0  0  0  0  0  0  0  0  0  0  0
  150.9391  137.9600  159.2471 C   0  0  0  0  0  0  0  0  0  0  0  0
  151.5843  139.1578  158.9270 N   0  0  0  0  0  0  0  0  0  0  0  0
  151.0676  140.1621  158.1062 C   0  0  0  0  0  0  0  0  0  0  0  0
  151.7283  141.1752  157.8808 O   0  0  0  0  0  0  0  0  0  0  0  0
  149.7841  139.9523  157.5542 N   0  0  0  0  0  0  0  0  0  0  0  0
  149.2010  141.0317  156.6599 C   0  0  2  0  0  0  0  0  0  0  0  0
  147.9002  140.6831  156.2843 O   0  0  0  0  0  0  0  0  0  0  0  0
  147.8701  140.3038  154.9116 C   0  0  1  0  0  0  0  0  0  0  0  0
  146.4537  140.4384  154.3264 C   0  0  0  0  0  0  0  0  0  0  0  0
  146.4658  140.1100  152.9536 O   0  0  0  0  0  0  0  0  0  0  0  0
  148.9363  141.2097  154.2845 C   0  0  1  0  0  0  0  0  0  0  0  0
  148.4269  142.5087  154.0412 O   0  0  0  0  0  0  0  0  0  0  0  0
  150.0138  141.2526  155.3597 C   0  0  2  0  0  0  0  0  0  0  0  0
  150.9763  140.2435  155.1050 O   0  0  0  0  0  0  0  0  0  0  0  0
  149.1044  138.7751  157.8445 C   0  0  0  0  0  0  0  0  0  0  0  0
  149.6205  137.8098  158.6414 C   0  0  0  0  0  0  0  0  0  0  0  0
  148.4941  136.2063  158.9317 Br  0  0  0  0  0  0  0  0  0  0  0  0
  152.5015  139.3082  159.3211 H   0  0  0  0  0  0  0  0  0  0  0  0
  149.1294  141.9261  157.2817 H   0  0  0  0  0  0  0  0  0  0  0  0
  148.2133  139.2719  154.8180 H   0  0  0  0  0  0  0  0  0  0  0  0
  145.7404  139.8085  154.8591 H   0  0  0  0  0  0  0  0  0  0  0  0
  146.1081  141.4690  154.4116 H   0  0  0  0  0  0  0  0  0  0  0  0
  145.5838  140.1761  152.6206 H   0  0  0  0  0  0  0  0  0  0  0  0
  149.3031  140.8109  153.3375 H   0  0  0  0  0  0  0  0  0  0  0  0
  148.7826  143.0977  154.6891 H   0  0  0  0  0  0  0  0  0  0  0  0
  150.5265  142.2146  155.4021 H   0  0  0  0  0  0  0  0  0  0  0  0
  151.7145  140.3867  155.6777 H   0  0  0  0  0  0  0  0  0  0  0  0
  148.1237  138.6002  157.4303 H   0  0  0  0  0  0  0  0  0  0  0  0
  1  2  2  0  0  0  0
  2 17  1  0  0  0  0
  2  3  1  0  0  0  0
  3 19  1  0  0  0  0
  3  4  1  0  0  0  0
  4  5  2  0  0  0  0
  4  6  1  0  0  0  0
  6  7  1  0  0  0  0
  6 16  1  0  0  0  0
  7 14  1  0  0  0  0
  7  8  1  0  0  0  0
  7 20  1  0  0  0  0
  8  9  1  0  0  0  0
  9 10  1  0  0  0  0
  9 12  1  0  0  0  0
  9 21  1  0  0  0  0
 10 11  1  0  0  0  0
 10 22  1  0  0  0  0
 10 23  1  0  0  0  0
 11 24  1  0  0  0  0
 12 13  1  0  0  0  0
 12 14  1  0  0  0  0
 12 25  1  0  0  0  0
 13 26  1  0  0  0  0
 14 15  1  0  0  0  0
 14 27  1  0  0  0  0
 15 28  1  0  0  0  0
 16 17  2  0  0  0  0
 16 29  1  0  0  0  0
 17 18  1  0  0  0  0
M  END
> <s_m_source_file>
AV-unprocessed.smi

> <i_m_source_file_index>
35

> <i_lp_mmshare_version>
43012

> <i_f3d_flags>
0

> <s_epik_input>
Tz1jMVtuSF1jKD1PKW4oW2NIXWMxQnIpW0NAQEhdMk9bQ0BASF0oW0NIMl1bT0hdKVtDQEBIXShbT0hdKVtDQEhdMltPSF0=

> <s_epik_cmdline>
J2VwaWtfcHl0aG9uJywgJy1waCcsICc3LjAnLCAnLXRuJywgJzgnLCAnLW1hJywgJzIwMCcsICctbWV0YWxfYmluZGluZycsICctaW1hZScsICc8aW5maWxlLm1hZT4nLCAnLW9tYWUnLCAnPG91dGZpbGUubWFlPic=

> <r_lp_tautomer_probability>
0.999537

> <r_epik_Ionization_Penalty>
0.10812

> <r_epik_Ionization_Penalty_Charging>
0.108119

> <r_epik_Ionization_Penalty_Neutral>
4.93006e-07

> <r_epik_State_Penalty>
0.0979238

> <r_epik_Charging_Adjusted_Penalty>
0.206043

> <i_epik_Tot_Q>
0

> <i_epik_Tot_abs_Q>
0

> <r_epik_Metal_State_Penalty>
3.07911

> <b_epik_Metal_Only>
0

> <s_epik_Chemistry_Notes>
This compound contains an acetal/aminal-like group ( X-CH(R)-Y where X, Y are N, S, or O) that may be acid/base labile, releasing an aldehyde.

> <s_lp_Force_Field>
OPLS_2005

> <r_lp_Energy>
34.1394

> <b_lp_Chiralities_Consistent>
1

> <s_lp_Variant>
AV-unprocessed.smi:35-9

> <Gold.Version>
5.8.1

> <Gold.Id.Protein>
6NUR|6NUR_protein|mol2

> <Gold.PLP.Fitness>
36.7335

> <Gold.PLP.PLP>
-24.7041

> <Gold.PLP.part.hbond>
-5.2321

> <Gold.PLP.part.metal>
0.0000

> <Gold.PLP.part.buried>
-4.4308

> <Gold.PLP.part.nonpolar>
-14.3450

> <Gold.PLP.part.repulsive>
0.1427

> <Gold.PLP.ligand.clash>
0.0000

> <Gold.PLP.ligand.torsion>
0.0326

> <Gold.PLP.Chemscore.Hbond>
4.0121

> <Gold.PLP.Chemscore.CHOScore>
0.0000

> <Gold.PLP.Chemscore.Metal>
0.0000

> <Gold.Chemscore.Hbonds>
donor molecule, donor type, donor heavy atom, donor atom, acceptor molecule, acceptor atom, score
      L1  H    11    24       P1 10175  1.00
      L1  H    13    26       P1  8028  1.00
      P1  H  6896  6908       L1     1  1.00
      P1  H  7989  7998       L1    15  0.95
      P1  H  8011  8017       L1    13  0.02

> <Gold.PLP.Chemscore.Internal.Correction>
0.0583

> <Gold.Rescore>
     Score         DG    S(hbond)    S(metal)    S(lipo)     H(rot)  DE(clash)    DE(int)     intcor
     11.72     -11.93       3.66        0.00      30.94       3.67       0.02       0.18       ----

> <Gold.Chemscore.Fitness>
11.7209

> <Gold.Chemscore.DG>
-11.9268

> <Gold.Chemscore.ZeroCoef>
-5.4800

> <Gold.Chemscore.Hbond>
3.6593

> <Gold.Chemscore.Metal>
0.0000

> <Gold.Chemscore.Lipo>
30.9418

> <Gold.Chemscore.Internal_Hbond>
0.0000

> <Gold.Chemscore.DEClash>
0.0232

> <Gold.Chemscore.DEInternal>
0.1827

> <Gold.Chemscore.Rot>
3.6701

> <Gold.Chemscore.Internal.Correction>
   9.000000E+99

> <Gold.Chemscore.Hbonds>
donor molecule, donor type, donor heavy atom, donor atom, acceptor molecule, acceptor atom, score
      L1  H    11    24       P1 10175  0.88
      L1  H    13    26       P1  8028  0.97
      P1  H  6896  6908       L1     1  0.98
      P1  H  7989  7998       L1    15  0.06

> <Gold.Chemscore.Hbond.Weighted>
-12.2221

> <Gold.Chemscore.Metal.Weighted>
-0.0000

> <Gold.Chemscore.Lipo.Weighted>
-3.6202

> <Gold.Chemscore.Internal_Hbond.Weighted>
0.0000

> <Gold.Chemscore.DEClash.Weighted>
0.0232

> <Gold.Chemscore.DEInternal.Weighted>
0.1827

> <Gold.Chemscore.Rot.Weighted>
9.3955

> <Gold.Chemscore.Internal.Correction.Weighted>
   9.000000E+99

> <Gold.Protein.RotatedTorsions>
[ 6907 6896 6895 6894 ] final -118.69 input  -60.11 | X-H torsion
[ 7974 7965 7964 7962 ] final  -99.21 input  175.53 | X-H torsion
[ 8008 7997 7996 7995 ] final   -8.42 input   59.86 | X-H torsion
[ 10167 10162 10161 10158 ] final -168.25 input  -65.29 | X-H torsion
[ 10718 10713 10712 10709 ] final  -13.38 input   66.30 | X-H torsion
[ 10763 10752 10751 10750 ] final  175.27 input  -60.55 | X-H torsion
[ 11005 11000 10999 10996 ] final -129.32 input  -57.11 | X-H torsion

> <Gold.Protein.ActiveResidues>
 VAL166  LYS551  ARG553  GLY616  TRP617  ASP618  TYR619  PRO620  LYS621  CYS622 
 ASP623  PHE694  ASN695  SER759  ASP760  ASP761  ALA762  ILE779  LEU786  VAL792 
 PHE793  MET794  SER795  GLU796  ALA797  LYS798  CYS799  TRP800  GLU811  SER814 

> <Gold.Protein.RotatedAtoms>
  150.8241  133.8202  159.3126 H   0  0  0  0  0  0  0  0  0  0  0  0  # atno 6907 bound_to 6896
  151.5952  135.1049  160.0057 H   0  0  0  0  0  0  0  0  0  0  0  0  # atno 6908 bound_to 6896
  152.4327  133.7265  159.6620 H   0  0  0  0  0  0  0  0  0  0  0  0  # atno 6909 bound_to 6896
  145.3106  140.9399  143.2772 H   0  0  0  0  0  0  0  0  0  0  0  0  # atno 7974 bound_to 7965
  154.5742  140.2381  155.8146 H   0  0  0  0  0  0  0  0  0  0  0  0  # atno 8008 bound_to 7997
  156.2131  140.3020  155.9734 H   0  0  0  0  0  0  0  0  0  0  0  0  # atno 8009 bound_to 7997
  155.2656  140.0416  157.2992 H   0  0  0  0  0  0  0  0  0  0  0  0  # atno 8010 bound_to 7997
  139.5997  144.1036  152.1729 H   0  0  0  0  0  0  0  0  0  0  0  0  # atno 10167 bound_to 10162
  156.6311  130.4902  149.6128 H   0  0  0  0  0  0  0  0  0  0  0  0  # atno 10718 bound_to 10713
  154.4653  135.2769  155.1683 H   0  0  0  0  0  0  0  0  0  0  0  0  # atno 10763 bound_to 10752
  154.3454  135.6161  153.5620 H   0  0  0  0  0  0  0  0  0  0  0  0  # atno 10764 bound_to 10752
  152.9858  135.5798  154.5023 H   0  0  0  0  0  0  0  0  0  0  0  0  # atno 10765 bound_to 10752
  140.9441  134.1153  157.4123 H   0  0  0  0  0  0  0  0  0  0  0  0  # atno 11005 bound_to 11000
  144.9019  139.4639  143.6628 LP  0  0  0  0  0  0  0  0  0  0  0  0  # atno 17320 bound_to 7965
  146.3119  139.7778  142.9013 LP  0  0  0  0  0  0  0  0  0  0  0  0  # atno 17321 bound_to 7965
  140.0630  144.5841  150.7249 LP  0  0  0  0  0  0  0  0  0  0  0  0  # atno 17342 bound_to 10162
  140.7240  143.2617  151.4183 LP  0  0  0  0  0  0  0  0  0  0  0  0  # atno 17343 bound_to 10162
  156.2234  130.6751  151.1391 LP  0  0  0  0  0  0  0  0  0  0  0  0  # atno 17370 bound_to 10713
  157.7199  131.0687  150.6176 LP  0  0  0  0  0  0  0  0  0  0  0  0  # atno 17371 bound_to 10713
  139.8828  135.0046  156.6259 LP  0  0  0  0  0  0  0  0  0  0  0  0  # atno 17394 bound_to 11000
  140.7693  133.8752  155.8479 LP  0  0  0  0  0  0  0  0  0  0  0  0  # atno 17395 bound_to 11000

$$$$
