AV-unprocessed.smi:1619|AV-procd|sdf|6488|dock4
  -GOLD-   22720 7153D 1   1.00000     0.00000
 Structure written by MMmdl.
 44 46  0  0  0  0  0  0  0  0  2 V2000
  153.5527  143.5466  163.2904 C   0  0  0  0  0  0  0  0  0  0  0  0
  153.1178  143.0361  161.9279 C   0  0  0  0  0  0  0  0  0  0  0  0
  152.1766  143.7817  161.1833 C   0  0  0  0  0  0  0  0  0  0  0  0
  151.7446  143.3407  159.9136 C   0  0  0  0  0  0  0  0  0  0  0  0
  150.8456  143.9041  159.0246 N   0  0  0  0  0  0  0  0  0  0  0  0
  150.8666  143.0247  158.0277 C   0  0  0  0  0  0  0  0  0  0  0  0
  151.6849  141.9626  158.1595 N   0  0  0  0  0  0  0  0  0  0  0  0
  151.8788  140.8841  157.2073 C   0  0  0  0  0  0  0  0  0  0  0  0
  151.0957  141.0976  155.8965 C   0  0  1  0  0  0  0  0  0  0  0  0
  151.6283  140.2184  154.9269 O   0  0  0  0  0  0  0  0  0  0  0  0
  149.5800  140.8331  156.0302 C   0  0  0  0  0  0  0  0  0  0  0  0
  148.9162  140.7022  154.7118 N   0  3  0  0  0  0  0  0  0  0  0  0
  148.2514  139.4021  154.4952 C   0  0  0  0  0  0  0  0  0  0  0  0
  147.2169  139.6678  153.4071 C   0  0  0  0  0  0  0  0  0  0  0  0
  146.7233  141.0713  153.7442 C   0  0  0  0  0  0  0  0  0  0  0  0
  147.9326  141.7644  154.3872 C   0  0  0  0  0  0  0  0  0  0  0  0
  152.2847  142.1235  159.4041 C   0  0  0  0  0  0  0  0  0  0  0  0
  153.2206  141.3718  160.1364 C   0  0  0  0  0  0  0  0  0  0  0  0
  153.6426  141.8278  161.4029 C   0  0  0  0  0  0  0  0  0  0  0  0
  154.6554  141.0102  162.1852 C   0  0  0  0  0  0  0  0  0  0  0  0
  153.0420  144.4742  163.5500 H   0  0  0  0  0  0  0  0  0  0  0  0
  154.6251  143.7413  163.3005 H   0  0  0  0  0  0  0  0  0  0  0  0
  153.3261  142.8130  164.0642 H   0  0  0  0  0  0  0  0  0  0  0  0
  151.7761  144.7016  161.5837 H   0  0  0  0  0  0  0  0  0  0  0  0
  150.2571  143.1651  157.1468 H   0  0  0  0  0  0  0  0  0  0  0  0
  152.9471  140.7999  157.0027 H   0  0  0  0  0  0  0  0  0  0  0  0
  151.5765  139.9480  157.6798 H   0  0  0  0  0  0  0  0  0  0  0  0
  151.2650  142.1177  155.5516 H   0  0  0  0  0  0  0  0  0  0  0  0
  152.4941  139.9549  155.2011 H   0  0  0  0  0  0  0  0  0  0  0  0
  149.4224  139.9185  156.6042 H   0  0  0  0  0  0  0  0  0  0  0  0
  149.0886  141.6340  156.5845 H   0  0  0  0  0  0  0  0  0  0  0  0
  148.9644  138.6255  154.2171 H   0  0  0  0  0  0  0  0  0  0  0  0
  147.7476  139.0875  155.4110 H   0  0  0  0  0  0  0  0  0  0  0  0
  147.6984  139.6677  152.4283 H   0  0  0  0  0  0  0  0  0  0  0  0
  146.4163  138.9272  153.3909 H   0  0  0  0  0  0  0  0  0  0  0  0
  146.3475  141.6045  152.8704 H   0  0  0  0  0  0  0  0  0  0  0  0
  145.9097  141.0078  154.4683 H   0  0  0  0  0  0  0  0  0  0  0  0
  147.6233  142.3225  155.2725 H   0  0  0  0  0  0  0  0  0  0  0  0
  148.3947  142.4709  153.6968 H   0  0  0  0  0  0  0  0  0  0  0  0
  153.6099  140.4507  159.7285 H   0  0  0  0  0  0  0  0  0  0  0  0
  154.9835  140.1367  161.6209 H   0  0  0  0  0  0  0  0  0  0  0  0
  154.2215  140.6601  163.1222 H   0  0  0  0  0  0  0  0  0  0  0  0
  155.5371  141.6092  162.4142 H   0  0  0  0  0  0  0  0  0  0  0  0
  149.6409  140.7626  154.0104 H   0  0  0  0  0  0  0  0  0  0  0  0
  1  2  1  0  0  0  0
  1 21  1  0  0  0  0
  1 22  1  0  0  0  0
  1 23  1  0  0  0  0
  2 19  1  0  0  0  0
  2  3  2  0  0  0  0
  3  4  1  0  0  0  0
  3 24  1  0  0  0  0
  4 17  2  0  0  0  0
  4  5  1  0  0  0  0
  5  6  2  0  0  0  0
  6  7  1  0  0  0  0
  6 25  1  0  0  0  0
  7  8  1  0  0  0  0
  7 17  1  0  0  0  0
  8  9  1  0  0  0  0
  8 26  1  0  0  0  0
  8 27  1  0  0  0  0
  9 10  1  0  0  0  0
  9 11  1  0  0  0  0
  9 28  1  0  0  0  0
 10 29  1  0  0  0  0
 11 12  1  0  0  0  0
 11 30  1  0  0  0  0
 11 31  1  0  0  0  0
 12 16  1  0  0  0  0
 12 13  1  0  0  0  0
 12 44  1  0  0  0  0
 13 14  1  0  0  0  0
 13 32  1  0  0  0  0
 13 33  1  0  0  0  0
 14 15  1  0  0  0  0
 14 34  1  0  0  0  0
 14 35  1  0  0  0  0
 15 16  1  0  0  0  0
 15 36  1  0  0  0  0
 15 37  1  0  0  0  0
 16 38  1  0  0  0  0
 16 39  1  0  0  0  0
 17 18  1  0  0  0  0
 18 19  2  0  0  0  0
 18 40  1  0  0  0  0
 19 20  1  0  0  0  0
 20 41  1  0  0  0  0
 20 42  1  0  0  0  0
 20 43  1  0  0  0  0
M  CHG  1  12   1
M  END
> <s_m_source_file>
AV-unprocessed.smi

> <i_m_source_file_index>
1619

> <i_lp_mmshare_version>
43012

> <i_f3d_flags>
0

> <s_epik_input>
W0NIM11jKFtjSF0xKWMoW0NIM10pW2NIXWMoYzEyKW4oW2NIXW4yKVtDSDJdW0NASF0oW09IXSlbQ0gyXU4zW0NIMl1bQ0gyXVtDSDJdW0NIMl0z

> <s_epik_cmdline>
J2VwaWtfcHl0aG9uJywgJy1waCcsICc3LjAnLCAnLXRuJywgJzgnLCAnLW1hJywgJzIwMCcsICctbWV0YWxfYmluZGluZycsICctaW1hZScsICc8aW5maWxlLm1hZT4nLCAnLW9tYWUnLCAnPG91dGZpbGUubWFlPic=

> <r_epik_Ionization_Penalty>
0.0947557

> <r_epik_Ionization_Penalty_Charging>
0.00674132

> <r_epik_Ionization_Penalty_Neutral>
0.0880144

> <r_epik_State_Penalty>
0.0806172

> <r_epik_Charging_Adjusted_Penalty>
0.0873585

> <i_epik_Tot_Q>
1

> <i_epik_Tot_abs_Q>
1

> <r_epik_Metal_State_Penalty>
8.03852e-05

> <b_epik_Metal_Only>
0

> <s_lp_Force_Field>
OPLS_2005

> <r_lp_Energy>
32.1533

> <b_lp_Chiralities_Consistent>
1

> <s_lp_Variant>
AV-unprocessed.smi:1619-2

> <Gold.Version>
5.8.1

> <Gold.Id.Protein>
6NUR|6NUR_protein|mol2

> <Gold.PLP.Fitness>
51.1103

> <Gold.PLP.PLP>
-47.0499

> <Gold.PLP.part.hbond>
-1.0000

> <Gold.PLP.part.metal>
0.0000

> <Gold.PLP.part.buried>
-4.5427

> <Gold.PLP.part.nonpolar>
-40.3421

> <Gold.PLP.part.repulsive>
0.2460

> <Gold.PLP.ligand.clash>
0.0000

> <Gold.PLP.ligand.torsion>
0.9818

> <Gold.PLP.Chemscore.Hbond>
1.0000

> <Gold.PLP.Chemscore.CHOScore>
1.0000

> <Gold.PLP.Chemscore.Metal>
0.0000

> <Gold.Chemscore.Hbonds>
donor molecule, donor type, donor heavy atom, donor atom, acceptor molecule, acceptor atom, score
      P1  H  7989  7998       L1    10  0.99
      L1  C     6    25       P1  8028  0.97

> <Gold.PLP.Chemscore.Internal.Correction>
0.0241

> <Gold.Rescore>
     Score         DG    S(hbond)    S(metal)    S(lipo)     H(rot)  DE(clash)    DE(int)     intcor
     17.23     -18.34       0.84        0.00     130.36       2.02       0.07       1.05       ----

> <Gold.Chemscore.Fitness>
17.2322

> <Gold.Chemscore.DG>
-18.3439

> <Gold.Chemscore.ZeroCoef>
-5.4800

> <Gold.Chemscore.Hbond>
0.8353

> <Gold.Chemscore.Metal>
0.0000

> <Gold.Chemscore.Lipo>
130.3577

> <Gold.Chemscore.Internal_Hbond>
0.0000

> <Gold.Chemscore.DEClash>
0.0667

> <Gold.Chemscore.DEInternal>
1.0450

> <Gold.Chemscore.Rot>
2.0227

> <Gold.Chemscore.Internal.Correction>
   9.000000E+99

> <Gold.Chemscore.Hbonds>
donor molecule, donor type, donor heavy atom, donor atom, acceptor molecule, acceptor atom, score
      P1  H  7989  7998       L1    10  0.58

> <Gold.Chemscore.Hbond.Weighted>
-2.7900

> <Gold.Chemscore.Metal.Weighted>
-0.0000

> <Gold.Chemscore.Lipo.Weighted>
-15.2519

> <Gold.Chemscore.Internal_Hbond.Weighted>
0.0000

> <Gold.Chemscore.DEClash.Weighted>
0.0667

> <Gold.Chemscore.DEInternal.Weighted>
1.0450

> <Gold.Chemscore.Rot.Weighted>
5.1780

> <Gold.Chemscore.Internal.Correction.Weighted>
   9.000000E+99

> <Gold.Protein.RotatedTorsions>
[ 6907 6896 6895 6894 ] final   42.85 input  -60.11 | X-H torsion
[ 7974 7965 7964 7962 ] final -106.15 input  175.53 | X-H torsion
[ 8008 7997 7996 7995 ] final -159.56 input   59.86 | X-H torsion
[ 10167 10162 10161 10158 ] final -156.06 input  -65.29 | X-H torsion
[ 10718 10713 10712 10709 ] final   74.14 input   66.30 | X-H torsion
[ 10763 10752 10751 10750 ] final   53.10 input  -60.55 | X-H torsion
[ 11005 11000 10999 10996 ] final  -25.93 input  -57.11 | X-H torsion

> <Gold.Protein.ActiveResidues>
 VAL166  LYS551  ARG553  GLY616  TRP617  ASP618  TYR619  PRO620  LYS621  CYS622 
 ASP623  PHE694  ASN695  SER759  ASP760  ASP761  ALA762  ILE779  LEU786  VAL792 
 PHE793  MET794  SER795  GLU796  ALA797  LYS798  CYS799  TRP800  GLU811  SER814 

> <Gold.Protein.RotatedAtoms>
  152.2130  134.8484  160.0494 H   0  0  0  0  0  0  0  0  0  0  0  0  # atno 6907 bound_to 6896
  151.9295  133.3602  159.3934 H   0  0  0  0  0  0  0  0  0  0  0  0  # atno 6908 bound_to 6896
  150.6981  134.4477  159.5365 H   0  0  0  0  0  0  0  0  0  0  0  0  # atno 6909 bound_to 6896
  145.2215  140.9136  143.3257 H   0  0  0  0  0  0  0  0  0  0  0  0  # atno 7974 bound_to 7965
  155.7644  140.0843  157.2139 H   0  0  0  0  0  0  0  0  0  0  0  0  # atno 8008 bound_to 7997
  154.4001  140.1537  156.2926 H   0  0  0  0  0  0  0  0  0  0  0  0  # atno 8009 bound_to 7997
  155.8808  140.3420  155.5889 H   0  0  0  0  0  0  0  0  0  0  0  0  # atno 8010 bound_to 7997
  139.6881  143.9467  152.2371 H   0  0  0  0  0  0  0  0  0  0  0  0  # atno 10167 bound_to 10162
  157.6579  130.9663  150.1168 H   0  0  0  0  0  0  0  0  0  0  0  0  # atno 10718 bound_to 10713
  152.9793  135.5790  154.4687 H   0  0  0  0  0  0  0  0  0  0  0  0  # atno 10763 bound_to 10752
  154.4253  135.2772  155.1950 H   0  0  0  0  0  0  0  0  0  0  0  0  # atno 10764 bound_to 10752
  154.3682  135.6173  153.5780 H   0  0  0  0  0  0  0  0  0  0  0  0  # atno 10765 bound_to 10752
  140.8983  133.7541  156.0510 H   0  0  0  0  0  0  0  0  0  0  0  0  # atno 11005 bound_to 11000
  144.9761  139.3830  143.6285 LP  0  0  0  0  0  0  0  0  0  0  0  0  # atno 17320 bound_to 7965
  146.3375  139.8881  142.8813 LP  0  0  0  0  0  0  0  0  0  0  0  0  # atno 17321 bound_to 7965
  139.9276  144.6761  150.8396 LP  0  0  0  0  0  0  0  0  0  0  0  0  # atno 17342 bound_to 10162
  140.7674  143.3331  151.2367 LP  0  0  0  0  0  0  0  0  0  0  0  0  # atno 17343 bound_to 10162
  156.2050  130.3663  149.8741 LP  0  0  0  0  0  0  0  0  0  0  0  0  # atno 17370 bound_to 10713
  156.6634  130.8791  151.3551 LP  0  0  0  0  0  0  0  0  0  0  0  0  # atno 17371 bound_to 10713
  140.8262  134.3232  157.5365 LP  0  0  0  0  0  0  0  0  0  0  0  0  # atno 17394 bound_to 11000
  139.8738  134.9337  156.3588 LP  0  0  0  0  0  0  0  0  0  0  0  0  # atno 17395 bound_to 11000

$$$$
