AV-unprocessed.smi:203|AV-procd|sdf|1591|dock3
  -GOLD-   2262019493D 1   1.00000     0.00000
 Structure written by MMmdl.
 57 61  0  0  0  0  0  0  0  0  1 V2000
  148.1567  142.3622  153.5154 O   0  0  0  0  0  0  0  0  0  0  0  0
  148.5757  141.3741  154.1133 C   0  0  0  0  0  0  0  0  0  0  0  0
  148.0087  140.8933  155.4379 C   0  0  0  0  0  0  0  0  0  0  0  0
  148.9878  139.7857  155.8734 C   0  0  2  0  0  0  0  0  0  0  0  0
  149.8164  140.1335  157.1520 C   0  0  2  0  0  0  0  0  0  0  0  0
  150.4762  141.5357  157.0822 C   0  0  0  0  0  0  0  0  0  0  0  0
  151.2653  141.8537  158.3599 C   0  0  0  0  0  0  0  0  0  0  0  0
  152.3001  140.7543  158.6249 C   0  0  0  0  0  0  0  0  0  0  0  0
  151.6189  139.3803  158.6870 C   0  0  0  0  0  0  0  0  0  0  0  0
  150.8390  139.1223  157.4778 N   0  0  0  0  0  0  0  0  0  0  0  0
  150.4384  137.8331  157.4302 C   0  0  0  0  0  0  0  0  0  0  0  0
  149.7506  137.3592  158.4977 N   0  0  0  0  0  0  0  0  0  0  0  0
  149.3866  136.0741  158.5381 C   0  0  0  0  0  0  0  0  0  0  0  0
  149.6144  135.1134  157.6398 N   0  0  0  0  0  0  0  0  0  0  0  0
  150.2935  135.5952  156.5590 C   0  0  0  0  0  0  0  0  0  0  0  0
  150.7282  136.9351  156.3656 C   0  0  0  0  0  0  0  0  0  0  0  0
  151.3858  137.0514  155.1467 N   0  0  0  0  0  0  0  0  0  0  0  0
  151.3694  135.8404  154.6608 C   0  0  0  0  0  0  0  0  0  0  0  0
  150.7544  134.9003  155.4554 N   0  0  0  0  0  0  0  0  0  0  0  0
  150.6586  133.4761  155.1985 C   0  0  0  0  0  0  0  0  0  0  0  0
  149.9784  133.1644  153.8468 C   0  0  2  0  0  0  0  0  0  0  0  0
  149.0835  134.2232  153.5710 O   0  0  0  0  0  0  0  0  0  0  0  0
  149.2104  131.8218  153.8089 C   0  0  1  0  0  0  0  0  0  0  0  0
  148.4033  131.5772  152.5312 C   0  0  0  0  0  0  0  0  0  0  0  0
  148.3022  130.0607  152.4468 C   0  0  0  0  0  0  0  0  0  0  0  0
  149.3465  129.5621  153.4475 C   0  0  0  0  0  0  0  0  0  0  0  0
  150.1031  130.7163  153.7752 O   0  0  0  0  0  0  0  0  0  0  0  0
  149.8488  139.4949  154.6240 C   0  0  0  0  0  0  0  0  0  0  0  0
  149.5641  140.5807  153.7067 N   0  0  0  0  0  0  0  0  0  0  0  0
  147.9238  141.7065  156.1584 H   0  0  0  0  0  0  0  0  0  0  0  0
  147.0096  140.4899  155.2703 H   0  0  0  0  0  0  0  0  0  0  0  0
  148.3763  138.9058  156.0757 H   0  0  0  0  0  0  0  0  0  0  0  0
  149.1181  140.1555  157.9896 H   0  0  0  0  0  0  0  0  0  0  0  0
  151.1517  141.5946  156.2286 H   0  0  0  0  0  0  0  0  0  0  0  0
  149.7273  142.3120  156.9313 H   0  0  0  0  0  0  0  0  0  0  0  0
  151.7588  142.8216  158.2664 H   0  0  0  0  0  0  0  0  0  0  0  0
  150.5816  141.9308  159.2061 H   0  0  0  0  0  0  0  0  0  0  0  0
  153.0504  140.7564  157.8334 H   0  0  0  0  0  0  0  0  0  0  0  0
  152.8293  140.9525  159.5572 H   0  0  0  0  0  0  0  0  0  0  0  0
  152.3748  138.6040  158.8161 H   0  0  0  0  0  0  0  0  0  0  0  0
  150.9626  139.3332  159.5573 H   0  0  0  0  0  0  0  0  0  0  0  0
  148.8463  135.7689  159.4219 H   0  0  0  0  0  0  0  0  0  0  0  0
  151.8325  135.5922  153.7171 H   0  0  0  0  0  0  0  0  0  0  0  0
  151.6645  133.0543  155.2230 H   0  0  0  0  0  0  0  0  0  0  0  0
  150.1072  133.0147  156.0187 H   0  0  0  0  0  0  0  0  0  0  0  0
  150.7320  133.1609  153.0584 H   0  0  0  0  0  0  0  0  0  0  0  0
  149.3865  134.6804  152.8016 H   0  0  0  0  0  0  0  0  0  0  0  0
  148.5579  131.7321  154.6799 H   0  0  0  0  0  0  0  0  0  0  0  0
  147.4277  132.0638  152.5522 H   0  0  0  0  0  0  0  0  0  0  0  0
  148.9477  131.9547  151.6644 H   0  0  0  0  0  0  0  0  0  0  0  0
  147.3074  129.7075  152.7195 H   0  0  0  0  0  0  0  0  0  0  0  0
  148.5173  129.7144  151.4353 H   0  0  0  0  0  0  0  0  0  0  0  0
  148.8679  129.1792  154.3501 H   0  0  0  0  0  0  0  0  0  0  0  0
  149.9813  128.7758  153.0390 H   0  0  0  0  0  0  0  0  0  0  0  0
  150.9159  139.4366  154.8391 H   0  0  0  0  0  0  0  0  0  0  0  0
  149.5542  138.5518  154.1618 H   0  0  0  0  0  0  0  0  0  0  0  0
  150.0811  140.7168  152.8500 H   0  0  0  0  0  0  0  0  0  0  0  0
  1  2  2  0  0  0  0
  2 29  1  0  0  0  0
  2  3  1  0  0  0  0
  3  4  1  0  0  0  0
  3 30  1  0  0  0  0
  3 31  1  0  0  0  0
  4  5  1  0  0  0  0
  4 28  1  0  0  0  0
  4 32  1  0  0  0  0
  5 10  1  0  0  0  0
  5  6  1  0  0  0  0
  5 33  1  0  0  0  0
  6  7  1  0  0  0  0
  6 34  1  0  0  0  0
  6 35  1  0  0  0  0
  7  8  1  0  0  0  0
  7 36  1  0  0  0  0
  7 37  1  0  0  0  0
  8  9  1  0  0  0  0
  8 38  1  0  0  0  0
  8 39  1  0  0  0  0
  9 10  1  0  0  0  0
  9 40  1  0  0  0  0
  9 41  1  0  0  0  0
 10 11  1  0  0  0  0
 11 16  1  0  0  0  0
 11 12  2  0  0  0  0
 12 13  1  0  0  0  0
 13 14  2  0  0  0  0
 13 42  1  0  0  0  0
 14 15  1  0  0  0  0
 15 19  1  0  0  0  0
 15 16  2  0  0  0  0
 16 17  1  0  0  0  0
 17 18  2  0  0  0  0
 18 19  1  0  0  0  0
 18 43  1  0  0  0  0
 19 20  1  0  0  0  0
 20 21  1  0  0  0  0
 20 44  1  0  0  0  0
 20 45  1  0  0  0  0
 21 22  1  0  0  0  0
 21 23  1  0  0  0  0
 21 46  1  0  0  0  0
 22 47  1  0  0  0  0
 23 27  1  0  0  0  0
 23 24  1  0  0  0  0
 23 48  1  0  0  0  0
 24 25  1  0  0  0  0
 24 49  1  0  0  0  0
 24 50  1  0  0  0  0
 25 26  1  0  0  0  0
 25 51  1  0  0  0  0
 25 52  1  0  0  0  0
 26 27  1  0  0  0  0
 26 53  1  0  0  0  0
 26 54  1  0  0  0  0
 28 29  1  0  0  0  0
 28 55  1  0  0  0  0
 28 56  1  0  0  0  0
 29 57  1  0  0  0  0
M  END
> <s_m_source_file>
AV-unprocessed.smi

> <i_m_source_file_index>
203

> <i_lp_mmshare_version>
43012

> <i_f3d_flags>
0

> <s_epik_input>
Tz1DMVtDSDJdW0NASF0oW0NIMl1bTkhdMSlbQ0BASF0yW0NIMl1bQ0gyXVtDSDJdW0NIMl1OMmMobltjSF1uMyljKGMzNCluW2NIXW40W0NIMl1bQ0BIXShbT0hdKVtDQEBIXTVbQ0gyXVtDSDJdW0NIMl1PNQ==

> <s_epik_cmdline>
J2VwaWtfcHl0aG9uJywgJy1waCcsICc3LjAnLCAnLXRuJywgJzgnLCAnLW1hJywgJzIwMCcsICctbWV0YWxfYmluZGluZycsICctaW1hZScsICc8aW5maWxlLm1hZT4nLCAnLW9tYWUnLCAnPG91dGZpbGUubWFlPic=

> <r_lp_tautomer_probability>
1

> <r_epik_Ionization_Penalty>
0.00175146

> <r_epik_Ionization_Penalty_Charging>
0

> <r_epik_Ionization_Penalty_Neutral>
0.00175146

> <r_epik_State_Penalty>
0.00109045

> <r_epik_Charging_Adjusted_Penalty>
0.00109045

> <i_epik_Tot_Q>
0

> <i_epik_Tot_abs_Q>
0

> <r_epik_Metal_State_Penalty>
-0

> <b_epik_Metal_Only>
0

> <s_lp_Force_Field>
OPLS_2005

> <r_lp_Energy>
54.7877

> <b_lp_Chiralities_Consistent>
1

> <s_lp_Variant>
AV-unprocessed.smi:203-10

> <Gold.Version>
5.8.1

> <Gold.Id.Protein>
6NUR|6NUR_protein|mol2

> <Gold.PLP.Fitness>
43.8388

> <Gold.PLP.PLP>
-35.3164

> <Gold.PLP.part.hbond>
-4.1335

> <Gold.PLP.part.metal>
0.0000

> <Gold.PLP.part.buried>
-2.9927

> <Gold.PLP.part.nonpolar>
-29.3758

> <Gold.PLP.part.repulsive>
2.2785

> <Gold.PLP.ligand.clash>
0.0000

> <Gold.PLP.ligand.torsion>
0.8675

> <Gold.PLP.Chemscore.Hbond>
2.3173

> <Gold.PLP.Chemscore.CHOScore>
1.0000

> <Gold.PLP.Chemscore.Metal>
0.0000

> <Gold.Chemscore.Hbonds>
donor molecule, donor type, donor heavy atom, donor atom, acceptor molecule, acceptor atom, score
      L1  H    29    57       P1  7957  0.54
      P1  H  6896  6909       L1    14  0.04
      P1  H  8011  8017       L1     1  0.15
      L1  C    18    43       P1  7949  1.00

> <Gold.PLP.Chemscore.Internal.Correction>
0.3057

> <Gold.Rescore>
     Score         DG    S(hbond)    S(metal)    S(lipo)     H(rot)  DE(clash)    DE(int)     intcor
      9.09     -10.13       0.86        0.00      74.63       2.72       0.10       0.94       ----

> <Gold.Chemscore.Fitness>
9.0939

> <Gold.Chemscore.DG>
-10.1282

> <Gold.Chemscore.ZeroCoef>
-5.4800

> <Gold.Chemscore.Hbond>
0.8601

> <Gold.Chemscore.Metal>
0.0000

> <Gold.Chemscore.Lipo>
74.6251

> <Gold.Chemscore.Internal_Hbond>
0.0000

> <Gold.Chemscore.DEClash>
0.0969

> <Gold.Chemscore.DEInternal>
0.9374

> <Gold.Chemscore.Rot>
2.7171

> <Gold.Chemscore.Internal.Correction>
   9.000000E+99

> <Gold.Chemscore.Hbonds>
donor molecule, donor type, donor heavy atom, donor atom, acceptor molecule, acceptor atom, score
      L1  H    29    57       P1  7957  0.54
      P1  H  8011  8017       L1     1  0.01
      P1  H  8022  8030       L1     1  0.05

> <Gold.Chemscore.Hbond.Weighted>
-2.8727

> <Gold.Chemscore.Metal.Weighted>
-0.0000

> <Gold.Chemscore.Lipo.Weighted>
-8.7311

> <Gold.Chemscore.Internal_Hbond.Weighted>
0.0000

> <Gold.Chemscore.DEClash.Weighted>
0.0969

> <Gold.Chemscore.DEInternal.Weighted>
0.9374

> <Gold.Chemscore.Rot.Weighted>
6.9557

> <Gold.Chemscore.Internal.Correction.Weighted>
   9.000000E+99

> <Gold.Protein.RotatedTorsions>
[ 6907 6896 6895 6894 ] final   -0.56 input  -60.11 | X-H torsion
[ 7974 7965 7964 7962 ] final  130.03 input  175.53 | X-H torsion
[ 8008 7997 7996 7995 ] final  -38.23 input   59.86 | X-H torsion
[ 10167 10162 10161 10158 ] final   -8.35 input  -65.29 | X-H torsion
[ 10718 10713 10712 10709 ] final  -77.59 input   66.30 | X-H torsion
[ 10763 10752 10751 10750 ] final  119.45 input  -60.55 | X-H torsion
[ 11005 11000 10999 10996 ] final    6.72 input  -57.11 | X-H torsion

> <Gold.Protein.ActiveResidues>
 VAL166  LYS551  ARG553  GLY616  TRP617  ASP618  TYR619  PRO620  LYS621  CYS622 
 ASP623  PHE694  ASN695  SER759  ASP760  ASP761  ALA762  ILE779  LEU786  VAL792 
 PHE793  MET794  SER795  GLU796  ALA797  LYS798  CYS799  TRP800  GLU811  SER814 

> <Gold.Protein.RotatedAtoms>
  151.5602  135.1065  159.9970 H   0  0  0  0  0  0  0  0  0  0  0  0  # atno 6907 bound_to 6896
  152.4450  133.7515  159.6707 H   0  0  0  0  0  0  0  0  0  0  0  0  # atno 6908 bound_to 6896
  150.8364  133.7939  159.3102 H   0  0  0  0  0  0  0  0  0  0  0  0  # atno 6909 bound_to 6896
  145.0223  139.4121  143.5191 H   0  0  0  0  0  0  0  0  0  0  0  0  # atno 7974 bound_to 7965
  154.4040  140.1583  156.2666 H   0  0  0  0  0  0  0  0  0  0  0  0  # atno 8008 bound_to 7997
  155.8990  140.3434  155.5990 H   0  0  0  0  0  0  0  0  0  0  0  0  # atno 8009 bound_to 7997
  155.7470  140.0800  157.2209 H   0  0  0  0  0  0  0  0  0  0  0  0  # atno 8010 bound_to 7997
  140.7056  143.5978  150.8828 H   0  0  0  0  0  0  0  0  0  0  0  0  # atno 10167 bound_to 10162
  156.0141  130.4495  150.3368 H   0  0  0  0  0  0  0  0  0  0  0  0  # atno 10718 bound_to 10713
  153.5832  135.3480  155.2883 H   0  0  0  0  0  0  0  0  0  0  0  0  # atno 10763 bound_to 10752
  154.8664  135.4187  154.2598 H   0  0  0  0  0  0  0  0  0  0  0  0  # atno 10764 bound_to 10752
  153.3388  135.7048  153.6955 H   0  0  0  0  0  0  0  0  0  0  0  0  # atno 10765 bound_to 10752
  140.5564  134.0234  155.7955 H   0  0  0  0  0  0  0  0  0  0  0  0  # atno 11005 bound_to 11000
  146.3487  139.9727  142.8704 LP  0  0  0  0  0  0  0  0  0  0  0  0  # atno 17320 bound_to 7965
  145.1879  140.9798  143.4228 LP  0  0  0  0  0  0  0  0  0  0  0  0  # atno 17321 bound_to 7965
  139.9703  143.6064  152.2975 LP  0  0  0  0  0  0  0  0  0  0  0  0  # atno 17342 bound_to 10162
  139.6649  144.7662  151.1893 LP  0  0  0  0  0  0  0  0  0  0  0  0  # atno 17343 bound_to 10162
  157.1465  131.0310  151.2904 LP  0  0  0  0  0  0  0  0  0  0  0  0  # atno 17370 bound_to 10713
  157.4428  130.7554  149.7084 LP  0  0  0  0  0  0  0  0  0  0  0  0  # atno 17371 bound_to 10713
  141.1141  133.9569  157.2855 LP  0  0  0  0  0  0  0  0  0  0  0  0  # atno 17394 bound_to 11000
  139.9430  135.0188  156.8765 LP  0  0  0  0  0  0  0  0  0  0  0  0  # atno 17395 bound_to 11000

$$$$
