AV-unprocessed.smi:1280|AV-procd|sdf|5358|dock5
  -GOLD-   22720 4493D 1   1.00000     0.00000
 Structure written by MMmdl.
 44 45  0  0  0  0  0  0  0  0  2 V2000
  155.1912  134.7152  162.5468 C   0  0  0  0  0  0  0  0  0  0  0  0
  155.4977  135.9625  161.2337 S   0  0  0  0  0  0  0  0  0  0  0  0
  156.9609  136.0592  161.1058 O   0  0  0  0  0  0  0  0  0  0  0  0
  154.7490  135.4953  160.0558 O   0  0  0  0  0  0  0  0  0  0  0  0
  154.8400  137.2787  161.9131 N   0  5  0  0  0  0  0  0  0  0  0  0
  155.6622  138.1245  162.7621 C   0  0  0  0  0  0  0  0  0  0  0  0
  155.2438  139.6019  162.6177 C   0  0  0  0  0  0  0  0  0  0  0  0
  155.7722  140.3145  161.3521 C   0  0  0  0  0  0  0  0  0  0  0  0
  154.6809  140.9217  160.5977 N   0  0  0  0  0  0  0  0  0  0  0  0
  154.2033  140.4713  159.4259 C   0  0  0  0  0  0  0  0  0  0  0  0
  154.6605  139.4950  158.8319 O   0  0  0  0  0  0  0  0  0  0  0  0
  153.0934  141.2859  158.8164 C   0  0  0  0  0  0  0  0  0  0  0  0
  152.7956  142.5469  159.3792 C   0  0  0  0  0  0  0  0  0  0  0  0
  151.7542  143.3212  158.8382 C   0  0  0  0  0  0  0  0  0  0  0  0
  151.0461  142.8068  157.7389 C   0  0  0  0  0  0  0  0  0  0  0  0
  151.3289  141.6166  157.1723 N   0  0  0  0  0  0  0  0  0  0  0  0
  152.3359  140.8636  157.6824 C   0  0  0  0  0  0  0  0  0  0  0  0
  152.6361  139.6686  156.9975 N   0  0  0  0  0  0  0  0  0  0  0  0
  152.3813  138.4168  157.7033 C   0  0  0  0  0  0  0  0  0  0  0  0
  152.9488  137.2378  156.8956 C   0  0  0  0  0  0  0  0  0  0  0  0
  152.3803  137.2418  155.5892 O   0  0  0  0  0  0  0  0  0  0  0  0
  152.6930  138.4328  154.8726 C   0  0  0  0  0  0  0  0  0  0  0  0
  152.1426  139.6568  155.6253 C   0  0  0  0  0  0  0  0  0  0  0  0
  155.5882  133.7521  162.2280 H   0  0  0  0  0  0  0  0  0  0  0  0
  154.1191  134.6265  162.7206 H   0  0  0  0  0  0  0  0  0  0  0  0
  155.6860  135.0256  163.4666 H   0  0  0  0  0  0  0  0  0  0  0  0
  155.5667  137.8404  163.8103 H   0  0  0  0  0  0  0  0  0  0  0  0
  156.7231  138.0323  162.5269 H   0  0  0  0  0  0  0  0  0  0  0  0
  154.1564  139.6797  162.6631 H   0  0  0  0  0  0  0  0  0  0  0  0
  155.6172  140.1392  163.4893 H   0  0  0  0  0  0  0  0  0  0  0  0
  156.4641  141.1154  161.6190 H   0  0  0  0  0  0  0  0  0  0  0  0
  156.3270  139.6300  160.7063 H   0  0  0  0  0  0  0  0  0  0  0  0
  154.2533  141.7441  160.9976 H   0  0  0  0  0  0  0  0  0  0  0  0
  153.3504  142.9171  160.2293 H   0  0  0  0  0  0  0  0  0  0  0  0
  151.5028  144.2837  159.2584 H   0  0  0  0  0  0  0  0  0  0  0  0
  150.2375  143.3694  157.2963 H   0  0  0  0  0  0  0  0  0  0  0  0
  152.8393  138.4500  158.6928 H   0  0  0  0  0  0  0  0  0  0  0  0
  151.3080  138.2806  157.8442 H   0  0  0  0  0  0  0  0  0  0  0  0
  154.0367  137.2958  156.8321 H   0  0  0  0  0  0  0  0  0  0  0  0
  152.7066  136.2950  157.3858 H   0  0  0  0  0  0  0  0  0  0  0  0
  153.7719  138.5124  154.7376 H   0  0  0  0  0  0  0  0  0  0  0  0
  152.2528  138.3752  153.8771 H   0  0  0  0  0  0  0  0  0  0  0  0
  151.0522  139.6280  155.6385 H   0  0  0  0  0  0  0  0  0  0  0  0
  152.4319  140.5707  155.1056 H   0  0  0  0  0  0  0  0  0  0  0  0
  1  2  1  0  0  0  0
  1 24  1  0  0  0  0
  1 25  1  0  0  0  0
  1 26  1  0  0  0  0
  2  3  2  0  0  0  0
  2  4  2  0  0  0  0
  2  5  1  0  0  0  0
  5  6  1  0  0  0  0
  6  7  1  0  0  0  0
  6 27  1  0  0  0  0
  6 28  1  0  0  0  0
  7  8  1  0  0  0  0
  7 29  1  0  0  0  0
  7 30  1  0  0  0  0
  8  9  1  0  0  0  0
  8 31  1  0  0  0  0
  8 32  1  0  0  0  0
  9 10  1  0  0  0  0
  9 33  1  0  0  0  0
 10 11  2  0  0  0  0
 10 12  1  0  0  0  0
 12 17  1  0  0  0  0
 12 13  2  0  0  0  0
 13 14  1  0  0  0  0
 13 34  1  0  0  0  0
 14 15  2  0  0  0  0
 14 35  1  0  0  0  0
 15 16  1  0  0  0  0
 15 36  1  0  0  0  0
 16 17  2  0  0  0  0
 17 18  1  0  0  0  0
 18 23  1  0  0  0  0
 18 19  1  0  0  0  0
 19 20  1  0  0  0  0
 19 37  1  0  0  0  0
 19 38  1  0  0  0  0
 20 21  1  0  0  0  0
 20 39  1  0  0  0  0
 20 40  1  0  0  0  0
 21 22  1  0  0  0  0
 22 23  1  0  0  0  0
 22 41  1  0  0  0  0
 22 42  1  0  0  0  0
 23 43  1  0  0  0  0
 23 44  1  0  0  0  0
M  CHG  1   5  -1
M  END
> <s_m_source_file>
AV-unprocessed.smi

> <i_m_source_file_index>
1280

> <i_lp_mmshare_version>
43012

> <i_f3d_flags>
0

> <s_epik_input>
W0NIM11TKD1PKSg9TylbTkhdW0NIMl1bQ0gyXVtDSDJdW05IXUMoPU8pYzFbY0hdW2NIXVtjSF1uYzFOMltDSDJdW0NIMl1PW0NIMl1bQ0gyXTI=

> <s_epik_cmdline>
J2VwaWtfcHl0aG9uJywgJy1waCcsICc3LjAnLCAnLXRuJywgJzgnLCAnLW1hJywgJzIwMCcsICctbWV0YWxfYmluZGluZycsICctaW1hZScsICc8aW5maWxlLm1hZT4nLCAnLW9tYWUnLCAnPG91dGZpbGUubWFlPic=

> <r_lp_tautomer_probability>
1

> <r_epik_Ionization_Penalty>
6.65739

> <r_epik_Ionization_Penalty_Charging>
6.65737

> <r_epik_Ionization_Penalty_Neutral>
1.70916e-05

> <r_epik_State_Penalty>
6.65736

> <r_epik_Charging_Adjusted_Penalty>
13.3147

> <i_epik_Tot_Q>
-1

> <i_epik_Tot_abs_Q>
1

> <r_epik_Metal_State_Penalty>
2.58004

> <b_epik_Metal_Only>
1

> <s_lp_Force_Field>
OPLS_2005

> <r_lp_Energy>
24.7135

> <b_lp_Chiralities_Consistent>
1

> <s_lp_Variant>
AV-unprocessed.smi:1280-2

> <Gold.Version>
5.8.1

> <Gold.Id.Protein>
6NUR|6NUR_protein|mol2

> <Gold.PLP.Fitness>
43.4836

> <Gold.PLP.PLP>
-33.9585

> <Gold.PLP.part.hbond>
-4.0000

> <Gold.PLP.part.metal>
0.0000

> <Gold.PLP.part.buried>
-5.0216

> <Gold.PLP.part.nonpolar>
-25.3934

> <Gold.PLP.part.repulsive>
0.1061

> <Gold.PLP.ligand.clash>
0.0000

> <Gold.PLP.ligand.torsion>
1.5892

> <Gold.PLP.Chemscore.Hbond>
2.8229

> <Gold.PLP.Chemscore.CHOScore>
1.0000

> <Gold.PLP.Chemscore.Metal>
0.0000

> <Gold.Chemscore.Hbonds>
donor molecule, donor type, donor heavy atom, donor atom, acceptor molecule, acceptor atom, score
      P1  H  7997  8008       L1    11  0.99
      P1  H  7997  8009       L1    18  0.02
      P1  H 10752 10763       L1    21  0.75
      L1  C    15    36       P1  8028  1.00

> <Gold.PLP.Chemscore.Internal.Correction>
1.2347

> <Gold.Rescore>
     Score         DG    S(hbond)    S(metal)    S(lipo)     H(rot)  DE(clash)    DE(int)     intcor
     14.36     -18.01       2.53        0.00      82.03       2.16       0.02       3.64       ----

> <Gold.Chemscore.Fitness>
14.3582

> <Gold.Chemscore.DG>
-18.0109

> <Gold.Chemscore.ZeroCoef>
-5.4800

> <Gold.Chemscore.Hbond>
2.5302

> <Gold.Chemscore.Metal>
0.0000

> <Gold.Chemscore.Lipo>
82.0327

> <Gold.Chemscore.Internal_Hbond>
0.0000

> <Gold.Chemscore.DEClash>
0.0158

> <Gold.Chemscore.DEInternal>
3.6369

> <Gold.Chemscore.Rot>
2.1554

> <Gold.Chemscore.Internal.Correction>
   9.000000E+99

> <Gold.Chemscore.Hbonds>
donor molecule, donor type, donor heavy atom, donor atom, acceptor molecule, acceptor atom, score
      P1  H  6896  6909       L1     4  0.02
      P1  H  7997  8008       L1    11  0.66
      P1  H 10752 10763       L1    21  0.33

> <Gold.Chemscore.Hbond.Weighted>
-8.4508

> <Gold.Chemscore.Metal.Weighted>
-0.0000

> <Gold.Chemscore.Lipo.Weighted>
-9.5978

> <Gold.Chemscore.Internal_Hbond.Weighted>
0.0000

> <Gold.Chemscore.DEClash.Weighted>
0.0158

> <Gold.Chemscore.DEInternal.Weighted>
3.6369

> <Gold.Chemscore.Rot.Weighted>
5.5178

> <Gold.Chemscore.Internal.Correction.Weighted>
   9.000000E+99

> <Gold.Protein.RotatedTorsions>
[ 6907 6896 6895 6894 ] final  168.65 input  -60.11 | X-H torsion
[ 7974 7965 7964 7962 ] final   21.24 input  175.53 | X-H torsion
[ 8008 7997 7996 7995 ] final -137.53 input   59.86 | X-H torsion
[ 10167 10162 10161 10158 ] final -134.09 input  -65.29 | X-H torsion
[ 10718 10713 10712 10709 ] final  -35.96 input   66.30 | X-H torsion
[ 10763 10752 10751 10750 ] final   69.55 input  -60.55 | X-H torsion
[ 11005 11000 10999 10996 ] final -109.22 input  -57.11 | X-H torsion

> <Gold.Protein.ActiveResidues>
 VAL166  LYS551  ARG553  GLY616  TRP617  ASP618  TYR619  PRO620  LYS621  CYS622 
 ASP623  PHE694  ASN695  SER759  ASP760  ASP761  ALA762  ILE779  LEU786  VAL792 
 PHE793  MET794  SER795  GLU796  ALA797  LYS798  CYS799  TRP800  GLU811  SER814 

> <Gold.Protein.RotatedAtoms>
  151.8443  133.3429  159.3652 H   0  0  0  0  0  0  0  0  0  0  0  0  # atno 6907 bound_to 6896
  150.7225  134.5361  159.5733 H   0  0  0  0  0  0  0  0  0  0  0  0  # atno 6908 bound_to 6896
  152.2841  134.7796  160.0442 H   0  0  0  0  0  0  0  0  0  0  0  0  # atno 6909 bound_to 6896
  146.2079  139.8055  142.8711 H   0  0  0  0  0  0  0  0  0  0  0  0  # atno 7974 bound_to 7965
  155.4133  140.0513  157.3030 H   0  0  0  0  0  0  0  0  0  0  0  0  # atno 8008 bound_to 7997
  154.4936  140.2130  155.9454 H   0  0  0  0  0  0  0  0  0  0  0  0  # atno 8009 bound_to 7997
  156.1376  140.3160  155.8449 H   0  0  0  0  0  0  0  0  0  0  0  0  # atno 8010 bound_to 7997
  139.8916  143.6716  152.2611 H   0  0  0  0  0  0  0  0  0  0  0  0  # atno 10167 bound_to 10162
  156.3324  130.4281  149.7860 H   0  0  0  0  0  0  0  0  0  0  0  0  # atno 10718 bound_to 10713
  153.0293  135.5206  154.7305 H   0  0  0  0  0  0  0  0  0  0  0  0  # atno 10763 bound_to 10752
  154.6334  135.2903  155.0192 H   0  0  0  0  0  0  0  0  0  0  0  0  # atno 10764 bound_to 10752
  154.1136  135.6618  153.4942 H   0  0  0  0  0  0  0  0  0  0  0  0  # atno 10765 bound_to 10752
  141.0859  133.9139  157.2186 H   0  0  0  0  0  0  0  0  0  0  0  0  # atno 11005 bound_to 11000
  145.3251  141.0253  143.3478 LP  0  0  0  0  0  0  0  0  0  0  0  0  # atno 17320 bound_to 7965
  144.8839  139.4866  143.6710 LP  0  0  0  0  0  0  0  0  0  0  0  0  # atno 17321 bound_to 7965
  139.7105  144.7621  151.1121 LP  0  0  0  0  0  0  0  0  0  0  0  0  # atno 17342 bound_to 10162
  140.7725  143.5338  150.9392 LP  0  0  0  0  0  0  0  0  0  0  0  0  # atno 17343 bound_to 10162
  156.5128  130.8179  151.3175 LP  0  0  0  0  0  0  0  0  0  0  0  0  # atno 17370 bound_to 10713
  157.7433  130.9908  150.2580 LP  0  0  0  0  0  0  0  0  0  0  0  0  # atno 17371 bound_to 10713
  139.9678  135.0137  156.9432 LP  0  0  0  0  0  0  0  0  0  0  0  0  # atno 17394 bound_to 11000
  140.5363  134.0764  155.7329 LP  0  0  0  0  0  0  0  0  0  0  0  0  # atno 17395 bound_to 11000

$$$$
