AV-unprocessed.smi:1000|AV-procd|sdf|4355|dock8
  -GOLD-   22720 2253D 1   1.00000     0.00000
 Structure written by MMmdl.
 40 41  0  0  0  0  0  0  0  0  1 V2000
  145.8039  142.1167  157.7945 C   0  0  0  0  0  0  0  0  0  0  0  0
  146.5712  140.5486  157.1687 S   0  0  2  0  0  0  0  0  0  0  0  0
  147.9499  140.4282  157.8207 O   0  0  0  0  0  0  0  0  0  0  0  0
  146.9179  141.2025  155.4979 C   0  0  0  0  0  0  0  0  0  0  0  0
  146.2615  142.2291  154.9496 N   0  0  0  0  0  0  0  0  0  0  0  0
  146.8314  142.3900  153.7008 N   0  0  0  0  0  0  0  0  0  0  0  0
  147.7692  141.4432  153.6314 C   0  0  0  0  0  0  0  0  0  0  0  0
  147.8783  140.6667  154.7211 N   0  0  0  0  0  0  0  0  0  0  0  0
  148.7919  139.5623  154.9650 C   0  0  0  0  0  0  0  0  0  0  0  0
  150.1491  140.0567  155.4692 C   0  0  0  0  0  0  0  0  0  0  0  0
  151.1746  139.7557  154.8591 O   0  0  0  0  0  0  0  0  0  0  0  0
  150.1445  140.7999  156.5868 N   0  0  0  0  0  0  0  0  0  0  0  0
  151.3352  141.2921  157.2679 C   0  0  0  0  0  0  0  0  0  0  0  0
  151.3552  142.8302  157.3076 C   0  0  0  0  0  0  0  0  0  0  0  0
  151.7415  143.3800  158.6704 C   0  0  0  0  0  0  0  0  0  0  0  0
  151.7332  144.7012  158.9340 C   0  0  0  0  0  0  0  0  0  0  0  0
  152.0952  145.3056  160.2794 C   0  0  0  0  0  0  0  0  0  0  0  0
  152.1403  144.2550  161.4016 C   0  0  0  0  0  0  0  0  0  0  0  0
  152.8499  142.9773  160.9359 C   0  0  0  0  0  0  0  0  0  0  0  0
  152.1382  142.3510  159.7231 C   0  0  0  0  0  0  0  0  0  0  0  0
  145.3037  142.6573  156.9906 H   0  0  0  0  0  0  0  0  0  0  0  0
  146.5676  142.7636  158.2261 H   0  0  0  0  0  0  0  0  0  0  0  0
  145.0670  141.8893  158.5645 H   0  0  0  0  0  0  0  0  0  0  0  0
  148.3963  141.3158  152.7612 H   0  0  0  0  0  0  0  0  0  0  0  0
  148.3401  138.8853  155.6913 H   0  0  0  0  0  0  0  0  0  0  0  0
  148.9285  138.9992  154.0409 H   0  0  0  0  0  0  0  0  0  0  0  0
  149.2551  141.0030  157.0198 H   0  0  0  0  0  0  0  0  0  0  0  0
  151.3896  140.8813  158.2777 H   0  0  0  0  0  0  0  0  0  0  0  0
  152.2054  140.9150  156.7307 H   0  0  0  0  0  0  0  0  0  0  0  0
  152.0536  143.2166  156.5641 H   0  0  0  0  0  0  0  0  0  0  0  0
  150.3728  143.2171  157.0321 H   0  0  0  0  0  0  0  0  0  0  0  0
  151.4641  145.4022  158.1574 H   0  0  0  0  0  0  0  0  0  0  0  0
  153.0658  145.7919  160.1791 H   0  0  0  0  0  0  0  0  0  0  0  0
  151.3743  146.0842  160.5294 H   0  0  0  0  0  0  0  0  0  0  0  0
  152.6369  144.6685  162.2798 H   0  0  0  0  0  0  0  0  0  0  0  0
  151.1239  144.0063  161.7096 H   0  0  0  0  0  0  0  0  0  0  0  0
  153.8802  143.2170  160.6694 H   0  0  0  0  0  0  0  0  0  0  0  0
  152.9026  142.2540  161.7502 H   0  0  0  0  0  0  0  0  0  0  0  0
  151.2352  141.8374  160.0539 H   0  0  0  0  0  0  0  0  0  0  0  0
  152.7841  141.5967  159.2723 H   0  0  0  0  0  0  0  0  0  0  0  0
  1  2  1  0  0  0  0
  1 21  1  0  0  0  0
  1 22  1  0  0  0  0
  1 23  1  0  0  0  0
  2  3  2  0  0  0  0
  2  4  1  0  0  0  0
  4  8  1  0  0  0  0
  4  5  2  0  0  0  0
  5  6  1  0  0  0  0
  6  7  2  0  0  0  0
  7  8  1  0  0  0  0
  7 24  1  0  0  0  0
  8  9  1  0  0  0  0
  9 10  1  0  0  0  0
  9 25  1  0  0  0  0
  9 26  1  0  0  0  0
 10 11  2  0  0  0  0
 10 12  1  0  0  0  0
 12 13  1  0  0  0  0
 12 27  1  0  0  0  0
 13 14  1  0  0  0  0
 13 28  1  0  0  0  0
 13 29  1  0  0  0  0
 14 15  1  0  0  0  0
 14 30  1  0  0  0  0
 14 31  1  0  0  0  0
 15 20  1  0  0  0  0
 15 16  2  0  0  0  0
 16 17  1  0  0  0  0
 16 32  1  0  0  0  0
 17 18  1  0  0  0  0
 17 33  1  0  0  0  0
 17 34  1  0  0  0  0
 18 19  1  0  0  0  0
 18 35  1  0  0  0  0
 18 36  1  0  0  0  0
 19 20  1  0  0  0  0
 19 37  1  0  0  0  0
 19 38  1  0  0  0  0
 20 39  1  0  0  0  0
 20 40  1  0  0  0  0
M  END
> <s_m_source_file>
AV-unprocessed.smi

> <i_m_source_file_index>
1000

> <i_lp_mmshare_version>
43012

> <i_f3d_flags>
0

> <s_epik_input>
W0NIM11bU0BdKD1PKWMxbm5bY0hdbjFbQ0gyXUMoPU8pW05IXVtDSDJdW0NIMl1DMj1bQ0hdW0NIMl1bQ0gyXVtDSDJdW0NIMl0y

> <s_epik_cmdline>
J2VwaWtfcHl0aG9uJywgJy1waCcsICc3LjAnLCAnLXRuJywgJzgnLCAnLW1hJywgJzIwMCcsICctbWV0YWxfYmluZGluZycsICctaW1hZScsICc8aW5maWxlLm1hZT4nLCAnLW9tYWUnLCAnPG91dGZpbGUubWFlPic=

> <r_lp_tautomer_probability>
1

> <r_epik_Ionization_Penalty>
9.22166e-08

> <r_epik_Ionization_Penalty_Charging>
0

> <r_epik_Ionization_Penalty_Neutral>
9.22166e-08

> <r_epik_State_Penalty>
-0

> <r_epik_Charging_Adjusted_Penalty>
0

> <i_epik_Tot_Q>
0

> <i_epik_Tot_abs_Q>
0

> <r_epik_Metal_State_Penalty>
-0

> <b_epik_Metal_Only>
0

> <s_lp_Force_Field>
OPLS_2005

> <r_lp_Energy>
5.87902

> <b_lp_Chiralities_Consistent>
1

> <s_lp_Variant>
AV-unprocessed.smi:1000-1

> <Gold.Version>
5.8.1

> <Gold.Id.Protein>
6NUR|6NUR_protein|mol2

> <Gold.PLP.Fitness>
44.0716

> <Gold.PLP.PLP>
-39.3777

> <Gold.PLP.part.hbond>
-1.3161

> <Gold.PLP.part.metal>
0.0000

> <Gold.PLP.part.buried>
-7.7524

> <Gold.PLP.part.nonpolar>
-30.7845

> <Gold.PLP.part.repulsive>
0.4498

> <Gold.PLP.ligand.clash>
0.0000

> <Gold.PLP.ligand.torsion>
1.2135

> <Gold.PLP.Chemscore.Hbond>
1.0000

> <Gold.PLP.Chemscore.CHOScore>
1.0000

> <Gold.PLP.Chemscore.Metal>
0.0000

> <Gold.Chemscore.Hbonds>
donor molecule, donor type, donor heavy atom, donor atom, acceptor molecule, acceptor atom, score
      P1  H  7989  7998       L1    11  1.00
      L1  C     7    24       P1  7957  1.00

> <Gold.PLP.Chemscore.Internal.Correction>
1.1210

> <Gold.Rescore>
     Score         DG    S(hbond)    S(metal)    S(lipo)     H(rot)  DE(clash)    DE(int)     intcor
     12.59     -13.73       0.99        0.00      91.89       2.26       0.05       1.09       ----

> <Gold.Chemscore.Fitness>
12.5915

> <Gold.Chemscore.DG>
-13.7277

> <Gold.Chemscore.ZeroCoef>
-5.4800

> <Gold.Chemscore.Hbond>
0.9856

> <Gold.Chemscore.Metal>
0.0000

> <Gold.Chemscore.Lipo>
91.8935

> <Gold.Chemscore.Internal_Hbond>
0.0000

> <Gold.Chemscore.DEClash>
0.0475

> <Gold.Chemscore.DEInternal>
1.0887

> <Gold.Chemscore.Rot>
2.2640

> <Gold.Chemscore.Internal.Correction>
   9.000000E+99

> <Gold.Chemscore.Hbonds>
donor molecule, donor type, donor heavy atom, donor atom, acceptor molecule, acceptor atom, score
      P1  H  7989  7998       L1    11  0.93

> <Gold.Chemscore.Hbond.Weighted>
-3.2919

> <Gold.Chemscore.Metal.Weighted>
-0.0000

> <Gold.Chemscore.Lipo.Weighted>
-10.7515

> <Gold.Chemscore.Internal_Hbond.Weighted>
0.0000

> <Gold.Chemscore.DEClash.Weighted>
0.0475

> <Gold.Chemscore.DEInternal.Weighted>
1.0887

> <Gold.Chemscore.Rot.Weighted>
5.7957

> <Gold.Chemscore.Internal.Correction.Weighted>
   9.000000E+99

> <Gold.Protein.RotatedTorsions>
[ 6907 6896 6895 6894 ] final   -7.44 input  -60.11 | X-H torsion
[ 7974 7965 7964 7962 ] final -115.54 input  175.53 | X-H torsion
[ 8008 7997 7996 7995 ] final -151.33 input   59.86 | X-H torsion
[ 10167 10162 10161 10158 ] final  179.64 input  -65.29 | X-H torsion
[ 10718 10713 10712 10709 ] final   -3.06 input   66.30 | X-H torsion
[ 10763 10752 10751 10750 ] final -163.49 input  -60.55 | X-H torsion
[ 11005 11000 10999 10996 ] final  140.35 input  -57.11 | X-H torsion

> <Gold.Protein.ActiveResidues>
 VAL166  LYS551  ARG553  GLY616  TRP617  ASP618  TYR619  PRO620  LYS621  CYS622 
 ASP623  PHE694  ASN695  SER759  ASP760  ASP761  ALA762  ILE779  LEU786  VAL792 
 PHE793  MET794  SER795  GLU796  ALA797  LYS798  CYS799  TRP800  GLU811  SER814 

> <Gold.Protein.RotatedAtoms>
  151.4496  135.1028  159.9693 H   0  0  0  0  0  0  0  0  0  0  0  0  # atno 6907 bound_to 6896
  152.4893  133.8453  159.7184 H   0  0  0  0  0  0  0  0  0  0  0  0  # atno 6908 bound_to 6896
  150.9031  133.7033  159.2901 H   0  0  0  0  0  0  0  0  0  0  0  0  # atno 6909 bound_to 6896
  145.1072  140.8589  143.3891 H   0  0  0  0  0  0  0  0  0  0  0  0  # atno 7974 bound_to 7965
  155.6377  140.0698  157.2628 H   0  0  0  0  0  0  0  0  0  0  0  0  # atno 8008 bound_to 7997
  154.4191  140.1756  156.1589 H   0  0  0  0  0  0  0  0  0  0  0  0  # atno 8009 bound_to 7997
  155.9881  140.3347  155.6730 H   0  0  0  0  0  0  0  0  0  0  0  0  # atno 8010 bound_to 7997
  139.5345  144.2537  152.0764 H   0  0  0  0  0  0  0  0  0  0  0  0  # atno 10167 bound_to 10162
  156.7816  130.5332  149.5750 H   0  0  0  0  0  0  0  0  0  0  0  0  # atno 10718 bound_to 10713
  154.7118  135.3008  154.9185 H   0  0  0  0  0  0  0  0  0  0  0  0  # atno 10763 bound_to 10752
  154.0085  135.6698  153.4768 H   0  0  0  0  0  0  0  0  0  0  0  0  # atno 10764 bound_to 10752
  153.0761  135.5034  154.8321 H   0  0  0  0  0  0  0  0  0  0  0  0  # atno 10765 bound_to 10752
  140.0321  134.9347  157.0682 H   0  0  0  0  0  0  0  0  0  0  0  0  # atno 11005 bound_to 11000
  145.0888  139.2905  143.5746 LP  0  0  0  0  0  0  0  0  0  0  0  0  # atno 17320 bound_to 7965
  146.3528  140.0418  142.8642 LP  0  0  0  0  0  0  0  0  0  0  0  0  # atno 17321 bound_to 7965
  140.2005  144.4662  150.6434 LP  0  0  0  0  0  0  0  0  0  0  0  0  # atno 17342 bound_to 10162
  140.6544  143.2233  151.6004 LP  0  0  0  0  0  0  0  0  0  0  0  0  # atno 17343 bound_to 10162
  156.1214  130.6113  151.0199 LP  0  0  0  0  0  0  0  0  0  0  0  0  # atno 17370 bound_to 10713
  157.6643  131.0874  150.7765 LP  0  0  0  0  0  0  0  0  0  0  0  0  # atno 17371 bound_to 10713
  140.4209  134.1882  155.7164 LP  0  0  0  0  0  0  0  0  0  0  0  0  # atno 17394 bound_to 11000
  141.1836  133.8360  157.1167 LP  0  0  0  0  0  0  0  0  0  0  0  0  # atno 17395 bound_to 11000

$$$$
