#       Name:                AV-unprocessed.smi:212
#       Creating user name   scv26
#       Creation time:       Thu Mar 26 19:55:39 2020


#       File generated by GOLD software.
#

@<TRIPOS>MOLECULE
AV-unprocessed.smi:212
    75    78     1
SMALL
NO_CHARGES


@<TRIPOS>ATOM
      1 ****        -1.8517  -1.2718  -0.4250 C.3            1 S1                 0.0000
      2 ****        -2.3035   0.1999  -0.3498 C.3            1 S1                 0.0000
      3 ****        -2.2344   0.9057  -1.7194 C.3            1 S1                 0.0000
      4 ****        -2.7493   2.2957  -1.6257 N.4            1 S1                 1.0000
      5 ****        -2.8231   2.9840  -2.9420 C.3            1 S1                 0.0000
      6 ****        -4.2177   3.5938  -3.2166 C.3            1 S1                 0.0000
      7 ****        -4.2273   4.2991  -4.5834 C.3            1 S1                 0.0000
      8 ****        -5.3384   2.5393  -3.1540 C.3            1 S1                 0.0000
      9 ****        -4.4873   4.5893  -2.2490 O.3            1 S1                 0.0000
     10 ****        -2.0435   3.0901  -0.5871 C.3            1 S1                 0.0000
     11 ****        -2.0581   2.3740   0.7793 C.3            1 S1                 0.0000
     12 ****        -1.6157   0.9846   0.6814 N.3            1 S1                 0.0000
     13 ****        -0.2847   0.7876   0.8387 C.ar           1 S1                 0.0000
     14 ****         0.5991   1.3614  -0.0181 N.ar           1 S1                 0.0000
     15 ****         1.9100   1.1522   0.1360 C.ar           1 S1                 0.0000
     16 ****         2.5341   0.4155   1.0571 N.ar           1 S1                 0.0000
     17 ****         1.6487  -0.1676   1.9145 C.ar           1 S1                 0.0000
     18 ****         0.2334  -0.0279   1.8790 C.ar           1 S1                 0.0000
     19 ****        -0.3447  -0.7523   2.9121 N.2            1 S1                 0.0000
     20 ****         0.6733  -1.2912   3.5258 C.2            1 S1                 0.0000
     21 ****         1.9086  -1.0093   2.9834 N.pl3          1 S1                 0.0000
     22 ****         3.1988  -1.4846   3.4661 C.3            1 S1                 0.0000
     23 ****         3.6308  -2.8597   2.8900 C.3            1 S1                 0.0000
     24 ****         2.5722  -3.9430   3.2083 C.3            1 S1                 0.0000
     25 ****         3.1264  -5.2420   3.2005 O.3            1 S1                 0.0000
     26 ****         3.9696  -2.7746   1.3755 C.3            1 S1                 0.0000
     27 ****         4.4353  -4.0665   0.7257 C.3            1 S1                 0.0000
     28 ****         5.1086  -3.5715  -0.5502 C.3            1 S1                 0.0000
     29 ****         5.6233  -2.2816  -0.2397 O.3            1 S1                 0.0000
     30 ****         5.1700  -1.8785   1.0478 C.3            1 S1                 0.0000
     31 ****        -2.4694  -1.8308  -1.1282 H              1 S1                 0.0000
     32 ****        -1.9406  -1.7611   0.5455 H              1 S1                 0.0000
     33 ****        -0.8167  -1.3650  -0.7561 H              1 S1                 0.0000
     34 ****        -3.3523   0.1813  -0.0499 H              1 S1                 0.0000
     35 ****        -1.2112   0.9180  -2.0981 H              1 S1                 0.0000
     36 ****        -2.8335   0.3501  -2.4422 H              1 S1                 0.0000
     37 ****        -2.0488   3.7503  -3.0108 H              1 S1                 0.0000
     38 ****        -2.5967   2.2759  -3.7412 H              1 S1                 0.0000
     39 ****        -4.0304   3.5949  -5.3926 H              1 S1                 0.0000
     40 ****        -3.4668   5.0795  -4.6351 H              1 S1                 0.0000
     41 ****        -5.1917   4.7673  -4.7847 H              1 S1                 0.0000
     42 ****        -5.1672   1.7411  -3.8772 H              1 S1                 0.0000
     43 ****        -6.3105   2.9805  -3.3773 H              1 S1                 0.0000
     44 ****        -5.4112   2.0801  -2.1676 H              1 S1                 0.0000
     45 ****        -5.3149   4.9970  -2.4572 H              1 S1                 0.0000
     46 ****        -1.0180   3.2723  -0.9095 H              1 S1                 0.0000
     47 ****        -2.5113   4.0693  -0.4858 H              1 S1                 0.0000
     48 ****        -1.4436   2.9191   1.4976 H              1 S1                 0.0000
     49 ****        -3.0719   2.3756   1.1810 H              1 S1                 0.0000
     50 ****         2.5508   1.6429  -0.5817 H              1 S1                 0.0000
     51 ****         0.5474  -1.9194   4.3954 H              1 S1                 0.0000
     52 ****         3.9503  -0.7224   3.2595 H              1 S1                 0.0000
     53 ****         3.1418  -1.5494   4.5535 H              1 S1                 0.0000
     54 ****         4.5445  -3.1345   3.4196 H              1 S1                 0.0000
     55 ****         2.1603  -3.7882   4.2057 H              1 S1                 0.0000
     56 ****         1.7389  -3.8964   2.5064 H              1 S1                 0.0000
     57 ****         2.4431  -5.8622   3.4047 H              1 S1                 0.0000
     58 ****         3.0993  -2.4189   0.8225 H              1 S1                 0.0000
     59 ****         5.1669  -4.5696   1.3599 H              1 S1                 0.0000
     60 ****         3.6225  -4.7635   0.5203 H              1 S1                 0.0000
     61 ****         5.8952  -4.2444  -0.8927 H              1 S1                 0.0000
     62 ****         4.3768  -3.4684  -1.3524 H              1 S1                 0.0000
     63 ****         4.9317  -0.8161   1.0582 H              1 S1                 0.0000
     64 ****         5.9789  -2.0436   1.7611 H              1 S1                 0.0000
     65 ****        -3.7049   2.2094  -1.3103 H              1 S1                 0.0000
     66 ****        -3.7609   5.2764  -2.2614 LP             1 S1                 0.0000
     67 ****        -4.5362   4.1723  -1.3414 LP             1 S1                 0.0000
     68 ****        -1.9545   0.5504   1.5161 LP             1 S1                 0.0000
     69 ****         0.2691   1.9401  -0.7639 LP             1 S1                 0.0000
     70 ****         3.5265   0.3050   1.1117 LP             1 S1                 0.0000
     71 ****        -1.3156  -0.8408   3.1345 LP             1 S1                 0.0000
     72 ****         3.8524  -5.3028   3.8855 LP             1 S1                 0.0000
     73 ****         3.5038  -5.4420   2.2963 LP             1 S1                 0.0000
     74 ****         5.3069  -1.6245  -0.9238 LP             1 S1                 0.0000
     75 ****         6.6228  -2.3130  -0.2449 LP             1 S1                 0.0000
@<TRIPOS>BOND
    1    1    2 1     
    2    1   31 1     
    3    1   32 1     
    4    1   33 1     
    5    2   12 1     
    6    2    3 1     
    7    2   34 1     
    8    3    4 1     
    9    3   35 1     
   10    3   36 1     
   11    4    5 1     
   12    4   10 1     
   13    4   65 1     
   14    5    6 1     
   15    5   37 1     
   16    5   38 1     
   17    6    7 1     
   18    6    8 1     
   19    6    9 1     
   20    7   39 1     
   21    7   40 1     
   22    7   41 1     
   23    8   42 1     
   24    8   43 1     
   25    8   44 1     
   26    9   45 1     
   27   10   11 1     
   28   10   46 1     
   29   10   47 1     
   30   11   12 1     
   31   11   48 1     
   32   11   49 1     
   33   12   13 1     
   34   13   18 ar    
   35   13   14 ar    
   36   14   15 ar    
   37   15   16 ar    
   38   15   50 1     
   39   16   17 ar    
   40   17   21 1     
   41   17   18 ar    
   42   18   19 1     
   43   19   20 2     
   44   20   21 1     
   45   20   51 1     
   46   21   22 1     
   47   22   23 1     
   48   22   52 1     
   49   22   53 1     
   50   23   24 1     
   51   23   26 1     
   52   23   54 1     
   53   24   25 1     
   54   24   55 1     
   55   24   56 1     
   56   25   57 1     
   57   26   30 1     
   58   26   27 1     
   59   26   58 1     
   60   27   28 1     
   61   27   59 1     
   62   27   60 1     
   63   28   29 1     
   64   28   61 1     
   65   28   62 1     
   66   29   30 1     
   67   30   63 1     
   68   30   64 1     
   69    9   66 1     
   70    9   67 1     
   71   12   68 1     
   72   14   69 1     
   73   16   70 1     
   74   19   71 1     
   75   25   72 1     
   76   25   73 1     
   77   29   74 1     
   78   29   75 1     
@<TRIPOS>SUBSTRUCTURE
      1 S1             1
@<TRIPOS>SET
LONE_PAIRS      STATIC     ATOMS    <user>   **** ""
10 66 67 68 69 70 71 72 73 74 75
DONOR_HYDROGENS      STATIC     ATOMS    <user>   **** ""
3 65 45 57
ATOM$BLUE        STATIC     ATOMS    COLORGROUP SYSTEM
10 66 67 68 69 70 71 72 73 74 75
ATOM$RED        STATIC     ATOMS    COLORGROUP SYSTEM
3 65 45 57
