AV-unprocessed.smi:1873|AV-procd|sdf|7610|dock9
  -GOLD-   22720 9333D 1   1.00000     0.00000
 Structure written by MMmdl.
 37 39  0  0  0  0  0  0  0  0  2 V2000
  149.6828  140.7319  153.4905 O   0  0  0  0  0  0  0  0  0  0  0  0
  148.8157  140.5431  154.5927 C   0  0  1  0  0  0  0  0  0  0  0  0
  148.2845  139.0960  154.6132 C   0  0  0  0  0  0  0  0  0  0  0  0
  147.3457  138.8135  153.5181 N   0  0  0  0  0  0  0  0  0  0  0  0
  146.9664  139.6009  152.4753 C   0  0  0  0  0  0  0  0  0  0  0  0
  146.0729  138.8941  151.7292 N   0  3  0  0  0  0  0  0  0  0  0  0
  145.8784  137.6358  152.3023 C   0  0  0  0  0  0  0  0  0  0  0  0
  145.0715  136.5720  151.9109 C   0  0  0  0  0  0  0  0  0  0  0  0
  145.1074  135.4186  152.7219 C   0  0  0  0  0  0  0  0  0  0  0  0
  145.9237  135.3530  153.8697 C   0  0  0  0  0  0  0  0  0  0  0  0
  146.7374  136.4378  154.2573 C   0  0  0  0  0  0  0  0  0  0  0  0
  146.6946  137.5759  153.4521 C   0  0  0  0  0  0  0  0  0  0  0  0
  149.4760  140.9011  155.9149 C   0  0  0  0  0  0  0  0  0  0  0  0
  150.8766  141.0510  155.9850 C   0  0  0  0  0  0  0  0  0  0  0  0
  151.4937  141.3956  157.2028 C   0  0  0  0  0  0  0  0  0  0  0  0
  150.7252  141.5898  158.3681 C   0  0  0  0  0  0  0  0  0  0  0  0
  151.3871  141.9395  159.5234 O   0  0  0  0  0  0  0  0  0  0  0  0
  152.5591  142.6236  159.4396 C   0  0  0  0  0  0  0  0  0  0  0  0
  152.3115  143.9207  159.1369 F   0  0  0  0  0  0  0  0  0  0  0  0
  153.2084  142.5986  160.6298 F   0  0  0  0  0  0  0  0  0  0  0  0
  149.3182  141.4532  158.2930 C   0  0  0  0  0  0  0  0  0  0  0  0
  148.7000  141.1098  157.0752 C   0  0  0  0  0  0  0  0  0  0  0  0
  149.4246  140.1379  152.8020 H   0  0  0  0  0  0  0  0  0  0  0  0
  147.9735  141.2196  154.4402 H   0  0  0  0  0  0  0  0  0  0  0  0
  149.1004  138.3735  154.5840 H   0  0  0  0  0  0  0  0  0  0  0  0
  147.7500  138.9126  155.5463 H   0  0  0  0  0  0  0  0  0  0  0  0
  147.3116  140.6051  152.2756 H   0  0  0  0  0  0  0  0  0  0  0  0
  144.4472  136.6187  151.0307 H   0  0  0  0  0  0  0  0  0  0  0  0
  144.4986  134.5662  152.4571 H   0  0  0  0  0  0  0  0  0  0  0  0
  145.9280  134.4513  154.4648 H   0  0  0  0  0  0  0  0  0  0  0  0
  147.3638  136.3732  155.1345 H   0  0  0  0  0  0  0  0  0  0  0  0
  151.4842  140.9070  155.1036 H   0  0  0  0  0  0  0  0  0  0  0  0
  152.5669  141.5109  157.2434 H   0  0  0  0  0  0  0  0  0  0  0  0
  153.2080  142.2188  158.6625 H   0  0  0  0  0  0  0  0  0  0  0  0
  148.6977  141.6174  159.1614 H   0  0  0  0  0  0  0  0  0  0  0  0
  147.6247  141.0139  157.0350 H   0  0  0  0  0  0  0  0  0  0  0  0
  145.6303  139.2468  150.8904 H   0  0  0  0  0  0  0  0  0  0  0  0
  1  2  1  0  0  0  0
  1 23  1  0  0  0  0
  2  3  1  0  0  0  0
  2 13  1  0  0  0  0
  2 24  1  0  0  0  0
  3  4  1  0  0  0  0
  3 25  1  0  0  0  0
  3 26  1  0  0  0  0
  4 12  1  0  0  0  0
  4  5  1  0  0  0  0
  5  6  2  0  0  0  0
  5 27  1  0  0  0  0
  6  7  1  0  0  0  0
  6 37  1  0  0  0  0
  7 12  2  0  0  0  0
  7  8  1  0  0  0  0
  8  9  2  0  0  0  0
  8 28  1  0  0  0  0
  9 10  1  0  0  0  0
  9 29  1  0  0  0  0
 10 11  2  0  0  0  0
 10 30  1  0  0  0  0
 11 12  1  0  0  0  0
 11 31  1  0  0  0  0
 13 22  1  0  0  0  0
 13 14  2  0  0  0  0
 14 15  1  0  0  0  0
 14 32  1  0  0  0  0
 15 16  2  0  0  0  0
 15 33  1  0  0  0  0
 16 17  1  0  0  0  0
 16 21  1  0  0  0  0
 17 18  1  0  0  0  0
 18 19  1  0  0  0  0
 18 20  1  0  0  0  0
 18 34  1  0  0  0  0
 21 22  2  0  0  0  0
 21 35  1  0  0  0  0
 22 36  1  0  0  0  0
M  CHG  1   6   1
M  END
> <s_m_source_file>
AV-unprocessed.smi

> <i_m_source_file_index>
1873

> <i_lp_mmshare_version>
43012

> <i_f3d_flags>
0

> <s_epik_input>
RltDSF0oRilPYyhbY0hdW2NIXTEpW2NIXVtjSF1jMVtDQEhdKFtPSF0pW0NIMl1uKFtjSF1uMiljKGMyMylbY0hdW2NIXVtjSF1bY0hdMw==

> <s_epik_cmdline>
J2VwaWtfcHl0aG9uJywgJy1waCcsICc3LjAnLCAnLXRuJywgJzgnLCAnLW1hJywgJzIwMCcsICctbWV0YWxfYmluZGluZycsICctaW1hZScsICc8aW5maWxlLm1hZT4nLCAnLW9tYWUnLCAnPG91dGZpbGUubWFlPic=

> <r_lp_tautomer_probability>
1

> <r_epik_Ionization_Penalty>
1.3029

> <r_epik_Ionization_Penalty_Charging>
1.3029

> <r_epik_Ionization_Penalty_Neutral>
2.50501e-07

> <r_epik_State_Penalty>
1.377

> <r_epik_Charging_Adjusted_Penalty>
2.6799

> <i_epik_Tot_Q>
1

> <i_epik_Tot_abs_Q>
1

> <r_epik_Metal_State_Penalty>
5.40879

> <b_epik_Metal_Only>
0

> <s_lp_Force_Field>
OPLS_2005

> <r_lp_Energy>
16.5832

> <b_lp_Chiralities_Consistent>
1

> <s_lp_Variant>
AV-unprocessed.smi:1873-4

> <Gold.Version>
5.8.1

> <Gold.Id.Protein>
6NUR|6NUR_protein|mol2

> <Gold.PLP.Fitness>
48.1326

> <Gold.PLP.PLP>
-40.9271

> <Gold.PLP.part.hbond>
-5.1508

> <Gold.PLP.part.metal>
0.0000

> <Gold.PLP.part.buried>
-4.2439

> <Gold.PLP.part.nonpolar>
-32.6504

> <Gold.PLP.part.repulsive>
0.0600

> <Gold.PLP.ligand.clash>
0.0000

> <Gold.PLP.ligand.torsion>
0.9125

> <Gold.PLP.Chemscore.Hbond>
2.5532

> <Gold.PLP.Chemscore.CHOScore>
0.4297

> <Gold.PLP.Chemscore.Metal>
0.0000

> <Gold.Chemscore.Hbonds>
donor molecule, donor type, donor heavy atom, donor atom, acceptor molecule, acceptor atom, score
      L1  H     1    23       P1  7957  0.74
      L1  H     6    37       P1 10171  0.48
      P1  H  7989  7998       L1     1  0.37
      P1  H  8011  8017       L1     1  0.83
      L1  C     5    27       P1  7957  0.33

> <Gold.PLP.Chemscore.Internal.Correction>
0.0817

> <Gold.Rescore>
     Score         DG    S(hbond)    S(metal)    S(lipo)     H(rot)  DE(clash)    DE(int)     intcor
     14.50     -15.36       2.28        0.00      73.27       2.47       0.09       0.77       ----

> <Gold.Chemscore.Fitness>
14.5024

> <Gold.Chemscore.DG>
-15.3596

> <Gold.Chemscore.ZeroCoef>
-5.4800

> <Gold.Chemscore.Hbond>
2.2820

> <Gold.Chemscore.Metal>
0.0000

> <Gold.Chemscore.Lipo>
73.2727

> <Gold.Chemscore.Internal_Hbond>
0.0000

> <Gold.Chemscore.DEClash>
0.0862

> <Gold.Chemscore.DEInternal>
0.7710

> <Gold.Chemscore.Rot>
2.4668

> <Gold.Chemscore.Internal.Correction>
   9.000000E+99

> <Gold.Chemscore.Hbonds>
donor molecule, donor type, donor heavy atom, donor atom, acceptor molecule, acceptor atom, score
      L1  H     1    23       P1  7957  0.74
      L1  H     6    37       P1 10171  0.48
      P1  H  7989  7998       L1     1  0.23
      P1  H  8011  8017       L1     1  0.13

> <Gold.Chemscore.Hbond.Weighted>
-7.6217

> <Gold.Chemscore.Metal.Weighted>
-0.0000

> <Gold.Chemscore.Lipo.Weighted>
-8.5729

> <Gold.Chemscore.Internal_Hbond.Weighted>
0.0000

> <Gold.Chemscore.DEClash.Weighted>
0.0862

> <Gold.Chemscore.DEInternal.Weighted>
0.7710

> <Gold.Chemscore.Rot.Weighted>
6.3151

> <Gold.Chemscore.Internal.Correction.Weighted>
   9.000000E+99

> <Gold.Protein.RotatedTorsions>
[ 6907 6896 6895 6894 ] final  -97.30 input  -60.11 | X-H torsion
[ 7974 7965 7964 7962 ] final   98.92 input  175.53 | X-H torsion
[ 8008 7997 7996 7995 ] final  -27.22 input   59.86 | X-H torsion
[ 10167 10162 10161 10158 ] final   92.81 input  -65.29 | X-H torsion
[ 10718 10713 10712 10709 ] final  119.24 input   66.30 | X-H torsion
[ 10763 10752 10751 10750 ] final  -41.00 input  -60.55 | X-H torsion
[ 11005 11000 10999 10996 ] final -142.23 input  -57.11 | X-H torsion

> <Gold.Protein.ActiveResidues>
 VAL166  LYS551  ARG553  GLY616  TRP617  ASP618  TYR619  PRO620  LYS621  CYS622 
 ASP623  PHE694  ASN695  SER759  ASP760  ASP761  ALA762  ILE779  LEU786  VAL792 
 PHE793  MET794  SER795  GLU796  ALA797  LYS798  CYS799  TRP800  GLU811  SER814 

> <Gold.Protein.RotatedAtoms>
  150.7012  134.1370  159.4090 H   0  0  0  0  0  0  0  0  0  0  0  0  # atno 6907 bound_to 6896
  151.9355  135.0235  160.0541 H   0  0  0  0  0  0  0  0  0  0  0  0  # atno 6908 bound_to 6896
  152.2139  133.4897  159.5162 H   0  0  0  0  0  0  0  0  0  0  0  0  # atno 6909 bound_to 6896
  145.4057  139.2341  143.3275 H   0  0  0  0  0  0  0  0  0  0  0  0  # atno 7974 bound_to 7965
  154.4387  140.1878  156.0898 H   0  0  0  0  0  0  0  0  0  0  0  0  # atno 8008 bound_to 7997
  156.0375  140.3323  155.7180 H   0  0  0  0  0  0  0  0  0  0  0  0  # atno 8009 bound_to 7997
  155.5749  140.0616  157.2788 H   0  0  0  0  0  0  0  0  0  0  0  0  # atno 8010 bound_to 7997
  139.8241  144.6718  150.9482 H   0  0  0  0  0  0  0  0  0  0  0  0  # atno 10167 bound_to 10162
  157.5975  131.1056  150.7868 H   0  0  0  0  0  0  0  0  0  0  0  0  # atno 10718 bound_to 10713
  153.9552  135.6746  153.4744 H   0  0  0  0  0  0  0  0  0  0  0  0  # atno 10763 bound_to 10752
  153.0865  135.4896  154.8603 H   0  0  0  0  0  0  0  0  0  0  0  0  # atno 10764 bound_to 10752
  154.7303  135.3137  154.8861 H   0  0  0  0  0  0  0  0  0  0  0  0  # atno 10765 bound_to 10752
  140.8246  134.2590  157.4885 H   0  0  0  0  0  0  0  0  0  0  0  0  # atno 11005 bound_to 11000
  146.2729  140.4762  142.8807 LP  0  0  0  0  0  0  0  0  0  0  0  0  # atno 17320 bound_to 7965
  144.8343  140.6757  143.6271 LP  0  0  0  0  0  0  0  0  0  0  0  0  # atno 17321 bound_to 7965
  140.7811  143.4063  151.1065 LP  0  0  0  0  0  0  0  0  0  0  0  0  # atno 17342 bound_to 10162
  139.7722  143.8478  152.3122 LP  0  0  0  0  0  0  0  0  0  0  0  0  # atno 17343 bound_to 10162
  156.8275  130.5005  149.5335 LP  0  0  0  0  0  0  0  0  0  0  0  0  # atno 17370 bound_to 10713
  156.1041  130.5991  150.9942 LP  0  0  0  0  0  0  0  0  0  0  0  0  # atno 17371 bound_to 10713
  139.8707  134.9553  156.4203 LP  0  0  0  0  0  0  0  0  0  0  0  0  # atno 17394 bound_to 11000
  140.9063  133.7743  155.9739 LP  0  0  0  0  0  0  0  0  0  0  0  0  # atno 17395 bound_to 11000

$$$$
