AV-unprocessed.smi:1199|AV-procd|sdf|5016|dock7
  -GOLD-   22720 4 33D 1   1.00000     0.00000
 Structure written by MMmdl.
 41 42  0  0  0  0  0  0  0  0  3 V2000
  150.6920  135.7620  155.0616 C   0  0  0  0  0  0  0  0  0  0  0  0
  149.4873  135.1076  155.7507 C   0  0  2  0  0  0  0  0  0  0  0  0
  148.1485  135.5781  155.1357 C   0  0  0  0  0  0  0  0  0  0  0  0
  147.7455  134.8029  153.9328 N   0  3  0  0  0  0  0  0  0  0  0  0
  148.0675  133.3607  154.0412 C   0  0  0  0  0  0  0  0  0  0  0  0
  147.7024  132.6331  152.7361 C   0  0  0  0  0  0  0  0  0  0  0  0
  146.3292  132.8459  152.4303 O   0  0  0  0  0  0  0  0  0  0  0  0
  146.0306  134.2247  152.2481 C   0  0  0  0  0  0  0  0  0  0  0  0
  146.3246  134.9849  153.5516 C   0  0  0  0  0  0  0  0  0  0  0  0
  149.5199  135.4016  157.1826 N   0  0  0  0  0  0  0  0  0  0  0  0
  149.1071  136.5423  157.7572 C   0  0  0  0  0  0  0  0  0  0  0  0
  148.5165  137.4354  157.1488 O   0  0  0  0  0  0  0  0  0  0  0  0
  149.4341  136.7030  159.2451 C   0  0  0  0  0  0  0  0  0  0  0  0
  148.3732  136.1348  160.0870 N   0  0  0  0  0  0  0  0  0  0  0  0
  147.7159  137.1223  160.9419 N   0  5  0  0  0  0  0  0  0  0  0  0
  146.7189  136.7170  161.7729 C   0  0  0  0  0  0  0  0  0  0  0  0
  146.1346  137.4839  162.5342 O   0  0  0  0  0  0  0  0  0  0  0  0
  146.3299  135.3173  161.7449 C   0  0  0  0  0  0  0  0  0  0  0  0
  146.9375  134.4345  160.9283 C   0  0  0  0  0  0  0  0  0  0  0  0
  148.0192  134.8191  160.0303 C   0  0  0  0  0  0  0  0  0  0  0  0
  148.5713  134.0181  159.2765 O   0  0  0  0  0  0  0  0  0  0  0  0
  150.6980  135.5420  153.9937 H   0  0  0  0  0  0  0  0  0  0  0  0
  151.6301  135.3935  155.4780 H   0  0  0  0  0  0  0  0  0  0  0  0
  150.6786  136.8463  155.1782 H   0  0  0  0  0  0  0  0  0  0  0  0
  149.5795  134.0324  155.5914 H   0  0  0  0  0  0  0  0  0  0  0  0
  147.3716  135.4609  155.8930 H   0  0  0  0  0  0  0  0  0  0  0  0
  148.1848  136.6424  154.8984 H   0  0  0  0  0  0  0  0  0  0  0  0
  149.1311  133.2311  154.2442 H   0  0  0  0  0  0  0  0  0  0  0  0
  147.5229  132.9252  154.8804 H   0  0  0  0  0  0  0  0  0  0  0  0
  148.3282  132.9802  151.9147 H   0  0  0  0  0  0  0  0  0  0  0  0
  147.8799  131.5626  152.8388 H   0  0  0  0  0  0  0  0  0  0  0  0
  146.6097  134.6334  151.4183 H   0  0  0  0  0  0  0  0  0  0  0  0
  144.9784  134.3265  151.9831 H   0  0  0  0  0  0  0  0  0  0  0  0
  145.6786  134.6213  154.3520 H   0  0  0  0  0  0  0  0  0  0  0  0
  146.0951  136.0403  153.4142 H   0  0  0  0  0  0  0  0  0  0  0  0
  149.9746  134.7216  157.7751 H   0  0  0  0  0  0  0  0  0  0  0  0
  150.3986  136.2336  159.4449 H   0  0  0  0  0  0  0  0  0  0  0  0
  149.5686  137.7587  159.4893 H   0  0  0  0  0  0  0  0  0  0  0  0
  145.5346  134.9773  162.3921 H   0  0  0  0  0  0  0  0  0  0  0  0
  146.6146  133.4041  160.9403 H   0  0  0  0  0  0  0  0  0  0  0  0
  148.3005  135.1572  153.1653 H   0  0  0  0  0  0  0  0  0  0  0  0
  1  2  1  0  0  0  0
  1 22  1  0  0  0  0
  1 23  1  0  0  0  0
  1 24  1  0  0  0  0
  2  3  1  0  0  0  0
  2 10  1  0  0  0  0
  2 25  1  0  0  0  0
  3  4  1  0  0  0  0
  3 26  1  0  0  0  0
  3 27  1  0  0  0  0
  4  9  1  0  0  0  0
  4  5  1  0  0  0  0
  4 41  1  0  0  0  0
  5  6  1  0  0  0  0
  5 28  1  0  0  0  0
  5 29  1  0  0  0  0
  6  7  1  0  0  0  0
  6 30  1  0  0  0  0
  6 31  1  0  0  0  0
  7  8  1  0  0  0  0
  8  9  1  0  0  0  0
  8 32  1  0  0  0  0
  8 33  1  0  0  0  0
  9 34  1  0  0  0  0
  9 35  1  0  0  0  0
 10 11  1  0  0  0  0
 10 36  1  0  0  0  0
 11 12  2  0  0  0  0
 11 13  1  0  0  0  0
 13 37  1  0  0  0  0
 13 38  1  0  0  0  0
 13 14  1  0  0  0  0
 14 15  1  0  0  0  0
 14 20  1  0  0  0  0
 15 16  1  0  0  0  0
 16 17  2  0  0  0  0
 16 18  1  0  0  0  0
 18 39  1  0  0  0  0
 18 19  2  0  0  0  0
 19 40  1  0  0  0  0
 19 20  1  0  0  0  0
 20 21  2  0  0  0  0
M  CHG  1   4   1
M  CHG  1  15  -1
M  END
> <s_m_source_file>
AV-unprocessed.smi

> <i_m_source_file_index>
1199

> <i_lp_mmshare_version>
43012

> <i_f3d_flags>
0

> <s_epik_input>
W0NIMl0xW0NIMl1PW0NIMl1bQ0gyXU4xW0NIMl1bQ0BASF0oW0NIM10pW05IXUMoPU8pW0NIMl1uMltuSF1jKD1PKVtjSF1bY0hdYzI9Tw==

> <s_epik_cmdline>
J2VwaWtfcHl0aG9uJywgJy1waCcsICc3LjAnLCAnLXRuJywgJzgnLCAnLW1hJywgJzIwMCcsICctbWV0YWxfYmluZGluZycsICctaW1hZScsICc8aW5maWxlLm1hZT4nLCAnLW9tYWUnLCAnPG91dGZpbGUubWFlPic=

> <r_lp_tautomer_probability>
1

> <r_epik_Ionization_Penalty>
0.741876

> <r_epik_Ionization_Penalty_Charging>
0.741876

> <r_epik_Ionization_Penalty_Neutral>
9.12373e-08

> <r_epik_State_Penalty>
0.692284

> <r_epik_Charging_Adjusted_Penalty>
1.43416

> <i_epik_Tot_Q>
0

> <i_epik_Tot_abs_Q>
2

> <r_epik_Metal_State_Penalty>
0.692284

> <b_epik_Metal_Only>
0

> <s_lp_Force_Field>
OPLS_2005

> <r_lp_Energy>
28.0654

> <b_lp_Chiralities_Consistent>
1

> <s_lp_Variant>
AV-unprocessed.smi:1199-3

> <Gold.Version>
5.8.1

> <Gold.Id.Protein>
6NUR|6NUR_protein|mol2

> <Gold.PLP.Fitness>
44.5291

> <Gold.PLP.PLP>
-26.7099

> <Gold.PLP.part.hbond>
-4.0771

> <Gold.PLP.part.metal>
0.0000

> <Gold.PLP.part.buried>
-2.9746

> <Gold.PLP.part.nonpolar>
-19.7069

> <Gold.PLP.part.repulsive>
0.1891

> <Gold.PLP.ligand.clash>
0.0000

> <Gold.PLP.ligand.torsion>
1.1008

> <Gold.PLP.Chemscore.Hbond>
6.6480

> <Gold.PLP.Chemscore.CHOScore>
0.0000

> <Gold.PLP.Chemscore.Metal>
0.0000

> <Gold.Chemscore.Hbonds>
donor molecule, donor type, donor heavy atom, donor atom, acceptor molecule, acceptor atom, score
      L1  H     4    41       P1  7948  2.00
      P1  H  6896  6909       L1    21  0.90
      P1  H  6931  6943       L1    15  1.82
      P1  H  6934  6947       L1    15  1.43

> <Gold.PLP.Chemscore.Internal.Correction>
0.0768

> <Gold.Rescore>
     Score         DG    S(hbond)    S(metal)    S(lipo)     H(rot)  DE(clash)    DE(int)     intcor
     10.74     -14.55       2.93        0.00      45.74       2.37       0.03       3.78       ----

> <Gold.Chemscore.Fitness>
10.7427

> <Gold.Chemscore.DG>
-14.5532

> <Gold.Chemscore.ZeroCoef>
-5.4800

> <Gold.Chemscore.Hbond>
2.9342

> <Gold.Chemscore.Metal>
0.0000

> <Gold.Chemscore.Lipo>
45.7441

> <Gold.Chemscore.Internal_Hbond>
0.0000

> <Gold.Chemscore.DEClash>
0.0270

> <Gold.Chemscore.DEInternal>
3.7835

> <Gold.Chemscore.Rot>
2.3747

> <Gold.Chemscore.Internal.Correction>
   9.000000E+99

> <Gold.Chemscore.Hbonds>
donor molecule, donor type, donor heavy atom, donor atom, acceptor molecule, acceptor atom, score
      L1  H     4    41       P1  7948  0.94
      P1  H  6896  6909       L1    21  0.69
      P1  H  6931  6943       L1    15  0.56
      P1  H  6934  6947       L1    15  0.10

> <Gold.Chemscore.Hbond.Weighted>
-9.8003

> <Gold.Chemscore.Metal.Weighted>
-0.0000

> <Gold.Chemscore.Lipo.Weighted>
-5.3521

> <Gold.Chemscore.Internal_Hbond.Weighted>
0.0000

> <Gold.Chemscore.DEClash.Weighted>
0.0270

> <Gold.Chemscore.DEInternal.Weighted>
3.7835

> <Gold.Chemscore.Rot.Weighted>
6.0791

> <Gold.Chemscore.Internal.Correction.Weighted>
   9.000000E+99

> <Gold.Protein.RotatedTorsions>
[ 6907 6896 6895 6894 ] final   22.49 input  -60.11 | X-H torsion
[ 7974 7965 7964 7962 ] final   73.80 input  175.53 | X-H torsion
[ 8008 7997 7996 7995 ] final   99.40 input   59.86 | X-H torsion
[ 10167 10162 10161 10158 ] final   -4.28 input  -65.29 | X-H torsion
[ 10718 10713 10712 10709 ] final  -56.31 input   66.30 | X-H torsion
[ 10763 10752 10751 10750 ] final   86.33 input  -60.55 | X-H torsion
[ 11005 11000 10999 10996 ] final -122.94 input  -57.11 | X-H torsion

> <Gold.Protein.ActiveResidues>
 VAL166  LYS551  ARG553  GLY616  TRP617  ASP618  TYR619  PRO620  LYS621  CYS622 
 ASP623  PHE694  ASN695  SER759  ASP760  ASP761  ALA762  ILE779  LEU786  VAL792 
 PHE793  MET794  SER795  GLU796  ALA797  LYS798  CYS799  TRP800  GLU811  SER814 

> <Gold.Protein.RotatedAtoms>
  151.9279  135.0269  160.0526 H   0  0  0  0  0  0  0  0  0  0  0  0  # atno 6907 bound_to 6896
  152.2143  133.4930  159.5136 H   0  0  0  0  0  0  0  0  0  0  0  0  # atno 6908 bound_to 6896
  150.6984  134.1342  159.4124 H   0  0  0  0  0  0  0  0  0  0  0  0  # atno 6909 bound_to 6896
  145.7362  139.2703  143.1512 H   0  0  0  0  0  0  0  0  0  0  0  0  # atno 7974 bound_to 7965
  156.1101  140.3229  155.8060 H   0  0  0  0  0  0  0  0  0  0  0  0  # atno 8008 bound_to 7997
  155.4688  140.0545  157.2999 H   0  0  0  0  0  0  0  0  0  0  0  0  # atno 8009 bound_to 7997
  154.4754  140.2030  155.9906 H   0  0  0  0  0  0  0  0  0  0  0  0  # atno 8010 bound_to 7997
  140.6922  143.6441  150.8408 H   0  0  0  0  0  0  0  0  0  0  0  0  # atno 10167 bound_to 10162
  156.1298  130.4160  150.0288 H   0  0  0  0  0  0  0  0  0  0  0  0  # atno 10718 bound_to 10713
  153.1560  135.4584  154.9705 H   0  0  0  0  0  0  0  0  0  0  0  0  # atno 10763 bound_to 10752
  154.7862  135.3205  154.7884 H   0  0  0  0  0  0  0  0  0  0  0  0  # atno 10764 bound_to 10752
  153.8381  135.6932  153.4860 H   0  0  0  0  0  0  0  0  0  0  0  0  # atno 10765 bound_to 10752
  140.9957  134.0475  157.3600 H   0  0  0  0  0  0  0  0  0  0  0  0  # atno 11005 bound_to 11000
  146.0491  140.8088  142.9791 LP  0  0  0  0  0  0  0  0  0  0  0  0  # atno 17320 bound_to 7965
  144.6881  140.3025  143.7261 LP  0  0  0  0  0  0  0  0  0  0  0  0  # atno 17321 bound_to 7965
  140.0156  143.5597  152.2821 LP  0  0  0  0  0  0  0  0  0  0  0  0  # atno 17342 bound_to 10162
  139.6336  144.7647  151.2484 LP  0  0  0  0  0  0  0  0  0  0  0  0  # atno 17343 bound_to 10162
  156.8203  130.9356  151.3641 LP  0  0  0  0  0  0  0  0  0  0  0  0  # atno 17370 bound_to 10713
  157.6477  130.8858  149.9571 LP  0  0  0  0  0  0  0  0  0  0  0  0  # atno 17371 bound_to 10713
  139.9013  135.0165  156.7284 LP  0  0  0  0  0  0  0  0  0  0  0  0  # atno 17394 bound_to 11000
  140.6969  133.9340  155.8000 LP  0  0  0  0  0  0  0  0  0  0  0  0  # atno 17395 bound_to 11000

$$$$
