AV-unprocessed.smi:2739|AV-procd|sdf|10551|dock9
  -GOLD-   2272015 03D 1   1.00000     0.00000
 Structure written by MMmdl.
 35 35  0  0  0  0  0  0  0  0  1 V2000
  151.7678  144.7779  160.6548 C   0  0  0  0  0  0  0  0  0  0  0  0
  150.8082  144.3286  159.5433 C   0  0  0  0  0  0  0  0  0  0  0  0
  151.3694  144.5201  158.1168 C   0  0  1  0  0  0  0  0  0  0  0  0
  152.9028  144.3985  158.0679 C   0  0  0  0  0  0  0  0  0  0  0  0
  150.7303  143.6479  157.1281 N   0  0  0  0  0  0  0  0  0  0  0  0
  150.5441  142.3187  157.2083 C   0  0  0  0  0  0  0  0  0  0  0  0
  150.8812  141.6341  158.1735 O   0  0  0  0  0  0  0  0  0  0  0  0
  149.8741  141.6567  156.0042 C   0  0  0  0  0  0  0  0  0  0  0  0
  150.5733  140.4427  155.6237 N   0  0  0  0  0  0  0  0  0  0  0  0
  150.4239  139.6919  154.4775 C   0  0  0  0  0  0  0  0  0  0  0  0
  151.2860  138.6374  154.5691 C   0  0  0  0  0  0  0  0  0  0  0  0
  151.9310  138.8248  155.8265 C   0  0  0  0  0  0  0  0  0  0  0  0
  152.9921  137.9741  156.4749 C   0  0  2  0  0  0  0  0  0  0  0  0
  152.4224  136.6306  156.9503 C   0  0  0  0  0  0  0  0  0  0  0  0
  153.5892  138.6184  157.5813 O   0  0  0  0  0  0  0  0  0  0  0  0
  151.4988  139.9109  156.4512 N   0  0  0  0  0  0  0  0  0  0  0  0
  151.3426  144.5709  161.6371 H   0  0  0  0  0  0  0  0  0  0  0  0
  151.9686  145.8482  160.6033 H   0  0  0  0  0  0  0  0  0  0  0  0
  152.7211  144.2530  160.5879 H   0  0  0  0  0  0  0  0  0  0  0  0
  150.5786  143.2729  159.6922 H   0  0  0  0  0  0  0  0  0  0  0  0
  149.8594  144.8546  159.6517 H   0  0  0  0  0  0  0  0  0  0  0  0
  151.1229  145.5360  157.8058 H   0  0  0  0  0  0  0  0  0  0  0  0
  153.3727  145.1439  158.7099 H   0  0  0  0  0  0  0  0  0  0  0  0
  153.2771  144.5552  157.0558 H   0  0  0  0  0  0  0  0  0  0  0  0
  153.2439  143.4184  158.4018 H   0  0  0  0  0  0  0  0  0  0  0  0
  150.4115  144.1008  156.2835 H   0  0  0  0  0  0  0  0  0  0  0  0
  148.8401  141.4046  156.2436 H   0  0  0  0  0  0  0  0  0  0  0  0
  149.8493  142.3473  155.1595 H   0  0  0  0  0  0  0  0  0  0  0  0
  149.7233  139.9670  153.7028 H   0  0  0  0  0  0  0  0  0  0  0  0
  151.4342  137.8491  153.8461 H   0  0  0  0  0  0  0  0  0  0  0  0
  153.7888  137.7784  155.7561 H   0  0  0  0  0  0  0  0  0  0  0  0
  151.9982  136.0680  156.1180 H   0  0  0  0  0  0  0  0  0  0  0  0
  151.6341  136.7737  157.6905 H   0  0  0  0  0  0  0  0  0  0  0  0
  153.1976  136.0118  157.4033 H   0  0  0  0  0  0  0  0  0  0  0  0
  153.6820  137.9874  158.2788 H   0  0  0  0  0  0  0  0  0  0  0  0
  1  2  1  0  0  0  0
  1 17  1  0  0  0  0
  1 18  1  0  0  0  0
  1 19  1  0  0  0  0
  2  3  1  0  0  0  0
  2 20  1  0  0  0  0
  2 21  1  0  0  0  0
  3  4  1  0  0  0  0
  3  5  1  0  0  0  0
  3 22  1  0  0  0  0
  4 23  1  0  0  0  0
  4 24  1  0  0  0  0
  4 25  1  0  0  0  0
  5  6  1  0  0  0  0
  5 26  1  0  0  0  0
  6  7  2  0  0  0  0
  6  8  1  0  0  0  0
  8  9  1  0  0  0  0
  8 27  1  0  0  0  0
  8 28  1  0  0  0  0
  9 16  1  0  0  0  0
  9 10  1  0  0  0  0
 10 11  2  0  0  0  0
 10 29  1  0  0  0  0
 11 12  1  0  0  0  0
 11 30  1  0  0  0  0
 12 13  1  0  0  0  0
 12 16  2  0  0  0  0
 13 14  1  0  0  0  0
 13 15  1  0  0  0  0
 13 31  1  0  0  0  0
 14 32  1  0  0  0  0
 14 33  1  0  0  0  0
 14 34  1  0  0  0  0
 15 35  1  0  0  0  0
M  END
> <s_m_source_file>
AV-unprocessed.smi

> <i_m_source_file_index>
2739

> <i_lp_mmshare_version>
43012

> <i_f3d_flags>
0

> <s_epik_input>
W0NIM11bQ0gyXVtDQEhdKFtDSDNdKVtOSF1DKD1PKVtDSDJdbjFbY0hdW2NIXWMobjEpW0NASF0oW0NIM10pW09IXQ==

> <s_epik_cmdline>
J2VwaWtfcHl0aG9uJywgJy1waCcsICc3LjAnLCAnLXRuJywgJzgnLCAnLW1hJywgJzIwMCcsICctbWV0YWxfYmluZGluZycsICctaW1hZScsICc8aW5maWxlLm1hZT4nLCAnLW9tYWUnLCAnPG91dGZpbGUubWFlPic=

> <r_lp_tautomer_probability>
1

> <r_epik_Ionization_Penalty>
5.22246e-06

> <r_epik_Ionization_Penalty_Charging>
0

> <r_epik_Ionization_Penalty_Neutral>
5.22246e-06

> <r_epik_State_Penalty>
-0

> <r_epik_Charging_Adjusted_Penalty>
0

> <i_epik_Tot_Q>
0

> <i_epik_Tot_abs_Q>
0

> <r_epik_Metal_State_Penalty>
-0

> <b_epik_Metal_Only>
0

> <s_lp_Force_Field>
OPLS_2005

> <r_lp_Energy>
1.58762

> <b_lp_Chiralities_Consistent>
1

> <s_lp_Variant>
AV-unprocessed.smi:2739-2

> <Gold.Version>
5.8.1

> <Gold.Id.Protein>
6NUR|6NUR_protein|mol2

> <Gold.PLP.Fitness>
40.1695

> <Gold.PLP.PLP>
-33.7315

> <Gold.PLP.part.hbond>
-2.0000

> <Gold.PLP.part.metal>
0.0000

> <Gold.PLP.part.buried>
-1.2764

> <Gold.PLP.part.nonpolar>
-30.7222

> <Gold.PLP.part.repulsive>
0.0276

> <Gold.PLP.ligand.clash>
0.0000

> <Gold.PLP.ligand.torsion>
1.0166

> <Gold.PLP.Chemscore.Hbond>
1.8160

> <Gold.PLP.Chemscore.CHOScore>
0.9792

> <Gold.PLP.Chemscore.Metal>
0.0000

> <Gold.Chemscore.Hbonds>
donor molecule, donor type, donor heavy atom, donor atom, acceptor molecule, acceptor atom, score
      L1  H     5    26       P1  8028  0.75
      P1  H  7997  8008       L1    15  1.00
      L1  C    10    29       P1  7957  0.97

> <Gold.PLP.Chemscore.Internal.Correction>
0.0855

> <Gold.Rescore>
     Score         DG    S(hbond)    S(metal)    S(lipo)     H(rot)  DE(clash)    DE(int)     intcor
     13.14     -16.07       1.91        0.00      87.37       2.34       0.05       2.88       ----

> <Gold.Chemscore.Fitness>
13.1393

> <Gold.Chemscore.DG>
-16.0658

> <Gold.Chemscore.ZeroCoef>
-5.4800

> <Gold.Chemscore.Hbond>
1.9061

> <Gold.Chemscore.Metal>
0.0000

> <Gold.Chemscore.Lipo>
87.3699

> <Gold.Chemscore.Internal_Hbond>
0.0000

> <Gold.Chemscore.DEClash>
0.0476

> <Gold.Chemscore.DEInternal>
2.8789

> <Gold.Chemscore.Rot>
2.3448

> <Gold.Chemscore.Internal.Correction>
   9.000000E+99

> <Gold.Chemscore.Hbonds>
donor molecule, donor type, donor heavy atom, donor atom, acceptor molecule, acceptor atom, score
      L1  H     5    26       P1  8028  0.74
      P1  H  7997  8008       L1    15  0.33

> <Gold.Chemscore.Hbond.Weighted>
-6.3662

> <Gold.Chemscore.Metal.Weighted>
-0.0000

> <Gold.Chemscore.Lipo.Weighted>
-10.2223

> <Gold.Chemscore.Internal_Hbond.Weighted>
0.0000

> <Gold.Chemscore.DEClash.Weighted>
0.0476

> <Gold.Chemscore.DEInternal.Weighted>
2.8789

> <Gold.Chemscore.Rot.Weighted>
6.0027

> <Gold.Chemscore.Internal.Correction.Weighted>
   9.000000E+99

> <Gold.Protein.RotatedTorsions>
[ 6907 6896 6895 6894 ] final  -32.66 input  -60.11 | X-H torsion
[ 7974 7965 7964 7962 ] final -161.71 input  175.53 | X-H torsion
[ 8008 7997 7996 7995 ] final  -69.13 input   59.86 | X-H torsion
[ 10167 10162 10161 10158 ] final   77.52 input  -65.29 | X-H torsion
[ 10718 10713 10712 10709 ] final   11.70 input   66.30 | X-H torsion
[ 10763 10752 10751 10750 ] final -100.62 input  -60.55 | X-H torsion
[ 11005 11000 10999 10996 ] final  -49.30 input  -57.11 | X-H torsion

> <Gold.Protein.ActiveResidues>
 VAL166  LYS551  ARG553  GLY616  TRP617  ASP618  TYR619  PRO620  LYS621  CYS622 
 ASP623  PHE694  ASN695  SER759  ASP760  ASP761  ALA762  ILE779  LEU786  VAL792 
 PHE793  MET794  SER795  GLU796  ALA797  LYS798  CYS799  TRP800  GLU811  SER814 

> <Gold.Protein.RotatedAtoms>
  151.0758  134.9827  159.8331 H   0  0  0  0  0  0  0  0  0  0  0  0  # atno 6907 bound_to 6896
  152.5414  134.2243  159.8810 H   0  0  0  0  0  0  0  0  0  0  0  0  # atno 6908 bound_to 6896
  151.2270  133.4427  159.2636 H   0  0  0  0  0  0  0  0  0  0  0  0  # atno 6909 bound_to 6896
  144.7382  140.3359  143.6144 H   0  0  0  0  0  0  0  0  0  0  0  0  # atno 7974 bound_to 7965
  154.4916  140.0859  156.7607 H   0  0  0  0  0  0  0  0  0  0  0  0  # atno 8008 bound_to 7997
  155.4216  140.3446  155.4253 H   0  0  0  0  0  0  0  0  0  0  0  0  # atno 8009 bound_to 7997
  156.1338  140.1509  156.9013 H   0  0  0  0  0  0  0  0  0  0  0  0  # atno 8010 bound_to 7997
  139.9807  144.5829  150.7903 H   0  0  0  0  0  0  0  0  0  0  0  0  # atno 10167 bound_to 10162
  156.9994  130.6074  149.5694 H   0  0  0  0  0  0  0  0  0  0  0  0  # atno 10718 bound_to 10713
  154.7593  135.4928  153.9434 H   0  0  0  0  0  0  0  0  0  0  0  0  # atno 10763 bound_to 10752
  153.1233  135.6736  153.9307 H   0  0  0  0  0  0  0  0  0  0  0  0  # atno 10764 bound_to 10752
  153.9032  135.3107  155.3427 H   0  0  0  0  0  0  0  0  0  0  0  0  # atno 10765 bound_to 10752
  141.0751  133.6668  156.3566 H   0  0  0  0  0  0  0  0  0  0  0  0  # atno 11005 bound_to 11000
  145.7424  139.1768  143.2368 LP  0  0  0  0  0  0  0  0  0  0  0  0  # atno 17320 bound_to 7965
  146.1123  140.7412  142.9497 LP  0  0  0  0  0  0  0  0  0  0  0  0  # atno 17321 bound_to 7965
  140.7490  143.2931  151.3276 LP  0  0  0  0  0  0  0  0  0  0  0  0  # atno 17342 bound_to 10162
  139.6412  144.0536  152.2556 LP  0  0  0  0  0  0  0  0  0  0  0  0  # atno 17343 bound_to 10162
  156.0177  130.5271  150.8182 LP  0  0  0  0  0  0  0  0  0  0  0  0  # atno 17370 bound_to 10713
  157.5401  131.0940  150.9839 LP  0  0  0  0  0  0  0  0  0  0  0  0  # atno 17371 bound_to 10713
  140.5590  134.5952  157.5428 LP  0  0  0  0  0  0  0  0  0  0  0  0  # atno 17394 bound_to 11000
  139.9563  134.7529  156.0334 LP  0  0  0  0  0  0  0  0  0  0  0  0  # atno 17395 bound_to 11000

$$$$
