AV-unprocessed.smi:580|AV-procd|sdf|2989|dock10
  -GOLD-   2262023493D 1   1.00000     0.00000
 Structure written by MMmdl.
 36 37  0  0  0  0  0  0  0  0  1 V2000
  151.7427  140.8853  156.4837 C   0  0  0  0  0  0  0  0  0  0  0  0
  151.5962  139.5270  155.8881 C   0  0  0  0  0  0  0  0  0  0  0  0
  150.5239  138.8367  155.3969 C   0  0  0  0  0  0  0  0  0  0  0  0
  151.0976  137.6035  154.9878 C   0  0  0  0  0  0  0  0  0  0  0  0
  150.2982  136.5846  154.4092 N   0  0  0  0  0  0  0  0  0  0  0  0
  150.0176  135.3747  154.9227 C   0  0  0  0  0  0  0  0  0  0  0  0
  150.4261  134.9515  156.0046 O   0  0  0  0  0  0  0  0  0  0  0  0
  149.2309  134.6659  154.0993 N   0  0  0  0  0  0  0  0  0  0  0  0
  148.7587  133.3074  154.3501 C   0  0  2  0  0  0  0  0  0  0  0  0
  149.9390  132.3792  154.6989 C   0  0  0  0  0  0  0  0  0  0  0  0
  149.4742  130.9273  154.8958 C   0  0  0  0  0  0  0  0  0  0  0  0
  148.7155  130.4000  153.6629 C   0  0  1  0  0  0  0  0  0  0  0  0
  148.2457  128.9531  153.8702 C   0  0  0  0  0  0  0  0  0  0  0  0
  147.5374  131.3317  153.3192 C   0  0  0  0  0  0  0  0  0  0  0  0
  148.0035  132.7825  153.1156 C   0  0  0  0  0  0  0  0  0  0  0  0
  152.4016  137.5455  155.2112 N   0  0  0  0  0  0  0  0  0  0  0  0
  152.7278  138.7777  155.7897 O   0  0  0  0  0  0  0  0  0  0  0  0
  150.8435  141.4801  156.3231 H   0  0  0  0  0  0  0  0  0  0  0  0
  152.5829  141.4164  156.0359 H   0  0  0  0  0  0  0  0  0  0  0  0
  151.9176  140.8187  157.5576 H   0  0  0  0  0  0  0  0  0  0  0  0
  149.4967  139.1646  155.3394 H   0  0  0  0  0  0  0  0  0  0  0  0
  149.9033  136.7974  153.5050 H   0  0  0  0  0  0  0  0  0  0  0  0
  148.9431  135.0928  153.2310 H   0  0  0  0  0  0  0  0  0  0  0  0
  148.0613  133.3220  155.1902 H   0  0  0  0  0  0  0  0  0  0  0  0
  150.6852  132.4149  153.9039 H   0  0  0  0  0  0  0  0  0  0  0  0
  150.4372  132.7272  155.6046 H   0  0  0  0  0  0  0  0  0  0  0  0
  150.3379  130.2941  155.1012 H   0  0  0  0  0  0  0  0  0  0  0  0
  148.8334  130.8694  155.7767 H   0  0  0  0  0  0  0  0  0  0  0  0
  149.4045  130.4035  152.8171 H   0  0  0  0  0  0  0  0  0  0  0  0
  147.5519  128.8776  154.7080 H   0  0  0  0  0  0  0  0  0  0  0  0
  149.0886  128.2925  154.0754 H   0  0  0  0  0  0  0  0  0  0  0  0
  147.7385  128.5740  152.9824 H   0  0  0  0  0  0  0  0  0  0  0  0
  147.0344  130.9805  152.4174 H   0  0  0  0  0  0  0  0  0  0  0  0
  146.7955  131.2987  154.1183 H   0  0  0  0  0  0  0  0  0  0  0  0
  147.1419  133.4179  152.9068 H   0  0  0  0  0  0  0  0  0  0  0  0
  148.6470  132.8350  152.2359 H   0  0  0  0  0  0  0  0  0  0  0  0
  1  2  1  0  0  0  0
  1 18  1  0  0  0  0
  1 19  1  0  0  0  0
  1 20  1  0  0  0  0
  2 17  1  0  0  0  0
  2  3  2  0  0  0  0
  3  4  1  0  0  0  0
  3 21  1  0  0  0  0
  4  5  1  0  0  0  0
  4 16  2  0  0  0  0
  5  6  1  0  0  0  0
  5 22  1  0  0  0  0
  6  7  2  0  0  0  0
  6  8  1  0  0  0  0
  8  9  1  0  0  0  0
  8 23  1  0  0  0  0
  9 15  1  0  0  0  0
  9 10  1  0  0  0  0
  9 24  1  0  0  0  0
 10 11  1  0  0  0  0
 10 25  1  0  0  0  0
 10 26  1  0  0  0  0
 11 12  1  0  0  0  0
 11 27  1  0  0  0  0
 11 28  1  0  0  0  0
 12 13  1  0  0  0  0
 12 14  1  0  0  0  0
 12 29  1  0  0  0  0
 13 30  1  0  0  0  0
 13 31  1  0  0  0  0
 13 32  1  0  0  0  0
 14 15  1  0  0  0  0
 14 33  1  0  0  0  0
 14 34  1  0  0  0  0
 15 35  1  0  0  0  0
 15 36  1  0  0  0  0
 16 17  1  0  0  0  0
M  END
> <s_m_source_file>
AV-unprocessed.smi

> <i_m_source_file_index>
580

> <i_lp_mmshare_version>
43012

> <i_f3d_flags>
0

> <s_epik_input>
W0NIM11jMVtjSF1jKG5vMSlbTkhdQyg9TylbTkhdW0NAQEhdMltDSDJdW0NIMl1bQ0BASF0oW0NIM10pW0NIMl1bQ0gyXTI=

> <s_epik_cmdline>
J2VwaWtfcHl0aG9uJywgJy1waCcsICc3LjAnLCAnLXRuJywgJzgnLCAnLW1hJywgJzIwMCcsICctbWV0YWxfYmluZGluZycsICctaW1hZScsICc8aW5maWxlLm1hZT4nLCAnLW9tYWUnLCAnPG91dGZpbGUubWFlPic=

> <r_lp_tautomer_probability>
1

> <r_epik_Ionization_Penalty>
2.357e-05

> <r_epik_Ionization_Penalty_Charging>
0

> <r_epik_Ionization_Penalty_Neutral>
2.357e-05

> <r_epik_State_Penalty>
-0

> <r_epik_Charging_Adjusted_Penalty>
0

> <i_epik_Tot_Q>
0

> <i_epik_Tot_abs_Q>
0

> <r_epik_Metal_State_Penalty>
-0

> <b_epik_Metal_Only>
0

> <s_lp_Force_Field>
OPLS_2005

> <r_lp_Energy>
6.68451

> <b_lp_Chiralities_Consistent>
1

> <s_lp_Variant>
AV-unprocessed.smi:580-1

> <Gold.Version>
5.8.1

> <Gold.Id.Protein>
6NUR|6NUR_protein|mol2

> <Gold.PLP.Fitness>
38.0533

> <Gold.PLP.PLP>
-29.3286

> <Gold.PLP.part.hbond>
-4.9484

> <Gold.PLP.part.metal>
0.0000

> <Gold.PLP.part.buried>
-4.2643

> <Gold.PLP.part.nonpolar>
-20.7523

> <Gold.PLP.part.repulsive>
0.1748

> <Gold.PLP.ligand.clash>
0.0000

> <Gold.PLP.ligand.torsion>
0.6759

> <Gold.PLP.Chemscore.Hbond>
3.3579

> <Gold.PLP.Chemscore.CHOScore>
0.0000

> <Gold.PLP.Chemscore.Metal>
0.0000

> <Gold.Chemscore.Hbonds>
donor molecule, donor type, donor heavy atom, donor atom, acceptor molecule, acceptor atom, score
      L1  H     5    22       P1  7948  1.00
      L1  H     8    23       P1  7948  1.00
      P1  H  7997  8009       L1    17  0.65
      P1  H 10752 10765       L1    16  0.48

> <Gold.PLP.Chemscore.Internal.Correction>
0.0029

> <Gold.Rescore>
     Score         DG    S(hbond)    S(metal)    S(lipo)     H(rot)  DE(clash)    DE(int)     intcor
     15.30     -16.07       2.12        0.00      51.98       1.00       0.08       0.69       ----

> <Gold.Chemscore.Fitness>
15.3040

> <Gold.Chemscore.DG>
-16.0743

> <Gold.Chemscore.ZeroCoef>
-5.4800

> <Gold.Chemscore.Hbond>
2.1174

> <Gold.Chemscore.Metal>
0.0000

> <Gold.Chemscore.Lipo>
51.9845

> <Gold.Chemscore.Internal_Hbond>
0.0000

> <Gold.Chemscore.DEClash>
0.0811

> <Gold.Chemscore.DEInternal>
0.6893

> <Gold.Chemscore.Rot>
1.0000

> <Gold.Chemscore.Internal.Correction>
   9.000000E+99

> <Gold.Chemscore.Hbonds>
donor molecule, donor type, donor heavy atom, donor atom, acceptor molecule, acceptor atom, score
      L1  H     5    22       P1  7948  0.28
      L1  H     8    23       P1  7948  0.34
      P1  H  7997  8009       L1    17  0.35
      P1  H 10752 10765       L1    16  0.21

> <Gold.Chemscore.Hbond.Weighted>
-7.0721

> <Gold.Chemscore.Metal.Weighted>
-0.0000

> <Gold.Chemscore.Lipo.Weighted>
-6.0822

> <Gold.Chemscore.Internal_Hbond.Weighted>
0.0000

> <Gold.Chemscore.DEClash.Weighted>
0.0811

> <Gold.Chemscore.DEInternal.Weighted>
0.6893

> <Gold.Chemscore.Rot.Weighted>
2.5600

> <Gold.Chemscore.Internal.Correction.Weighted>
   9.000000E+99

> <Gold.Protein.RotatedTorsions>
[ 6907 6896 6895 6894 ] final   56.82 input  -60.11 | X-H torsion
[ 7974 7965 7964 7962 ] final -152.25 input  175.53 | X-H torsion
[ 8008 7997 7996 7995 ] final -145.79 input   59.86 | X-H torsion
[ 10167 10162 10161 10158 ] final  -90.89 input  -65.29 | X-H torsion
[ 10718 10713 10712 10709 ] final   52.56 input   66.30 | X-H torsion
[ 10763 10752 10751 10750 ] final  169.89 input  -60.55 | X-H torsion
[ 11005 11000 10999 10996 ] final -166.88 input  -57.11 | X-H torsion

> <Gold.Protein.ActiveResidues>
 VAL166  LYS551  ARG553  GLY616  TRP617  ASP618  TYR619  PRO620  LYS621  CYS622 
 ASP623  PHE694  ASN695  SER759  ASP760  ASP761  ALA762  ILE779  LEU786  VAL792 
 PHE793  MET794  SER795  GLU796  ALA797  LYS798  CYS799  TRP800  GLU811  SER814 

> <Gold.Protein.RotatedAtoms>
  152.3673  134.6786  160.0187 H   0  0  0  0  0  0  0  0  0  0  0  0  # atno 6907 bound_to 6896
  151.7090  133.3306  159.3294 H   0  0  0  0  0  0  0  0  0  0  0  0  # atno 6908 bound_to 6896
  150.7647  134.6484  159.6319 H   0  0  0  0  0  0  0  0  0  0  0  0  # atno 6909 bound_to 6896
  144.7804  140.4687  143.5843 H   0  0  0  0  0  0  0  0  0  0  0  0  # atno 7974 bound_to 7965
  155.5489  140.0615  157.2854 H   0  0  0  0  0  0  0  0  0  0  0  0  # atno 8008 bound_to 7997
  154.4427  140.1906  156.0711 H   0  0  0  0  0  0  0  0  0  0  0  0  # atno 8009 bound_to 7997
  156.0531  140.3282  155.7377 H   0  0  0  0  0  0  0  0  0  0  0  0  # atno 8010 bound_to 7997
  140.3504  143.2894  151.9732 H   0  0  0  0  0  0  0  0  0  0  0  0  # atno 10167 bound_to 10162
  157.5086  130.8485  149.8406 H   0  0  0  0  0  0  0  0  0  0  0  0  # atno 10718 bound_to 10713
  154.3896  135.2754  155.2162 H   0  0  0  0  0  0  0  0  0  0  0  0  # atno 10763 bound_to 10752
  154.4234  135.5994  153.6027 H   0  0  0  0  0  0  0  0  0  0  0  0  # atno 10764 bound_to 10752
  152.9832  135.5978  154.4149 H   0  0  0  0  0  0  0  0  0  0  0  0  # atno 10765 bound_to 10752
  140.5595  134.5348  157.5140 H   0  0  0  0  0  0  0  0  0  0  0  0  # atno 11005 bound_to 11000
  145.6065  139.1509  143.3099 LP  0  0  0  0  0  0  0  0  0  0  0  0  # atno 17320 bound_to 7965
  146.2009  140.6184  142.9103 LP  0  0  0  0  0  0  0  0  0  0  0  0  # atno 17321 bound_to 7965
  139.4827  144.6081  151.7485 LP  0  0  0  0  0  0  0  0  0  0  0  0  # atno 17342 bound_to 10162
  140.5224  144.0858  150.6027 LP  0  0  0  0  0  0  0  0  0  0  0  0  # atno 17343 bound_to 10162
  156.0274  130.3775  150.1784 LP  0  0  0  0  0  0  0  0  0  0  0  0  # atno 17370 bound_to 10713
  156.9973  130.9911  151.3400 LP  0  0  0  0  0  0  0  0  0  0  0  0  # atno 17371 bound_to 10713
  139.9415  134.7778  156.0667 LP  0  0  0  0  0  0  0  0  0  0  0  0  # atno 17394 bound_to 11000
  141.1123  133.6639  156.3009 LP  0  0  0  0  0  0  0  0  0  0  0  0  # atno 17395 bound_to 11000

$$$$
