AV-unprocessed.smi:917|AV-procd|sdf|4162|dock8
  -GOLD-   22720 2 73D 1   1.00000     0.00000
 Structure written by MMmdl.
 43 44  0  0  0  0  0  0  0  0  1 V2000
  145.7423  143.5732  153.5704 C   0  0  0  0  0  0  0  0  0  0  0  0
  146.0671  142.8055  154.8195 C   0  0  0  0  0  0  0  0  0  0  0  0
  145.3702  143.0243  155.9219 N   0  0  0  0  0  0  0  0  0  0  0  0
  145.9047  142.1675  156.8889 O   0  0  0  0  0  0  0  0  0  0  0  0
  146.9154  141.4591  156.3247 C   0  0  0  0  0  0  0  0  0  0  0  0
  147.6124  140.4792  157.2066 C   0  0  0  0  0  0  0  0  0  0  0  0
  147.0749  141.8178  155.0138 C   0  0  0  0  0  0  0  0  0  0  0  0
  148.0666  141.2987  154.0046 C   0  0  0  0  0  0  0  0  0  0  0  0
  149.4393  141.1569  154.6624 C   0  0  0  0  0  0  0  0  0  0  0  0
  150.1667  140.2075  154.3705 O   0  0  0  0  0  0  0  0  0  0  0  0
  149.7722  142.0960  155.5611 N   0  0  0  0  0  0  0  0  0  0  0  0
  151.0004  142.1060  156.3458 C   0  0  0  0  0  0  0  0  0  0  0  0
  150.7325  141.6918  157.8014 C   0  0  0  0  0  0  0  0  0  0  0  0
  152.0190  141.6217  158.6383 C   0  0  0  0  0  0  0  0  0  0  0  0
  152.4914  142.9971  159.1419 C   0  0  0  0  0  0  0  0  0  0  0  0
  151.8827  143.3957  160.4877 C   0  0  0  0  0  0  0  0  0  0  0  0
  152.0958  144.9090  160.5776 C   0  0  0  0  0  0  0  0  0  0  0  0
  152.1624  145.4157  159.1289 C   0  0  0  0  0  0  0  0  0  0  0  0
  152.1161  144.1719  158.2319 C   0  0  0  0  0  0  0  0  0  0  0  0
  145.6798  142.9077  152.7091 H   0  0  0  0  0  0  0  0  0  0  0  0
  146.5117  144.3161  153.3603 H   0  0  0  0  0  0  0  0  0  0  0  0
  144.7882  144.0957  153.6530 H   0  0  0  0  0  0  0  0  0  0  0  0
  148.1772  139.7554  156.6195 H   0  0  0  0  0  0  0  0  0  0  0  0
  146.8958  139.9289  157.8167 H   0  0  0  0  0  0  0  0  0  0  0  0
  148.3068  140.9881  157.8752 H   0  0  0  0  0  0  0  0  0  0  0  0
  147.7672  140.3254  153.6148 H   0  0  0  0  0  0  0  0  0  0  0  0
  148.1346  141.9606  153.1402 H   0  0  0  0  0  0  0  0  0  0  0  0
  149.1135  142.8412  155.7352 H   0  0  0  0  0  0  0  0  0  0  0  0
  151.7461  141.4517  155.8909 H   0  0  0  0  0  0  0  0  0  0  0  0
  151.4133  143.1146  156.3157 H   0  0  0  0  0  0  0  0  0  0  0  0
  150.0393  142.3998  158.2578 H   0  0  0  0  0  0  0  0  0  0  0  0
  150.2358  140.7210  157.8163 H   0  0  0  0  0  0  0  0  0  0  0  0
  151.8690  140.9494  159.4842 H   0  0  0  0  0  0  0  0  0  0  0  0
  152.8108  141.1777  158.0340 H   0  0  0  0  0  0  0  0  0  0  0  0
  153.5766  142.9815  159.2555 H   0  0  0  0  0  0  0  0  0  0  0  0
  150.8133  143.1787  160.4918 H   0  0  0  0  0  0  0  0  0  0  0  0
  152.3312  142.8616  161.3259 H   0  0  0  0  0  0  0  0  0  0  0  0
  151.3048  145.3955  161.1493 H   0  0  0  0  0  0  0  0  0  0  0  0
  153.0399  145.1193  161.0818 H   0  0  0  0  0  0  0  0  0  0  0  0
  151.3381  146.0921  158.8995 H   0  0  0  0  0  0  0  0  0  0  0  0
  153.0895  145.9682  158.9704 H   0  0  0  0  0  0  0  0  0  0  0  0
  152.7790  144.2603  157.3707 H   0  0  0  0  0  0  0  0  0  0  0  0
  151.1019  144.0384  157.8523 H   0  0  0  0  0  0  0  0  0  0  0  0
  1  2  1  0  0  0  0
  1 20  1  0  0  0  0
  1 21  1  0  0  0  0
  1 22  1  0  0  0  0
  2  7  1  0  0  0  0
  2  3  2  0  0  0  0
  3  4  1  0  0  0  0
  4  5  1  0  0  0  0
  5  6  1  0  0  0  0
  5  7  2  0  0  0  0
  6 23  1  0  0  0  0
  6 24  1  0  0  0  0
  6 25  1  0  0  0  0
  7  8  1  0  0  0  0
  8  9  1  0  0  0  0
  8 26  1  0  0  0  0
  8 27  1  0  0  0  0
  9 10  2  0  0  0  0
  9 11  1  0  0  0  0
 11 12  1  0  0  0  0
 11 28  1  0  0  0  0
 12 13  1  0  0  0  0
 12 29  1  0  0  0  0
 12 30  1  0  0  0  0
 13 14  1  0  0  0  0
 13 31  1  0  0  0  0
 13 32  1  0  0  0  0
 14 15  1  0  0  0  0
 14 33  1  0  0  0  0
 14 34  1  0  0  0  0
 15 19  1  0  0  0  0
 15 16  1  0  0  0  0
 15 35  1  0  0  0  0
 16 17  1  0  0  0  0
 16 36  1  0  0  0  0
 16 37  1  0  0  0  0
 17 18  1  0  0  0  0
 17 38  1  0  0  0  0
 17 39  1  0  0  0  0
 18 19  1  0  0  0  0
 18 40  1  0  0  0  0
 18 41  1  0  0  0  0
 19 42  1  0  0  0  0
 19 43  1  0  0  0  0
M  END
> <s_m_source_file>
AV-unprocessed.smi

> <i_m_source_file_index>
917

> <i_lp_mmshare_version>
43012

> <i_f3d_flags>
0

> <s_epik_input>
W0NIM11jMW5vYyhbQ0gzXSljMVtDSDJdQyg9TylbTkhdW0NIMl1bQ0gyXVtDSDJdW0NIXTJbQ0gyXVtDSDJdW0NIMl1bQ0gyXTI=

> <s_epik_cmdline>
J2VwaWtfcHl0aG9uJywgJy1waCcsICc3LjAnLCAnLXRuJywgJzgnLCAnLW1hJywgJzIwMCcsICctbWV0YWxfYmluZGluZycsICctaW1hZScsICc8aW5maWxlLm1hZT4nLCAnLW9tYWUnLCAnPG91dGZpbGUubWFlPic=

> <r_lp_tautomer_probability>
1

> <r_epik_Ionization_Penalty>
1.90047e-08

> <r_epik_Ionization_Penalty_Charging>
0

> <r_epik_Ionization_Penalty_Neutral>
1.90047e-08

> <r_epik_State_Penalty>
-0

> <r_epik_Charging_Adjusted_Penalty>
0

> <i_epik_Tot_Q>
0

> <i_epik_Tot_abs_Q>
0

> <r_epik_Metal_State_Penalty>
-0

> <b_epik_Metal_Only>
0

> <s_lp_Force_Field>
OPLS_2005

> <r_lp_Energy>
14.8475

> <b_lp_Chiralities_Consistent>
1

> <s_lp_Variant>
AV-unprocessed.smi:917-1

> <Gold.Version>
5.8.1

> <Gold.Id.Protein>
6NUR|6NUR_protein|mol2

> <Gold.PLP.Fitness>
49.0396

> <Gold.PLP.PLP>
-45.5478

> <Gold.PLP.part.hbond>
-2.0000

> <Gold.PLP.part.metal>
0.0000

> <Gold.PLP.part.buried>
-7.2719

> <Gold.PLP.part.nonpolar>
-36.8270

> <Gold.PLP.part.repulsive>
0.5162

> <Gold.PLP.ligand.clash>
0.0000

> <Gold.PLP.ligand.torsion>
1.1294

> <Gold.PLP.Chemscore.Hbond>
1.8960

> <Gold.PLP.Chemscore.CHOScore>
0.0000

> <Gold.PLP.Chemscore.Metal>
0.0000

> <Gold.Chemscore.Hbonds>
donor molecule, donor type, donor heavy atom, donor atom, acceptor molecule, acceptor atom, score
      L1  H    11    28       P1  8028  0.88
      P1  H  7989  7998       L1    10  1.00

> <Gold.PLP.Chemscore.Internal.Correction>
0.0626

> <Gold.Rescore>
     Score         DG    S(hbond)    S(metal)    S(lipo)     H(rot)  DE(clash)    DE(int)     intcor
     18.67     -19.56       1.66        0.00     109.01       1.65       0.20       0.70       ----

> <Gold.Chemscore.Fitness>
18.6687

> <Gold.Chemscore.DG>
-19.5629

> <Gold.Chemscore.ZeroCoef>
-5.4800

> <Gold.Chemscore.Hbond>
1.6620

> <Gold.Chemscore.Metal>
0.0000

> <Gold.Chemscore.Lipo>
109.0136

> <Gold.Chemscore.Internal_Hbond>
0.0000

> <Gold.Chemscore.DEClash>
0.1991

> <Gold.Chemscore.DEInternal>
0.6951

> <Gold.Chemscore.Rot>
1.6495

> <Gold.Chemscore.Internal.Correction>
   9.000000E+99

> <Gold.Chemscore.Hbonds>
donor molecule, donor type, donor heavy atom, donor atom, acceptor molecule, acceptor atom, score
      L1  H    11    28       P1  8028  0.86
      P1  H  7989  7998       L1    10  0.58

> <Gold.Chemscore.Hbond.Weighted>
-5.5511

> <Gold.Chemscore.Metal.Weighted>
-0.0000

> <Gold.Chemscore.Lipo.Weighted>
-12.7546

> <Gold.Chemscore.Internal_Hbond.Weighted>
0.0000

> <Gold.Chemscore.DEClash.Weighted>
0.1991

> <Gold.Chemscore.DEInternal.Weighted>
0.6951

> <Gold.Chemscore.Rot.Weighted>
4.2228

> <Gold.Chemscore.Internal.Correction.Weighted>
   9.000000E+99

> <Gold.Protein.RotatedTorsions>
[ 6907 6896 6895 6894 ] final   77.34 input  -60.11 | X-H torsion
[ 7974 7965 7964 7962 ] final  -40.49 input  175.53 | X-H torsion
[ 8008 7997 7996 7995 ] final  -81.03 input   59.86 | X-H torsion
[ 10167 10162 10161 10158 ] final   13.79 input  -65.29 | X-H torsion
[ 10718 10713 10712 10709 ] final   19.68 input   66.30 | X-H torsion
[ 10763 10752 10751 10750 ] final -167.63 input  -60.55 | X-H torsion
[ 11005 11000 10999 10996 ] final -161.66 input  -57.11 | X-H torsion

> <Gold.Protein.ActiveResidues>
 VAL166  LYS551  ARG553  GLY616  TRP617  ASP618  TYR619  PRO620  LYS621  CYS622 
 ASP623  PHE694  ASN695  SER759  ASP760  ASP761  ALA762  ILE779  LEU786  VAL792 
 PHE793  MET794  SER795  GLU796  ALA797  LYS798  CYS799  TRP800  GLU811  SER814 

> <Gold.Protein.RotatedAtoms>
  152.5113  134.3832  159.9358 H   0  0  0  0  0  0  0  0  0  0  0  0  # atno 6907 bound_to 6896
  151.3790  133.3822  159.2715 H   0  0  0  0  0  0  0  0  0  0  0  0  # atno 6908 bound_to 6896
  150.9519  134.8938  159.7736 H   0  0  0  0  0  0  0  0  0  0  0  0  # atno 6909 bound_to 6896
  146.0299  140.6744  142.9137 H   0  0  0  0  0  0  0  0  0  0  0  0  # atno 7974 bound_to 7965
  154.5942  140.0654  156.9280 H   0  0  0  0  0  0  0  0  0  0  0  0  # atno 8008 bound_to 7997
  155.2243  140.3332  155.4293 H   0  0  0  0  0  0  0  0  0  0  0  0  # atno 8009 bound_to 7997
  156.2276  140.1826  156.7308 H   0  0  0  0  0  0  0  0  0  0  0  0  # atno 8010 bound_to 7997
  140.5979  143.8664  150.6936 H   0  0  0  0  0  0  0  0  0  0  0  0  # atno 10167 bound_to 10162
  157.1139  130.6520  149.5905 H   0  0  0  0  0  0  0  0  0  0  0  0  # atno 10718 bound_to 10713
  154.6712  135.2939  154.9739 H   0  0  0  0  0  0  0  0  0  0  0  0  # atno 10763 bound_to 10752
  154.0766  135.6610  153.4835 H   0  0  0  0  0  0  0  0  0  0  0  0  # atno 10764 bound_to 10752
  153.0488  135.5187  154.7709 H   0  0  0  0  0  0  0  0  0  0  0  0  # atno 10765 bound_to 10752
  140.6179  134.4781  157.5221 H   0  0  0  0  0  0  0  0  0  0  0  0  # atno 11005 bound_to 11000
  144.7026  140.3717  143.7144 LP  0  0  0  0  0  0  0  0  0  0  0  0  # atno 17320 bound_to 7965
  145.7057  139.1672  143.2567 LP  0  0  0  0  0  0  0  0  0  0  0  0  # atno 17321 bound_to 7965
  140.2203  143.3814  152.1648 LP  0  0  0  0  0  0  0  0  0  0  0  0  # atno 17342 bound_to 10162
  139.5271  144.7115  151.5190 LP  0  0  0  0  0  0  0  0  0  0  0  0  # atno 17343 bound_to 10162
  155.9844  130.4868  150.6981 LP  0  0  0  0  0  0  0  0  0  0  0  0  # atno 17370 bound_to 10713
  157.4535  131.0875  151.0821 LP  0  0  0  0  0  0  0  0  0  0  0  0  # atno 17371 bound_to 10713
  139.9165  134.8235  156.1349 LP  0  0  0  0  0  0  0  0  0  0  0  0  # atno 17394 bound_to 11000
  141.0763  133.6774  156.2243 LP  0  0  0  0  0  0  0  0  0  0  0  0  # atno 17395 bound_to 11000

$$$$
