AV-unprocessed.smi:2538|AV-procd|sdf|9983|dock6
  -GOLD-   2272014 33D 1   1.00000     0.00000
 Structure written by MMmdl.
 49 50  0  0  0  0  0  0  0  0  2 V2000
  151.9241  144.5977  160.4135 C   0  0  0  0  0  0  0  0  0  0  0  0
  151.8210  143.5049  159.3631 C   0  0  0  0  0  0  0  0  0  0  0  0
  150.9602  143.7083  158.2607 C   0  0  0  0  0  0  0  0  0  0  0  0
  150.8869  142.6909  157.3168 C   0  0  0  0  0  0  0  0  0  0  0  0
  150.1464  142.5867  156.1370 N   0  3  0  0  0  0  0  0  0  0  0  0
  150.4087  141.3911  155.5395 C   0  0  0  0  0  0  0  0  0  0  0  0
  151.3068  140.7317  156.3207 N   0  0  0  0  0  0  0  0  0  0  0  0
  151.9326  139.4150  156.1412 C   0  0  0  0  0  0  0  0  0  0  0  0
  151.6808  138.4702  157.3335 C   0  0  2  0  0  0  0  0  0  0  0  0
  152.7898  137.5997  157.4437 O   0  0  0  0  0  0  0  0  0  0  0  0
  150.4009  137.6281  157.1413 C   0  0  0  0  0  0  0  0  0  0  0  0
  149.8261  137.1436  158.4109 N   0  0  0  0  0  0  0  0  0  0  0  0
  150.7177  137.1772  159.5781 C   0  0  0  0  0  0  0  0  0  0  0  0
  148.5079  136.0116  158.4033 S   0  0  0  0  0  0  0  0  0  0  0  0
  147.5751  136.4508  157.3538 O   0  0  0  0  0  0  0  0  0  0  0  0
  149.0857  134.6598  158.3451 O   0  0  0  0  0  0  0  0  0  0  0  0
  147.6994  136.2638  160.0589 C   0  0  0  0  0  0  0  0  0  0  0  0
  147.7558  134.9740  160.8898 C   0  0  0  0  0  0  0  0  0  0  0  0
  146.2566  136.7607  159.8904 C   0  0  0  0  0  0  0  0  0  0  0  0
  151.6325  141.5029  157.4409 C   0  0  0  0  0  0  0  0  0  0  0  0
  152.4853  141.2855  158.5201 C   0  0  0  0  0  0  0  0  0  0  0  0
  152.5749  142.3091  159.4902 C   0  0  0  0  0  0  0  0  0  0  0  0
  153.4986  142.1015  160.6781 C   0  0  0  0  0  0  0  0  0  0  0  0
  151.2538  145.4288  160.1916 H   0  0  0  0  0  0  0  0  0  0  0  0
  152.9399  144.9913  160.4571 H   0  0  0  0  0  0  0  0  0  0  0  0
  151.6591  144.2116  161.3980 H   0  0  0  0  0  0  0  0  0  0  0  0
  150.3845  144.6165  158.1564 H   0  0  0  0  0  0  0  0  0  0  0  0
  149.9861  141.0340  154.6115 H   0  0  0  0  0  0  0  0  0  0  0  0
  151.5543  138.9834  155.2134 H   0  0  0  0  0  0  0  0  0  0  0  0
  153.0023  139.5736  155.9963 H   0  0  0  0  0  0  0  0  0  0  0  0
  151.6193  139.0708  158.2398 H   0  0  0  0  0  0  0  0  0  0  0  0
  153.4050  137.9723  158.0568 H   0  0  0  0  0  0  0  0  0  0  0  0
  149.6373  138.2367  156.6551 H   0  0  0  0  0  0  0  0  0  0  0  0
  150.5690  136.7947  156.4585 H   0  0  0  0  0  0  0  0  0  0  0  0
  151.3383  136.2820  159.6121 H   0  0  0  0  0  0  0  0  0  0  0  0
  150.1341  137.2222  160.4975 H   0  0  0  0  0  0  0  0  0  0  0  0
  151.3664  138.0530  159.5488 H   0  0  0  0  0  0  0  0  0  0  0  0
  148.2620  137.0284  160.5886 H   0  0  0  0  0  0  0  0  0  0  0  0
  147.2886  135.1153  161.8646 H   0  0  0  0  0  0  0  0  0  0  0  0
  148.7843  134.6577  161.0636 H   0  0  0  0  0  0  0  0  0  0  0  0
  147.2361  134.1586  160.3860 H   0  0  0  0  0  0  0  0  0  0  0  0
  145.7951  136.9576  160.8583 H   0  0  0  0  0  0  0  0  0  0  0  0
  145.6404  136.0252  159.3724 H   0  0  0  0  0  0  0  0  0  0  0  0
  146.2259  137.6878  159.3174 H   0  0  0  0  0  0  0  0  0  0  0  0
  153.0581  140.3747  158.6155 H   0  0  0  0  0  0  0  0  0  0  0  0
  154.0340  141.1544  160.6064 H   0  0  0  0  0  0  0  0  0  0  0  0
  152.9293  142.0933  161.6079 H   0  0  0  0  0  0  0  0  0  0  0  0
  154.2402  142.8989  160.7324 H   0  0  0  0  0  0  0  0  0  0  0  0
  149.5099  143.2795  155.7640 H   0  0  0  0  0  0  0  0  0  0  0  0
  1  2  1  0  0  0  0
  1 24  1  0  0  0  0
  1 25  1  0  0  0  0
  1 26  1  0  0  0  0
  2 22  1  0  0  0  0
  2  3  2  0  0  0  0
  3  4  1  0  0  0  0
  3 27  1  0  0  0  0
  4 20  2  0  0  0  0
  4  5  1  0  0  0  0
  5  6  2  0  0  0  0
  5 49  1  0  0  0  0
  6  7  1  0  0  0  0
  6 28  1  0  0  0  0
  7  8  1  0  0  0  0
  7 20  1  0  0  0  0
  8  9  1  0  0  0  0
  8 29  1  0  0  0  0
  8 30  1  0  0  0  0
  9 10  1  0  0  0  0
  9 11  1  0  0  0  0
  9 31  1  0  0  0  0
 10 32  1  0  0  0  0
 11 12  1  0  0  0  0
 11 33  1  0  0  0  0
 11 34  1  0  0  0  0
 12 13  1  0  0  0  0
 12 14  1  0  0  0  0
 13 35  1  0  0  0  0
 13 36  1  0  0  0  0
 13 37  1  0  0  0  0
 14 15  2  0  0  0  0
 14 16  2  0  0  0  0
 14 17  1  0  0  0  0
 17 18  1  0  0  0  0
 17 19  1  0  0  0  0
 17 38  1  0  0  0  0
 18 39  1  0  0  0  0
 18 40  1  0  0  0  0
 18 41  1  0  0  0  0
 19 42  1  0  0  0  0
 19 43  1  0  0  0  0
 19 44  1  0  0  0  0
 20 21  1  0  0  0  0
 21 22  2  0  0  0  0
 21 45  1  0  0  0  0
 22 23  1  0  0  0  0
 23 46  1  0  0  0  0
 23 47  1  0  0  0  0
 23 48  1  0  0  0  0
M  CHG  1   5   1
M  END
> <s_m_source_file>
AV-unprocessed.smi

> <i_m_source_file_index>
2538

> <i_lp_mmshare_version>
43012

> <i_f3d_flags>
0

> <s_epik_input>
W0NIM11jKFtjSF0xKWMoW0NIM10pW2NIXWMoYzEyKW4oW2NIXW4yKVtDSDJdW0NASF0oW09IXSlbQ0gyXU4oW0NIM10pUyg9TykoPU8pW0NIXShbQ0gzXSlbQ0gzXQ==

> <s_epik_cmdline>
J2VwaWtfcHl0aG9uJywgJy1waCcsICc3LjAnLCAnLXRuJywgJzgnLCAnLW1hJywgJzIwMCcsICctbWV0YWxfYmluZGluZycsICctaW1hZScsICc8aW5maWxlLm1hZT4nLCAnLW9tYWUnLCAnPG91dGZpbGUubWFlPic=

> <r_epik_Ionization_Penalty>
1.07686

> <r_epik_Ionization_Penalty_Charging>
1.07685

> <r_epik_Ionization_Penalty_Neutral>
1.40866e-06

> <r_epik_State_Penalty>
1.13193

> <r_epik_Charging_Adjusted_Penalty>
2.20879

> <i_epik_Tot_Q>
1

> <i_epik_Tot_abs_Q>
1

> <r_epik_Metal_State_Penalty>
5.12988

> <b_epik_Metal_Only>
0

> <s_lp_Force_Field>
OPLS_2005

> <r_lp_Energy>
10.0565

> <b_lp_Chiralities_Consistent>
1

> <s_lp_Variant>
AV-unprocessed.smi:2538-3

> <Gold.Version>
5.8.1

> <Gold.Id.Protein>
6NUR|6NUR_protein|mol2

> <Gold.PLP.Fitness>
48.7319

> <Gold.PLP.PLP>
-41.1828

> <Gold.PLP.part.hbond>
-1.8681

> <Gold.PLP.part.metal>
0.0000

> <Gold.PLP.part.buried>
-3.8820

> <Gold.PLP.part.nonpolar>
-35.5841

> <Gold.PLP.part.repulsive>
0.1137

> <Gold.PLP.ligand.clash>
0.0000

> <Gold.PLP.ligand.torsion>
2.0352

> <Gold.PLP.Chemscore.Hbond>
3.0000

> <Gold.PLP.Chemscore.CHOScore>
0.0000

> <Gold.PLP.Chemscore.Metal>
0.0000

> <Gold.Chemscore.Hbonds>
donor molecule, donor type, donor heavy atom, donor atom, acceptor molecule, acceptor atom, score
      L1  H     5    49       P1  8028  2.00
      P1  H  6896  6907       L1    16  1.00

> <Gold.PLP.Chemscore.Internal.Correction>
2.6195

> <Gold.Rescore>
     Score         DG    S(hbond)    S(metal)    S(lipo)     H(rot)  DE(clash)    DE(int)     intcor
     16.59     -19.60       1.93        0.00     117.16       2.36       0.15       2.86       ----

> <Gold.Chemscore.Fitness>
16.5874

> <Gold.Chemscore.DG>
-19.6018

> <Gold.Chemscore.ZeroCoef>
-5.4800

> <Gold.Chemscore.Hbond>
1.9326

> <Gold.Chemscore.Metal>
0.0000

> <Gold.Chemscore.Lipo>
117.1561

> <Gold.Chemscore.Internal_Hbond>
0.0000

> <Gold.Chemscore.DEClash>
0.1519

> <Gold.Chemscore.DEInternal>
2.8625

> <Gold.Chemscore.Rot>
2.3595

> <Gold.Chemscore.Internal.Correction>
   9.000000E+99

> <Gold.Chemscore.Hbonds>
donor molecule, donor type, donor heavy atom, donor atom, acceptor molecule, acceptor atom, score
      L1  H     5    49       P1  8028  0.95
      P1  H  6896  6907       L1    16  0.97

> <Gold.Chemscore.Hbond.Weighted>
-6.4548

> <Gold.Chemscore.Metal.Weighted>
-0.0000

> <Gold.Chemscore.Lipo.Weighted>
-13.7073

> <Gold.Chemscore.Internal_Hbond.Weighted>
0.0000

> <Gold.Chemscore.DEClash.Weighted>
0.1519

> <Gold.Chemscore.DEInternal.Weighted>
2.8625

> <Gold.Chemscore.Rot.Weighted>
6.0403

> <Gold.Chemscore.Internal.Correction.Weighted>
   9.000000E+99

> <Gold.Protein.RotatedTorsions>
[ 6907 6896 6895 6894 ] final  -91.73 input  -60.11 | X-H torsion
[ 7974 7965 7964 7962 ] final  -14.10 input  175.53 | X-H torsion
[ 8008 7997 7996 7995 ] final    6.62 input   59.86 | X-H torsion
[ 10167 10162 10161 10158 ] final -120.51 input  -65.29 | X-H torsion
[ 10718 10713 10712 10709 ] final   29.81 input   66.30 | X-H torsion
[ 10763 10752 10751 10750 ] final  -89.01 input  -60.55 | X-H torsion
[ 11005 11000 10999 10996 ] final    9.57 input  -57.11 | X-H torsion

> <Gold.Protein.ActiveResidues>
 VAL166  LYS551  ARG553  GLY616  TRP617  ASP618  TYR619  PRO620  LYS621  CYS622 
 ASP623  PHE694  ASN695  SER759  ASP760  ASP761  ALA762  ILE779  LEU786  VAL792 
 PHE793  MET794  SER795  GLU796  ALA797  LYS798  CYS799  TRP800  GLU811  SER814 

> <Gold.Protein.RotatedAtoms>
  150.6896  134.2232  159.4404 H   0  0  0  0  0  0  0  0  0  0  0  0  # atno 6907 bound_to 6896
  152.0187  134.9832  160.0579 H   0  0  0  0  0  0  0  0  0  0  0  0  # atno 6908 bound_to 6896
  152.1418  133.4434  159.4807 H   0  0  0  0  0  0  0  0  0  0  0  0  # atno 6909 bound_to 6896
  146.2088  140.3299  142.8398 H   0  0  0  0  0  0  0  0  0  0  0  0  # atno 7974 bound_to 7965
  154.7434  140.2753  155.6354 H   0  0  0  0  0  0  0  0  0  0  0  0  # atno 8008 bound_to 7997
  156.2879  140.2692  156.2093 H   0  0  0  0  0  0  0  0  0  0  0  0  # atno 8009 bound_to 7997
  155.0229  140.0371  157.2434 H   0  0  0  0  0  0  0  0  0  0  0  0  # atno 8010 bound_to 7997
  140.0351  143.5209  152.2158 H   0  0  0  0  0  0  0  0  0  0  0  0  # atno 10167 bound_to 10162
  157.2514  130.7117  149.6407 H   0  0  0  0  0  0  0  0  0  0  0  0  # atno 10718 bound_to 10713
  154.6507  135.5356  153.7898 H   0  0  0  0  0  0  0  0  0  0  0  0  # atno 10763 bound_to 10752
  153.0384  135.6482  154.1021 H   0  0  0  0  0  0  0  0  0  0  0  0  # atno 10764 bound_to 10752
  154.0938  135.2938  155.3246 H   0  0  0  0  0  0  0  0  0  0  0  0  # atno 10765 bound_to 10752
  140.5242  134.0529  155.7854 H   0  0  0  0  0  0  0  0  0  0  0  0  # atno 11005 bound_to 11000
  144.8860  140.7462  143.5957 LP  0  0  0  0  0  0  0  0  0  0  0  0  # atno 17320 bound_to 7965
  145.3220  139.1785  143.4582 LP  0  0  0  0  0  0  0  0  0  0  0  0  # atno 17321 bound_to 7965
  139.6051  144.7594  151.3082 LP  0  0  0  0  0  0  0  0  0  0  0  0  # atno 17342 bound_to 10162
  140.7285  143.6933  150.7904 LP  0  0  0  0  0  0  0  0  0  0  0  0  # atno 17343 bound_to 10162
  155.9666  130.4426  150.5389 LP  0  0  0  0  0  0  0  0  0  0  0  0  # atno 17370 bound_to 10713
  157.3274  131.0693  151.1887 LP  0  0  0  0  0  0  0  0  0  0  0  0  # atno 17371 bound_to 10713
  141.1317  133.9291  157.2521 LP  0  0  0  0  0  0  0  0  0  0  0  0  # atno 17394 bound_to 11000
  139.9589  135.0159  156.9205 LP  0  0  0  0  0  0  0  0  0  0  0  0  # atno 17395 bound_to 11000

$$$$
