AV-unprocessed.smi:99|AV-procd|sdf|875|dock4
  -GOLD-   2262017343D 1   1.00000     0.00000
 Structure written by MMmdl.
 53 56  0  0  0  0  0  0  0  0  1 V2000
  153.2736  139.7252  159.1868 O   0  0  0  0  0  0  0  0  0  0  0  0
  152.1693  140.2007  158.9166 C   0  0  0  0  0  0  0  0  0  0  0  0
  151.0783  139.4597  158.6537 O   0  0  0  0  0  0  0  0  0  0  0  0
  151.1958  138.1198  158.1976 C   0  0  0  0  0  0  0  0  0  0  0  0
  151.2782  138.1059  156.6622 C   0  0  2  0  0  0  0  0  0  0  0  0
  150.8270  139.3406  156.1228 O   0  0  0  0  0  0  0  0  0  0  0  0
  150.1706  139.1472  154.9074 C   0  0  2  0  0  0  0  0  0  0  0  0
  148.7984  139.7930  155.0427 N   0  0  0  0  0  0  0  0  0  0  0  0
  147.6066  139.0741  155.0849 C   0  0  0  0  0  0  0  0  0  0  0  0
  146.3997  139.6414  155.3178 C   0  0  0  0  0  0  0  0  0  0  0  0
  146.2889  141.0734  155.5642 C   0  0  0  0  0  0  0  0  0  0  0  0
  145.2410  141.6770  155.7830 O   0  0  0  0  0  0  0  0  0  0  0  0
  147.5064  141.7561  155.5491 N   0  0  0  0  0  0  0  0  0  0  0  0
  148.7565  141.1801  155.3196 C   0  0  0  0  0  0  0  0  0  0  0  0
  149.7664  141.8814  155.3702 O   0  0  0  0  0  0  0  0  0  0  0  0
  150.1659  137.6330  154.5950 C   0  0  1  0  0  0  0  0  0  0  0  0
  151.1380  137.2928  153.6268 O   0  0  0  0  0  0  0  0  0  0  0  0
  150.5245  136.9869  155.9301 C   0  0  2  0  0  0  0  0  0  0  0  0
  149.3520  136.5826  156.6283 O   0  0  0  0  0  0  0  0  0  0  0  0
  149.4125  135.7035  157.6516 C   0  0  0  0  0  0  0  0  0  0  0  0
  150.2595  134.8132  157.7428 O   0  0  0  0  0  0  0  0  0  0  0  0
  148.3445  135.9299  158.6663 C   0  0  0  0  0  0  0  0  0  0  0  0
  148.4847  135.3779  159.9606 C   0  0  0  0  0  0  0  0  0  0  0  0
  147.4914  135.5836  160.9382 C   0  0  0  0  0  0  0  0  0  0  0  0
  146.3447  136.3397  160.6319 C   0  0  0  0  0  0  0  0  0  0  0  0
  146.1901  136.8870  159.3451 C   0  0  0  0  0  0  0  0  0  0  0  0
  147.1825  136.6820  158.3679 C   0  0  0  0  0  0  0  0  0  0  0  0
  151.8879  141.6640  158.8697 C   0  0  0  0  0  0  0  0  0  0  0  0
  150.8010  142.1380  158.0997 C   0  0  0  0  0  0  0  0  0  0  0  0
  150.5284  143.5174  158.0189 C   0  0  0  0  0  0  0  0  0  0  0  0
  151.3369  144.4382  158.7105 C   0  0  0  0  0  0  0  0  0  0  0  0
  152.4165  143.9783  159.4864 C   0  0  0  0  0  0  0  0  0  0  0  0
  152.6906  142.5996  159.5685 C   0  0  0  0  0  0  0  0  0  0  0  0
  147.4818  142.7482  155.7349 H   0  0  0  0  0  0  0  0  0  0  0  0
  152.0996  137.6864  158.6265 H   0  0  0  0  0  0  0  0  0  0  0  0
  150.3527  137.5099  158.5256 H   0  0  0  0  0  0  0  0  0  0  0  0
  152.3278  138.0177  156.3791 H   0  0  0  0  0  0  0  0  0  0  0  0
  150.6679  139.7039  154.1103 H   0  0  0  0  0  0  0  0  0  0  0  0
  147.5924  138.0109  154.9304 H   0  0  0  0  0  0  0  0  0  0  0  0
  145.5099  139.0285  155.3315 H   0  0  0  0  0  0  0  0  0  0  0  0
  149.2182  137.2952  154.1799 H   0  0  0  0  0  0  0  0  0  0  0  0
  150.7211  137.2624  152.7793 H   0  0  0  0  0  0  0  0  0  0  0  0
  151.1856  136.1282  155.8003 H   0  0  0  0  0  0  0  0  0  0  0  0
  149.3580  134.7964  160.2193 H   0  0  0  0  0  0  0  0  0  0  0  0
  147.6107  135.1611  161.9250 H   0  0  0  0  0  0  0  0  0  0  0  0
  145.5839  136.4983  161.3820 H   0  0  0  0  0  0  0  0  0  0  0  0
  145.3098  137.4654  159.1054 H   0  0  0  0  0  0  0  0  0  0  0  0
  147.0310  137.1086  157.3886 H   0  0  0  0  0  0  0  0  0  0  0  0
  150.1714  141.4496  157.5546 H   0  0  0  0  0  0  0  0  0  0  0  0
  149.6991  143.8689  157.4230 H   0  0  0  0  0  0  0  0  0  0  0  0
  151.1281  145.4961  158.6472 H   0  0  0  0  0  0  0  0  0  0  0  0
  153.0365  144.6840  160.0194 H   0  0  0  0  0  0  0  0  0  0  0  0
  153.5268  142.2792  160.1727 H   0  0  0  0  0  0  0  0  0  0  0  0
  1  2  2  0  0  0  0
  2  3  1  0  0  0  0
  2 28  1  0  0  0  0
  3  4  1  0  0  0  0
  4  5  1  0  0  0  0
  4 35  1  0  0  0  0
  4 36  1  0  0  0  0
  5 18  1  0  0  0  0
  5  6  1  0  0  0  0
  5 37  1  0  0  0  0
  6  7  1  0  0  0  0
  7  8  1  0  0  0  0
  7 16  1  0  0  0  0
  7 38  1  0  0  0  0
  8 14  1  0  0  0  0
  8  9  1  0  0  0  0
  9 10  2  0  0  0  0
  9 39  1  0  0  0  0
 10 11  1  0  0  0  0
 10 40  1  0  0  0  0
 11 12  2  0  0  0  0
 11 13  1  0  0  0  0
 13 34  1  0  0  0  0
 13 14  1  0  0  0  0
 14 15  2  0  0  0  0
 16 17  1  0  0  0  0
 16 18  1  0  0  0  0
 16 41  1  0  0  0  0
 17 42  1  0  0  0  0
 18 19  1  0  0  0  0
 18 43  1  0  0  0  0
 19 20  1  0  0  0  0
 20 21  2  0  0  0  0
 20 22  1  0  0  0  0
 22 27  1  0  0  0  0
 22 23  2  0  0  0  0
 23 24  1  0  0  0  0
 23 44  1  0  0  0  0
 24 25  2  0  0  0  0
 24 45  1  0  0  0  0
 25 26  1  0  0  0  0
 25 46  1  0  0  0  0
 26 27  2  0  0  0  0
 26 47  1  0  0  0  0
 27 48  1  0  0  0  0
 28 33  1  0  0  0  0
 28 29  2  0  0  0  0
 29 30  1  0  0  0  0
 29 49  1  0  0  0  0
 30 31  2  0  0  0  0
 30 50  1  0  0  0  0
 31 32  1  0  0  0  0
 31 51  1  0  0  0  0
 32 33  2  0  0  0  0
 32 52  1  0  0  0  0
 33 53  1  0  0  0  0
M  END
> <s_m_source_file>
AV-unprocessed.smi

> <i_m_source_file_index>
99

> <i_lp_mmshare_version>
43012

> <i_f3d_flags>
0

> <s_epik_input>
W2NIXTFbY0hdW2NIXVtjSF1bY0hdYzFDKD1PKU9bQ0gyXVtDQEBIXTJPW0NAQEhdKG4zW2NIXVtjSF1jKD1PKVtuSF1jMz1PKVtDQEBIXShbT0hdKVtDQEhdMk9DKD1PKWM0W2NIXVtjSF1bY0hdW2NIXVtjSF00

> <s_epik_cmdline>
J2VwaWtfcHl0aG9uJywgJy1waCcsICc3LjAnLCAnLXRuJywgJzgnLCAnLW1hJywgJzIwMCcsICctbWV0YWxfYmluZGluZycsICctaW1hZScsICc8aW5maWxlLm1hZT4nLCAnLW9tYWUnLCAnPG91dGZpbGUubWFlPic=

> <r_lp_tautomer_probability>
1

> <r_epik_Ionization_Penalty>
0.00454555

> <r_epik_Ionization_Penalty_Charging>
0.0045191

> <r_epik_Ionization_Penalty_Neutral>
2.64449e-05

> <r_epik_State_Penalty>
-0

> <r_epik_Charging_Adjusted_Penalty>
0.0045191

> <i_epik_Tot_Q>
0

> <i_epik_Tot_abs_Q>
0

> <r_epik_Metal_State_Penalty>
1.27877

> <b_epik_Metal_Only>
0

> <s_epik_Chemistry_Notes>
This compound has an ester and may undergo hydrolysis at high or low pH. This compound contains an acetal/aminal-like group ( X-CH(R)-Y where X, Y are N, S, or O) that may be acid/base labile, releasing an aldehyde.

> <s_lp_Force_Field>
OPLS_2005

> <r_lp_Energy>
29.5489

> <b_lp_Chiralities_Consistent>
1

> <s_lp_Variant>
AV-unprocessed.smi:99-11

> <Gold.Version>
5.8.1

> <Gold.Id.Protein>
6NUR|6NUR_protein|mol2

> <Gold.PLP.Fitness>
55.0091

> <Gold.PLP.PLP>
-45.8837

> <Gold.PLP.part.hbond>
-5.0000

> <Gold.PLP.part.metal>
0.0000

> <Gold.PLP.part.buried>
-5.9548

> <Gold.PLP.part.nonpolar>
-36.7035

> <Gold.PLP.part.repulsive>
0.4622

> <Gold.PLP.ligand.clash>
0.0000

> <Gold.PLP.ligand.torsion>
2.1003

> <Gold.PLP.Chemscore.Hbond>
4.3112

> <Gold.PLP.Chemscore.CHOScore>
0.0000

> <Gold.PLP.Chemscore.Metal>
0.0000

> <Gold.Chemscore.Hbonds>
donor molecule, donor type, donor heavy atom, donor atom, acceptor molecule, acceptor atom, score
      L1  H    13    34       P1  8028  0.08
      L1  H    17    42       P1  7949  0.28
      P1  H  6896  6908       L1    21  0.70

> <Gold.PLP.Chemscore.Internal.Correction>
0.3924

> <Gold.Rescore>
     Score         DG    S(hbond)    S(metal)    S(lipo)     H(rot)  DE(clash)    DE(int)     intcor
     17.20     -21.86       3.73        0.00     103.44       3.19       1.57       3.09       ----

> <Gold.Chemscore.Fitness>
17.2004

> <Gold.Chemscore.DG>
-21.8636

> <Gold.Chemscore.ZeroCoef>
-5.4800

> <Gold.Chemscore.Hbond>
3.7271

> <Gold.Chemscore.Metal>
0.0000

> <Gold.Chemscore.Lipo>
103.4383

> <Gold.Chemscore.Internal_Hbond>
0.0000

> <Gold.Chemscore.DEClash>
1.5700

> <Gold.Chemscore.DEInternal>
3.0932

> <Gold.Chemscore.Rot>
3.1903

> <Gold.Chemscore.Internal.Correction>
   9.000000E+99

> <Gold.Chemscore.Hbonds>
donor molecule, donor type, donor heavy atom, donor atom, acceptor molecule, acceptor atom, score
      L1  H    13    34       P1  8028  0.04
      L1  H    17    42       P1  7949  0.02
      P1  H  6896  6908       L1    21  0.68
      P1  H 10752 10765       L1    17  0.02

> <Gold.Chemscore.Hbond.Weighted>
-12.4484

> <Gold.Chemscore.Metal.Weighted>
-0.0000

> <Gold.Chemscore.Lipo.Weighted>
-12.1023

> <Gold.Chemscore.Internal_Hbond.Weighted>
0.0000

> <Gold.Chemscore.DEClash.Weighted>
1.5700

> <Gold.Chemscore.DEInternal.Weighted>
3.0932

> <Gold.Chemscore.Rot.Weighted>
8.1671

> <Gold.Chemscore.Internal.Correction.Weighted>
   9.000000E+99

> <Gold.Protein.RotatedTorsions>
[ 6907 6896 6895 6894 ] final  147.95 input  -60.11 | X-H torsion
[ 7974 7965 7964 7962 ] final  113.23 input  175.53 | X-H torsion
[ 8008 7997 7996 7995 ] final  177.32 input   59.86 | X-H torsion
[ 10167 10162 10161 10158 ] final   12.40 input  -65.29 | X-H torsion
[ 10718 10713 10712 10709 ] final  132.77 input   66.30 | X-H torsion
[ 10763 10752 10751 10750 ] final  153.82 input  -60.55 | X-H torsion
[ 11005 11000 10999 10996 ] final  133.80 input  -57.11 | X-H torsion

> <Gold.Protein.ActiveResidues>
 VAL166  LYS551  ARG553  GLY616  TRP617  ASP618  TYR619  PRO620  LYS621  CYS622 
 ASP623  PHE694  ASN695  SER759  ASP760  ASP761  ALA762  ILE779  LEU786  VAL792 
 PHE793  MET794  SER795  GLU796  ALA797  LYS798  CYS799  TRP800  GLU811  SER814 

> <Gold.Protein.RotatedAtoms>
  152.1480  133.4504  159.4798 H   0  0  0  0  0  0  0  0  0  0  0  0  # atno 6907 bound_to 6896
  150.6892  134.2224  159.4411 H   0  0  0  0  0  0  0  0  0  0  0  0  # atno 6908 bound_to 6896
  152.0119  134.9871  160.0619 H   0  0  0  0  0  0  0  0  0  0  0  0  # atno 6909 bound_to 6896
  145.2195  139.2868  143.4225 H   0  0  0  0  0  0  0  0  0  0  0  0  # atno 7974 bound_to 7965
  156.0669  140.1361  156.9875 H   0  0  0  0  0  0  0  0  0  0  0  0  # atno 8008 bound_to 7997
  154.4511  140.0980  156.6672 H   0  0  0  0  0  0  0  0  0  0  0  0  # atno 8009 bound_to 7997
  155.5290  140.3458  155.4424 H   0  0  0  0  0  0  0  0  0  0  0  0  # atno 8010 bound_to 7997
  140.6070  143.8486  150.7025 H   0  0  0  0  0  0  0  0  0  0  0  0  # atno 10167 bound_to 10162
  157.4838  131.1087  150.9646 H   0  0  0  0  0  0  0  0  0  0  0  0  # atno 10718 bound_to 10713
  154.1423  135.2820  155.3157 H   0  0  0  0  0  0  0  0  0  0  0  0  # atno 10763 bound_to 10752
  154.6278  135.5446  153.7649 H   0  0  0  0  0  0  0  0  0  0  0  0  # atno 10764 bound_to 10752
  153.0246  135.6455  154.1570 H   0  0  0  0  0  0  0  0  0  0  0  0  # atno 10765 bound_to 10752
  139.9874  134.9527  156.9776 H   0  0  0  0  0  0  0  0  0  0  0  0  # atno 11005 bound_to 11000
  146.3379  140.2497  142.8598 LP  0  0  0  0  0  0  0  0  0  0  0  0  # atno 17320 bound_to 7965
  144.9779  140.8431  143.5415 LP  0  0  0  0  0  0  0  0  0  0  0  0  # atno 17321 bound_to 7965
  140.2046  143.3932  152.1765 LP  0  0  0  0  0  0  0  0  0  0  0  0  # atno 17342 bound_to 10162
  139.5333  144.7182  151.4981 LP  0  0  0  0  0  0  0  0  0  0  0  0  # atno 17343 bound_to 10162
  157.0370  130.5734  149.5351 LP  0  0  0  0  0  0  0  0  0  0  0  0  # atno 17370 bound_to 10713
  156.0136  130.5229  150.8065 LP  0  0  0  0  0  0  0  0  0  0  0  0  # atno 17371 bound_to 10713
  140.4975  134.1131  155.7244 LP  0  0  0  0  0  0  0  0  0  0  0  0  # atno 17394 bound_to 11000
  141.1537  133.8923  157.2034 LP  0  0  0  0  0  0  0  0  0  0  0  0  # atno 17395 bound_to 11000

$$$$
