AV-unprocessed.smi:1024|AV-procd|sdf|4464|dock3
  -GOLD-   22720 2443D 1   1.00000     0.00000
 Structure written by MMmdl.
 48 50  0  0  0  0  0  0  0  0  2 V2000
  152.4765  137.8150  160.1334 O   0  0  0  0  0  0  0  0  0  0  0  0
  151.8970  138.5176  159.3034 C   0  0  0  0  0  0  0  0  0  0  0  0
  150.7308  138.1449  158.7487 N   0  0  0  0  0  0  0  0  0  0  0  0
  150.0330  136.8957  159.0275 C   0  0  0  0  0  0  0  0  0  0  0  0
  148.5835  137.1487  159.4741 C   0  0  0  0  0  0  0  0  0  0  0  0
  148.1235  136.1283  160.4164 N   0  0  0  0  0  0  0  0  0  0  0  0
  147.7374  136.3090  161.7196 C   0  0  0  0  0  0  0  0  0  0  0  0
  147.3965  135.0708  162.2004 C   0  0  0  0  0  0  0  0  0  0  0  0
  147.5891  134.1882  161.1711 N   0  3  0  0  0  0  0  0  0  0  0  0
  148.0323  134.8335  160.0872 C   0  0  0  0  0  0  0  0  0  0  0  0
  152.3634  139.7245  158.8936 N   0  0  0  0  0  0  0  0  0  0  0  0
  153.6847  140.2965  159.1947 C   0  0  0  0  0  0  0  0  0  0  0  0
  153.5140  141.3976  160.2590 C   0  0  0  0  0  0  0  0  0  0  0  0
  152.5247  142.5167  159.8272 C   0  0  0  0  0  0  0  0  0  0  0  0
  152.2108  143.3908  161.0696 C   0  0  0  0  0  0  0  0  0  0  0  0
  151.3889  144.6503  160.7431 C   0  0  0  0  0  0  0  0  0  0  0  0
  152.0910  145.5105  159.6844 C   0  0  0  0  0  0  0  0  0  0  0  0
  152.3923  144.6931  158.4212 C   0  0  0  0  0  0  0  0  0  0  0  0
  153.1950  143.4213  158.7529 C   0  0  0  0  0  0  0  0  0  0  0  0
  151.2209  141.8505  159.2942 C   0  0  0  0  0  0  0  0  0  0  0  0
  151.4886  140.7255  158.2754 C   0  0  0  0  0  0  0  0  0  0  0  0
  150.3018  138.7728  158.0843 H   0  0  0  0  0  0  0  0  0  0  0  0
  150.0576  136.2535  158.1453 H   0  0  0  0  0  0  0  0  0  0  0  0
  150.5773  136.3672  159.8108 H   0  0  0  0  0  0  0  0  0  0  0  0
  148.4919  138.1219  159.9582 H   0  0  0  0  0  0  0  0  0  0  0  0
  147.9025  137.1496  158.6216 H   0  0  0  0  0  0  0  0  0  0  0  0
  147.7351  137.2789  162.1958 H   0  0  0  0  0  0  0  0  0  0  0  0
  147.0413  134.7599  163.1721 H   0  0  0  0  0  0  0  0  0  0  0  0
  148.2716  134.3951  159.1345 H   0  0  0  0  0  0  0  0  0  0  0  0
  154.4132  139.5645  159.5427 H   0  0  0  0  0  0  0  0  0  0  0  0
  154.1156  140.7089  158.2821 H   0  0  0  0  0  0  0  0  0  0  0  0
  153.1555  140.9301  161.1775 H   0  0  0  0  0  0  0  0  0  0  0  0
  154.4867  141.8248  160.5056 H   0  0  0  0  0  0  0  0  0  0  0  0
  151.6860  142.8019  161.8228 H   0  0  0  0  0  0  0  0  0  0  0  0
  153.1461  143.7029  161.5369 H   0  0  0  0  0  0  0  0  0  0  0  0
  150.3944  144.3714  160.3947 H   0  0  0  0  0  0  0  0  0  0  0  0
  151.2387  145.2358  161.6502 H   0  0  0  0  0  0  0  0  0  0  0  0
  151.4725  146.3728  159.4337 H   0  0  0  0  0  0  0  0  0  0  0  0
  153.0217  145.9049  160.0940 H   0  0  0  0  0  0  0  0  0  0  0  0
  151.4617  144.4331  157.9174 H   0  0  0  0  0  0  0  0  0  0  0  0
  152.9534  145.3061  157.7154 H   0  0  0  0  0  0  0  0  0  0  0  0
  154.1791  143.7289  159.1090 H   0  0  0  0  0  0  0  0  0  0  0  0
  153.3791  142.8687  157.8326 H   0  0  0  0  0  0  0  0  0  0  0  0
  150.6676  141.4235  160.1318 H   0  0  0  0  0  0  0  0  0  0  0  0
  150.5516  142.5857  158.8503 H   0  0  0  0  0  0  0  0  0  0  0  0
  151.9615  141.1202  157.3759 H   0  0  0  0  0  0  0  0  0  0  0  0
  150.5414  140.3026  157.9386 H   0  0  0  0  0  0  0  0  0  0  0  0
  147.4220  133.1910  161.2201 H   0  0  0  0  0  0  0  0  0  0  0  0
  1  2  2  0  0  0  0
  2  3  1  0  0  0  0
  2 11  1  0  0  0  0
  3  4  1  0  0  0  0
  3 22  1  0  0  0  0
  4  5  1  0  0  0  0
  4 23  1  0  0  0  0
  4 24  1  0  0  0  0
  5  6  1  0  0  0  0
  5 25  1  0  0  0  0
  5 26  1  0  0  0  0
  6 10  1  0  0  0  0
  6  7  1  0  0  0  0
  7  8  2  0  0  0  0
  7 27  1  0  0  0  0
  8  9  1  0  0  0  0
  8 28  1  0  0  0  0
  9 10  2  0  0  0  0
  9 48  1  0  0  0  0
 10 29  1  0  0  0  0
 11 21  1  0  0  0  0
 11 12  1  0  0  0  0
 12 13  1  0  0  0  0
 12 30  1  0  0  0  0
 12 31  1  0  0  0  0
 13 14  1  0  0  0  0
 13 32  1  0  0  0  0
 13 33  1  0  0  0  0
 14 19  1  0  0  0  0
 14 15  1  0  0  0  0
 14 20  1  0  0  0  0
 15 16  1  0  0  0  0
 15 34  1  0  0  0  0
 15 35  1  0  0  0  0
 16 17  1  0  0  0  0
 16 36  1  0  0  0  0
 16 37  1  0  0  0  0
 17 18  1  0  0  0  0
 17 38  1  0  0  0  0
 17 39  1  0  0  0  0
 18 19  1  0  0  0  0
 18 40  1  0  0  0  0
 18 41  1  0  0  0  0
 19 42  1  0  0  0  0
 19 43  1  0  0  0  0
 20 21  1  0  0  0  0
 20 44  1  0  0  0  0
 20 45  1  0  0  0  0
 21 46  1  0  0  0  0
 21 47  1  0  0  0  0
M  CHG  1   9   1
M  END
> <s_m_source_file>
AV-unprocessed.smi

> <i_m_source_file_index>
1024

> <i_lp_mmshare_version>
43012

> <i_f3d_flags>
0

> <s_epik_input>
W2NIXTFuW2NIXVtjSF1uMVtDSDJdW0NIMl1bTkhdQyg9TylOKFtDSDJdW0NIMl0yKVtDSDJdW0NIMl1DMjNbQ0gyXVtDSDJdW0NIMl1bQ0gyXVtDSDJdMw==

> <s_epik_cmdline>
J2VwaWtfcHl0aG9uJywgJy1waCcsICc3LjAnLCAnLXRuJywgJzgnLCAnLW1hJywgJzIwMCcsICctbWV0YWxfYmluZGluZycsICctaW1hZScsICc8aW5maWxlLm1hZT4nLCAnLW9tYWUnLCAnPG91dGZpbGUubWFlPic=

> <r_lp_tautomer_probability>
1

> <r_epik_Ionization_Penalty>
0.249817

> <r_epik_Ionization_Penalty_Charging>
0

> <r_epik_Ionization_Penalty_Neutral>
0.249817

> <r_epik_State_Penalty>
0.241048

> <r_epik_Charging_Adjusted_Penalty>
0.241048

> <i_epik_Tot_Q>
1

> <i_epik_Tot_abs_Q>
1

> <r_epik_Metal_State_Penalty>
0.532587

> <b_epik_Metal_Only>
0

> <s_lp_Force_Field>
OPLS_2005

> <r_lp_Energy>
44.4362

> <b_lp_Chiralities_Consistent>
1

> <s_lp_Variant>
AV-unprocessed.smi:1024-1

> <Gold.Version>
5.8.1

> <Gold.Id.Protein>
6NUR|6NUR_protein|mol2

> <Gold.PLP.Fitness>
45.3834

> <Gold.PLP.PLP>
-46.7079

> <Gold.PLP.part.hbond>
0.0000

> <Gold.PLP.part.metal>
0.0000

> <Gold.PLP.part.buried>
-3.7649

> <Gold.PLP.part.nonpolar>
-43.6444

> <Gold.PLP.part.repulsive>
0.2023

> <Gold.PLP.ligand.clash>
0.6908

> <Gold.PLP.ligand.torsion>
0.3343

> <Gold.PLP.Chemscore.Hbond>
0.0000

> <Gold.PLP.Chemscore.CHOScore>
0.0000

> <Gold.PLP.Chemscore.Metal>
0.0000

> <Gold.PLP.Chemscore.Internal.Correction>
0.0348

> <Gold.Rescore>
     Score         DG    S(hbond)    S(metal)    S(lipo)     H(rot)  DE(clash)    DE(int)     intcor
     15.47     -15.96       0.00        0.00     124.01       1.57       0.11       0.37       ----

> <Gold.Chemscore.Fitness>
15.4719

> <Gold.Chemscore.DG>
-15.9584

> <Gold.Chemscore.ZeroCoef>
-5.4800

> <Gold.Chemscore.Hbond>
0.0000

> <Gold.Chemscore.Metal>
0.0000

> <Gold.Chemscore.Lipo>
124.0141

> <Gold.Chemscore.Internal_Hbond>
0.0000

> <Gold.Chemscore.DEClash>
0.1140

> <Gold.Chemscore.DEInternal>
0.3724

> <Gold.Chemscore.Rot>
1.5747

> <Gold.Chemscore.Internal.Correction>
   9.000000E+99

> <Gold.Chemscore.Hbond.Weighted>
-0.0000

> <Gold.Chemscore.Metal.Weighted>
-0.0000

> <Gold.Chemscore.Lipo.Weighted>
-14.5097

> <Gold.Chemscore.Internal_Hbond.Weighted>
0.0000

> <Gold.Chemscore.DEClash.Weighted>
0.1140

> <Gold.Chemscore.DEInternal.Weighted>
0.3724

> <Gold.Chemscore.Rot.Weighted>
4.0313

> <Gold.Chemscore.Internal.Correction.Weighted>
   9.000000E+99

> <Gold.Protein.RotatedTorsions>
[ 6907 6896 6895 6894 ] final  -41.10 input  -60.11 | X-H torsion
[ 7974 7965 7964 7962 ] final -105.67 input  175.53 | X-H torsion
[ 8008 7997 7996 7995 ] final  119.39 input   59.86 | X-H torsion
[ 10167 10162 10161 10158 ] final   87.58 input  -65.29 | X-H torsion
[ 10718 10713 10712 10709 ] final   46.77 input   66.30 | X-H torsion
[ 10763 10752 10751 10750 ] final   -3.22 input  -60.55 | X-H torsion
[ 11005 11000 10999 10996 ] final   39.66 input  -57.11 | X-H torsion

> <Gold.Protein.ActiveResidues>
 VAL166  LYS551  ARG553  GLY616  TRP617  ASP618  TYR619  PRO620  LYS621  CYS622 
 ASP623  PHE694  ASN695  SER759  ASP760  ASP761  ALA762  ILE779  LEU786  VAL792 
 PHE793  MET794  SER795  GLU796  ALA797  LYS798  CYS799  TRP800  GLU811  SER814 

> <Gold.Protein.RotatedAtoms>
  150.9706  134.9080  159.7785 H   0  0  0  0  0  0  0  0  0  0  0  0  # atno 6907 bound_to 6896
  152.5189  134.3546  159.9273 H   0  0  0  0  0  0  0  0  0  0  0  0  # atno 6908 bound_to 6896
  151.3555  133.3868  159.2719 H   0  0  0  0  0  0  0  0  0  0  0  0  # atno 6909 bound_to 6896
  145.2275  140.9158  143.3224 H   0  0  0  0  0  0  0  0  0  0  0  0  # atno 7974 bound_to 7965
  156.2593  140.2854  156.0983 H   0  0  0  0  0  0  0  0  0  0  0  0  # atno 8008 bound_to 7997
  155.1387  140.0395  157.2810 H   0  0  0  0  0  0  0  0  0  0  0  0  # atno 8009 bound_to 7997
  154.6546  140.2552  155.7182 H   0  0  0  0  0  0  0  0  0  0  0  0  # atno 8010 bound_to 7997
  139.8759  144.6467  150.8897 H   0  0  0  0  0  0  0  0  0  0  0  0  # atno 10167 bound_to 10162
  157.4516  130.8142  149.7794 H   0  0  0  0  0  0  0  0  0  0  0  0  # atno 10718 bound_to 10713
  153.3685  135.6993  153.6656 H   0  0  0  0  0  0  0  0  0  0  0  0  # atno 10763 bound_to 10752
  153.5316  135.3591  155.2679 H   0  0  0  0  0  0  0  0  0  0  0  0  # atno 10764 bound_to 10752
  154.8678  135.4182  154.2958 H   0  0  0  0  0  0  0  0  0  0  0  0  # atno 10765 bound_to 10752
  140.2007  134.3874  155.8098 H   0  0  0  0  0  0  0  0  0  0  0  0  # atno 11005 bound_to 11000
  144.9708  139.3883  143.6310 LP  0  0  0  0  0  0  0  0  0  0  0  0  # atno 17320 bound_to 7965
  146.3361  139.8804  142.8825 LP  0  0  0  0  0  0  0  0  0  0  0  0  # atno 17321 bound_to 7965
  140.7753  143.3625  151.1801 LP  0  0  0  0  0  0  0  0  0  0  0  0  # atno 17342 bound_to 10162
  139.7240  143.9177  152.2996 LP  0  0  0  0  0  0  0  0  0  0  0  0  # atno 17343 bound_to 10162
  155.9989  130.3891  150.2683 LP  0  0  0  0  0  0  0  0  0  0  0  0  # atno 17370 bound_to 10713
  157.0855  131.0155  151.3141 LP  0  0  0  0  0  0  0  0  0  0  0  0  # atno 17371 bound_to 10713
  141.2227  133.7092  156.8252 LP  0  0  0  0  0  0  0  0  0  0  0  0  # atno 17394 bound_to 11000
  140.2058  134.8864  157.3219 LP  0  0  0  0  0  0  0  0  0  0  0  0  # atno 17395 bound_to 11000

$$$$
