AV-unprocessed.smi:2845|AV-procd|sdf|10944|dock5
  -GOLD-   2272015393D 1   1.00000     0.00000
 Structure written by MMmdl.
 42 44  0  0  0  0  0  0  0  0  1 V2000
  152.7603  142.8230  161.2400 C   0  0  0  0  0  0  0  0  0  0  0  0
  152.2334  142.4575  159.8636 C   0  0  0  0  0  0  0  0  0  0  0  0
  152.6426  141.2408  159.2713 C   0  0  0  0  0  0  0  0  0  0  0  0
  152.1757  140.8645  157.9926 C   0  0  0  0  0  0  0  0  0  0  0  0
  152.4396  139.7381  157.2306 N   0  0  0  0  0  0  0  0  0  0  0  0
  151.7081  139.9706  156.1437 C   0  0  0  0  0  0  0  0  0  0  0  0
  151.0038  141.1179  156.1117 N   0  0  0  0  0  0  0  0  0  0  0  0
  150.1356  141.5990  155.0553 C   0  0  0  0  0  0  0  0  0  0  0  0
  148.6459  141.3564  155.3800 C   0  0  1  0  0  0  0  0  0  0  0  0
  148.2154  142.2986  156.3410 O   0  0  0  0  0  0  0  0  0  0  0  0
  147.7229  141.4348  154.1466 C   0  0  0  0  0  0  0  0  0  0  0  0
  146.5143  142.2011  154.4001 N   0  0  0  0  0  0  0  0  0  0  0  0
  145.4677  141.9396  155.1889 C   0  0  0  0  0  0  0  0  0  0  0  0
  144.5390  142.8879  155.1858 N   0  0  0  0  0  0  0  0  0  0  0  0
  145.1189  143.7500  154.3012 C   0  0  0  0  0  0  0  0  0  0  0  0
  144.3529  145.3477  153.8838 S   0  0  1  0  0  0  0  0  0  0  0  0
  145.0712  145.4567  152.1770 C   0  0  0  0  0  0  0  0  0  0  0  0
  142.8556  145.0776  153.7192 O   0  0  0  0  0  0  0  0  0  0  0  0
  146.2871  143.3841  153.7803 N   0  0  0  0  0  0  0  0  0  0  0  0
  151.2811  141.7460  157.3198 C   0  0  0  0  0  0  0  0  0  0  0  0
  150.8670  142.9588  157.8975 C   0  0  0  0  0  0  0  0  0  0  0  0
  151.3431  143.3200  159.1744 C   0  0  0  0  0  0  0  0  0  0  0  0
  150.8910  144.6339  159.7867 C   0  0  0  0  0  0  0  0  0  0  0  0
  153.4410  142.0612  161.6213 H   0  0  0  0  0  0  0  0  0  0  0  0
  151.9383  142.9225  161.9492 H   0  0  0  0  0  0  0  0  0  0  0  0
  153.3032  143.7677  161.2033 H   0  0  0  0  0  0  0  0  0  0  0  0
  153.3211  140.5843  159.7960 H   0  0  0  0  0  0  0  0  0  0  0  0
  151.6835  139.2682  155.3233 H   0  0  0  0  0  0  0  0  0  0  0  0
  150.3294  142.6585  154.8819 H   0  0  0  0  0  0  0  0  0  0  0  0
  150.4269  141.0801  154.1420 H   0  0  0  0  0  0  0  0  0  0  0  0
  148.5325  140.3692  155.8305 H   0  0  0  0  0  0  0  0  0  0  0  0
  148.2218  143.1560  155.9431 H   0  0  0  0  0  0  0  0  0  0  0  0
  148.2467  141.8953  153.3080 H   0  0  0  0  0  0  0  0  0  0  0  0
  147.4345  140.4320  153.8278 H   0  0  0  0  0  0  0  0  0  0  0  0
  145.3913  141.0453  155.7901 H   0  0  0  0  0  0  0  0  0  0  0  0
  145.9956  146.0337  152.1955 H   0  0  0  0  0  0  0  0  0  0  0  0
  144.3689  145.9502  151.5057 H   0  0  0  0  0  0  0  0  0  0  0  0
  145.2884  144.4662  151.7767 H   0  0  0  0  0  0  0  0  0  0  0  0
  150.1910  143.6075  157.3604 H   0  0  0  0  0  0  0  0  0  0  0  0
  150.2096  145.1674  159.1236 H   0  0  0  0  0  0  0  0  0  0  0  0
  151.7467  145.2820  159.9765 H   0  0  0  0  0  0  0  0  0  0  0  0
  150.3718  144.4584  160.7291 H   0  0  0  0  0  0  0  0  0  0  0  0
  1  2  1  0  0  0  0
  1 24  1  0  0  0  0
  1 25  1  0  0  0  0
  1 26  1  0  0  0  0
  2 22  1  0  0  0  0
  2  3  2  0  0  0  0
  3  4  1  0  0  0  0
  3 27  1  0  0  0  0
  4 20  2  0  0  0  0
  4  5  1  0  0  0  0
  5  6  2  0  0  0  0
  6  7  1  0  0  0  0
  6 28  1  0  0  0  0
  7  8  1  0  0  0  0
  7 20  1  0  0  0  0
  8  9  1  0  0  0  0
  8 29  1  0  0  0  0
  8 30  1  0  0  0  0
  9 10  1  0  0  0  0
  9 11  1  0  0  0  0
  9 31  1  0  0  0  0
 10 32  1  0  0  0  0
 11 12  1  0  0  0  0
 11 33  1  0  0  0  0
 11 34  1  0  0  0  0
 12 19  1  0  0  0  0
 12 13  1  0  0  0  0
 13 14  2  0  0  0  0
 13 35  1  0  0  0  0
 14 15  1  0  0  0  0
 15 16  1  0  0  0  0
 15 19  2  0  0  0  0
 16 17  1  0  0  0  0
 16 18  2  0  0  0  0
 17 36  1  0  0  0  0
 17 37  1  0  0  0  0
 17 38  1  0  0  0  0
 20 21  1  0  0  0  0
 21 22  2  0  0  0  0
 21 39  1  0  0  0  0
 22 23  1  0  0  0  0
 23 40  1  0  0  0  0
 23 41  1  0  0  0  0
 23 42  1  0  0  0  0
M  END
> <s_m_source_file>
AV-unprocessed.smi

> <i_m_source_file_index>
2845

> <i_lp_mmshare_version>
43012

> <i_f3d_flags>
0

> <s_epik_input>
W0NIM11jKFtjSF0xKWMoW0NIM10pW2NIXWMoYzEyKW4oW2NIXW4yKVtDSDJdW0NASF0oW09IXSlbQ0gyXW4zW2NIXW5jKG4zKVtTQF0oPU8pW0NIM10=

> <s_epik_cmdline>
J2VwaWtfcHl0aG9uJywgJy1waCcsICc3LjAnLCAnLXRuJywgJzgnLCAnLW1hJywgJzIwMCcsICctbWV0YWxfYmluZGluZycsICctaW1hZScsICc8aW5maWxlLm1hZT4nLCAnLW9tYWUnLCAnPG91dGZpbGUubWFlPic=

> <r_lp_tautomer_probability>
1

> <r_epik_Ionization_Penalty>
0.0968684

> <r_epik_Ionization_Penalty_Charging>
0

> <r_epik_Ionization_Penalty_Neutral>
0.0968684

> <r_epik_State_Penalty>
0.0870047

> <r_epik_Charging_Adjusted_Penalty>
0.0870047

> <i_epik_Tot_Q>
0

> <i_epik_Tot_abs_Q>
0

> <r_epik_Metal_State_Penalty>
0.0746849

> <b_epik_Metal_Only>
0

> <s_lp_Force_Field>
OPLS_2005

> <r_lp_Energy>
8.02323

> <b_lp_Chiralities_Consistent>
1

> <s_lp_Variant>
AV-unprocessed.smi:2845-2

> <Gold.Version>
5.8.1

> <Gold.Id.Protein>
6NUR|6NUR_protein|mol2

> <Gold.PLP.Fitness>
52.4846

> <Gold.PLP.PLP>
-48.6809

> <Gold.PLP.part.hbond>
-3.5502

> <Gold.PLP.part.metal>
0.0000

> <Gold.PLP.part.buried>
-4.4470

> <Gold.PLP.part.nonpolar>
-42.9841

> <Gold.PLP.part.repulsive>
0.8841

> <Gold.PLP.ligand.clash>
0.0000

> <Gold.PLP.ligand.torsion>
1.6069

> <Gold.PLP.Chemscore.Hbond>
1.9913

> <Gold.PLP.Chemscore.CHOScore>
0.0000

> <Gold.PLP.Chemscore.Metal>
0.0000

> <Gold.Chemscore.Hbonds>
donor molecule, donor type, donor heavy atom, donor atom, acceptor molecule, acceptor atom, score
      L1  H    10    32       P1  8028  1.00
      P1  H  7997  8008       L1     5  0.94

> <Gold.PLP.Chemscore.Internal.Correction>
1.0438

> <Gold.Rescore>
     Score         DG    S(hbond)    S(metal)    S(lipo)     H(rot)  DE(clash)    DE(int)     intcor
     12.58     -15.61       1.33        0.00     107.89       2.71       0.65       2.38       ----

> <Gold.Chemscore.Fitness>
12.5779

> <Gold.Chemscore.DG>
-15.6082

> <Gold.Chemscore.ZeroCoef>
-5.4800

> <Gold.Chemscore.Hbond>
1.3308

> <Gold.Chemscore.Metal>
0.0000

> <Gold.Chemscore.Lipo>
107.8896

> <Gold.Chemscore.Internal_Hbond>
0.0000

> <Gold.Chemscore.DEClash>
0.6488

> <Gold.Chemscore.DEInternal>
2.3815

> <Gold.Chemscore.Rot>
2.7108

> <Gold.Chemscore.Internal.Correction>
   9.000000E+99

> <Gold.Chemscore.Hbonds>
donor molecule, donor type, donor heavy atom, donor atom, acceptor molecule, acceptor atom, score
      L1  H    10    32       P1  8028  0.77
      P1  H  7997  8008       L1     5  0.15

> <Gold.Chemscore.Hbond.Weighted>
-4.4448

> <Gold.Chemscore.Metal.Weighted>
-0.0000

> <Gold.Chemscore.Lipo.Weighted>
-12.6231

> <Gold.Chemscore.Internal_Hbond.Weighted>
0.0000

> <Gold.Chemscore.DEClash.Weighted>
0.6488

> <Gold.Chemscore.DEInternal.Weighted>
2.3815

> <Gold.Chemscore.Rot.Weighted>
6.9396

> <Gold.Chemscore.Internal.Correction.Weighted>
   9.000000E+99

> <Gold.Protein.RotatedTorsions>
[ 6907 6896 6895 6894 ] final  -51.49 input  -60.11 | X-H torsion
[ 7974 7965 7964 7962 ] final -150.88 input  175.53 | X-H torsion
[ 8008 7997 7996 7995 ] final  -62.61 input   59.86 | X-H torsion
[ 10167 10162 10161 10158 ] final -123.50 input  -65.29 | X-H torsion
[ 10718 10713 10712 10709 ] final   52.26 input   66.30 | X-H torsion
[ 10763 10752 10751 10750 ] final    0.65 input  -60.55 | X-H torsion
[ 11005 11000 10999 10996 ] final  -11.35 input  -57.11 | X-H torsion

> <Gold.Protein.ActiveResidues>
 VAL166  LYS551  ARG553  GLY616  TRP617  ASP618  TYR619  PRO620  LYS621  CYS622 
 ASP623  PHE694  ASN695  SER759  ASP760  ASP761  ALA762  ILE779  LEU786  VAL792 
 PHE793  MET794  SER795  GLU796  ALA797  LYS798  CYS799  TRP800  GLU811  SER814 

> <Gold.Protein.RotatedAtoms>
  150.8607  134.7957  159.7079 H   0  0  0  0  0  0  0  0  0  0  0  0  # atno 6907 bound_to 6896
  152.4644  134.5105  159.9762 H   0  0  0  0  0  0  0  0  0  0  0  0  # atno 6908 bound_to 6896
  151.5210  133.3428  159.2937 H   0  0  0  0  0  0  0  0  0  0  0  0  # atno 6909 bound_to 6896
  144.7882  140.4872  143.5791 H   0  0  0  0  0  0  0  0  0  0  0  0  # atno 7974 bound_to 7965
  154.4509  140.0992  156.6614 H   0  0  0  0  0  0  0  0  0  0  0  0  # atno 8008 bound_to 7997
  155.5289  140.3481  155.4403 H   0  0  0  0  0  0  0  0  0  0  0  0  # atno 8009 bound_to 7997
  156.0678  140.1342  156.9854 H   0  0  0  0  0  0  0  0  0  0  0  0  # atno 8010 bound_to 7997
  140.0028  143.5523  152.2296 H   0  0  0  0  0  0  0  0  0  0  0  0  # atno 10167 bound_to 10162
  157.5058  130.8468  149.8373 H   0  0  0  0  0  0  0  0  0  0  0  0  # atno 10718 bound_to 10713
  153.3179  135.6967  153.7056 H   0  0  0  0  0  0  0  0  0  0  0  0  # atno 10763 bound_to 10752
  153.5908  135.3480  155.2910 H   0  0  0  0  0  0  0  0  0  0  0  0  # atno 10764 bound_to 10752
  154.8591  135.4317  154.2335 H   0  0  0  0  0  0  0  0  0  0  0  0  # atno 10765 bound_to 10752
  140.7543  133.8566  155.9071 H   0  0  0  0  0  0  0  0  0  0  0  0  # atno 11005 bound_to 11000
  145.5865  139.1492  143.3206 LP  0  0  0  0  0  0  0  0  0  0  0  0  # atno 17320 bound_to 7965
  146.2123  140.5993  142.9054 LP  0  0  0  0  0  0  0  0  0  0  0  0  # atno 17321 bound_to 7965
  139.6260  144.7637  151.2638 LP  0  0  0  0  0  0  0  0  0  0  0  0  # atno 17342 bound_to 10162
  140.7412  143.6564  150.8203 LP  0  0  0  0  0  0  0  0  0  0  0  0  # atno 17343 bound_to 10162
  156.0257  130.3780  150.1830 LP  0  0  0  0  0  0  0  0  0  0  0  0  # atno 17370 bound_to 10713
  157.0019  130.9925  151.3388 LP  0  0  0  0  0  0  0  0  0  0  0  0  # atno 17371 bound_to 10713
  140.9722  134.1516  157.4567 LP  0  0  0  0  0  0  0  0  0  0  0  0  # atno 17394 bound_to 11000
  139.8782  134.9982  156.5889 LP  0  0  0  0  0  0  0  0  0  0  0  0  # atno 17395 bound_to 11000

$$$$
