AV-unprocessed.smi:701|AV-procd|sdf|3410|dock1
  -GOLD-   22720 0393D 1   1.00000     0.00000
 Structure written by MMmdl.
 49 51  0  0  0  0  0  0  0  0  1 V2000
  141.1233  135.1071  153.4156 C   0  0  0  0  0  0  0  0  0  0  0  0
  141.8519  136.3748  153.8667 C   0  0  0  0  0  0  0  0  0  0  0  0
  143.0967  136.4483  153.1930 O   0  0  0  0  0  0  0  0  0  0  0  0
  144.1953  136.0856  154.0125 C   0  0  2  0  0  0  0  0  0  0  0  0
  144.9546  137.2793  154.5987 C   0  0  0  0  0  0  0  0  0  0  0  0
  146.2140  136.4431  154.3792 C   0  0  2  0  0  0  0  0  0  0  0  0
  147.3572  137.2465  153.9610 N   0  0  0  0  0  0  0  0  0  0  0  0
  147.8898  138.2389  154.6885 C   0  0  0  0  0  0  0  0  0  0  0  0
  147.4682  138.5598  155.8005 O   0  0  0  0  0  0  0  0  0  0  0  0
  149.0988  138.9591  154.0765 C   0  0  0  0  0  0  0  0  0  0  0  0
  149.6036  140.0394  154.9359 N   0  0  0  0  0  0  0  0  0  0  0  0
  150.4073  139.7506  156.0296 C   0  0  0  0  0  0  0  0  0  0  0  0
  150.8919  140.6964  156.8691 C   0  0  0  0  0  0  0  0  0  0  0  0
  150.5802  142.1053  156.6534 C   0  0  0  0  0  0  0  0  0  0  0  0
  150.9721  143.0344  157.3561 O   0  0  0  0  0  0  0  0  0  0  0  0
  149.7679  142.3549  155.5442 N   0  0  0  0  0  0  0  0  0  0  0  0
  149.2635  141.3852  154.6766 C   0  0  0  0  0  0  0  0  0  0  0  0
  148.5505  141.7139  153.7291 O   0  0  0  0  0  0  0  0  0  0  0  0
  145.4802  135.6981  153.2298 C   0  0  0  0  0  0  0  0  0  0  0  0
  145.6413  136.2866  151.8037 C   0  0  0  0  0  0  0  0  0  0  0  0
  144.7984  135.5684  150.7320 C   0  0  0  0  0  0  0  0  0  0  0  0
  145.0652  134.0588  150.7221 C   0  0  0  0  0  0  0  0  0  0  0  0
  144.9008  133.4603  152.1237 C   0  0  0  0  0  0  0  0  0  0  0  0
  145.7867  134.1943  153.1419 C   0  0  0  0  0  0  0  0  0  0  0  0
  149.5236  143.3163  155.3560 H   0  0  0  0  0  0  0  0  0  0  0  0
  140.1583  135.0137  153.9142 H   0  0  0  0  0  0  0  0  0  0  0  0
  141.7078  134.2164  153.6472 H   0  0  0  0  0  0  0  0  0  0  0  0
  140.9450  135.1211  152.3401 H   0  0  0  0  0  0  0  0  0  0  0  0
  141.2440  137.2519  153.6412 H   0  0  0  0  0  0  0  0  0  0  0  0
  142.0098  136.3504  154.9458 H   0  0  0  0  0  0  0  0  0  0  0  0
  143.9349  135.3412  154.7690 H   0  0  0  0  0  0  0  0  0  0  0  0
  144.9003  138.1742  153.9762 H   0  0  0  0  0  0  0  0  0  0  0  0
  144.7264  137.4964  155.6424 H   0  0  0  0  0  0  0  0  0  0  0  0
  146.4150  135.7992  155.2393 H   0  0  0  0  0  0  0  0  0  0  0  0
  147.7646  137.0376  153.0612 H   0  0  0  0  0  0  0  0  0  0  0  0
  149.8789  138.2170  153.9009 H   0  0  0  0  0  0  0  0  0  0  0  0
  148.8469  139.3507  153.0885 H   0  0  0  0  0  0  0  0  0  0  0  0
  150.6600  138.7193  156.2312 H   0  0  0  0  0  0  0  0  0  0  0  0
  151.5121  140.4093  157.7059 H   0  0  0  0  0  0  0  0  0  0  0  0
  145.3892  137.3471  151.7912 H   0  0  0  0  0  0  0  0  0  0  0  0
  146.6873  136.2327  151.4994 H   0  0  0  0  0  0  0  0  0  0  0  0
  143.7373  135.7462  150.9026 H   0  0  0  0  0  0  0  0  0  0  0  0
  145.0175  135.9871  149.7496 H   0  0  0  0  0  0  0  0  0  0  0  0
  144.3926  133.5640  150.0209 H   0  0  0  0  0  0  0  0  0  0  0  0
  146.0786  133.8717  150.3647 H   0  0  0  0  0  0  0  0  0  0  0  0
  143.8565  133.5244  152.4324 H   0  0  0  0  0  0  0  0  0  0  0  0
  145.1545  132.4001  152.1053 H   0  0  0  0  0  0  0  0  0  0  0  0
  146.8343  134.0445  152.8774 H   0  0  0  0  0  0  0  0  0  0  0  0
  145.6635  133.7252  154.1185 H   0  0  0  0  0  0  0  0  0  0  0  0
  1  2  1  0  0  0  0
  1 26  1  0  0  0  0
  1 27  1  0  0  0  0
  1 28  1  0  0  0  0
  2  3  1  0  0  0  0
  2 29  1  0  0  0  0
  2 30  1  0  0  0  0
  3  4  1  0  0  0  0
  4 19  1  0  0  0  0
  4  5  1  0  0  0  0
  4 31  1  0  0  0  0
  5  6  1  0  0  0  0
  5 32  1  0  0  0  0
  5 33  1  0  0  0  0
  6  7  1  0  0  0  0
  6 19  1  0  0  0  0
  6 34  1  0  0  0  0
  7  8  1  0  0  0  0
  7 35  1  0  0  0  0
  8  9  2  0  0  0  0
  8 10  1  0  0  0  0
 10 11  1  0  0  0  0
 10 36  1  0  0  0  0
 10 37  1  0  0  0  0
 11 17  1  0  0  0  0
 11 12  1  0  0  0  0
 12 13  2  0  0  0  0
 12 38  1  0  0  0  0
 13 14  1  0  0  0  0
 13 39  1  0  0  0  0
 14 15  2  0  0  0  0
 14 16  1  0  0  0  0
 16 25  1  0  0  0  0
 16 17  1  0  0  0  0
 17 18  2  0  0  0  0
 19 24  1  0  0  0  0
 19 20  1  0  0  0  0
 20 21  1  0  0  0  0
 20 40  1  0  0  0  0
 20 41  1  0  0  0  0
 21 22  1  0  0  0  0
 21 42  1  0  0  0  0
 21 43  1  0  0  0  0
 22 23  1  0  0  0  0
 22 44  1  0  0  0  0
 22 45  1  0  0  0  0
 23 24  1  0  0  0  0
 23 46  1  0  0  0  0
 23 47  1  0  0  0  0
 24 48  1  0  0  0  0
 24 49  1  0  0  0  0
M  END
> <s_m_source_file>
AV-unprocessed.smi

> <i_m_source_file_index>
701

> <i_lp_mmshare_version>
43012

> <i_f3d_flags>
0

> <s_epik_input>
W0NIMl0xW0NIMl1bQ0gyXVtDSDJdW0NIMl1DMTJbQ0BIXShPW0NIMl1bQ0gzXSlbQ0gyXVtDQEhdMltOSF1DKD1PKVtDSDJdbjNbY0hdW2NIXWMoPU8pW25IXWMzPU8=

> <s_epik_cmdline>
J2VwaWtfcHl0aG9uJywgJy1waCcsICc3LjAnLCAnLXRuJywgJzgnLCAnLW1hJywgJzIwMCcsICctbWV0YWxfYmluZGluZycsICctaW1hZScsICc8aW5maWxlLm1hZT4nLCAnLW9tYWUnLCAnPG91dGZpbGUubWFlPic=

> <r_lp_tautomer_probability>
0.999537

> <r_epik_Ionization_Penalty>
0.00304597

> <r_epik_Ionization_Penalty_Charging>
0.00304595

> <r_epik_Ionization_Penalty_Neutral>
1.88422e-08

> <r_epik_State_Penalty>
0.00214084

> <r_epik_Charging_Adjusted_Penalty>
0.00518679

> <i_epik_Tot_Q>
0

> <i_epik_Tot_abs_Q>
0

> <r_epik_Metal_State_Penalty>
0.361872

> <b_epik_Metal_Only>
0

> <s_lp_Force_Field>
OPLS_2005

> <r_lp_Energy>
27.3359

> <b_lp_Chiralities_Consistent>
1

> <s_lp_Variant>
AV-unprocessed.smi:701-3

> <Gold.Version>
5.8.1

> <Gold.Id.Protein>
6NUR|6NUR_protein|mol2

> <Gold.PLP.Fitness>
39.9082

> <Gold.PLP.PLP>
-33.9031

> <Gold.PLP.part.hbond>
-3.0000

> <Gold.PLP.part.metal>
0.0000

> <Gold.PLP.part.buried>
-5.3513

> <Gold.PLP.part.nonpolar>
-27.0296

> <Gold.PLP.part.repulsive>
0.5979

> <Gold.PLP.ligand.clash>
0.0000

> <Gold.PLP.ligand.torsion>
1.0828

> <Gold.PLP.Chemscore.Hbond>
2.6080

> <Gold.PLP.Chemscore.CHOScore>
0.0000

> <Gold.PLP.Chemscore.Metal>
0.0000

> <Gold.Chemscore.Hbonds>
donor molecule, donor type, donor heavy atom, donor atom, acceptor molecule, acceptor atom, score
      L1  H     7    35       P1  7948  1.00
      L1  H    16    25       P1  8028  1.00
      P1  H  8011  8017       L1    18  0.59

> <Gold.PLP.Chemscore.Internal.Correction>
0.3467

> <Gold.Rescore>
     Score         DG    S(hbond)    S(metal)    S(lipo)     H(rot)  DE(clash)    DE(int)     intcor
     15.19     -16.22       2.65        0.00      61.89       2.09       0.12       0.90       ----

> <Gold.Chemscore.Fitness>
15.1929

> <Gold.Chemscore.DG>
-16.2155

> <Gold.Chemscore.ZeroCoef>
-5.4800

> <Gold.Chemscore.Hbond>
2.6505

> <Gold.Chemscore.Metal>
0.0000

> <Gold.Chemscore.Lipo>
61.8945

> <Gold.Chemscore.Internal_Hbond>
0.0000

> <Gold.Chemscore.DEClash>
0.1185

> <Gold.Chemscore.DEInternal>
0.9040

> <Gold.Chemscore.Rot>
2.0933

> <Gold.Chemscore.Internal.Correction>
   9.000000E+99

> <Gold.Chemscore.Hbonds>
donor molecule, donor type, donor heavy atom, donor atom, acceptor molecule, acceptor atom, score
      L1  H     7    35       P1  7948  0.99
      L1  H    16    25       P1  8028  0.96
      P1  H  8011  8017       L1    18  0.32

> <Gold.Chemscore.Hbond.Weighted>
-8.8526

> <Gold.Chemscore.Metal.Weighted>
-0.0000

> <Gold.Chemscore.Lipo.Weighted>
-7.2417

> <Gold.Chemscore.Internal_Hbond.Weighted>
0.0000

> <Gold.Chemscore.DEClash.Weighted>
0.1185

> <Gold.Chemscore.DEInternal.Weighted>
0.9040

> <Gold.Chemscore.Rot.Weighted>
5.3588

> <Gold.Chemscore.Internal.Correction.Weighted>
   9.000000E+99

> <Gold.Protein.RotatedTorsions>
[ 6907 6896 6895 6894 ] final  145.14 input  -60.11 | X-H torsion
[ 7974 7965 7964 7962 ] final    6.09 input  175.53 | X-H torsion
[ 8008 7997 7996 7995 ] final  -91.51 input   59.86 | X-H torsion
[ 10167 10162 10161 10158 ] final   13.21 input  -65.29 | X-H torsion
[ 10718 10713 10712 10709 ] final -144.41 input   66.30 | X-H torsion
[ 10763 10752 10751 10750 ] final  -29.25 input  -60.55 | X-H torsion
[ 11005 11000 10999 10996 ] final   19.55 input  -57.11 | X-H torsion

> <Gold.Protein.ActiveResidues>
 VAL166  LYS551  ARG553  GLY616  TRP617  ASP618  TYR619  PRO620  LYS621  CYS622 
 ASP623  PHE694  ASN695  SER759  ASP760  ASP761  ALA762  ILE779  LEU786  VAL792 
 PHE793  MET794  SER795  GLU796  ALA797  LYS798  CYS799  TRP800  GLU811  SER814 

> <Gold.Protein.RotatedAtoms>
  152.1847  133.4731  159.4976 H   0  0  0  0  0  0  0  0  0  0  0  0  # atno 6907 bound_to 6896
  150.6940  134.1789  159.4250 H   0  0  0  0  0  0  0  0  0  0  0  0  # atno 6908 bound_to 6896
  151.9701  135.0080  160.0603 H   0  0  0  0  0  0  0  0  0  0  0  0  # atno 6909 bound_to 6896
  146.2437  140.0286  142.8391 H   0  0  0  0  0  0  0  0  0  0  0  0  # atno 7974 bound_to 7965
  154.7116  140.0519  157.0555 H   0  0  0  0  0  0  0  0  0  0  0  0  # atno 8008 bound_to 7997
  155.0547  140.3183  155.4661 H   0  0  0  0  0  0  0  0  0  0  0  0  # atno 8009 bound_to 7997
  156.2791  140.2109  156.5673 H   0  0  0  0  0  0  0  0  0  0  0  0  # atno 8010 bound_to 7997
  140.6017  143.8590  150.6972 H   0  0  0  0  0  0  0  0  0  0  0  0  # atno 10167 bound_to 10162
  156.3698  130.7782  151.1961 H   0  0  0  0  0  0  0  0  0  0  0  0  # atno 10718 bound_to 10713
  153.7616  135.6919  153.4924 H   0  0  0  0  0  0  0  0  0  0  0  0  # atno 10763 bound_to 10752
  153.1934  135.4462  155.0177 H   0  0  0  0  0  0  0  0  0  0  0  0  # atno 10764 bound_to 10752
  154.8151  135.3395  154.7131 H   0  0  0  0  0  0  0  0  0  0  0  0  # atno 10765 bound_to 10752
  140.4125  134.1604  155.7668 H   0  0  0  0  0  0  0  0  0  0  0  0  # atno 11005 bound_to 11000
  145.1175  140.9443  143.4620 LP  0  0  0  0  0  0  0  0  0  0  0  0  # atno 17320 bound_to 7965
  145.0514  139.3179  143.5927 LP  0  0  0  0  0  0  0  0  0  0  0  0  # atno 17321 bound_to 7965
  140.2138  143.3863  152.1697 LP  0  0  0  0  0  0  0  0  0  0  0  0  # atno 17342 bound_to 10162
  139.5296  144.7143  151.5104 LP  0  0  0  0  0  0  0  0  0  0  0  0  # atno 17343 bound_to 10162
  157.7483  131.0375  150.4461 LP  0  0  0  0  0  0  0  0  0  0  0  0  # atno 17370 bound_to 10713
  156.4686  130.4047  149.6532 LP  0  0  0  0  0  0  0  0  0  0  0  0  # atno 17371 bound_to 10713
  141.1816  133.8402  157.1239 LP  0  0  0  0  0  0  0  0  0  0  0  0  # atno 17394 bound_to 11000
  140.0257  134.9925  157.0682 LP  0  0  0  0  0  0  0  0  0  0  0  0  # atno 17395 bound_to 11000

$$$$
