AV-unprocessed.smi:2746|AV-procd|sdf|10574|dock2
  -GOLD-   2272015 23D 1   1.00000     0.00000
 Structure written by MMmdl.
 39 40  0  0  0  0  0  0  0  0  2 V2000
  145.1840  135.9276  150.2137 C   0  0  0  0  0  0  0  0  0  0  0  0
  144.2866  135.9192  151.2107 C   0  0  0  0  0  0  0  0  0  0  0  0
  143.6661  137.1635  151.8189 C   0  0  1  0  0  0  0  0  0  0  0  0
  142.7445  136.8015  152.9902 C   0  0  0  0  0  0  0  0  0  0  0  0
  144.7053  138.0762  152.2847 N   0  0  0  0  0  0  0  0  0  0  0  0
  145.8355  137.7102  152.9122 C   0  0  0  0  0  0  0  0  0  0  0  0
  146.1123  136.5438  153.1940 O   0  0  0  0  0  0  0  0  0  0  0  0
  146.7426  138.8323  153.3261 C   0  0  0  0  0  0  0  0  0  0  0  0
  148.0220  138.6096  153.8891 C   0  0  0  0  0  0  0  0  0  0  0  0
  148.8160  139.7094  154.2803 C   0  0  0  0  0  0  0  0  0  0  0  0
  150.0836  139.4756  154.8307 N   0  0  0  0  0  0  0  0  0  0  0  0
  150.9931  138.7926  153.9191 C   0  0  0  0  0  0  0  0  0  0  0  0
  152.3137  138.4666  154.6384 C   0  0  0  0  0  0  0  0  0  0  0  0
  152.8737  139.6630  155.1721 O   0  0  0  0  0  0  0  0  0  0  0  0
  152.0101  140.2808  156.1222 C   0  0  0  0  0  0  0  0  0  0  0  0
  150.6824  140.6562  155.4412 C   0  0  0  0  0  0  0  0  0  0  0  0
  148.3063  141.0172  154.1046 C   0  0  0  0  0  0  0  0  0  0  0  0
  147.0221  141.1851  153.5509 C   0  0  0  0  0  0  0  0  0  0  0  0
  146.2983  140.1034  153.1916 N   0  3  0  0  0  0  0  0  0  0  0  0
  145.5278  136.8529  149.7753 H   0  0  0  0  0  0  0  0  0  0  0  0
  145.5873  135.0054  149.8228 H   0  0  0  0  0  0  0  0  0  0  0  0
  143.9672  134.9727  151.6223 H   0  0  0  0  0  0  0  0  0  0  0  0
  143.0648  137.6662  151.0588 H   0  0  0  0  0  0  0  0  0  0  0  0
  141.9401  136.1410  152.6646 H   0  0  0  0  0  0  0  0  0  0  0  0
  142.2842  137.6924  153.4188 H   0  0  0  0  0  0  0  0  0  0  0  0
  143.2903  136.2928  153.7855 H   0  0  0  0  0  0  0  0  0  0  0  0
  144.5515  139.0601  152.1184 H   0  0  0  0  0  0  0  0  0  0  0  0
  148.3984  137.6062  154.0286 H   0  0  0  0  0  0  0  0  0  0  0  0
  150.5306  137.8749  153.5532 H   0  0  0  0  0  0  0  0  0  0  0  0
  151.1922  139.4231  153.0515 H   0  0  0  0  0  0  0  0  0  0  0  0
  152.1533  137.7401  155.4367 H   0  0  0  0  0  0  0  0  0  0  0  0
  153.0230  138.0223  153.9402 H   0  0  0  0  0  0  0  0  0  0  0  0
  151.8402  139.6097  156.9657 H   0  0  0  0  0  0  0  0  0  0  0  0
  152.4960  141.1730  156.5172 H   0  0  0  0  0  0  0  0  0  0  0  0
  150.8625  141.4178  154.6814 H   0  0  0  0  0  0  0  0  0  0  0  0
  149.9952  141.0844  156.1721 H   0  0  0  0  0  0  0  0  0  0  0  0
  148.8864  141.8822  154.3919 H   0  0  0  0  0  0  0  0  0  0  0  0
  146.5543  142.1450  153.3875 H   0  0  0  0  0  0  0  0  0  0  0  0
  145.3678  140.2475  152.7975 H   0  0  0  0  0  0  0  0  0  0  0  0
  1  2  2  0  0  0  0
  1 20  1  0  0  0  0
  1 21  1  0  0  0  0
  2  3  1  0  0  0  0
  2 22  1  0  0  0  0
  3  4  1  0  0  0  0
  3  5  1  0  0  0  0
  3 23  1  0  0  0  0
  4 24  1  0  0  0  0
  4 25  1  0  0  0  0
  4 26  1  0  0  0  0
  5  6  1  0  0  0  0
  5 27  1  0  0  0  0
  6  7  2  0  0  0  0
  6  8  1  0  0  0  0
  8 19  1  0  0  0  0
  8  9  2  0  0  0  0
  9 10  1  0  0  0  0
  9 28  1  0  0  0  0
 10 11  1  0  0  0  0
 10 17  2  0  0  0  0
 11 16  1  0  0  0  0
 11 12  1  0  0  0  0
 12 13  1  0  0  0  0
 12 29  1  0  0  0  0
 12 30  1  0  0  0  0
 13 14  1  0  0  0  0
 13 31  1  0  0  0  0
 13 32  1  0  0  0  0
 14 15  1  0  0  0  0
 15 16  1  0  0  0  0
 15 33  1  0  0  0  0
 15 34  1  0  0  0  0
 16 35  1  0  0  0  0
 16 36  1  0  0  0  0
 17 18  1  0  0  0  0
 17 37  1  0  0  0  0
 18 19  2  0  0  0  0
 18 38  1  0  0  0  0
 19 39  1  0  0  0  0
M  CHG  1  19   1
M  END
> <s_m_source_file>
AV-unprocessed.smi

> <i_m_source_file_index>
2746

> <i_lp_mmshare_version>
43012

> <i_f3d_flags>
0

> <s_epik_input>
W0NIMl09W0NIXVtDQEhdKFtDSDNdKVtOSF1DKD1PKWMxW2NIXWMoW2NIXVtjSF1uMSlOMltDSDJdW0NIMl1PW0NIMl1bQ0gyXTI=

> <s_epik_cmdline>
J2VwaWtfcHl0aG9uJywgJy1waCcsICc3LjAnLCAnLXRuJywgJzgnLCAnLW1hJywgJzIwMCcsICctbWV0YWxfYmluZGluZycsICctaW1hZScsICc8aW5maWxlLm1hZT4nLCAnLW9tYWUnLCAnPG91dGZpbGUubWFlPic=

> <r_lp_tautomer_probability>
1

> <r_epik_Ionization_Penalty>
0.451073

> <r_epik_Ionization_Penalty_Charging>
0.450607

> <r_epik_Ionization_Penalty_Neutral>
0.000466544

> <r_epik_State_Penalty>
0.453375

> <r_epik_Charging_Adjusted_Penalty>
0.903982

> <i_epik_Tot_Q>
1

> <i_epik_Tot_abs_Q>
1

> <r_epik_Metal_State_Penalty>
1.0249

> <b_epik_Metal_Only>
0

> <s_lp_Force_Field>
OPLS_2005

> <r_lp_Energy>
25.7361

> <b_lp_Chiralities_Consistent>
1

> <s_lp_Variant>
AV-unprocessed.smi:2746-4

> <Gold.Version>
5.8.1

> <Gold.Id.Protein>
6NUR|6NUR_protein|mol2

> <Gold.PLP.Fitness>
44.9188

> <Gold.PLP.PLP>
-34.3109

> <Gold.PLP.part.hbond>
-4.2260

> <Gold.PLP.part.metal>
0.0000

> <Gold.PLP.part.buried>
-3.2949

> <Gold.PLP.part.nonpolar>
-26.7645

> <Gold.PLP.part.repulsive>
0.1784

> <Gold.PLP.ligand.clash>
0.6115

> <Gold.PLP.ligand.torsion>
0.4730

> <Gold.PLP.Chemscore.Hbond>
3.9920

> <Gold.PLP.Chemscore.CHOScore>
0.0000

> <Gold.PLP.Chemscore.Metal>
0.0000

> <Gold.Chemscore.Hbonds>
donor molecule, donor type, donor heavy atom, donor atom, acceptor molecule, acceptor atom, score
      L1  H     5    27       P1 10175  0.98
      L1  H    19    39       P1 10175  2.00
      P1  H  7989  7998       L1    14  0.01
      P1  H  7997  8009       L1    14  0.90

> <Gold.PLP.Chemscore.Internal.Correction>
0.1894

> <Gold.Rescore>
     Score         DG    S(hbond)    S(metal)    S(lipo)     H(rot)  DE(clash)    DE(int)     intcor
     18.80     -20.55       2.93        0.00      73.60       1.30       0.08       1.67       ----

> <Gold.Chemscore.Fitness>
18.7993

> <Gold.Chemscore.DG>
-20.5480

> <Gold.Chemscore.ZeroCoef>
-5.4800

> <Gold.Chemscore.Hbond>
2.9306

> <Gold.Chemscore.Metal>
0.0000

> <Gold.Chemscore.Lipo>
73.5990

> <Gold.Chemscore.Internal_Hbond>
0.0000

> <Gold.Chemscore.DEClash>
0.0808

> <Gold.Chemscore.DEInternal>
1.6680

> <Gold.Chemscore.Rot>
1.3013

> <Gold.Chemscore.Internal.Correction>
   9.000000E+99

> <Gold.Chemscore.Hbonds>
donor molecule, donor type, donor heavy atom, donor atom, acceptor molecule, acceptor atom, score
      L1  H     5    27       P1 10175  0.93
      L1  H    19    39       P1 10175  0.94
      P1  H  7997  8009       L1    14  0.18

> <Gold.Chemscore.Hbond.Weighted>
-9.7882

> <Gold.Chemscore.Metal.Weighted>
-0.0000

> <Gold.Chemscore.Lipo.Weighted>
-8.6111

> <Gold.Chemscore.Internal_Hbond.Weighted>
0.0000

> <Gold.Chemscore.DEClash.Weighted>
0.0808

> <Gold.Chemscore.DEInternal.Weighted>
1.6680

> <Gold.Chemscore.Rot.Weighted>
3.3313

> <Gold.Chemscore.Internal.Correction.Weighted>
   9.000000E+99

> <Gold.Protein.RotatedTorsions>
[ 6907 6896 6895 6894 ] final   43.76 input  -60.11 | X-H torsion
[ 7974 7965 7964 7962 ] final   76.62 input  175.53 | X-H torsion
[ 8008 7997 7996 7995 ] final -136.05 input   59.86 | X-H torsion
[ 10167 10162 10161 10158 ] final   33.95 input  -65.29 | X-H torsion
[ 10718 10713 10712 10709 ] final   29.75 input   66.30 | X-H torsion
[ 10763 10752 10751 10750 ] final   49.25 input  -60.55 | X-H torsion
[ 11005 11000 10999 10996 ] final  -84.59 input  -57.11 | X-H torsion

> <Gold.Protein.ActiveResidues>
 VAL166  LYS551  ARG553  GLY616  TRP617  ASP618  TYR619  PRO620  LYS621  CYS622 
 ASP623  PHE694  ASN695  SER759  ASP760  ASP761  ALA762  ILE779  LEU786  VAL792 
 PHE793  MET794  SER795  GLU796  ALA797  LYS798  CYS799  TRP800  GLU811  SER814 

> <Gold.Protein.RotatedAtoms>
  152.2242  134.8384  160.0481 H   0  0  0  0  0  0  0  0  0  0  0  0  # atno 6907 bound_to 6896
  151.9157  133.3567  159.3887 H   0  0  0  0  0  0  0  0  0  0  0  0  # atno 6908 bound_to 6896
  150.7008  134.4612  159.5425 H   0  0  0  0  0  0  0  0  0  0  0  0  # atno 6909 bound_to 6896
  145.7006  139.2581  143.1707 H   0  0  0  0  0  0  0  0  0  0  0  0  # atno 7974 bound_to 7965
  155.3888  140.0498  157.3041 H   0  0  0  0  0  0  0  0  0  0  0  0  # atno 8008 bound_to 7997
  154.5046  140.2169  155.9238 H   0  0  0  0  0  0  0  0  0  0  0  0  # atno 8009 bound_to 7997
  156.1510  140.3136  155.8653 H   0  0  0  0  0  0  0  0  0  0  0  0  # atno 8010 bound_to 7997
  140.4360  144.1256  150.6166 H   0  0  0  0  0  0  0  0  0  0  0  0  # atno 10167 bound_to 10162
  157.2507  130.7113  149.6404 H   0  0  0  0  0  0  0  0  0  0  0  0  # atno 10718 bound_to 10713
  152.9787  135.5917  154.4059 H   0  0  0  0  0  0  0  0  0  0  0  0  # atno 10763 bound_to 10752
  154.3700  135.2767  155.2274 H   0  0  0  0  0  0  0  0  0  0  0  0  # atno 10764 bound_to 10752
  154.4233  135.6054  153.6078 H   0  0  0  0  0  0  0  0  0  0  0  0  # atno 10765 bound_to 10752
  141.1649  133.7354  156.8890 H   0  0  0  0  0  0  0  0  0  0  0  0  # atno 11005 bound_to 11000
  146.0801  140.7773  142.9645 LP  0  0  0  0  0  0  0  0  0  0  0  0  # atno 17320 bound_to 7965
  144.6970  140.3476  143.7187 LP  0  0  0  0  0  0  0  0  0  0  0  0  # atno 17321 bound_to 7965
  140.4373  143.2542  151.9519 LP  0  0  0  0  0  0  0  0  0  0  0  0  # atno 17342 bound_to 10162
  139.4787  144.5688  151.8122 LP  0  0  0  0  0  0  0  0  0  0  0  0  # atno 17343 bound_to 10162
  155.9666  130.4428  150.5398 LP  0  0  0  0  0  0  0  0  0  0  0  0  # atno 17370 bound_to 10713
  157.3281  131.0694  151.1882 LP  0  0  0  0  0  0  0  0  0  0  0  0  # atno 17371 bound_to 10713
  140.1662  134.9132  157.2776 LP  0  0  0  0  0  0  0  0  0  0  0  0  # atno 17394 bound_to 11000
  140.2554  134.3633  155.7426 LP  0  0  0  0  0  0  0  0  0  0  0  0  # atno 17395 bound_to 11000

$$$$
