AV-unprocessed.smi:200|AV-procd|sdf|1579|dock10
  -GOLD-   2262019463D 1   1.00000     0.00000
 Structure written by MMmdl.
 56 59  0  0  0  0  0  0  0  0  1 V2000
  150.4931  129.8016  154.4815 C   0  0  0  0  0  0  0  0  0  0  0  0
  149.2519  130.3397  154.0616 O   0  0  0  0  0  0  0  0  0  0  0  0
  148.3794  130.6051  155.1471 C   0  0  0  0  0  0  0  0  0  0  0  0
  147.1223  131.3168  154.6167 C   0  0  0  0  0  0  0  0  0  0  0  0
  147.4126  132.3700  153.6368 N   0  0  0  0  0  0  0  0  0  0  0  0
  148.1759  133.4026  154.0658 C   0  0  0  0  0  0  0  0  0  0  0  0
  149.5213  133.2512  153.9865 N   0  0  0  0  0  0  0  0  0  0  0  0
  150.3303  134.2314  154.3983 C   0  0  0  0  0  0  0  0  0  0  0  0
  150.0070  135.4237  154.9033 N   0  0  0  0  0  0  0  0  0  0  0  0
  148.6548  135.5864  154.9689 C   0  0  0  0  0  0  0  0  0  0  0  0
  147.6726  134.6332  154.5765 C   0  0  0  0  0  0  0  0  0  0  0  0
  146.4008  135.1520  154.7860 N   0  0  0  0  0  0  0  0  0  0  0  0
  146.6180  136.3398  155.2795 C   0  0  0  0  0  0  0  0  0  0  0  0
  147.9433  136.6871  155.4141 N   0  0  0  0  0  0  0  0  0  0  0  0
  148.4594  137.9462  155.9296 C   0  0  0  0  0  0  0  0  0  0  0  0
  148.8991  138.9470  154.8401 C   0  0  0  0  0  0  0  0  0  0  0  0
  147.7493  139.2348  153.8579 C   0  0  0  0  0  0  0  0  0  0  0  0
  148.0322  140.3551  153.0437 O   0  0  0  0  0  0  0  0  0  0  0  0
  149.6414  140.1929  155.3431 C   0  0  0  0  0  0  0  0  0  0  0  0
  150.7202  139.9980  154.4046 O   0  0  0  0  0  0  0  0  0  0  0  0
  150.2475  138.6560  154.1649 C   0  0  0  0  0  0  0  0  0  0  0  0
  146.3830  132.8025  152.6857 C   0  0  1  0  0  0  0  0  0  0  0  0
  146.8456  133.8227  151.6424 C   0  0  0  0  0  0  0  0  0  0  0  0
  145.7176  133.7813  150.6141 C   0  0  0  0  0  0  0  0  0  0  0  0
  145.3216  132.2983  150.5269 C   0  0  2  0  0  0  0  0  0  0  0  0
  143.8478  132.0824  150.1579 C   0  0  0  0  0  0  0  0  0  0  0  0
  145.7213  131.6725  151.8777 C   0  0  0  0  0  0  0  0  0  0  0  0
  151.1216  129.6092  153.6121 H   0  0  0  0  0  0  0  0  0  0  0  0
  150.3553  128.8592  155.0133 H   0  0  0  0  0  0  0  0  0  0  0  0
  151.0232  130.4978  155.1326 H   0  0  0  0  0  0  0  0  0  0  0  0
  148.0878  129.6617  155.6107 H   0  0  0  0  0  0  0  0  0  0  0  0
  148.8816  131.1931  155.9166 H   0  0  0  0  0  0  0  0  0  0  0  0
  146.4670  130.5687  154.1749 H   0  0  0  0  0  0  0  0  0  0  0  0
  146.5671  131.7379  155.4533 H   0  0  0  0  0  0  0  0  0  0  0  0
  151.3881  134.0321  154.3101 H   0  0  0  0  0  0  0  0  0  0  0  0
  145.8111  137.0048  155.5519 H   0  0  0  0  0  0  0  0  0  0  0  0
  147.6925  138.3919  156.5643 H   0  0  0  0  0  0  0  0  0  0  0  0
  149.2902  137.7164  156.5977 H   0  0  0  0  0  0  0  0  0  0  0  0
  147.5852  138.3799  153.2010 H   0  0  0  0  0  0  0  0  0  0  0  0
  146.8049  139.3976  154.3777 H   0  0  0  0  0  0  0  0  0  0  0  0
  148.5078  140.0596  152.2822 H   0  0  0  0  0  0  0  0  0  0  0  0
  149.1058  141.1288  155.1798 H   0  0  0  0  0  0  0  0  0  0  0  0
  149.9850  140.1167  156.3761 H   0  0  0  0  0  0  0  0  0  0  0  0
  150.8613  137.9201  154.6860 H   0  0  0  0  0  0  0  0  0  0  0  0
  150.1721  138.4174  153.1035 H   0  0  0  0  0  0  0  0  0  0  0  0
  145.5882  133.2954  153.2494 H   0  0  0  0  0  0  0  0  0  0  0  0
  146.9919  134.8168  152.0655 H   0  0  0  0  0  0  0  0  0  0  0  0
  147.7754  133.5219  151.1614 H   0  0  0  0  0  0  0  0  0  0  0  0
  144.8782  134.3765  150.9768 H   0  0  0  0  0  0  0  0  0  0  0  0
  146.0176  134.1900  149.6486 H   0  0  0  0  0  0  0  0  0  0  0  0
  145.9373  131.8355  149.7542 H   0  0  0  0  0  0  0  0  0  0  0  0
  143.1839  132.5201  150.9039 H   0  0  0  0  0  0  0  0  0  0  0  0
  143.6147  131.0196  150.0865 H   0  0  0  0  0  0  0  0  0  0  0  0
  143.6155  132.5384  149.1951 H   0  0  0  0  0  0  0  0  0  0  0  0
  146.4090  130.8464  151.6971 H   0  0  0  0  0  0  0  0  0  0  0  0
  144.8681  131.2620  152.4193 H   0  0  0  0  0  0  0  0  0  0  0  0
  1  2  1  0  0  0  0
  1 28  1  0  0  0  0
  1 29  1  0  0  0  0
  1 30  1  0  0  0  0
  2  3  1  0  0  0  0
  3  4  1  0  0  0  0
  3 31  1  0  0  0  0
  3 32  1  0  0  0  0
  4  5  1  0  0  0  0
  4 33  1  0  0  0  0
  4 34  1  0  0  0  0
  5  6  1  0  0  0  0
  5 22  1  0  0  0  0
  6 11  1  0  0  0  0
  6  7  2  0  0  0  0
  7  8  1  0  0  0  0
  8  9  2  0  0  0  0
  8 35  1  0  0  0  0
  9 10  1  0  0  0  0
 10 14  1  0  0  0  0
 10 11  2  0  0  0  0
 11 12  1  0  0  0  0
 12 13  2  0  0  0  0
 13 14  1  0  0  0  0
 13 36  1  0  0  0  0
 14 15  1  0  0  0  0
 15 16  1  0  0  0  0
 15 37  1  0  0  0  0
 15 38  1  0  0  0  0
 16 21  1  0  0  0  0
 16 17  1  0  0  0  0
 16 19  1  0  0  0  0
 17 18  1  0  0  0  0
 17 39  1  0  0  0  0
 17 40  1  0  0  0  0
 18 41  1  0  0  0  0
 19 20  1  0  0  0  0
 19 42  1  0  0  0  0
 19 43  1  0  0  0  0
 20 21  1  0  0  0  0
 21 44  1  0  0  0  0
 21 45  1  0  0  0  0
 22 27  1  0  0  0  0
 22 23  1  0  0  0  0
 22 46  1  0  0  0  0
 23 24  1  0  0  0  0
 23 47  1  0  0  0  0
 23 48  1  0  0  0  0
 24 25  1  0  0  0  0
 24 49  1  0  0  0  0
 24 50  1  0  0  0  0
 25 26  1  0  0  0  0
 25 27  1  0  0  0  0
 25 51  1  0  0  0  0
 26 52  1  0  0  0  0
 26 53  1  0  0  0  0
 26 54  1  0  0  0  0
 27 55  1  0  0  0  0
 27 56  1  0  0  0  0
M  END
> <s_m_source_file>
AV-unprocessed.smi

> <i_m_source_file_index>
200

> <i_lp_mmshare_version>
43012

> <i_f3d_flags>
0

> <s_epik_input>
W0NIM11bQ0BASF0oW0NIMl0xKVtDSDJdW0NIMl1bQ0BIXTFOKFtDSDJdW0NIMl1PW0NIM10pYyhuW2NIXW4yKWMoYzIzKW5bY0hdbjNbQ0gyXUM0KFtDSDJdW09IXSlbQ0gyXU9bQ0gyXTQ=

> <s_epik_cmdline>
J2VwaWtfcHl0aG9uJywgJy1waCcsICc3LjAnLCAnLXRuJywgJzgnLCAnLW1hJywgJzIwMCcsICctbWV0YWxfYmluZGluZycsICctaW1hZScsICc8aW5maWxlLm1hZT4nLCAnLW9tYWUnLCAnPG91dGZpbGUubWFlPic=

> <r_lp_tautomer_probability>
1

> <r_epik_Ionization_Penalty>
0.00363087

> <r_epik_Ionization_Penalty_Charging>
0

> <r_epik_Ionization_Penalty_Neutral>
0.00363087

> <r_epik_State_Penalty>
0.0024341

> <r_epik_Charging_Adjusted_Penalty>
0.0024341

> <i_epik_Tot_Q>
0

> <i_epik_Tot_abs_Q>
0

> <r_epik_Metal_State_Penalty>
-0

> <b_epik_Metal_Only>
0

> <s_lp_Force_Field>
OPLS_2005

> <r_lp_Energy>
49.9898

> <b_lp_Chiralities_Consistent>
1

> <s_lp_Variant>
AV-unprocessed.smi:200-4

> <Gold.Version>
5.8.1

> <Gold.Id.Protein>
6NUR|6NUR_protein|mol2

> <Gold.PLP.Fitness>
37.2346

> <Gold.PLP.PLP>
-32.5927

> <Gold.PLP.part.hbond>
-1.6685

> <Gold.PLP.part.metal>
0.0000

> <Gold.PLP.part.buried>
-7.6364

> <Gold.PLP.part.nonpolar>
-23.9403

> <Gold.PLP.part.repulsive>
0.6246

> <Gold.PLP.ligand.clash>
0.0000

> <Gold.PLP.ligand.torsion>
1.3650

> <Gold.PLP.Chemscore.Hbond>
2.0000

> <Gold.PLP.Chemscore.CHOScore>
0.0000

> <Gold.PLP.Chemscore.Metal>
0.0000

> <Gold.Chemscore.Hbonds>
donor molecule, donor type, donor heavy atom, donor atom, acceptor molecule, acceptor atom, score
      L1  H    18    41       P1  7957  1.00
      P1  H  7989  7998       L1    20  1.00

> <Gold.PLP.Chemscore.Internal.Correction>
1.3720

> <Gold.Rescore>
     Score         DG    S(hbond)    S(metal)    S(lipo)     H(rot)  DE(clash)    DE(int)     intcor
     11.33     -13.15       2.00        0.00      80.25       3.28       0.20       1.62       ----

> <Gold.Chemscore.Fitness>
11.3326

> <Gold.Chemscore.DG>
-13.1548

> <Gold.Chemscore.ZeroCoef>
-5.4800

> <Gold.Chemscore.Hbond>
1.9977

> <Gold.Chemscore.Metal>
0.0000

> <Gold.Chemscore.Lipo>
80.2508

> <Gold.Chemscore.Internal_Hbond>
0.0000

> <Gold.Chemscore.DEClash>
0.2028

> <Gold.Chemscore.DEInternal>
1.6194

> <Gold.Chemscore.Rot>
3.2761

> <Gold.Chemscore.Internal.Correction>
   9.000000E+99

> <Gold.Chemscore.Hbonds>
donor molecule, donor type, donor heavy atom, donor atom, acceptor molecule, acceptor atom, score
      L1  H    18    41       P1  7957  0.95
      P1  H  7989  7998       L1    20  0.95

> <Gold.Chemscore.Hbond.Weighted>
-6.6723

> <Gold.Chemscore.Metal.Weighted>
-0.0000

> <Gold.Chemscore.Lipo.Weighted>
-9.3893

> <Gold.Chemscore.Internal_Hbond.Weighted>
0.0000

> <Gold.Chemscore.DEClash.Weighted>
0.2028

> <Gold.Chemscore.DEInternal.Weighted>
1.6194

> <Gold.Chemscore.Rot.Weighted>
8.3868

> <Gold.Chemscore.Internal.Correction.Weighted>
   9.000000E+99

> <Gold.Protein.RotatedTorsions>
[ 6907 6896 6895 6894 ] final  -32.16 input  -60.11 | X-H torsion
[ 7974 7965 7964 7962 ] final  -84.29 input  175.53 | X-H torsion
[ 8008 7997 7996 7995 ] final  -85.79 input   59.86 | X-H torsion
[ 10167 10162 10161 10158 ] final   20.06 input  -65.29 | X-H torsion
[ 10718 10713 10712 10709 ] final   38.28 input   66.30 | X-H torsion
[ 10763 10752 10751 10750 ] final  156.70 input  -60.55 | X-H torsion
[ 11005 11000 10999 10996 ] final -109.17 input  -57.11 | X-H torsion

> <Gold.Protein.ActiveResidues>
 VAL166  LYS551  ARG553  GLY616  TRP617  ASP618  TYR619  PRO620  LYS621  CYS622 
 ASP623  PHE694  ASN695  SER759  ASP760  ASP761  ALA762  ILE779  LEU786  VAL792 
 PHE793  MET794  SER795  GLU796  ALA797  LYS798  CYS799  TRP800  GLU811  SER814 

> <Gold.Protein.RotatedAtoms>
  151.0824  134.9866  159.8362 H   0  0  0  0  0  0  0  0  0  0  0  0  # atno 6907 bound_to 6896
  152.5421  134.2165  159.8781 H   0  0  0  0  0  0  0  0  0  0  0  0  # atno 6908 bound_to 6896
  151.2196  133.4466  159.2634 H   0  0  0  0  0  0  0  0  0  0  0  0  # atno 6909 bound_to 6896
  145.5086  140.9542  143.1720 H   0  0  0  0  0  0  0  0  0  0  0  0  # atno 7974 bound_to 7965
  154.6446  140.0587  156.9885 H   0  0  0  0  0  0  0  0  0  0  0  0  # atno 8008 bound_to 7997
  155.1464  140.3270  155.4422 H   0  0  0  0  0  0  0  0  0  0  0  0  # atno 8009 bound_to 7997
  156.2547  140.1955  156.6578 H   0  0  0  0  0  0  0  0  0  0  0  0  # atno 8010 bound_to 7997
  140.5532  143.9472  150.6592 H   0  0  0  0  0  0  0  0  0  0  0  0  # atno 10167 bound_to 10162
  157.3570  130.7629  149.7019 H   0  0  0  0  0  0  0  0  0  0  0  0  # atno 10718 bound_to 10713
  154.1885  135.2796  155.3029 H   0  0  0  0  0  0  0  0  0  0  0  0  # atno 10763 bound_to 10752
  154.5948  135.5548  153.7317 H   0  0  0  0  0  0  0  0  0  0  0  0  # atno 10764 bound_to 10752
  153.0119  135.6377  154.2023 H   0  0  0  0  0  0  0  0  0  0  0  0  # atno 10765 bound_to 10752
  141.0862  133.9134  157.2179 H   0  0  0  0  0  0  0  0  0  0  0  0  # atno 11005 bound_to 11000
  144.7740  139.6672  143.7183 LP  0  0  0  0  0  0  0  0  0  0  0  0  # atno 17320 bound_to 7965
  146.2181  139.5585  142.9637 LP  0  0  0  0  0  0  0  0  0  0  0  0  # atno 17321 bound_to 7965
  140.2903  143.3329  152.1068 LP  0  0  0  0  0  0  0  0  0  0  0  0  # atno 17342 bound_to 10162
  139.5036  144.6759  151.6129 LP  0  0  0  0  0  0  0  0  0  0  0  0  # atno 17343 bound_to 10162
  155.9731  130.4124  150.4032 LP  0  0  0  0  0  0  0  0  0  0  0  0  # atno 17370 bound_to 10713
  157.2104  131.0459  151.2602 LP  0  0  0  0  0  0  0  0  0  0  0  0  # atno 17371 bound_to 10713
  139.9681  135.0136  156.9440 LP  0  0  0  0  0  0  0  0  0  0  0  0  # atno 17394 bound_to 11000
  140.5357  134.0770  155.7327 LP  0  0  0  0  0  0  0  0  0  0  0  0  # atno 17395 bound_to 11000

$$$$
