AV-unprocessed.smi:2944|AV-procd|sdf|11272|dock4
  -GOLD-   2272016163D 1   1.00000     0.00000
 Structure written by MMmdl.
 44 46  0  0  0  0  0  0  0  0  1 V2000
  148.5890  141.0400  154.2853 C   0  0  0  0  0  0  0  0  0  0  0  0
  149.9138  140.6864  154.6387 O   0  0  0  0  0  0  0  0  0  0  0  0
  150.3350  141.2928  155.8494 C   0  0  0  0  0  0  0  0  0  0  0  0
  151.7056  140.7356  156.2575 C   0  0  0  0  0  0  0  0  0  0  0  0
  152.0537  141.0942  157.6246 N   0  0  0  0  0  0  0  0  0  0  0  0
  152.4985  140.2876  158.6203 C   0  0  0  0  0  0  0  0  0  0  0  0
  152.7484  138.5569  158.3728 S   0  0  0  0  0  0  0  0  0  0  0  0
  151.1153  138.1059  157.7068 C   0  0  2  0  0  0  0  0  0  0  0  0
  150.0366  139.0833  158.2113 C   0  0  0  0  0  0  0  0  0  0  0  0
  150.7805  136.6376  158.0407 C   0  0  0  0  0  0  0  0  0  0  0  0
  150.6620  136.3298  159.2299 O   0  0  0  0  0  0  0  0  0  0  0  0
  150.6481  135.7460  157.0181 N   0  0  0  0  0  0  0  0  0  0  0  0
  150.7631  136.0973  155.5998 C   0  0  0  0  0  0  0  0  0  0  0  0
  150.5899  134.7751  154.8628 C   0  0  0  0  0  0  0  0  0  0  0  0
  150.3602  133.8556  155.9478 N   0  0  0  0  0  0  0  0  0  0  0  0
  150.3984  134.4207  157.1566 C   0  0  0  0  0  0  0  0  0  0  0  0
  150.2321  133.7910  158.2020 O   0  0  0  0  0  0  0  0  0  0  0  0
  152.7428  140.8927  159.7837 N   0  0  0  0  0  0  0  0  0  0  0  0
  152.4311  142.2109  159.5170 C   0  0  0  0  0  0  0  0  0  0  0  0
  152.4824  143.3542  160.3462 C   0  0  0  0  0  0  0  0  0  0  0  0
  152.1108  144.6181  159.8422 C   0  0  0  0  0  0  0  0  0  0  0  0
  151.6846  144.7565  158.5053 C   0  0  0  0  0  0  0  0  0  0  0  0
  151.6266  143.6301  157.6627 C   0  0  0  0  0  0  0  0  0  0  0  0
  151.9970  142.3711  158.1716 C   0  0  0  0  0  0  0  0  0  0  0  0
  148.3142  140.5430  153.3552 H   0  0  0  0  0  0  0  0  0  0  0  0
  148.4959  142.1160  154.1324 H   0  0  0  0  0  0  0  0  0  0  0  0
  147.8800  140.7319  155.0548 H   0  0  0  0  0  0  0  0  0  0  0  0
  150.3963  142.3748  155.7227 H   0  0  0  0  0  0  0  0  0  0  0  0
  149.6070  141.0974  156.6379 H   0  0  0  0  0  0  0  0  0  0  0  0
  151.7039  139.6483  156.1766 H   0  0  0  0  0  0  0  0  0  0  0  0
  152.4791  141.0878  155.5755 H   0  0  0  0  0  0  0  0  0  0  0  0
  151.1390  138.2130  156.6235 H   0  0  0  0  0  0  0  0  0  0  0  0
  149.0469  138.8044  157.8478 H   0  0  0  0  0  0  0  0  0  0  0  0
  150.2321  140.0985  157.8669 H   0  0  0  0  0  0  0  0  0  0  0  0
  149.9979  139.1111  159.3010 H   0  0  0  0  0  0  0  0  0  0  0  0
  149.9808  136.7991  155.3067 H   0  0  0  0  0  0  0  0  0  0  0  0
  151.7326  136.5408  155.3723 H   0  0  0  0  0  0  0  0  0  0  0  0
  149.7384  134.7906  154.1816 H   0  0  0  0  0  0  0  0  0  0  0  0
  151.4860  134.4948  154.3081 H   0  0  0  0  0  0  0  0  0  0  0  0
  150.1922  132.8716  155.7954 H   0  0  0  0  0  0  0  0  0  0  0  0
  152.8090  143.2591  161.3712 H   0  0  0  0  0  0  0  0  0  0  0  0
  152.1539  145.4860  160.4841 H   0  0  0  0  0  0  0  0  0  0  0  0
  151.4027  145.7281  158.1269 H   0  0  0  0  0  0  0  0  0  0  0  0
  151.3029  143.7333  156.6376 H   0  0  0  0  0  0  0  0  0  0  0  0
  1  2  1  0  0  0  0
  1 25  1  0  0  0  0
  1 26  1  0  0  0  0
  1 27  1  0  0  0  0
  2  3  1  0  0  0  0
  3  4  1  0  0  0  0
  3 28  1  0  0  0  0
  3 29  1  0  0  0  0
  4  5  1  0  0  0  0
  4 30  1  0  0  0  0
  4 31  1  0  0  0  0
  5 24  1  0  0  0  0
  5  6  1  0  0  0  0
  6  7  1  0  0  0  0
  6 18  2  0  0  0  0
  7  8  1  0  0  0  0
  8  9  1  0  0  0  0
  8 10  1  0  0  0  0
  8 32  1  0  0  0  0
  9 33  1  0  0  0  0
  9 34  1  0  0  0  0
  9 35  1  0  0  0  0
 10 11  2  0  0  0  0
 10 12  1  0  0  0  0
 12 16  1  0  0  0  0
 12 13  1  0  0  0  0
 13 14  1  0  0  0  0
 13 36  1  0  0  0  0
 13 37  1  0  0  0  0
 14 15  1  0  0  0  0
 14 38  1  0  0  0  0
 14 39  1  0  0  0  0
 15 16  1  0  0  0  0
 15 40  1  0  0  0  0
 16 17  2  0  0  0  0
 18 19  1  0  0  0  0
 19 24  2  0  0  0  0
 19 20  1  0  0  0  0
 20 21  2  0  0  0  0
 20 41  1  0  0  0  0
 21 22  1  0  0  0  0
 21 42  1  0  0  0  0
 22 23  2  0  0  0  0
 22 43  1  0  0  0  0
 23 24  1  0  0  0  0
 23 44  1  0  0  0  0
M  END
> <s_m_source_file>
AV-unprocessed.smi

> <i_m_source_file_index>
2944

> <i_lp_mmshare_version>
43012

> <i_f3d_flags>
0

> <s_epik_input>
W2NIXTFbY0hdW2NIXVtjSF1jKGMxMiluKFtDSDJdW0NIMl1PW0NIM10pYyhuMilTW0NASF0oW0NIM10pQyg9TylOM1tDSDJdW0NIMl1bTkhdQzM9Tw==

> <s_epik_cmdline>
J2VwaWtfcHl0aG9uJywgJy1waCcsICc3LjAnLCAnLXRuJywgJzgnLCAnLW1hJywgJzIwMCcsICctbWV0YWxfYmluZGluZycsICctaW1hZScsICc8aW5maWxlLm1hZT4nLCAnLW9tYWUnLCAnPG91dGZpbGUubWFlPic=

> <r_lp_tautomer_probability>
0.9999

> <r_epik_Ionization_Penalty>
0.0250226

> <r_epik_Ionization_Penalty_Charging>
0

> <r_epik_Ionization_Penalty_Neutral>
0.0250226

> <r_epik_State_Penalty>
0.0203222

> <r_epik_Charging_Adjusted_Penalty>
0.0203222

> <i_epik_Tot_Q>
0

> <i_epik_Tot_abs_Q>
0

> <r_epik_Metal_State_Penalty>
0.0194901

> <b_epik_Metal_Only>
0

> <s_lp_Force_Field>
OPLS_2005

> <r_lp_Energy>
42.2169

> <b_lp_Chiralities_Consistent>
1

> <s_lp_Variant>
AV-unprocessed.smi:2944-1

> <Gold.Version>
5.8.1

> <Gold.Id.Protein>
6NUR|6NUR_protein|mol2

> <Gold.PLP.Fitness>
51.1732

> <Gold.PLP.PLP>
-45.1123

> <Gold.PLP.part.hbond>
-3.0000

> <Gold.PLP.part.metal>
0.0000

> <Gold.PLP.part.buried>
-7.2409

> <Gold.PLP.part.nonpolar>
-34.9104

> <Gold.PLP.part.repulsive>
0.1722

> <Gold.PLP.ligand.clash>
0.0000

> <Gold.PLP.ligand.torsion>
0.6080

> <Gold.PLP.Chemscore.Hbond>
2.4000

> <Gold.PLP.Chemscore.CHOScore>
0.0000

> <Gold.PLP.Chemscore.Metal>
0.0000

> <Gold.Chemscore.Hbonds>
donor molecule, donor type, donor heavy atom, donor atom, acceptor molecule, acceptor atom, score
      P1  H  6896  6907       L1    17  0.26
      P1  H  6896  6908       L1    11  0.97
      P1  H  7989  7998       L1     2  0.73

> <Gold.PLP.Chemscore.Internal.Correction>
0.0769

> <Gold.Rescore>
     Score         DG    S(hbond)    S(metal)    S(lipo)     H(rot)  DE(clash)    DE(int)     intcor
     18.48     -20.33       2.42        0.00     106.92       2.24       0.02       1.84       ----

> <Gold.Chemscore.Fitness>
18.4757

> <Gold.Chemscore.DG>
-20.3330

> <Gold.Chemscore.ZeroCoef>
-5.4800

> <Gold.Chemscore.Hbond>
2.4151

> <Gold.Chemscore.Metal>
0.0000

> <Gold.Chemscore.Lipo>
106.9235

> <Gold.Chemscore.Internal_Hbond>
0.0000

> <Gold.Chemscore.DEClash>
0.0197

> <Gold.Chemscore.DEInternal>
1.8376

> <Gold.Chemscore.Rot>
2.2357

> <Gold.Chemscore.Internal.Correction>
   9.000000E+99

> <Gold.Chemscore.Hbonds>
donor molecule, donor type, donor heavy atom, donor atom, acceptor molecule, acceptor atom, score
      P1  H  6896  6907       L1    17  0.26
      P1  H  6896  6908       L1    11  0.85
      P1  H  7989  7998       L1     2  0.21

> <Gold.Chemscore.Hbond.Weighted>
-8.0664

> <Gold.Chemscore.Metal.Weighted>
-0.0000

> <Gold.Chemscore.Lipo.Weighted>
-12.5100

> <Gold.Chemscore.Internal_Hbond.Weighted>
0.0000

> <Gold.Chemscore.DEClash.Weighted>
0.0197

> <Gold.Chemscore.DEInternal.Weighted>
1.8376

> <Gold.Chemscore.Rot.Weighted>
5.7234

> <Gold.Chemscore.Internal.Correction.Weighted>
   9.000000E+99

> <Gold.Protein.RotatedTorsions>
[ 6907 6896 6895 6894 ] final -133.97 input  -60.11 | X-H torsion
[ 7974 7965 7964 7962 ] final  -31.03 input  175.53 | X-H torsion
[ 8008 7997 7996 7995 ] final   -4.33 input   59.86 | X-H torsion
[ 10167 10162 10161 10158 ] final   -6.85 input  -65.29 | X-H torsion
[ 10718 10713 10712 10709 ] final  -72.94 input   66.30 | X-H torsion
[ 10763 10752 10751 10750 ] final  165.26 input  -60.55 | X-H torsion
[ 11005 11000 10999 10996 ] final   42.86 input  -57.11 | X-H torsion

> <Gold.Protein.ActiveResidues>
 VAL166  LYS551  ARG553  GLY616  TRP617  ASP618  TYR619  PRO620  LYS621  CYS622 
 ASP623  PHE694  ASN695  SER759  ASP760  ASP761  ALA762  ILE779  LEU786  VAL792 
 PHE793  MET794  SER795  GLU796  ALA797  LYS798  CYS799  TRP800  GLU811  SER814 

> <Gold.Protein.RotatedAtoms>
  150.9803  133.6252  159.2723 H   0  0  0  0  0  0  0  0  0  0  0  0  # atno 6907 bound_to 6896
  151.3510  135.0883  159.9412 H   0  0  0  0  0  0  0  0  0  0  0  0  # atno 6908 bound_to 6896
  152.5213  133.9396  159.7674 H   0  0  0  0  0  0  0  0  0  0  0  0  # atno 6909 bound_to 6896
  146.1098  140.5616  142.8783 H   0  0  0  0  0  0  0  0  0  0  0  0  # atno 7974 bound_to 7965
  154.6155  140.2487  155.7615 H   0  0  0  0  0  0  0  0  0  0  0  0  # atno 8008 bound_to 7997
  156.2396  140.2937  156.0356 H   0  0  0  0  0  0  0  0  0  0  0  0  # atno 8009 bound_to 7997
  155.1982  140.0393  157.2903 H   0  0  0  0  0  0  0  0  0  0  0  0  # atno 8010 bound_to 7997
  140.7010  143.6147  150.8669 H   0  0  0  0  0  0  0  0  0  0  0  0  # atno 10167 bound_to 10162
  156.0300  130.4383  150.2668 H   0  0  0  0  0  0  0  0  0  0  0  0  # atno 10718 bound_to 10713
  154.3213  135.2756  155.2518 H   0  0  0  0  0  0  0  0  0  0  0  0  # atno 10763 bound_to 10752
  154.4870  135.5843  153.6434 H   0  0  0  0  0  0  0  0  0  0  0  0  # atno 10764 bound_to 10752
  152.9876  135.6125  154.3398 H   0  0  0  0  0  0  0  0  0  0  0  0  # atno 10765 bound_to 10752
  140.1699  134.4235  155.8263 H   0  0  0  0  0  0  0  0  0  0  0  0  # atno 11005 bound_to 11000
  144.7502  140.5170  143.6807 LP  0  0  0  0  0  0  0  0  0  0  0  0  # atno 17320 bound_to 7965
  145.5687  139.1482  143.3300 LP  0  0  0  0  0  0  0  0  0  0  0  0  # atno 17321 bound_to 7965
  139.9869  143.5889  152.2923 LP  0  0  0  0  0  0  0  0  0  0  0  0  # atno 17342 bound_to 10162
  139.6530  144.7661  151.2110 LP  0  0  0  0  0  0  0  0  0  0  0  0  # atno 17343 bound_to 10162
  157.0771  131.0133  151.3170 LP  0  0  0  0  0  0  0  0  0  0  0  0  # atno 17370 bound_to 10713
  157.4956  130.7848  149.7551 LP  0  0  0  0  0  0  0  0  0  0  0  0  # atno 17371 bound_to 10713
  141.2216  133.6951  156.7745 LP  0  0  0  0  0  0  0  0  0  0  0  0  # atno 17394 bound_to 11000
  140.2389  134.8628  157.3553 LP  0  0  0  0  0  0  0  0  0  0  0  0  # atno 17395 bound_to 11000

$$$$
