AV-unprocessed.smi:2865|AV-procd|sdf|11016|dock3
  -GOLD-   2272015473D 1   1.00000     0.00000
 Structure written by MMmdl.
 38 41  0  0  0  0  0  0  0  0  1 V2000
  145.8178  138.4303  153.5219 O   0  0  0  0  0  0  0  0  0  0  0  0
  146.7372  137.7217  153.1191 C   0  0  0  0  0  0  0  0  0  0  0  0
  148.0459  137.9793  153.3079 N   0  0  0  0  0  0  0  0  0  0  0  0
  148.6487  139.0326  154.0460 C   0  0  0  0  0  0  0  0  0  0  0  0
  147.9502  140.0238  154.7790 C   0  0  0  0  0  0  0  0  0  0  0  0
  148.6011  140.9800  155.4766 N   0  0  0  0  0  0  0  0  0  0  0  0
  149.9361  140.9551  155.4407 C   0  0  0  0  0  0  0  0  0  0  0  0
  150.6506  141.9921  156.2507 C   0  0  0  0  0  0  0  0  0  0  0  0
  151.5484  141.5948  157.4046 C   0  0  0  0  0  0  0  0  0  0  0  0
  150.2383  142.2786  157.6802 C   0  0  0  0  0  0  0  0  0  0  0  0
  150.6984  140.0620  154.8040 N   0  0  0  0  0  0  0  0  0  0  0  0
  150.0565  139.1021  154.1044 C   0  0  0  0  0  0  0  0  0  0  0  0
  146.4942  136.6046  152.4116 N   0  0  0  0  0  0  0  0  0  0  0  0
  145.1952  136.0436  152.0322 C   0  0  1  0  0  0  0  0  0  0  0  0
  145.1081  135.7757  150.5268 C   0  0  0  0  0  0  0  0  0  0  0  0
  144.7952  134.2739  150.4859 C   0  0  1  0  0  0  0  0  0  0  0  0
  146.0146  133.4233  150.8676 C   0  0  0  0  0  0  0  0  0  0  0  0
  146.0920  133.6478  152.3768 C   0  0  0  0  0  0  0  0  0  0  0  0
  144.9345  134.6341  152.6057 C   0  0  2  0  0  0  0  0  0  0  0  0
  144.0053  134.1425  151.6553 O   0  0  0  0  0  0  0  0  0  0  0  0
  148.6890  137.3503  152.8499 H   0  0  0  0  0  0  0  0  0  0  0  0
  146.8741  140.0583  154.8405 H   0  0  0  0  0  0  0  0  0  0  0  0
  150.9607  142.8324  155.6325 H   0  0  0  0  0  0  0  0  0  0  0  0
  151.6227  140.5373  157.6507 H   0  0  0  0  0  0  0  0  0  0  0  0
  152.4580  142.1731  157.5528 H   0  0  0  0  0  0  0  0  0  0  0  0
  150.2710  143.3138  158.0137 H   0  0  0  0  0  0  0  0  0  0  0  0
  149.4405  141.6756  158.1096 H   0  0  0  0  0  0  0  0  0  0  0  0
  150.6746  138.3812  153.5892 H   0  0  0  0  0  0  0  0  0  0  0  0
  147.3024  136.0885  152.0955 H   0  0  0  0  0  0  0  0  0  0  0  0
  144.3885  136.7219  152.3165 H   0  0  0  0  0  0  0  0  0  0  0  0
  144.2924  136.3508  150.0872 H   0  0  0  0  0  0  0  0  0  0  0  0
  146.0215  136.0185  149.9816 H   0  0  0  0  0  0  0  0  0  0  0  0
  144.2999  133.9514  149.5698 H   0  0  0  0  0  0  0  0  0  0  0  0
  145.8406  132.3698  150.6464 H   0  0  0  0  0  0  0  0  0  0  0  0
  146.9190  133.7386  150.3458 H   0  0  0  0  0  0  0  0  0  0  0  0
  145.9044  132.7131  152.9067 H   0  0  0  0  0  0  0  0  0  0  0  0
  147.0595  134.0282  152.7046 H   0  0  0  0  0  0  0  0  0  0  0  0
  144.5586  134.6377  153.6291 H   0  0  0  0  0  0  0  0  0  0  0  0
  1  2  2  0  0  0  0
  2  3  1  0  0  0  0
  2 13  1  0  0  0  0
  3  4  1  0  0  0  0
  3 21  1  0  0  0  0
  4 12  1  0  0  0  0
  4  5  2  0  0  0  0
  5  6  1  0  0  0  0
  5 22  1  0  0  0  0
  6  7  2  0  0  0  0
  7  8  1  0  0  0  0
  7 11  1  0  0  0  0
  8 10  1  0  0  0  0
  8  9  1  0  0  0  0
  8 23  1  0  0  0  0
  9 10  1  0  0  0  0
  9 24  1  0  0  0  0
  9 25  1  0  0  0  0
 10 26  1  0  0  0  0
 10 27  1  0  0  0  0
 11 12  2  0  0  0  0
 12 28  1  0  0  0  0
 13 14  1  0  0  0  0
 13 29  1  0  0  0  0
 14 19  1  0  0  0  0
 14 15  1  0  0  0  0
 14 30  1  0  0  0  0
 15 16  1  0  0  0  0
 15 31  1  0  0  0  0
 15 32  1  0  0  0  0
 16 20  1  0  0  0  0
 16 17  1  0  0  0  0
 16 33  1  0  0  0  0
 17 18  1  0  0  0  0
 17 34  1  0  0  0  0
 17 35  1  0  0  0  0
 18 19  1  0  0  0  0
 18 36  1  0  0  0  0
 18 37  1  0  0  0  0
 19 20  1  0  0  0  0
 19 38  1  0  0  0  0
M  END
> <s_m_source_file>
AV-unprocessed.smi

> <i_m_source_file_index>
2865

> <i_lp_mmshare_version>
43012

> <i_f3d_flags>
0

> <s_epik_input>
W0NIMl0xW0NIMl1bQ0BIXShPMilbQ0BASF0oW0NIMl1bQ0BASF0xMilbTkhdQyg9TylbTkhdYzNbY0hdbmMobltjSF0zKVtDSF00W0NIMl1bQ0gyXTQ=

> <s_epik_cmdline>
J2VwaWtfcHl0aG9uJywgJy1waCcsICc3LjAnLCAnLXRuJywgJzgnLCAnLW1hJywgJzIwMCcsICctbWV0YWxfYmluZGluZycsICctaW1hZScsICc8aW5maWxlLm1hZT4nLCAnLW9tYWUnLCAnPG91dGZpbGUubWFlPic=

> <r_lp_tautomer_probability>
1

> <r_epik_Ionization_Penalty>
2.43104e-05

> <r_epik_Ionization_Penalty_Charging>
0

> <r_epik_Ionization_Penalty_Neutral>
2.43104e-05

> <r_epik_State_Penalty>
-0

> <r_epik_Charging_Adjusted_Penalty>
0

> <i_epik_Tot_Q>
0

> <i_epik_Tot_abs_Q>
0

> <r_epik_Metal_State_Penalty>
-0

> <b_epik_Metal_Only>
0

> <s_lp_Force_Field>
OPLS_2005

> <r_lp_Energy>
44.6294

> <b_lp_Chiralities_Consistent>
1

> <s_lp_Variant>
AV-unprocessed.smi:2865-2

> <Gold.Version>
5.8.1

> <Gold.Id.Protein>
6NUR|6NUR_protein|mol2

> <Gold.PLP.Fitness>
37.7623

> <Gold.PLP.PLP>
-29.4158

> <Gold.PLP.part.hbond>
-2.7816

> <Gold.PLP.part.metal>
0.0000

> <Gold.PLP.part.buried>
-3.6204

> <Gold.PLP.part.nonpolar>
-23.2294

> <Gold.PLP.part.repulsive>
0.5325

> <Gold.PLP.ligand.clash>
0.0000

> <Gold.PLP.ligand.torsion>
0.1686

> <Gold.PLP.Chemscore.Hbond>
2.8480

> <Gold.PLP.Chemscore.CHOScore>
0.0000

> <Gold.PLP.Chemscore.Metal>
0.0000

> <Gold.Chemscore.Hbonds>
donor molecule, donor type, donor heavy atom, donor atom, acceptor molecule, acceptor atom, score
      L1  H     3    21       P1  7948  0.93
      L1  H    13    29       P1  7948  0.86
      P1  H  7989  7998       L1    11  1.00

> <Gold.PLP.Chemscore.Internal.Correction>
0.1397

> <Gold.Rescore>
     Score         DG    S(hbond)    S(metal)    S(lipo)     H(rot)  DE(clash)    DE(int)     intcor
     16.12     -17.72       2.13        0.00      70.18       1.20       0.33       1.27       ----

> <Gold.Chemscore.Fitness>
16.1185

> <Gold.Chemscore.DG>
-17.7240

> <Gold.Chemscore.ZeroCoef>
-5.4800

> <Gold.Chemscore.Hbond>
2.1283

> <Gold.Chemscore.Metal>
0.0000

> <Gold.Chemscore.Lipo>
70.1777

> <Gold.Chemscore.Internal_Hbond>
0.0000

> <Gold.Chemscore.DEClash>
0.3345

> <Gold.Chemscore.DEInternal>
1.2710

> <Gold.Chemscore.Rot>
1.2012

> <Gold.Chemscore.Internal.Correction>
   9.000000E+99

> <Gold.Chemscore.Hbonds>
donor molecule, donor type, donor heavy atom, donor atom, acceptor molecule, acceptor atom, score
      L1  H     3    21       P1  7948  0.84
      L1  H    13    29       P1  7948  0.85
      P1  H  7989  7998       L1    11  0.22

> <Gold.Chemscore.Hbond.Weighted>
-7.1084

> <Gold.Chemscore.Metal.Weighted>
-0.0000

> <Gold.Chemscore.Lipo.Weighted>
-8.2108

> <Gold.Chemscore.Internal_Hbond.Weighted>
0.0000

> <Gold.Chemscore.DEClash.Weighted>
0.3345

> <Gold.Chemscore.DEInternal.Weighted>
1.2710

> <Gold.Chemscore.Rot.Weighted>
3.0752

> <Gold.Chemscore.Internal.Correction.Weighted>
   9.000000E+99

> <Gold.Protein.RotatedTorsions>
[ 6907 6896 6895 6894 ] final -170.11 input  -60.11 | X-H torsion
[ 7974 7965 7964 7962 ] final   81.98 input  175.53 | X-H torsion
[ 8008 7997 7996 7995 ] final   -1.91 input   59.86 | X-H torsion
[ 10167 10162 10161 10158 ] final -150.87 input  -65.29 | X-H torsion
[ 10718 10713 10712 10709 ] final   34.72 input   66.30 | X-H torsion
[ 10763 10752 10751 10750 ] final   82.87 input  -60.55 | X-H torsion
[ 11005 11000 10999 10996 ] final  158.04 input  -57.11 | X-H torsion

> <Gold.Protein.ActiveResidues>
 VAL166  LYS551  ARG553  GLY616  TRP617  ASP618  TYR619  PRO620  LYS621  CYS622 
 ASP623  PHE694  ASN695  SER759  ASP760  ASP761  ALA762  ILE779  LEU786  VAL792 
 PHE793  MET794  SER795  GLU796  ALA797  LYS798  CYS799  TRP800  GLU811  SER814 

> <Gold.Protein.RotatedAtoms>
  151.5024  133.3501  159.2870 H   0  0  0  0  0  0  0  0  0  0  0  0  # atno 6907 bound_to 6896
  150.8764  134.8150  159.7204 H   0  0  0  0  0  0  0  0  0  0  0  0  # atno 6908 bound_to 6896
  152.4734  134.4915  159.9748 H   0  0  0  0  0  0  0  0  0  0  0  0  # atno 6909 bound_to 6896
  145.6311  139.2405  143.2084 H   0  0  0  0  0  0  0  0  0  0  0  0  # atno 7974 bound_to 7965
  154.6415  140.2547  155.7317 H   0  0  0  0  0  0  0  0  0  0  0  0  # atno 8008 bound_to 7997
  156.2531  140.2886  156.0731 H   0  0  0  0  0  0  0  0  0  0  0  0  # atno 8009 bound_to 7997
  155.1589  140.0384  157.2828 H   0  0  0  0  0  0  0  0  0  0  0  0  # atno 8010 bound_to 7997
  139.7317  143.8798  152.2536 H   0  0  0  0  0  0  0  0  0  0  0  0  # atno 10167 bound_to 10162
  157.3138  130.7413  149.6742 H   0  0  0  0  0  0  0  0  0  0  0  0  # atno 10718 bound_to 10713
  153.1241  135.4712  154.9243 H   0  0  0  0  0  0  0  0  0  0  0  0  # atno 10763 bound_to 10752
  154.7603  135.3129  154.8393 H   0  0  0  0  0  0  0  0  0  0  0  0  # atno 10764 bound_to 10752
  153.8951  135.6881  153.4812 H   0  0  0  0  0  0  0  0  0  0  0  0  # atno 10765 bound_to 10752
  140.1827  134.8464  157.2821 H   0  0  0  0  0  0  0  0  0  0  0  0  # atno 11005 bound_to 11000
  146.1356  140.7127  142.9391 LP  0  0  0  0  0  0  0  0  0  0  0  0  # atno 17320 bound_to 7965
  144.7193  140.4320  143.7020 LP  0  0  0  0  0  0  0  0  0  0  0  0  # atno 17321 bound_to 7965
  139.8723  144.7061  150.8973 LP  0  0  0  0  0  0  0  0  0  0  0  0  # atno 17342 bound_to 10162
  140.7772  143.3728  151.1618 LP  0  0  0  0  0  0  0  0  0  0  0  0  # atno 17343 bound_to 10162
  155.9680  130.4243  150.4603 LP  0  0  0  0  0  0  0  0  0  0  0  0  # atno 17370 bound_to 10713
  157.2607  131.0566  151.2322 LP  0  0  0  0  0  0  0  0  0  0  0  0  # atno 17371 bound_to 10713
  140.2249  134.3979  155.7548 LP  0  0  0  0  0  0  0  0  0  0  0  0  # atno 17394 bound_to 11000
  141.2223  133.7185  156.8549 LP  0  0  0  0  0  0  0  0  0  0  0  0  # atno 17395 bound_to 11000

$$$$
