AV-unprocessed.smi:3072|AV-procd|sdf|11718|dock7
  -GOLD-   2272017123D 1   1.00000     0.00000
 Structure written by MMmdl.
 25 26  0  0  0  0  0  0  0  0  2 V2000
  153.0575  142.3995  161.7106 C   0  0  0  0  0  0  0  0  0  0  0  0
  153.0029  143.0108  162.8831 N   0  0  0  0  0  0  0  0  0  0  0  0
  152.2375  144.0910  162.6440 N   0  0  0  0  0  0  0  0  0  0  0  0
  151.8113  144.1659  161.3391 C   0  0  0  0  0  0  0  0  0  0  0  0
  152.3276  143.0779  160.6897 C   0  0  0  0  0  0  0  0  0  0  0  0
  152.1797  142.6717  159.2456 C   0  0  1  0  0  0  0  0  0  0  0  0
  151.7107  141.2094  159.1169 C   0  0  0  0  0  0  0  0  0  0  0  0
  151.5248  140.8306  157.6392 C   0  0  0  0  0  0  0  0  0  0  0  0
  150.5768  141.8144  156.9339 C   0  0  0  0  0  0  0  0  0  0  0  0
  151.0594  143.2042  157.0850 N   0  3  0  0  0  0  0  0  0  0  0  0
  151.2106  143.6119  158.4991 C   0  0  0  0  0  0  0  0  0  0  0  0
  152.0179  144.7577  163.3707 H   0  0  0  0  0  0  0  0  0  0  0  0
  153.6257  141.4842  161.6325 H   0  0  0  0  0  0  0  0  0  0  0  0
  151.1874  144.9744  160.9873 H   0  0  0  0  0  0  0  0  0  0  0  0
  153.1512  142.7472  158.7542 H   0  0  0  0  0  0  0  0  0  0  0  0
  152.4331  140.5389  159.5838 H   0  0  0  0  0  0  0  0  0  0  0  0
  150.7676  141.0693  159.6473 H   0  0  0  0  0  0  0  0  0  0  0  0
  152.4930  140.8302  157.1364 H   0  0  0  0  0  0  0  0  0  0  0  0
  151.1353  139.8152  157.5606 H   0  0  0  0  0  0  0  0  0  0  0  0
  150.5039  141.5755  155.8727 H   0  0  0  0  0  0  0  0  0  0  0  0
  149.5707  141.7360  157.3485 H   0  0  0  0  0  0  0  0  0  0  0  0
  151.9577  143.2835  156.6301 H   0  0  0  0  0  0  0  0  0  0  0  0
  150.2286  143.6112  158.9743 H   0  0  0  0  0  0  0  0  0  0  0  0
  151.5783  144.6380  158.5297 H   0  0  0  0  0  0  0  0  0  0  0  0
  150.4081  143.8289  156.6314 H   0  0  0  0  0  0  0  0  0  0  0  0
  1  5  1  0  0  0  0
  1  2  2  0  0  0  0
  1 13  1  0  0  0  0
  2  3  1  0  0  0  0
  3 12  1  0  0  0  0
  3  4  1  0  0  0  0
  4  5  2  0  0  0  0
  4 14  1  0  0  0  0
  5  6  1  0  0  0  0
  6 11  1  0  0  0  0
  6  7  1  0  0  0  0
  6 15  1  0  0  0  0
  7  8  1  0  0  0  0
  7 16  1  0  0  0  0
  7 17  1  0  0  0  0
  8  9  1  0  0  0  0
  8 18  1  0  0  0  0
  8 19  1  0  0  0  0
  9 10  1  0  0  0  0
  9 20  1  0  0  0  0
  9 21  1  0  0  0  0
 10 11  1  0  0  0  0
 10 22  1  0  0  0  0
 10 25  1  0  0  0  0
 11 23  1  0  0  0  0
 11 24  1  0  0  0  0
M  CHG  1  10   1
M  END
> <s_m_source_file>
AV-unprocessed.smi

> <i_m_source_file_index>
3072

> <i_lp_mmshare_version>
43012

> <i_f3d_flags>
0

> <s_epik_input>
W2NIXTFbbkhdbltjSF1jMVtDQEBIXTJbQ0gyXVtDSDJdW0NIMl1bTkhdW0NIMl0y

> <s_epik_cmdline>
J2VwaWtfcHl0aG9uJywgJy1waCcsICc3LjAnLCAnLXRuJywgJzgnLCAnLW1hJywgJzIwMCcsICctbWV0YWxfYmluZGluZycsICctaW1hZScsICc8aW5maWxlLm1hZT4nLCAnLW9tYWUnLCAnPG91dGZpbGUubWFlPic=

> <r_lp_tautomer_probability>
1

> <r_epik_Ionization_Penalty>
0.000160186

> <r_epik_Ionization_Penalty_Charging>
0.000157527

> <r_epik_Ionization_Penalty_Neutral>
2.65916e-06

> <r_epik_State_Penalty>
-0

> <r_epik_Charging_Adjusted_Penalty>
0.000157527

> <i_epik_Tot_Q>
1

> <i_epik_Tot_abs_Q>
1

> <r_epik_Metal_State_Penalty>
-0

> <b_epik_Metal_Only>
0

> <s_lp_Force_Field>
OPLS_2005

> <r_lp_Energy>
12.3326

> <b_lp_Chiralities_Consistent>
1

> <s_lp_Variant>
AV-unprocessed.smi:3072-2

> <Gold.Version>
5.8.1

> <Gold.Id.Protein>
6NUR|6NUR_protein|mol2

> <Gold.PLP.Fitness>
34.2119

> <Gold.PLP.PLP>
-28.3774

> <Gold.PLP.part.hbond>
-3.0000

> <Gold.PLP.part.metal>
0.0000

> <Gold.PLP.part.buried>
-4.6739

> <Gold.PLP.part.nonpolar>
-21.3578

> <Gold.PLP.part.repulsive>
0.2172

> <Gold.PLP.ligand.clash>
0.0000

> <Gold.PLP.ligand.torsion>
0.0889

> <Gold.PLP.Chemscore.Hbond>
2.0000

> <Gold.PLP.Chemscore.CHOScore>
0.0000

> <Gold.PLP.Chemscore.Metal>
0.0000

> <Gold.Chemscore.Hbonds>
donor molecule, donor type, donor heavy atom, donor atom, acceptor molecule, acceptor atom, score
      L1  H    10    25       P1  8028  2.00

> <Gold.PLP.Chemscore.Internal.Correction>
0.0123

> <Gold.Rescore>
     Score         DG    S(hbond)    S(metal)    S(lipo)     H(rot)  DE(clash)    DE(int)     intcor
     15.15     -15.31       0.98        0.00      77.81       1.00       0.14       0.02       ----

> <Gold.Chemscore.Fitness>
15.1533

> <Gold.Chemscore.DG>
-15.3120

> <Gold.Chemscore.ZeroCoef>
-5.4800

> <Gold.Chemscore.Hbond>
0.9846

> <Gold.Chemscore.Metal>
0.0000

> <Gold.Chemscore.Lipo>
77.8075

> <Gold.Chemscore.Internal_Hbond>
0.0000

> <Gold.Chemscore.DEClash>
0.1426

> <Gold.Chemscore.DEInternal>
0.0161

> <Gold.Chemscore.Rot>
1.0000

> <Gold.Chemscore.Internal.Correction>
   9.000000E+99

> <Gold.Chemscore.Hbonds>
donor molecule, donor type, donor heavy atom, donor atom, acceptor molecule, acceptor atom, score
      L1  H    10    25       P1  8028  0.96

> <Gold.Chemscore.Hbond.Weighted>
-3.2885

> <Gold.Chemscore.Metal.Weighted>
-0.0000

> <Gold.Chemscore.Lipo.Weighted>
-9.1035

> <Gold.Chemscore.Internal_Hbond.Weighted>
0.0000

> <Gold.Chemscore.DEClash.Weighted>
0.1426

> <Gold.Chemscore.DEInternal.Weighted>
0.0161

> <Gold.Chemscore.Rot.Weighted>
2.5600

> <Gold.Chemscore.Internal.Correction.Weighted>
   9.000000E+99

> <Gold.Protein.RotatedTorsions>
[ 6907 6896 6895 6894 ] final -125.60 input  -60.11 | X-H torsion
[ 7974 7965 7964 7962 ] final  -94.67 input  175.53 | X-H torsion
[ 8008 7997 7996 7995 ] final  169.02 input   59.86 | X-H torsion
[ 10167 10162 10161 10158 ] final  -77.72 input  -65.29 | X-H torsion
[ 10718 10713 10712 10709 ] final  120.26 input   66.30 | X-H torsion
[ 10763 10752 10751 10750 ] final   49.89 input  -60.55 | X-H torsion
[ 11005 11000 10999 10996 ] final  108.16 input  -57.11 | X-H torsion

> <Gold.Protein.ActiveResidues>
 VAL166  LYS551  ARG553  GLY616  TRP617  ASP618  TYR619  PRO620  LYS621  CYS622 
 ASP623  PHE694  ASN695  SER759  ASP760  ASP761  ALA762  ILE779  LEU786  VAL792 
 PHE793  MET794  SER795  GLU796  ALA797  LYS798  CYS799  TRP800  GLU811  SER814 

> <Gold.Protein.RotatedAtoms>
  150.8884  133.7277  159.2911 H   0  0  0  0  0  0  0  0  0  0  0  0  # atno 6907 bound_to 6896
  151.4835  135.1052  159.9794 H   0  0  0  0  0  0  0  0  0  0  0  0  # atno 6908 bound_to 6896
  152.4804  133.8194  159.7101 H   0  0  0  0  0  0  0  0  0  0  0  0  # atno 6909 bound_to 6896
  145.3702  140.9504  143.2451 H   0  0  0  0  0  0  0  0  0  0  0  0  # atno 7974 bound_to 7965
  156.1495  140.1575  156.8793 H   0  0  0  0  0  0  0  0  0  0  0  0  # atno 8008 bound_to 7997
  154.5058  140.0813  156.7928 H   0  0  0  0  0  0  0  0  0  0  0  0  # atno 8009 bound_to 7997
  155.3924  140.3410  155.4254 H   0  0  0  0  0  0  0  0  0  0  0  0  # atno 8010 bound_to 7997
  140.4745  143.2418  151.8154 H   0  0  0  0  0  0  0  0  0  0  0  0  # atno 10167 bound_to 10162
  157.5904  131.1065  150.8010 H   0  0  0  0  0  0  0  0  0  0  0  0  # atno 10718 bound_to 10713
  152.9785  135.5897  154.4163 H   0  0  0  0  0  0  0  0  0  0  0  0  # atno 10763 bound_to 10752
  154.3793  135.2767  155.2223 H   0  0  0  0  0  0  0  0  0  0  0  0  # atno 10764 bound_to 10752
  154.4144  135.6074  153.6026 H   0  0  0  0  0  0  0  0  0  0  0  0  # atno 10765 bound_to 10752
  139.8839  134.9422  156.5930 H   0  0  0  0  0  0  0  0  0  0  0  0  # atno 11005 bound_to 11000
  144.8582  139.5218  143.6825 LP  0  0  0  0  0  0  0  0  0  0  0  0  # atno 17320 bound_to 7965
  146.2888  139.7081  142.9176 LP  0  0  0  0  0  0  0  0  0  0  0  0  # atno 17321 bound_to 7965
  139.4823  144.4850  151.9258 LP  0  0  0  0  0  0  0  0  0  0  0  0  # atno 17342 bound_to 10162
  140.3936  144.2584  150.5898 LP  0  0  0  0  0  0  0  0  0  0  0  0  # atno 17343 bound_to 10162
  156.8433  130.5055  149.5319 LP  0  0  0  0  0  0  0  0  0  0  0  0  # atno 17370 bound_to 10713
  156.0958  130.5931  150.9810 LP  0  0  0  0  0  0  0  0  0  0  0  0  # atno 17371 bound_to 10713
  140.7941  133.8558  155.8671 LP  0  0  0  0  0  0  0  0  0  0  0  0  # atno 17394 bound_to 11000
  140.9651  134.1605  157.4623 LP  0  0  0  0  0  0  0  0  0  0  0  0  # atno 17395 bound_to 11000

$$$$
