AV-unprocessed.smi:2181|AV-procd|sdf|8861|dock2
  -GOLD-   2272012 53D 1   1.00000     0.00000
 Structure written by MMmdl.
 38 39  0  0  0  0  0  0  0  0  1 V2000
  148.4914  137.1368  154.5465 C   0  0  0  0  0  0  0  0  0  0  0  0
  149.9688  137.4010  154.6049 C   0  0  0  0  0  0  0  0  0  0  0  0
  150.8124  136.3866  154.5142 N   0  0  0  0  0  0  0  0  0  0  0  0
  152.0925  136.9443  154.5865 O   0  0  0  0  0  0  0  0  0  0  0  0
  151.9678  138.2894  154.7182 C   0  0  0  0  0  0  0  0  0  0  0  0
  153.2320  139.0762  154.8033 C   0  0  0  0  0  0  0  0  0  0  0  0
  150.6479  138.6472  154.7381 C   0  0  0  0  0  0  0  0  0  0  0  0
  150.0543  140.0268  154.8621 C   0  0  0  0  0  0  0  0  0  0  0  0
  150.2254  140.5301  156.2948 C   0  0  0  0  0  0  0  0  0  0  0  0
  149.7656  139.8820  157.2347 O   0  0  0  0  0  0  0  0  0  0  0  0
  150.8946  141.6837  156.4440 N   0  0  0  0  0  0  0  0  0  0  0  0
  151.2180  142.3304  157.7146 C   0  0  2  0  0  0  0  0  0  0  0  0
  151.6697  143.7958  157.4843 C   0  0  0  0  0  0  0  0  0  0  0  0
  152.5799  144.4045  158.5716 C   0  0  0  0  0  0  0  0  0  0  0  0
  152.0397  144.3215  160.0139 C   0  0  0  0  0  0  0  0  0  0  0  0
  151.6552  142.9151  160.5330 C   0  0  0  0  0  0  0  0  0  0  0  0
  152.3392  141.8137  159.8562 N   0  0  0  0  0  0  0  0  0  0  0  0
  152.1712  141.4702  158.5675 C   0  0  0  0  0  0  0  0  0  0  0  0
  152.7722  140.5165  158.0737 O   0  0  0  0  0  0  0  0  0  0  0  0
  148.1391  137.1323  153.5149 H   0  0  0  0  0  0  0  0  0  0  0  0
  147.9301  137.9006  155.0843 H   0  0  0  0  0  0  0  0  0  0  0  0
  148.2399  136.1722  154.9886 H   0  0  0  0  0  0  0  0  0  0  0  0
  153.3935  139.6428  153.8859 H   0  0  0  0  0  0  0  0  0  0  0  0
  154.0926  138.4242  154.9551 H   0  0  0  0  0  0  0  0  0  0  0  0
  153.1931  139.7813  155.6336 H   0  0  0  0  0  0  0  0  0  0  0  0
  150.5220  140.7270  154.1691 H   0  0  0  0  0  0  0  0  0  0  0  0
  148.9919  140.0266  154.6159 H   0  0  0  0  0  0  0  0  0  0  0  0
  151.2386  142.1399  155.6114 H   0  0  0  0  0  0  0  0  0  0  0  0
  150.2847  142.3614  158.2786 H   0  0  0  0  0  0  0  0  0  0  0  0
  152.2050  143.8638  156.5362 H   0  0  0  0  0  0  0  0  0  0  0  0
  150.7846  144.4223  157.3658 H   0  0  0  0  0  0  0  0  0  0  0  0
  153.5622  143.9319  158.5275 H   0  0  0  0  0  0  0  0  0  0  0  0
  152.7616  145.4516  158.3273 H   0  0  0  0  0  0  0  0  0  0  0  0
  152.8046  144.7330  160.6735 H   0  0  0  0  0  0  0  0  0  0  0  0
  151.1792  144.9831  160.1197 H   0  0  0  0  0  0  0  0  0  0  0  0
  151.8724  142.8498  161.5995 H   0  0  0  0  0  0  0  0  0  0  0  0
  150.5777  142.7687  160.4518 H   0  0  0  0  0  0  0  0  0  0  0  0
  152.9753  141.2605  160.4124 H   0  0  0  0  0  0  0  0  0  0  0  0
  1  2  1  0  0  0  0
  1 20  1  0  0  0  0
  1 21  1  0  0  0  0
  1 22  1  0  0  0  0
  2  7  1  0  0  0  0
  2  3  2  0  0  0  0
  3  4  1  0  0  0  0
  4  5  1  0  0  0  0
  5  6  1  0  0  0  0
  5  7  2  0  0  0  0
  6 23  1  0  0  0  0
  6 24  1  0  0  0  0
  6 25  1  0  0  0  0
  7  8  1  0  0  0  0
  8  9  1  0  0  0  0
  8 26  1  0  0  0  0
  8 27  1  0  0  0  0
  9 10  2  0  0  0  0
  9 11  1  0  0  0  0
 11 12  1  0  0  0  0
 11 28  1  0  0  0  0
 12 18  1  0  0  0  0
 12 13  1  0  0  0  0
 12 29  1  0  0  0  0
 13 14  1  0  0  0  0
 13 30  1  0  0  0  0
 13 31  1  0  0  0  0
 14 15  1  0  0  0  0
 14 32  1  0  0  0  0
 14 33  1  0  0  0  0
 15 16  1  0  0  0  0
 15 34  1  0  0  0  0
 15 35  1  0  0  0  0
 16 17  1  0  0  0  0
 16 36  1  0  0  0  0
 16 37  1  0  0  0  0
 17 18  1  0  0  0  0
 17 38  1  0  0  0  0
 18 19  2  0  0  0  0
M  END
> <s_m_source_file>
AV-unprocessed.smi

> <i_m_source_file_index>
2181

> <i_lp_mmshare_version>
43012

> <i_f3d_flags>
0

> <s_epik_input>
W0NIM11jMW5vYyhbQ0gzXSljMVtDSDJdQyg9TylbTkhdW0NAQEhdMltDSDJdW0NIMl1bQ0gyXVtDSDJdW05IXUMyPU8=

> <s_epik_cmdline>
J2VwaWtfcHl0aG9uJywgJy1waCcsICc3LjAnLCAnLXRuJywgJzgnLCAnLW1hJywgJzIwMCcsICctbWV0YWxfYmluZGluZycsICctaW1hZScsICc8aW5maWxlLm1hZT4nLCAnLW9tYWUnLCAnPG91dGZpbGUubWFlPic=

> <r_lp_tautomer_probability>
1

> <r_epik_Ionization_Penalty>
5.91376e-08

> <r_epik_Ionization_Penalty_Charging>
0

> <r_epik_Ionization_Penalty_Neutral>
5.91376e-08

> <r_epik_State_Penalty>
-0

> <r_epik_Charging_Adjusted_Penalty>
0

> <i_epik_Tot_Q>
0

> <i_epik_Tot_abs_Q>
0

> <r_epik_Metal_State_Penalty>
-0

> <b_epik_Metal_Only>
0

> <s_lp_Force_Field>
OPLS_2005

> <r_lp_Energy>
8.47239

> <b_lp_Chiralities_Consistent>
1

> <s_lp_Variant>
AV-unprocessed.smi:2181-1

> <Gold.Version>
5.8.1

> <Gold.Id.Protein>
6NUR|6NUR_protein|mol2

> <Gold.PLP.Fitness>
39.8528

> <Gold.PLP.PLP>
-34.8626

> <Gold.PLP.part.hbond>
-2.0000

> <Gold.PLP.part.metal>
0.0000

> <Gold.PLP.part.buried>
-4.5229

> <Gold.PLP.part.nonpolar>
-29.1705

> <Gold.PLP.part.repulsive>
0.4937

> <Gold.PLP.ligand.clash>
0.0000

> <Gold.PLP.ligand.torsion>
0.2455

> <Gold.PLP.Chemscore.Hbond>
1.8089

> <Gold.PLP.Chemscore.CHOScore>
0.0000

> <Gold.PLP.Chemscore.Metal>
0.0000

> <Gold.Chemscore.Hbonds>
donor molecule, donor type, donor heavy atom, donor atom, acceptor molecule, acceptor atom, score
      P1  H  7997  8008       L1    19  0.64
      P1  H 10752 10764       L1     4  0.85

> <Gold.PLP.Chemscore.Internal.Correction>
0.0547

> <Gold.Rescore>
     Score         DG    S(hbond)    S(metal)    S(lipo)     H(rot)  DE(clash)    DE(int)     intcor
     18.32     -19.00       1.81        0.00      96.69       1.49       0.50       0.19       ----

> <Gold.Chemscore.Fitness>
18.3166

> <Gold.Chemscore.DG>
-19.0014

> <Gold.Chemscore.ZeroCoef>
-5.4800

> <Gold.Chemscore.Hbond>
1.8072

> <Gold.Chemscore.Metal>
0.0000

> <Gold.Chemscore.Lipo>
96.6855

> <Gold.Chemscore.Internal_Hbond>
0.0000

> <Gold.Chemscore.DEClash>
0.4961

> <Gold.Chemscore.DEInternal>
0.1887

> <Gold.Chemscore.Rot>
1.4949

> <Gold.Chemscore.Internal.Correction>
   9.000000E+99

> <Gold.Chemscore.Hbonds>
donor molecule, donor type, donor heavy atom, donor atom, acceptor molecule, acceptor atom, score
      P1  H  7997  8008       L1    19  0.61
      P1  H 10752 10764       L1     4  0.19

> <Gold.Chemscore.Hbond.Weighted>
-6.0362

> <Gold.Chemscore.Metal.Weighted>
-0.0000

> <Gold.Chemscore.Lipo.Weighted>
-11.3122

> <Gold.Chemscore.Internal_Hbond.Weighted>
0.0000

> <Gold.Chemscore.DEClash.Weighted>
0.4961

> <Gold.Chemscore.DEInternal.Weighted>
0.1887

> <Gold.Chemscore.Rot.Weighted>
3.8269

> <Gold.Chemscore.Internal.Correction.Weighted>
   9.000000E+99

> <Gold.Protein.RotatedTorsions>
[ 6907 6896 6895 6894 ] final -165.22 input  -60.11 | X-H torsion
[ 7974 7965 7964 7962 ] final  138.07 input  175.53 | X-H torsion
[ 8008 7997 7996 7995 ] final  -78.20 input   59.86 | X-H torsion
[ 10167 10162 10161 10158 ] final -172.57 input  -65.29 | X-H torsion
[ 10718 10713 10712 10709 ] final -103.82 input   66.30 | X-H torsion
[ 10763 10752 10751 10750 ] final  -59.89 input  -60.55 | X-H torsion
[ 11005 11000 10999 10996 ] final  -79.28 input  -57.11 | X-H torsion

> <Gold.Protein.ActiveResidues>
 VAL166  LYS551  ARG553  GLY616  TRP617  ASP618  TYR619  PRO620  LYS621  CYS622 
 ASP623  PHE694  ASN695  SER759  ASP760  ASP761  ALA762  ILE779  LEU786  VAL792 
 PHE793  MET794  SER795  GLU796  ALA797  LYS798  CYS799  TRP800  GLU811  SER814 

> <Gold.Protein.RotatedAtoms>
  151.4242  133.3689  159.2759 H   0  0  0  0  0  0  0  0  0  0  0  0  # atno 6907 bound_to 6896
  150.9271  134.8689  159.7538 H   0  0  0  0  0  0  0  0  0  0  0  0  # atno 6908 bound_to 6896
  152.5010  134.4184  159.9524 H   0  0  0  0  0  0  0  0  0  0  0  0  # atno 6909 bound_to 6896
  144.9407  139.4934  143.5573 H   0  0  0  0  0  0  0  0  0  0  0  0  # atno 7974 bound_to 7965
  154.5667  140.0698  156.8903 H   0  0  0  0  0  0  0  0  0  0  0  0  # atno 8008 bound_to 7997
  155.2709  140.3365  155.4247 H   0  0  0  0  0  0  0  0  0  0  0  0  # atno 8009 bound_to 7997
  156.2086  140.1750  156.7730 H   0  0  0  0  0  0  0  0  0  0  0  0  # atno 8010 bound_to 7997
  139.5737  144.1582  152.1420 H   0  0  0  0  0  0  0  0  0  0  0  0  # atno 10167 bound_to 10162
  156.0280  130.5485  150.7308 H   0  0  0  0  0  0  0  0  0  0  0  0  # atno 10718 bound_to 10713
  154.2607  135.6309  153.5273 H   0  0  0  0  0  0  0  0  0  0  0  0  # atno 10763 bound_to 10752
  152.9896  135.5587  154.5707 H   0  0  0  0  0  0  0  0  0  0  0  0  # atno 10764 bound_to 10752
  154.5256  135.2885  155.1200 H   0  0  0  0  0  0  0  0  0  0  0  0  # atno 10765 bound_to 10752
  141.1667  133.7099  156.8099 H   0  0  0  0  0  0  0  0  0  0  0  0  # atno 11005 bound_to 11000
  146.3284  139.8424  142.8888 LP  0  0  0  0  0  0  0  0  0  0  0  0  # atno 17320 bound_to 7965
  145.2996  141.0190  143.3616 LP  0  0  0  0  0  0  0  0  0  0  0  0  # atno 17321 bound_to 7965
  140.1121  144.5448  150.6918 LP  0  0  0  0  0  0  0  0  0  0  0  0  # atno 17342 bound_to 10162
  140.7020  143.2441  151.4836 LP  0  0  0  0  0  0  0  0  0  0  0  0  # atno 17343 bound_to 10162
  157.4901  131.0910  151.0437 LP  0  0  0  0  0  0  0  0  0  0  0  0  # atno 17370 bound_to 10713
  157.0846  130.5917  149.5427 LP  0  0  0  0  0  0  0  0  0  0  0  0  # atno 17371 bound_to 10713
  140.2195  134.8767  157.3362 LP  0  0  0  0  0  0  0  0  0  0  0  0  # atno 17394 bound_to 11000
  140.2002  134.4264  155.7667 LP  0  0  0  0  0  0  0  0  0  0  0  0  # atno 17395 bound_to 11000

$$$$
