AV-unprocessed.smi:275|AV-procd|sdf|2064|dock4
  -GOLD-   2262021313D 1   1.00000     0.00000
 Structure written by MMmdl.
 65 69  0  0  0  0  0  0  0  0  1 V2000
  153.4013  138.9440  159.1986 C   0  0  0  0  0  0  0  0  0  0  0  0
  153.3735  140.4791  159.1074 C   0  0  0  0  0  0  0  0  0  0  0  0
  153.7440  141.0712  160.4776 C   0  0  0  0  0  0  0  0  0  0  0  0
  152.0177  141.0199  158.6167 C   0  0  2  0  0  0  0  0  0  0  0  0
  151.9085  141.1022  157.1616 N   0  0  0  0  0  0  0  0  0  0  0  0
  151.2857  140.0373  156.4501 C   0  0  0  0  0  0  0  0  0  0  0  0
  151.1163  140.0819  155.1009 N   0  0  0  0  0  0  0  0  0  0  0  0
  150.5293  139.0752  154.4475 C   0  0  0  0  0  0  0  0  0  0  0  0
  150.0415  137.9351  154.9380 N   0  0  0  0  0  0  0  0  0  0  0  0
  150.2048  137.8764  156.2898 C   0  0  0  0  0  0  0  0  0  0  0  0
  150.8073  138.8720  157.1097 C   0  0  0  0  0  0  0  0  0  0  0  0
  150.7918  138.4652  158.4380 N   0  0  0  0  0  0  0  0  0  0  0  0
  150.2136  137.2958  158.4061 C   0  0  0  0  0  0  0  0  0  0  0  0
  149.8459  136.8562  157.1539 N   0  0  0  0  0  0  0  0  0  0  0  0
  149.1814  135.6048  156.8330 C   0  0  0  0  0  0  0  0  0  0  0  0
  149.9056  134.7456  155.7632 C   0  0  1  0  0  0  0  0  0  0  0  0
  151.0864  134.0183  156.4524 C   0  0  0  0  0  0  0  0  0  0  0  0
  152.1376  134.9050  156.7754 O   0  0  0  0  0  0  0  0  0  0  0  0
  148.9488  133.7524  155.0344 C   0  0  2  0  0  0  0  0  0  0  0  0
  149.5182  133.0894  153.7898 C   0  0  0  0  0  0  0  0  0  0  0  0
  148.2671  132.5710  153.0966 C   0  0  0  0  0  0  0  0  0  0  0  0
  147.2965  133.5824  153.3167 O   0  0  0  0  0  0  0  0  0  0  0  0
  147.6611  134.3600  154.4534 C   0  0  0  0  0  0  0  0  0  0  0  0
  151.0610  142.2776  157.2479 C   0  0  0  0  0  0  0  0  0  0  0  0
  151.6901  142.5357  158.6267 C   0  0  0  0  0  0  0  0  0  0  0  0
  152.8710  143.5332  158.6210 C   0  0  0  0  0  0  0  0  0  0  0  0
  152.4227  144.9891  158.4056 C   0  0  0  0  0  0  0  0  0  0  0  0
  151.4010  145.4179  159.4665 C   0  0  0  0  0  0  0  0  0  0  0  0
  150.2270  144.4330  159.5348 C   0  0  0  0  0  0  0  0  0  0  0  0
  150.7220  142.9903  159.7310 C   0  0  0  0  0  0  0  0  0  0  0  0
  152.6199  138.5707  159.8612 H   0  0  0  0  0  0  0  0  0  0  0  0
  154.3585  138.5896  159.5817 H   0  0  0  0  0  0  0  0  0  0  0  0
  153.2601  138.4841  158.2208 H   0  0  0  0  0  0  0  0  0  0  0  0
  154.1539  140.7737  158.4052 H   0  0  0  0  0  0  0  0  0  0  0  0
  153.0168  140.7841  161.2377 H   0  0  0  0  0  0  0  0  0  0  0  0
  153.7824  142.1587  160.4586 H   0  0  0  0  0  0  0  0  0  0  0  0
  154.7223  140.7197  160.8060 H   0  0  0  0  0  0  0  0  0  0  0  0
  151.1775  140.4718  159.0466 H   0  0  0  0  0  0  0  0  0  0  0  0
  150.4393  139.2014  153.3787 H   0  0  0  0  0  0  0  0  0  0  0  0
  150.0458  136.7143  159.3009 H   0  0  0  0  0  0  0  0  0  0  0  0
  149.0989  135.0506  157.7686 H   0  0  0  0  0  0  0  0  0  0  0  0
  148.1597  135.8142  156.5141 H   0  0  0  0  0  0  0  0  0  0  0  0
  150.3298  135.4272  155.0244 H   0  0  0  0  0  0  0  0  0  0  0  0
  150.7696  133.5644  157.3918 H   0  0  0  0  0  0  0  0  0  0  0  0
  151.4646  133.2095  155.8263 H   0  0  0  0  0  0  0  0  0  0  0  0
  151.7949  135.5879  157.3319 H   0  0  0  0  0  0  0  0  0  0  0  0
  148.6687  132.9599  155.7306 H   0  0  0  0  0  0  0  0  0  0  0  0
  150.0141  133.8258  153.1556 H   0  0  0  0  0  0  0  0  0  0  0  0
  150.2271  132.2912  154.0116 H   0  0  0  0  0  0  0  0  0  0  0  0
  148.4194  132.3848  152.0334 H   0  0  0  0  0  0  0  0  0  0  0  0
  147.9258  131.6451  153.5613 H   0  0  0  0  0  0  0  0  0  0  0  0
  146.8455  134.3628  155.1755 H   0  0  0  0  0  0  0  0  0  0  0  0
  147.8234  135.3852  154.1198 H   0  0  0  0  0  0  0  0  0  0  0  0
  151.2801  143.0295  156.4897 H   0  0  0  0  0  0  0  0  0  0  0  0
  149.9971  142.0353  157.2932 H   0  0  0  0  0  0  0  0  0  0  0  0
  153.4235  143.4791  159.5578 H   0  0  0  0  0  0  0  0  0  0  0  0
  153.5883  143.2715  157.8423 H   0  0  0  0  0  0  0  0  0  0  0  0
  153.2873  145.6529  158.4338 H   0  0  0  0  0  0  0  0  0  0  0  0
  151.9855  145.0979  157.4126 H   0  0  0  0  0  0  0  0  0  0  0  0
  151.8891  145.4665  160.4406 H   0  0  0  0  0  0  0  0  0  0  0  0
  151.0367  146.4229  159.2523 H   0  0  0  0  0  0  0  0  0  0  0  0
  149.5566  144.7108  160.3486 H   0  0  0  0  0  0  0  0  0  0  0  0
  149.6411  144.4967  158.6171 H   0  0  0  0  0  0  0  0  0  0  0  0
  149.8583  142.3257  159.7721 H   0  0  0  0  0  0  0  0  0  0  0  0
  151.2025  142.9061  160.7066 H   0  0  0  0  0  0  0  0  0  0  0  0
  1  2  1  0  0  0  0
  1 31  1  0  0  0  0
  1 32  1  0  0  0  0
  1 33  1  0  0  0  0
  2  3  1  0  0  0  0
  2  4  1  0  0  0  0
  2 34  1  0  0  0  0
  3 35  1  0  0  0  0
  3 36  1  0  0  0  0
  3 37  1  0  0  0  0
  4 25  1  0  0  0  0
  4  5  1  0  0  0  0
  4 38  1  0  0  0  0
  5  6  1  0  0  0  0
  5 24  1  0  0  0  0
  6 11  1  0  0  0  0
  6  7  2  0  0  0  0
  7  8  1  0  0  0  0
  8  9  2  0  0  0  0
  8 39  1  0  0  0  0
  9 10  1  0  0  0  0
 10 14  1  0  0  0  0
 10 11  2  0  0  0  0
 11 12  1  0  0  0  0
 12 13  2  0  0  0  0
 13 14  1  0  0  0  0
 13 40  1  0  0  0  0
 14 15  1  0  0  0  0
 15 16  1  0  0  0  0
 15 41  1  0  0  0  0
 15 42  1  0  0  0  0
 16 17  1  0  0  0  0
 16 19  1  0  0  0  0
 16 43  1  0  0  0  0
 17 18  1  0  0  0  0
 17 44  1  0  0  0  0
 17 45  1  0  0  0  0
 18 46  1  0  0  0  0
 19 23  1  0  0  0  0
 19 20  1  0  0  0  0
 19 47  1  0  0  0  0
 20 21  1  0  0  0  0
 20 48  1  0  0  0  0
 20 49  1  0  0  0  0
 21 22  1  0  0  0  0
 21 50  1  0  0  0  0
 21 51  1  0  0  0  0
 22 23  1  0  0  0  0
 23 52  1  0  0  0  0
 23 53  1  0  0  0  0
 24 25  1  0  0  0  0
 24 54  1  0  0  0  0
 24 55  1  0  0  0  0
 25 30  1  0  0  0  0
 25 26  1  0  0  0  0
 26 27  1  0  0  0  0
 26 56  1  0  0  0  0
 26 57  1  0  0  0  0
 27 28  1  0  0  0  0
 27 58  1  0  0  0  0
 27 59  1  0  0  0  0
 28 29  1  0  0  0  0
 28 60  1  0  0  0  0
 28 61  1  0  0  0  0
 29 30  1  0  0  0  0
 29 62  1  0  0  0  0
 29 63  1  0  0  0  0
 30 64  1  0  0  0  0
 30 65  1  0  0  0  0
M  END
> <s_m_source_file>
AV-unprocessed.smi

> <i_m_source_file_index>
275

> <i_lp_mmshare_version>
43012

> <i_f3d_flags>
0

> <s_epik_input>
W0NIMl0xW0NIMl1bQ0gyXVtDSDJdW0NIMl1DMTJbQ0BIXShbQ0hdKFtDSDNdKVtDSDNdKU4oW0NIMl0yKWMobltjSF1uMyljKGMzNCluW2NIXW40W0NIMl1bQ0BIXShbQ0gyXVtPSF0pW0NAQEhdNVtDSDJdW0NIMl1PW0NIMl01

> <s_epik_cmdline>
J2VwaWtfcHl0aG9uJywgJy1waCcsICc3LjAnLCAnLXRuJywgJzgnLCAnLW1hJywgJzIwMCcsICctbWV0YWxfYmluZGluZycsICctaW1hZScsICc8aW5maWxlLm1hZT4nLCAnLW9tYWUnLCAnPG91dGZpbGUubWFlPic=

> <r_lp_tautomer_probability>
1

> <r_epik_Ionization_Penalty>
0.00375122

> <r_epik_Ionization_Penalty_Charging>
0

> <r_epik_Ionization_Penalty_Neutral>
0.00375122

> <r_epik_State_Penalty>
0.00260593

> <r_epik_Charging_Adjusted_Penalty>
0.00260593

> <i_epik_Tot_Q>
0

> <i_epik_Tot_abs_Q>
0

> <r_epik_Metal_State_Penalty>
-0

> <b_epik_Metal_Only>
0

> <s_lp_Force_Field>
OPLS_2005

> <r_lp_Energy>
64.5971

> <b_lp_Chiralities_Consistent>
1

> <s_lp_Variant>
AV-unprocessed.smi:275-3

> <Gold.Version>
5.8.1

> <Gold.Id.Protein>
6NUR|6NUR_protein|mol2

> <Gold.PLP.Fitness>
53.9309

> <Gold.PLP.PLP>
-47.4510

> <Gold.PLP.part.hbond>
-2.2334

> <Gold.PLP.part.metal>
0.0000

> <Gold.PLP.part.buried>
-4.0902

> <Gold.PLP.part.nonpolar>
-40.6622

> <Gold.PLP.part.repulsive>
0.3070

> <Gold.PLP.ligand.clash>
0.0000

> <Gold.PLP.ligand.torsion>
0.9659

> <Gold.PLP.Chemscore.Hbond>
1.5913

> <Gold.PLP.Chemscore.CHOScore>
1.0000

> <Gold.PLP.Chemscore.Metal>
0.0000

> <Gold.Chemscore.Hbonds>
donor molecule, donor type, donor heavy atom, donor atom, acceptor molecule, acceptor atom, score
      P1  H  7989  7998       L1     7  0.60
      P1  H 10752 10765       L1    18  1.00
      L1  C     8    39       P1  7957  1.00

> <Gold.PLP.Chemscore.Internal.Correction>
0.6379

> <Gold.Rescore>
     Score         DG    S(hbond)    S(metal)    S(lipo)     H(rot)  DE(clash)    DE(int)     intcor
     13.19     -18.78       0.92        0.00     143.04       2.54       0.75       4.84       ----

> <Gold.Chemscore.Fitness>
13.1851

> <Gold.Chemscore.DG>
-18.7816

> <Gold.Chemscore.ZeroCoef>
-5.4800

> <Gold.Chemscore.Hbond>
0.9169

> <Gold.Chemscore.Metal>
0.0000

> <Gold.Chemscore.Lipo>
143.0404

> <Gold.Chemscore.Internal_Hbond>
0.0000

> <Gold.Chemscore.DEClash>
0.7530

> <Gold.Chemscore.DEInternal>
4.8435

> <Gold.Chemscore.Rot>
2.5377

> <Gold.Chemscore.Internal.Correction>
   9.000000E+99

> <Gold.Chemscore.Hbonds>
donor molecule, donor type, donor heavy atom, donor atom, acceptor molecule, acceptor atom, score
      P1  H  7989  7998       L1     7  0.04
      P1  H 10752 10765       L1    18  0.81

> <Gold.Chemscore.Hbond.Weighted>
-3.0625

> <Gold.Chemscore.Metal.Weighted>
-0.0000

> <Gold.Chemscore.Lipo.Weighted>
-16.7357

> <Gold.Chemscore.Internal_Hbond.Weighted>
0.0000

> <Gold.Chemscore.DEClash.Weighted>
0.7530

> <Gold.Chemscore.DEInternal.Weighted>
4.8435

> <Gold.Chemscore.Rot.Weighted>
6.4966

> <Gold.Chemscore.Internal.Correction.Weighted>
   9.000000E+99

> <Gold.Protein.RotatedTorsions>
[ 6907 6896 6895 6894 ] final  -80.73 input  -60.11 | X-H torsion
[ 7974 7965 7964 7962 ] final  146.42 input  175.53 | X-H torsion
[ 8008 7997 7996 7995 ] final -163.55 input   59.86 | X-H torsion
[ 10167 10162 10161 10158 ] final   65.78 input  -65.29 | X-H torsion
[ 10718 10713 10712 10709 ] final   59.35 input   66.30 | X-H torsion
[ 10763 10752 10751 10750 ] final -132.61 input  -60.55 | X-H torsion
[ 11005 11000 10999 10996 ] final -121.06 input  -57.11 | X-H torsion

> <Gold.Protein.ActiveResidues>
 VAL166  LYS551  ARG553  GLY616  TRP617  ASP618  TYR619  PRO620  LYS621  CYS622 
 ASP623  PHE694  ASN695  SER759  ASP760  ASP761  ALA762  ILE779  LEU786  VAL792 
 PHE793  MET794  SER795  GLU796  ALA797  LYS798  CYS799  TRP800  GLU811  SER814 

> <Gold.Protein.RotatedAtoms>
  150.6924  134.3925  159.5082 H   0  0  0  0  0  0  0  0  0  0  0  0  # atno 6907 bound_to 6896
  152.1711  134.8830  160.0543 H   0  0  0  0  0  0  0  0  0  0  0  0  # atno 6908 bound_to 6896
  151.9856  133.3738  159.4161 H   0  0  0  0  0  0  0  0  0  0  0  0  # atno 6909 bound_to 6896
  144.8672  139.5903  143.5903 H   0  0  0  0  0  0  0  0  0  0  0  0  # atno 7974 bound_to 7965
  155.8229  140.0922  157.1838 H   0  0  0  0  0  0  0  0  0  0  0  0  # atno 8008 bound_to 7997
  154.3979  140.1433  156.3582 H   0  0  0  0  0  0  0  0  0  0  0  0  # atno 8009 bound_to 7997
  155.8247  140.3445  155.5538 H   0  0  0  0  0  0  0  0  0  0  0  0  # atno 8010 bound_to 7997
  140.1075  144.4848  150.6998 H   0  0  0  0  0  0  0  0  0  0  0  0  # atno 10167 bound_to 10162
  157.5668  130.8877  149.9201 H   0  0  0  0  0  0  0  0  0  0  0  0  # atno 10718 bound_to 10713
  154.8741  135.3792  154.4437 H   0  0  0  0  0  0  0  0  0  0  0  0  # atno 10763 bound_to 10752
  153.5120  135.7029  153.5781 H   0  0  0  0  0  0  0  0  0  0  0  0  # atno 10764 bound_to 10752
  153.4066  135.3935  155.1989 H   0  0  0  0  0  0  0  0  0  0  0  0  # atno 10765 bound_to 10752
  141.0098  134.0281  157.3429 H   0  0  0  0  0  0  0  0  0  0  0  0  # atno 11005 bound_to 11000
  146.2904  139.7124  142.9165 LP  0  0  0  0  0  0  0  0  0  0  0  0  # atno 17320 bound_to 7965
  145.4199  141.0405  143.2970 LP  0  0  0  0  0  0  0  0  0  0  0  0  # atno 17321 bound_to 7965
  140.6944  143.2395  151.5043 LP  0  0  0  0  0  0  0  0  0  0  0  0  # atno 17342 bound_to 10162
  139.5637  144.2094  152.1731 LP  0  0  0  0  0  0  0  0  0  0  0  0  # atno 17343 bound_to 10162
  156.0716  130.3684  150.0764 LP  0  0  0  0  0  0  0  0  0  0  0  0  # atno 17370 bound_to 10713
  156.8922  130.9592  151.3587 LP  0  0  0  0  0  0  0  0  0  0  0  0  # atno 17371 bound_to 10713
  139.9083  135.0185  156.7584 LP  0  0  0  0  0  0  0  0  0  0  0  0  # atno 17394 bound_to 11000
  140.6752  133.9523  155.7879 LP  0  0  0  0  0  0  0  0  0  0  0  0  # atno 17395 bound_to 11000

$$$$
