#       Name:                AV-unprocessed.smi:2155
#       Creating user name   scv26
#       Creation time:       Fri Mar 27 11:55:55 2020


#       File generated by GOLD software.
#

@<TRIPOS>MOLECULE
AV-unprocessed.smi:2155
    48    49     1
SMALL
NO_CHARGES


@<TRIPOS>ATOM
      1 ****        -2.4377   3.5677  -3.4302 C.3            1 S1                 0.0000
      2 ****        -2.5022   3.5592  -1.9834 N.am           1 S1                 0.0000
      3 ****        -3.1093   4.6501  -1.3148 C.2            1 S1                 0.0000
      4 ****        -3.5892   5.6132  -1.9137 O.2            1 S1                 0.0000
      5 ****        -3.1249   4.5330   0.1384 C.2            1 S1                 0.0000
      6 ****        -2.5991   3.4514   0.7537 C.2            1 S1                 0.0000
      7 ****        -2.0204   2.3941   0.0754 N.am           1 S1                 0.0000
      8 ****        -1.4665   1.2621   0.8299 C.3            1 S1                 0.0000
      9 ****         0.0515   1.3561   1.0387 C.2            1 S1                 0.0000
     10 ****         0.6479   2.4236   0.8888 O.2            1 S1                 0.0000
     11 ****         0.6631   0.2218   1.4060 N.am           1 S1                 0.0000
     12 ****         2.0936   0.1011   1.6590 C.3            1 S1                 0.0000
     13 ****         2.4623  -1.3103   2.1474 C.3            1 S1                 0.0000
     14 ****         2.0385  -2.4180   1.1941 C.2            1 S1                 0.0000
     15 ****         1.1234  -3.3451   1.5385 C.2            1 S1                 0.0000
     16 ****         0.6503  -4.4590   0.6213 C.3            1 S1                 0.0000
     17 ****         1.0566  -4.2245  -0.8432 C.3            1 S1                 0.0000
     18 ****         2.5063  -3.7342  -0.9438 C.3            1 S1                 0.0000
     19 ****         2.7063  -2.4152  -0.1762 C.3            1 S1                 0.0000
     20 ****        -1.9620   2.4272  -1.3342 C.2            1 S1                 0.0000
     21 ****        -1.4573   1.4951  -1.9658 O.2            1 S1                 0.0000
     22 ****        -2.7200   4.5404  -3.8320 H              1 S1                 0.0000
     23 ****        -3.1207   2.7939  -3.7839 H              1 S1                 0.0000
     24 ****        -1.4070   3.3522  -3.7182 H              1 S1                 0.0000
     25 ****        -3.5637   5.3233   0.7299 H              1 S1                 0.0000
     26 ****        -2.6326   3.4143   1.8329 H              1 S1                 0.0000
     27 ****        -1.9416   1.2033   1.8102 H              1 S1                 0.0000
     28 ****        -1.7087   0.3225   0.3295 H              1 S1                 0.0000
     29 ****         0.1052  -0.6134   1.5093 H              1 S1                 0.0000
     30 ****         2.6414   0.3408   0.7466 H              1 S1                 0.0000
     31 ****         2.3934   0.8356   2.4079 H              1 S1                 0.0000
     32 ****         3.5400  -1.3767   2.2993 H              1 S1                 0.0000
     33 ****         2.0084  -1.4804   3.1247 H              1 S1                 0.0000
     34 ****         0.6848  -3.3270   2.5256 H              1 S1                 0.0000
     35 ****         1.0744  -5.3956   0.9844 H              1 S1                 0.0000
     36 ****        -0.4336  -4.5509   0.6952 H              1 S1                 0.0000
     37 ****         0.9239  -5.1415  -1.4181 H              1 S1                 0.0000
     38 ****         0.3963  -3.4805  -1.2906 H              1 S1                 0.0000
     39 ****         3.1709  -4.4971  -0.5358 H              1 S1                 0.0000
     40 ****         2.7913  -3.6032  -1.9880 H              1 S1                 0.0000
     41 ****         2.2929  -1.5879  -0.7540 H              1 S1                 0.0000
     42 ****         3.7730  -2.2195  -0.0622 H              1 S1                 0.0000
     43 ****        -3.5594   5.6461  -2.9127 LP             1 S1                 0.0000
     44 ****        -4.0086   6.3623  -1.4010 LP             1 S1                 0.0000
     45 ****         0.1428   3.2460   0.6272 LP             1 S1                 0.0000
     46 ****         1.6371   2.4676   1.0288 LP             1 S1                 0.0000
     47 ****        -1.4230   1.5286  -2.9646 LP             1 S1                 0.0000
     48 ****        -1.0826   0.7061  -1.4788 LP             1 S1                 0.0000
@<TRIPOS>BOND
    1    1    2 1     
    2    1   22 1     
    3    1   23 1     
    4    1   24 1     
    5    2   20 am    
    6    2    3 am    
    7    3    4 2     
    8    3    5 1     
    9    5    6 2     
   10    5   25 1     
   11    6    7 1     
   12    6   26 1     
   13    7    8 1     
   14    7   20 am    
   15    8    9 1     
   16    8   27 1     
   17    8   28 1     
   18    9   10 2     
   19    9   11 am    
   20   11   12 1     
   21   11   29 1     
   22   12   13 1     
   23   12   30 1     
   24   12   31 1     
   25   13   14 1     
   26   13   32 1     
   27   13   33 1     
   28   14   19 1     
   29   14   15 2     
   30   15   16 1     
   31   15   34 1     
   32   16   17 1     
   33   16   35 1     
   34   16   36 1     
   35   17   18 1     
   36   17   37 1     
   37   17   38 1     
   38   18   19 1     
   39   18   39 1     
   40   18   40 1     
   41   19   41 1     
   42   19   42 1     
   43   20   21 2     
   44    4   43 1     
   45    4   44 1     
   46   10   45 1     
   47   10   46 1     
   48   21   47 1     
   49   21   48 1     
@<TRIPOS>SUBSTRUCTURE
      1 S1             1
@<TRIPOS>SET
LONE_PAIRS      STATIC     ATOMS    <user>   **** ""
6 43 44 45 46 47 48
DONOR_HYDROGENS      STATIC     ATOMS    <user>   **** ""
1 29
ATOM$BLUE        STATIC     ATOMS    COLORGROUP SYSTEM
6 43 44 45 46 47 48
ATOM$RED        STATIC     ATOMS    COLORGROUP SYSTEM
1 29
