#       Name:                AV-unprocessed.smi:45
#       Creating user name   scv26
#       Creation time:       Thu Mar 26 16:27:20 2020


#       File generated by GOLD software.
#

@<TRIPOS>MOLECULE
AV-unprocessed.smi:45
    70    73     1
SMALL
NO_CHARGES


@<TRIPOS>ATOM
      1 ****        -8.1225   0.0714   1.1673 C.3            1 S1                 0.0000
      2 ****        -7.3363   0.0408  -0.0149 O.3            1 S1                 0.0000
      3 ****        -5.9912  -0.2425   0.1028 C.ar           1 S1                 0.0000
      4 ****        -5.3499  -0.5248   1.3359 C.ar           1 S1                 0.0000
      5 ****        -3.9702  -0.8034   1.3788 C.ar           1 S1                 0.0000
      6 ****        -3.2096  -0.8046   0.1935 C.ar           1 S1                 0.0000
      7 ****        -1.7234  -1.0923   0.2396 C.3            1 S1                 0.0000
      8 ****        -0.9131   0.0902  -0.0102 N.pl3          1 S1                 0.0000
      9 ****         0.4895   0.0375   0.0260 C.ar           1 S1                 0.0000
     10 ****         1.1806   1.1781  -0.2381 N.pl3          1 S1                 1.0000
     11 ****         2.5234   1.1886  -0.2359 C.ar           1 S1                 0.0000
     12 ****         3.1897   2.3800  -0.5084 N.pl3          1 S1                 0.0000
     13 ****         4.6386   2.5312  -0.4582 C.3            1 S1                 0.0000
     14 ****         4.9245   3.9840  -0.8427 C.3            1 S1                 0.0000
     15 ****         3.6202   4.7047  -0.5086 C.3            1 S1                 0.0000
     16 ****         2.5380   3.6538  -0.7975 C.3            1 S1                 0.0000
     17 ****         2.0258   3.7082  -2.2519 C.3            1 S1                 0.0000
     18 ****         1.2557   4.8741  -2.4515 O.3            1 S1                 0.0000
     19 ****         3.2425   0.0899   0.0255 N.ar           1 S1                 0.0000
     20 ****         2.6060  -1.0650   0.2960 C.ar           1 S1                 0.0000
     21 ****         1.2005  -1.1584   0.3053 C.ar           1 S1                 0.0000
     22 ****         0.5243  -2.4585   0.6484 C.2            1 S1                 0.0000
     23 ****        -0.4669  -2.4888   1.3776 O.2            1 S1                 0.0000
     24 ****         1.0675  -3.5523   0.0905 N.am           1 S1                 0.0000
     25 ****         0.6235  -4.9186   0.3396 C.3            1 S1                 0.0000
     26 ****         1.1284  -5.4536   1.6682 C.ar           1 S1                 0.0000
     27 ****         0.2145  -5.6754   2.6182 N.ar           1 S1                 0.0000
     28 ****         0.6667  -6.1340   3.8055 C.ar           1 S1                 0.0000
     29 ****         2.0373  -6.3694   4.0360 C.ar           1 S1                 0.0000
     30 ****         2.9064  -6.0984   2.9601 C.ar           1 S1                 0.0000
     31 ****         2.4489  -5.6384   1.7752 N.ar           1 S1                 0.0000
     32 ****        -3.8386  -0.5252  -1.0356 C.ar           1 S1                 0.0000
     33 ****        -5.2189  -0.2474  -1.0805 C.ar           1 S1                 0.0000
     34 ****        -5.9593   0.0909  -2.6040 Cl             1 S1                 0.0000
     35 ****         1.7003   3.7988  -0.1137 H              1 S1                 0.0000
     36 ****        -9.1519   0.3181   0.9081 H              1 S1                 0.0000
     37 ****        -7.7671   0.8327   1.8630 H              1 S1                 0.0000
     38 ****        -8.1315  -0.8990   1.6655 H              1 S1                 0.0000
     39 ****        -5.8951  -0.5326   2.2674 H              1 S1                 0.0000
     40 ****        -3.4983  -1.0124   2.3278 H              1 S1                 0.0000
     41 ****        -1.4661  -1.5108   1.2135 H              1 S1                 0.0000
     42 ****        -1.4915  -1.8523  -0.5075 H              1 S1                 0.0000
     43 ****        -1.3769   0.9550  -0.2528 H              1 S1                 0.0000
     44 ****         4.9793   2.3309   0.5584 H              1 S1                 0.0000
     45 ****         5.1393   1.8330  -1.1298 H              1 S1                 0.0000
     46 ****         5.7868   4.3978  -0.3190 H              1 S1                 0.0000
     47 ****         5.1188   4.0521  -1.9138 H              1 S1                 0.0000
     48 ****         3.6090   4.9559   0.5531 H              1 S1                 0.0000
     49 ****         3.4920   5.6329  -1.0664 H              1 S1                 0.0000
     50 ****         2.8513   3.6905  -2.9644 H              1 S1                 0.0000
     51 ****         1.3923   2.8493  -2.4747 H              1 S1                 0.0000
     52 ****         0.9708   4.8991  -3.3525 H              1 S1                 0.0000
     53 ****         3.2326  -1.9172   0.5161 H              1 S1                 0.0000
     54 ****         1.8702  -3.4412  -0.5113 H              1 S1                 0.0000
     55 ****        -0.4658  -4.9766   0.2906 H              1 S1                 0.0000
     56 ****         0.9996  -5.5554  -0.4617 H              1 S1                 0.0000
     57 ****        -0.0688  -6.3145   4.5756 H              1 S1                 0.0000
     58 ****         2.4010  -6.7367   4.9842 H              1 S1                 0.0000
     59 ****         3.9719  -6.2499   3.0504 H              1 S1                 0.0000
     60 ****        -3.2606  -0.5216  -1.9484 H              1 S1                 0.0000
     61 ****         0.6619   2.0327  -0.4385 H              1 S1                 0.0000
     62 ****        -7.4131   0.9402  -0.4453 LP             1 S1                 0.0000
     63 ****        -7.7334  -0.6518  -0.6171 LP             1 S1                 0.0000
     64 ****         1.8103   5.6819  -2.2515 LP             1 S1                 0.0000
     65 ****         0.4592   4.8587  -1.8471 LP             1 S1                 0.0000
     66 ****         4.2418   0.1268   0.0199 LP             1 S1                 0.0000
     67 ****        -0.8370  -1.6394   1.7538 LP             1 S1                 0.0000
     68 ****        -0.9020  -3.3628   1.5939 LP             1 S1                 0.0000
     69 ****        -0.7584  -5.5095   2.4574 LP             1 S1                 0.0000
     70 ****         3.0681  -5.4452   1.0141 LP             1 S1                 0.0000
@<TRIPOS>BOND
    1    1    2 1     
    2    1   36 1     
    3    1   37 1     
    4    1   38 1     
    5    2    3 1     
    6    3   33 ar    
    7    3    4 ar    
    8    4    5 ar    
    9    4   39 1     
   10    5    6 ar    
   11    5   40 1     
   12    6    7 1     
   13    6   32 ar    
   14    7    8 1     
   15    7   41 1     
   16    7   42 1     
   17    8    9 1     
   18    8   43 1     
   19    9   21 ar    
   20    9   10 ar    
   21   10   11 ar    
   22   10   61 1     
   23   11   12 1     
   24   11   19 ar    
   25   12   16 1     
   26   12   13 1     
   27   13   14 1     
   28   13   44 1     
   29   13   45 1     
   30   14   15 1     
   31   14   46 1     
   32   14   47 1     
   33   15   16 1     
   34   15   48 1     
   35   15   49 1     
   36   16   35 1     
   37   16   17 1     
   38   17   18 1     
   39   17   50 1     
   40   17   51 1     
   41   18   52 1     
   42   19   20 ar    
   43   20   21 ar    
   44   20   53 1     
   45   21   22 1     
   46   22   23 2     
   47   22   24 am    
   48   24   25 1     
   49   24   54 1     
   50   25   26 1     
   51   25   55 1     
   52   25   56 1     
   53   26   31 ar    
   54   26   27 ar    
   55   27   28 ar    
   56   28   29 ar    
   57   28   57 1     
   58   29   30 ar    
   59   29   58 1     
   60   30   31 ar    
   61   30   59 1     
   62   32   33 ar    
   63   32   60 1     
   64   33   34 1     
   65    2   62 1     
   66    2   63 1     
   67   18   64 1     
   68   18   65 1     
   69   19   66 1     
   70   23   67 1     
   71   23   68 1     
   72   27   69 1     
   73   31   70 1     
@<TRIPOS>SUBSTRUCTURE
      1 S1             1
@<TRIPOS>SET
LONE_PAIRS      STATIC     ATOMS    <user>   **** ""
9 62 63 64 65 66 67 68 69 70
DONOR_HYDROGENS      STATIC     ATOMS    <user>   **** ""
4 43 61 52 54
ATOM$BLUE        STATIC     ATOMS    COLORGROUP SYSTEM
9 62 63 64 65 66 67 68 69 70
ATOM$RED        STATIC     ATOMS    COLORGROUP SYSTEM
4 43 61 52 54
