AV-unprocessed.smi:34|AV-procd|sdf|225|dock2
  -GOLD-   2262015543D 1   1.00000     0.00000
 Structure written by MMmdl.
 55 59  0  0  0  0  0  0  0  0  1 V2000
  153.8533  140.7699  159.6568 O   0  0  0  0  0  0  0  0  0  0  0  0
  152.8793  141.2043  159.0413 C   0  0  0  0  0  0  0  0  0  0  0  0
  152.2579  140.4651  157.9562 N   0  0  0  0  0  0  0  0  0  0  0  0
  152.5608  139.2241  157.5078 C   0  0  0  0  0  0  0  0  0  0  0  0
  153.8135  138.7041  157.5913 N   0  0  0  0  0  0  0  0  0  0  0  0
  154.0628  137.4736  157.1348 C   0  0  0  0  0  0  0  0  0  0  0  0
  153.2194  136.6083  156.5695 N   0  0  0  0  0  0  0  0  0  0  0  0
  151.9584  137.1216  156.4805 C   0  0  0  0  0  0  0  0  0  0  0  0
  151.5539  138.4118  156.9237 C   0  0  0  0  0  0  0  0  0  0  0  0
  150.1994  138.5913  156.6743 N   0  0  0  0  0  0  0  0  0  0  0  0
  149.8288  137.4690  156.1189 C   0  0  0  0  0  0  0  0  0  0  0  0
  150.8238  136.5294  155.9615 N   0  0  0  0  0  0  0  0  0  0  0  0
  150.7001  135.1593  155.3661 C   0  0  2  0  0  0  0  0  0  0  0  0
  149.4659  135.0860  154.7188 O   0  0  0  0  0  0  0  0  0  0  0  0
  148.7944  133.8878  155.0863 C   0  0  2  0  0  0  0  0  0  0  0  0
  147.2773  134.0899  154.9946 C   0  0  0  0  0  0  0  0  0  0  0  0
  146.8916  134.1904  153.6337 O   0  0  0  0  0  0  0  0  0  0  0  0
  146.9767  133.1142  152.8277 C   0  0  0  0  0  0  0  0  0  0  0  0
  147.8112  132.2185  152.9717 O   0  0  0  0  0  0  0  0  0  0  0  0
  145.9540  133.1200  151.7422 C   0  0  0  0  0  0  0  0  0  0  0  0
  145.2570  134.3165  151.4529 C   0  0  0  0  0  0  0  0  0  0  0  0
  144.2851  134.3522  150.4345 C   0  0  0  0  0  0  0  0  0  0  0  0
  143.9976  133.1917  149.6928 C   0  0  0  0  0  0  0  0  0  0  0  0
  144.6831  131.9949  149.9713 C   0  0  0  0  0  0  0  0  0  0  0  0
  145.6558  131.9572  150.9894 C   0  0  0  0  0  0  0  0  0  0  0  0
  149.3038  133.5854  156.4944 C   0  0  1  0  0  0  0  0  0  0  0  0
  149.2121  132.2862  156.7815 F   0  0  0  0  0  0  0  0  0  0  0  0
  150.7514  134.0374  156.4269 C   0  0  2  0  0  0  0  0  0  0  0  0
  151.2224  134.4383  157.7012 O   0  0  0  0  0  0  0  0  0  0  0  0
  152.3162  142.5685  159.3171 C   0  0  0  0  0  0  0  0  0  0  0  0
  151.6944  143.2992  158.2796 C   0  0  0  0  0  0  0  0  0  0  0  0
  151.1783  144.5867  158.5247 C   0  0  0  0  0  0  0  0  0  0  0  0
  151.2850  145.1570  159.8070 C   0  0  0  0  0  0  0  0  0  0  0  0
  151.9130  144.4412  160.8435 C   0  0  0  0  0  0  0  0  0  0  0  0
  152.4309  143.1542  160.5995 C   0  0  0  0  0  0  0  0  0  0  0  0
  151.4897  140.9268  157.4916 H   0  0  0  0  0  0  0  0  0  0  0  0
  155.0827  137.1338  157.2381 H   0  0  0  0  0  0  0  0  0  0  0  0
  148.8099  137.2953  155.8047 H   0  0  0  0  0  0  0  0  0  0  0  0
  151.5172  135.0999  154.6461 H   0  0  0  0  0  0  0  0  0  0  0  0
  149.1177  133.1062  154.3964 H   0  0  0  0  0  0  0  0  0  0  0  0
  146.7550  133.2628  155.4775 H   0  0  0  0  0  0  0  0  0  0  0  0
  146.9928  135.0048  155.5157 H   0  0  0  0  0  0  0  0  0  0  0  0
  145.4605  135.2204  152.0090 H   0  0  0  0  0  0  0  0  0  0  0  0
  143.7595  135.2719  150.2227 H   0  0  0  0  0  0  0  0  0  0  0  0
  143.2523  133.2194  148.9117 H   0  0  0  0  0  0  0  0  0  0  0  0
  144.4626  131.1029  149.4038 H   0  0  0  0  0  0  0  0  0  0  0  0
  146.1622  131.0219  151.1781 H   0  0  0  0  0  0  0  0  0  0  0  0
  148.7424  134.1428  157.2452 H   0  0  0  0  0  0  0  0  0  0  0  0
  151.3783  133.2359  156.0337 H   0  0  0  0  0  0  0  0  0  0  0  0
  151.4535  135.3536  157.6624 H   0  0  0  0  0  0  0  0  0  0  0  0
  151.6052  142.8763  157.2892 H   0  0  0  0  0  0  0  0  0  0  0  0
  150.7014  145.1372  157.7273 H   0  0  0  0  0  0  0  0  0  0  0  0
  150.8890  146.1443  159.9942 H   0  0  0  0  0  0  0  0  0  0  0  0
  152.0005  144.8806  161.8263 H   0  0  0  0  0  0  0  0  0  0  0  0
  152.9184  142.6274  161.4067 H   0  0  0  0  0  0  0  0  0  0  0  0
  1  2  2  0  0  0  0
  2  3  1  0  0  0  0
  2 30  1  0  0  0  0
  3  4  1  0  0  0  0
  3 36  1  0  0  0  0
  4  9  1  0  0  0  0
  4  5  2  0  0  0  0
  5  6  1  0  0  0  0
  6  7  2  0  0  0  0
  6 37  1  0  0  0  0
  7  8  1  0  0  0  0
  8 12  1  0  0  0  0
  8  9  2  0  0  0  0
  9 10  1  0  0  0  0
 10 11  2  0  0  0  0
 11 12  1  0  0  0  0
 11 38  1  0  0  0  0
 12 13  1  0  0  0  0
 13 28  1  0  0  0  0
 13 14  1  0  0  0  0
 13 39  1  0  0  0  0
 14 15  1  0  0  0  0
 15 16  1  0  0  0  0
 15 26  1  0  0  0  0
 15 40  1  0  0  0  0
 16 17  1  0  0  0  0
 16 41  1  0  0  0  0
 16 42  1  0  0  0  0
 17 18  1  0  0  0  0
 18 19  2  0  0  0  0
 18 20  1  0  0  0  0
 20 25  1  0  0  0  0
 20 21  2  0  0  0  0
 21 22  1  0  0  0  0
 21 43  1  0  0  0  0
 22 23  2  0  0  0  0
 22 44  1  0  0  0  0
 23 24  1  0  0  0  0
 23 45  1  0  0  0  0
 24 25  2  0  0  0  0
 24 46  1  0  0  0  0
 25 47  1  0  0  0  0
 26 27  1  0  0  0  0
 26 28  1  0  0  0  0
 26 48  1  0  0  0  0
 28 29  1  0  0  0  0
 28 49  1  0  0  0  0
 29 50  1  0  0  0  0
 30 35  1  0  0  0  0
 30 31  2  0  0  0  0
 31 32  1  0  0  0  0
 31 51  1  0  0  0  0
 32 33  2  0  0  0  0
 32 52  1  0  0  0  0
 33 34  1  0  0  0  0
 33 53  1  0  0  0  0
 34 35  2  0  0  0  0
 34 54  1  0  0  0  0
 35 55  1  0  0  0  0
M  END
> <s_m_source_file>
AV-unprocessed.smi

> <i_m_source_file_index>
34

> <i_lp_mmshare_version>
43012

> <i_f3d_flags>
0

> <s_epik_input>
W2NIXTFbY0hdW2NIXVtjSF1bY0hdYzFDKD1PKVtOSF1jKG5bY0hdbjIpYyhjMjMpbltjSF1uM1tDQEBIXTRPW0NASF0oW0NAQEhdKEYpW0NASF00W09IXSlbQ0gyXU9DKD1PKWM1W2NIXVtjSF1bY0hdW2NIXVtjSF01

> <s_epik_cmdline>
J2VwaWtfcHl0aG9uJywgJy1waCcsICc3LjAnLCAnLXRuJywgJzgnLCAnLW1hJywgJzIwMCcsICctbWV0YWxfYmluZGluZycsICctaW1hZScsICc8aW5maWxlLm1hZT4nLCAnLW9tYWUnLCAnPG91dGZpbGUubWFlPic=

> <r_lp_tautomer_probability>
1

> <r_epik_Ionization_Penalty>
0.00257489

> <r_epik_Ionization_Penalty_Charging>
0

> <r_epik_Ionization_Penalty_Neutral>
0.00257489

> <r_epik_State_Penalty>
0.00519398

> <r_epik_Charging_Adjusted_Penalty>
0.00519398

> <i_epik_Tot_Q>
0

> <i_epik_Tot_abs_Q>
0

> <r_epik_Metal_State_Penalty>
0.335891

> <b_epik_Metal_Only>
0

> <s_epik_Chemistry_Notes>
This compound has an ester and may undergo hydrolysis at high or low pH. This compound contains an acetal/aminal-like group ( X-CH(R)-Y where X, Y are N, S, or O) that may be acid/base labile, releasing an aldehyde.

> <s_lp_Force_Field>
OPLS_2005

> <r_lp_Energy>
52.3036

> <b_lp_Chiralities_Consistent>
1

> <s_lp_Variant>
AV-unprocessed.smi:34-11

> <Gold.Version>
5.8.1

> <Gold.Id.Protein>
6NUR|6NUR_protein|mol2

> <Gold.PLP.Fitness>
58.2411

> <Gold.PLP.PLP>
-54.3144

> <Gold.PLP.part.hbond>
-2.0834

> <Gold.PLP.part.metal>
0.0000

> <Gold.PLP.part.buried>
-8.5005

> <Gold.PLP.part.nonpolar>
-45.8886

> <Gold.PLP.part.repulsive>
1.0601

> <Gold.PLP.ligand.clash>
0.0000

> <Gold.PLP.ligand.torsion>
1.3516

> <Gold.PLP.Chemscore.Hbond>
2.1840

> <Gold.PLP.Chemscore.CHOScore>
0.0000

> <Gold.PLP.Chemscore.Metal>
0.0000

> <Gold.Chemscore.Hbonds>
donor molecule, donor type, donor heavy atom, donor atom, acceptor molecule, acceptor atom, score
      P1  H  6896  6909       L1    29  0.18
      P1  H  7997  8008       L1     5  1.00
      P1  H 10752 10763       L1     7  0.94

> <Gold.PLP.Chemscore.Internal.Correction>
0.0779

> <Gold.Rescore>
     Score         DG    S(hbond)    S(metal)    S(lipo)     H(rot)  DE(clash)    DE(int)     intcor
     16.28     -19.85       1.80        0.00     130.93       2.72       0.09       3.49       ----

> <Gold.Chemscore.Fitness>
16.2774

> <Gold.Chemscore.DG>
-19.8540

> <Gold.Chemscore.ZeroCoef>
-5.4800

> <Gold.Chemscore.Hbond>
1.8033

> <Gold.Chemscore.Metal>
0.0000

> <Gold.Chemscore.Lipo>
130.9250

> <Gold.Chemscore.Internal_Hbond>
0.0000

> <Gold.Chemscore.DEClash>
0.0893

> <Gold.Chemscore.DEInternal>
3.4873

> <Gold.Chemscore.Rot>
2.7215

> <Gold.Chemscore.Internal.Correction>
   9.000000E+99

> <Gold.Chemscore.Hbonds>
donor molecule, donor type, donor heavy atom, donor atom, acceptor molecule, acceptor atom, score
      P1  H  6896  6909       L1    29  0.18
      P1  H  7997  8008       L1     5  0.28
      P1  H 10752 10763       L1     7  0.71

> <Gold.Chemscore.Hbond.Weighted>
-6.0229

> <Gold.Chemscore.Metal.Weighted>
-0.0000

> <Gold.Chemscore.Lipo.Weighted>
-15.3182

> <Gold.Chemscore.Internal_Hbond.Weighted>
0.0000

> <Gold.Chemscore.DEClash.Weighted>
0.0893

> <Gold.Chemscore.DEInternal.Weighted>
3.4873

> <Gold.Chemscore.Rot.Weighted>
6.9670

> <Gold.Chemscore.Internal.Correction.Weighted>
   9.000000E+99

> <Gold.Protein.RotatedTorsions>
[ 6907 6896 6895 6894 ] final   -6.03 input  -60.11 | X-H torsion
[ 7974 7965 7964 7962 ] final -139.00 input  175.53 | X-H torsion
[ 8008 7997 7996 7995 ] final  -95.37 input   59.86 | X-H torsion
[ 10167 10162 10161 10158 ] final -118.60 input  -65.29 | X-H torsion
[ 10718 10713 10712 10709 ] final  178.60 input   66.30 | X-H torsion
[ 10763 10752 10751 10750 ] final  115.57 input  -60.55 | X-H torsion
[ 11005 11000 10999 10996 ] final  148.33 input  -57.11 | X-H torsion

> <Gold.Protein.ActiveResidues>
 VAL166  LYS551  ARG553  GLY616  TRP617  ASP618  TYR619  PRO620  LYS621  CYS622 
 ASP623  PHE694  ASN695  SER759  ASP760  ASP761  ALA762  ILE779  LEU786  VAL792 
 PHE793  MET794  SER795  GLU796  ALA797  LYS798  CYS799  TRP800  GLU811  SER814 

> <Gold.Protein.RotatedAtoms>
  151.4721  135.1046  159.9754 H   0  0  0  0  0  0  0  0  0  0  0  0  # atno 6907 bound_to 6896
  152.4812  133.8256  159.7087 H   0  0  0  0  0  0  0  0  0  0  0  0  # atno 6908 bound_to 6896
  150.8886  133.7213  159.2938 H   0  0  0  0  0  0  0  0  0  0  0  0  # atno 6909 bound_to 6896
  144.8712  140.6370  143.5265 H   0  0  0  0  0  0  0  0  0  0  0  0  # atno 7974 bound_to 7965
  154.7605  140.0480  157.0969 H   0  0  0  0  0  0  0  0  0  0  0  0  # atno 8008 bound_to 7997
  154.9944  140.3117  155.4873 H   0  0  0  0  0  0  0  0  0  0  0  0  # atno 8009 bound_to 7997
  156.2903  140.2213  156.5050 H   0  0  0  0  0  0  0  0  0  0  0  0  # atno 8010 bound_to 7997
  140.0557  143.5017  152.2058 H   0  0  0  0  0  0  0  0  0  0  0  0  # atno 10167 bound_to 10162
  156.8882  130.9838  151.3053 H   0  0  0  0  0  0  0  0  0  0  0  0  # atno 10718 bound_to 10713
  153.5242  135.3591  155.2646 H   0  0  0  0  0  0  0  0  0  0  0  0  # atno 10763 bound_to 10752
  154.8732  135.4053  154.3224 H   0  0  0  0  0  0  0  0  0  0  0  0  # atno 10764 bound_to 10752
  153.3901  135.7071  153.6568 H   0  0  0  0  0  0  0  0  0  0  0  0  # atno 10765 bound_to 10752
  140.0951  134.9017  157.1710 H   0  0  0  0  0  0  0  0  0  0  0  0  # atno 11005 bound_to 11000
  145.4126  139.1577  143.4117 LP  0  0  0  0  0  0  0  0  0  0  0  0  # atno 17320 bound_to 7965
  146.2932  140.4231  142.8732 LP  0  0  0  0  0  0  0  0  0  0  0  0  # atno 17321 bound_to 7965
  139.5925  144.7555  151.3366 LP  0  0  0  0  0  0  0  0  0  0  0  0  # atno 17342 bound_to 10162
  140.7196  143.7173  150.7723 LP  0  0  0  0  0  0  0  0  0  0  0  0  # atno 17343 bound_to 10162
  157.6100  130.8575  149.8936 LP  0  0  0  0  0  0  0  0  0  0  0  0  # atno 17370 bound_to 10713
  156.0642  130.3695  150.0914 LP  0  0  0  0  0  0  0  0  0  0  0  0  # atno 17371 bound_to 10713
  140.3298  134.2822  155.7230 LP  0  0  0  0  0  0  0  0  0  0  0  0  # atno 17394 bound_to 11000
  141.2089  133.7763  157.0027 LP  0  0  0  0  0  0  0  0  0  0  0  0  # atno 17395 bound_to 11000

$$$$
