#       Name:                AV-unprocessed.smi:3196
#       Creating user name   scv26
#       Creation time:       Fri Mar 27 18:05:30 2020


#       File generated by GOLD software.
#

@<TRIPOS>MOLECULE
AV-unprocessed.smi:3196
    36    37     1
SMALL
NO_CHARGES


@<TRIPOS>ATOM
      1 ****         4.8726   0.8398  -6.2974 C.3            1 S1                 0.0000
      2 ****         3.6183   0.8216  -5.4171 C.3            1 S1                 0.0000
      3 ****         3.9332   0.4955  -3.9510 C.3            1 S1                 0.0000
      4 ****         2.6902   0.4716  -3.0842 C.3            1 S1                 0.0000
      5 ****         2.1506   1.7446  -2.4893 C.3            1 S1                 0.0000
      6 ****         2.7798   0.6995  -1.5908 C.3            1 S1                 0.0000
      7 ****         1.8917  -0.0314  -0.7377 N.am           1 S1                 0.0000
      8 ****         2.2106  -0.7975   0.3211 C.2            1 S1                 0.0000
      9 ****         3.3775  -0.9098   0.6900 O.2            1 S1                 0.0000
     10 ****         1.1497  -1.3627   0.9314 N.am           1 S1                 0.0000
     11 ****         1.1021  -2.2040   2.0773 C.ar           1 S1                 0.0000
     12 ****         2.2268  -2.8413   2.6562 C.ar           1 S1                 0.0000
     13 ****         2.0313  -3.6578   3.7884 C.ar           1 S1                 0.0000
     14 ****         0.8241  -3.8733   4.3523 N.ar           1 S1                 0.0000
     15 ****        -0.2469  -3.2730   3.7920 C.ar           1 S1                 0.0000
     16 ****        -0.1616  -2.4377   2.6602 C.ar           1 S1                 0.0000
     17 ****        -1.2790  -1.8690   2.1456 F              1 S1                 0.0000
     18 ****         4.6191   1.0804  -7.3300 H              1 S1                 0.0000
     19 ****         5.3694  -0.1306  -6.2942 H              1 S1                 0.0000
     20 ****         5.5883   1.5843  -5.9479 H              1 S1                 0.0000
     21 ****         3.1227   1.7913  -5.4774 H              1 S1                 0.0000
     22 ****         2.9131   0.0890  -5.8113 H              1 S1                 0.0000
     23 ****         4.4190  -0.4784  -3.8817 H              1 S1                 0.0000
     24 ****         4.6372   1.2260  -3.5504 H              1 S1                 0.0000
     25 ****         1.9464  -0.2529  -3.4118 H              1 S1                 0.0000
     26 ****         2.7117   2.6612  -2.6595 H              1 S1                 0.0000
     27 ****         1.0689   1.8624  -2.4590 H              1 S1                 0.0000
     28 ****         3.7537   0.9740  -1.1880 H              1 S1                 0.0000
     29 ****         0.9068   0.0928  -0.9219 H              1 S1                 0.0000
     30 ****         0.2484  -1.1234   0.5444 H              1 S1                 0.0000
     31 ****         3.2241  -2.7341   2.2604 H              1 S1                 0.0000
     32 ****         2.8703  -4.1557   4.2516 H              1 S1                 0.0000
     33 ****        -1.2018  -3.4643   4.2592 H              1 S1                 0.0000
     34 ****         4.1050  -0.4281   0.2013 LP             1 S1                 0.0000
     35 ****         3.5996  -1.4829   1.4788 LP             1 S1                 0.0000
     36 ****         0.7266  -4.4579   5.1578 LP             1 S1                 0.0000
@<TRIPOS>BOND
    1    1    2 1     
    2    1   18 1     
    3    1   19 1     
    4    1   20 1     
    5    2    3 1     
    6    2   21 1     
    7    2   22 1     
    8    3    4 1     
    9    3   23 1     
   10    3   24 1     
   11    4    6 1     
   12    4    5 1     
   13    4   25 1     
   14    5    6 1     
   15    5   26 1     
   16    5   27 1     
   17    6    7 1     
   18    6   28 1     
   19    7    8 am    
   20    7   29 1     
   21    8    9 2     
   22    8   10 am    
   23   10   11 1     
   24   10   30 1     
   25   11   16 ar    
   26   11   12 ar    
   27   12   13 ar    
   28   12   31 1     
   29   13   14 ar    
   30   13   32 1     
   31   14   15 ar    
   32   15   16 ar    
   33   15   33 1     
   34   16   17 1     
   35    9   34 1     
   36    9   35 1     
   37   14   36 1     
@<TRIPOS>SUBSTRUCTURE
      1 S1             1
@<TRIPOS>SET
LONE_PAIRS      STATIC     ATOMS    <user>   **** ""
3 34 35 36
DONOR_HYDROGENS      STATIC     ATOMS    <user>   **** ""
2 29 30
ATOM$BLUE        STATIC     ATOMS    COLORGROUP SYSTEM
3 34 35 36
ATOM$RED        STATIC     ATOMS    COLORGROUP SYSTEM
2 29 30
