#       Name:                AV-unprocessed.smi:48
#       Creating user name   scv26
#       Creation time:       Thu Mar 26 16:32:03 2020


#       File generated by GOLD software.
#

@<TRIPOS>MOLECULE
AV-unprocessed.smi:48
    41    43     1
SMALL
NO_CHARGES


@<TRIPOS>ATOM
      1 ****        -3.0256   1.4051  -2.4248 O.3            1 S1                 0.0000
      2 ****        -2.5759   0.3344  -1.6222 C.3            1 S1                 0.0000
      3 ****        -1.1077   0.0142  -1.9423 C.3            1 S1                 0.0000
      4 ****        -0.2575   0.9032  -1.2321 O.3            1 S1                 0.0000
      5 ****         0.9949   0.3192  -1.0594 C.3            1 S1                 0.0000
      6 ****         1.4598   0.6602   0.3225 N.pl3          1 S1                 0.0000
      7 ****         2.6685   1.1307   0.6915 C.2            1 S1                 0.0000
      8 ****         2.8638   1.3711   1.9875 N.2            1 S1                 0.0000
      9 ****         1.6344   1.0217   2.5220 C.ar           1 S1                 0.0000
     10 ****         1.1259   1.0256   3.8437 C.ar           1 S1                 0.0000
     11 ****         2.1026   1.5395   5.1701 Cl             1 S1                 0.0000
     12 ****        -0.1494   0.6162   4.0456 N.ar           1 S1                 0.0000
     13 ****        -0.8857   0.2236   2.9987 C.ar           1 S1                 0.0000
     14 ****        -0.5454   0.1659   1.7062 N.ar           1 S1                 0.0000
     15 ****         0.7415   0.5789   1.5051 C.ar           1 S1                 0.0000
     16 ****         0.8440  -1.2014  -1.2920 C.3            1 S1                 0.0000
     17 ****         1.3369  -2.0144  -0.2414 O.3            1 S1                 0.0000
     18 ****        -0.6625  -1.3644  -1.4459 C.3            1 S1                 0.0000
     19 ****        -0.9604  -2.3569  -2.4072 O.3            1 S1                 0.0000
     20 ****        -0.9029   0.1071  -3.0112 H              1 S1                 0.0000
     21 ****         1.7280   0.7791  -1.7236 H              1 S1                 0.0000
     22 ****         1.3615  -1.4450  -2.2214 H              1 S1                 0.0000
     23 ****        -1.1334  -1.5974  -0.4894 H              1 S1                 0.0000
     24 ****        -3.9325   1.5739  -2.2197 H              1 S1                 0.0000
     25 ****        -2.7097   0.5677  -0.5654 H              1 S1                 0.0000
     26 ****        -3.2050  -0.5276  -1.8462 H              1 S1                 0.0000
     27 ****         3.4517   1.3039  -0.0321 H              1 S1                 0.0000
     28 ****        -1.8934  -0.0892   3.2289 H              1 S1                 0.0000
     29 ****         2.2652  -1.8614  -0.1531 H              1 S1                 0.0000
     30 ****        -0.6317  -3.1849  -2.0912 H              1 S1                 0.0000
     31 ****        -2.9379   1.1624  -3.3909 LP             1 S1                 0.0000
     32 ****        -2.4795   2.2211  -2.2353 LP             1 S1                 0.0000
     33 ****        -0.6576   1.1020  -0.3375 LP             1 S1                 0.0000
     34 ****        -0.1592   1.7533  -1.7495 LP             1 S1                 0.0000
     35 ****         3.6811   1.7131   2.4513 LP             1 S1                 0.0000
     36 ****        -0.5370   0.6073   4.9673 LP             1 S1                 0.0000
     37 ****        -1.1572  -0.1414   0.9773 LP             1 S1                 0.0000
     38 ****         1.1728  -2.9774  -0.4550 LP             1 S1                 0.0000
     39 ****         0.8736  -1.7788   0.6129 LP             1 S1                 0.0000
     40 ****        -0.5215  -2.1283  -3.2762 LP             1 S1                 0.0000
     41 ****        -1.9501  -2.4140  -2.5386 LP             1 S1                 0.0000
@<TRIPOS>BOND
    1    1    2 1     
    2    1   24 1     
    3    2    3 1     
    4    2   25 1     
    5    2   26 1     
    6    3   20 1     
    7    3   18 1     
    8    3    4 1     
    9    4    5 1     
   10    5   21 1     
   11    5    6 1     
   12    5   16 1     
   13    6   15 1     
   14    6    7 1     
   15    7    8 2     
   16    7   27 1     
   17    8    9 1     
   18    9   15 ar    
   19    9   10 ar    
   20   10   11 1     
   21   10   12 ar    
   22   12   13 ar    
   23   13   14 ar    
   24   13   28 1     
   25   14   15 ar    
   26   16   22 1     
   27   16   17 1     
   28   16   18 1     
   29   17   29 1     
   30   18   23 1     
   31   18   19 1     
   32   19   30 1     
   33    1   31 1     
   34    1   32 1     
   35    4   33 1     
   36    4   34 1     
   37    8   35 1     
   38   12   36 1     
   39   14   37 1     
   40   17   38 1     
   41   17   39 1     
   42   19   40 1     
   43   19   41 1     
@<TRIPOS>SUBSTRUCTURE
      1 S1             1
@<TRIPOS>SET
LONE_PAIRS      STATIC     ATOMS    <user>   **** ""
11 31 32 33 34 35 36 37 38 39 40 41
DONOR_HYDROGENS      STATIC     ATOMS    <user>   **** ""
3 24 29 30
ATOM$BLUE        STATIC     ATOMS    COLORGROUP SYSTEM
11 31 32 33 34 35 36 37 38 39 40 41
ATOM$RED        STATIC     ATOMS    COLORGROUP SYSTEM
3 24 29 30
