AV-unprocessed.smi:2855|AV-procd|sdf|10990|dock7
  -GOLD-   2272015443D 1   1.00000     0.00000
 Structure written by MMmdl.
 46 47  0  0  0  0  0  0  0  0  2 V2000
  149.2882  144.9669  160.0388 C   0  0  0  0  0  0  0  0  0  0  0  0
  150.6374  145.2475  159.3535 C   0  0  1  0  0  0  0  0  0  0  0  0
  151.7778  145.4842  160.3587 C   0  0  0  0  0  0  0  0  0  0  0  0
  152.2182  144.1881  161.0568 C   0  0  0  0  0  0  0  0  0  0  0  0
  152.6359  143.0935  160.0456 C   0  0  1  0  0  0  0  0  0  0  0  0
  153.1679  141.7997  160.7332 C   0  0  0  0  0  0  0  0  0  0  0  0
  153.7405  142.0274  162.1448 C   0  0  0  0  0  0  0  0  0  0  0  0
  154.1786  141.0410  159.8555 C   0  0  0  0  0  0  0  0  0  0  0  0
  151.4940  142.8408  159.0197 C   0  0  2  0  0  0  0  0  0  0  0  0
  151.9282  141.9229  157.9669 N   0  0  0  0  0  0  0  0  0  0  0  0
  151.4177  140.7082  157.7116 C   0  0  0  0  0  0  0  0  0  0  0  0
  150.5144  140.1975  158.3749 O   0  0  0  0  0  0  0  0  0  0  0  0
  152.0587  139.9523  156.5394 C   0  0  0  0  0  0  0  0  0  0  0  0
  151.4095  138.6638  156.2483 N   0  0  0  0  0  0  0  0  0  0  0  0
  151.5540  137.6313  157.1917 C   0  0  0  0  0  0  0  0  0  0  0  0
  150.9976  136.4188  157.0088 C   0  0  0  0  0  0  0  0  0  0  0  0
  150.2266  136.1893  155.7932 C   0  0  0  0  0  0  0  0  0  0  0  0
  149.7140  135.0872  155.6083 O   0  0  0  0  0  0  0  0  0  0  0  0
  150.1119  137.2238  154.9098 N   0  5  0  0  0  0  0  0  0  0  0  0
  150.6828  138.4523  155.1095 C   0  0  0  0  0  0  0  0  0  0  0  0
  150.5669  139.3725  154.2991 O   0  0  0  0  0  0  0  0  0  0  0  0
  151.0342  144.1517  158.3469 C   0  0  0  0  0  0  0  0  0  0  0  0
  149.3093  144.0535  160.6327 H   0  0  0  0  0  0  0  0  0  0  0  0
  148.4914  144.8607  159.3022 H   0  0  0  0  0  0  0  0  0  0  0  0
  149.0112  145.7856  160.7037 H   0  0  0  0  0  0  0  0  0  0  0  0
  150.5058  146.1721  158.7898 H   0  0  0  0  0  0  0  0  0  0  0  0
  152.6335  145.9120  159.8346 H   0  0  0  0  0  0  0  0  0  0  0  0
  151.4777  146.2248  161.1008 H   0  0  0  0  0  0  0  0  0  0  0  0
  153.0444  144.4239  161.7264 H   0  0  0  0  0  0  0  0  0  0  0  0
  151.4081  143.8288  161.6906 H   0  0  0  0  0  0  0  0  0  0  0  0
  153.4717  143.5030  159.4753 H   0  0  0  0  0  0  0  0  0  0  0  0
  152.3258  141.1176  160.8466 H   0  0  0  0  0  0  0  0  0  0  0  0
  154.6377  142.6454  162.1235 H   0  0  0  0  0  0  0  0  0  0  0  0
  154.0128  141.0788  162.6082 H   0  0  0  0  0  0  0  0  0  0  0  0
  153.0186  142.5071  162.8047 H   0  0  0  0  0  0  0  0  0  0  0  0
  155.1132  141.5899  159.7423 H   0  0  0  0  0  0  0  0  0  0  0  0
  153.7758  140.8538  158.8597 H   0  0  0  0  0  0  0  0  0  0  0  0
  154.4235  140.0733  160.2940 H   0  0  0  0  0  0  0  0  0  0  0  0
  150.6350  142.4244  159.5458 H   0  0  0  0  0  0  0  0  0  0  0  0
  152.6732  142.2474  157.3682 H   0  0  0  0  0  0  0  0  0  0  0  0
  152.0462  140.5832  155.6483 H   0  0  0  0  0  0  0  0  0  0  0  0
  153.1145  139.8043  156.7702 H   0  0  0  0  0  0  0  0  0  0  0  0
  152.1352  137.8847  158.0661 H   0  0  0  0  0  0  0  0  0  0  0  0
  151.1171  135.6366  157.7439 H   0  0  0  0  0  0  0  0  0  0  0  0
  150.2016  143.9523  157.6705 H   0  0  0  0  0  0  0  0  0  0  0  0
  151.8428  144.5331  157.7212 H   0  0  0  0  0  0  0  0  0  0  0  0
  1  2  1  0  0  0  0
  1 23  1  0  0  0  0
  1 24  1  0  0  0  0
  1 25  1  0  0  0  0
  2 22  1  0  0  0  0
  2  3  1  0  0  0  0
  2 26  1  0  0  0  0
  3  4  1  0  0  0  0
  3 27  1  0  0  0  0
  3 28  1  0  0  0  0
  4  5  1  0  0  0  0
  4 29  1  0  0  0  0
  4 30  1  0  0  0  0
  5  6  1  0  0  0  0
  5  9  1  0  0  0  0
  5 31  1  0  0  0  0
  6  7  1  0  0  0  0
  6  8  1  0  0  0  0
  6 32  1  0  0  0  0
  7 33  1  0  0  0  0
  7 34  1  0  0  0  0
  7 35  1  0  0  0  0
  8 36  1  0  0  0  0
  8 37  1  0  0  0  0
  8 38  1  0  0  0  0
  9 10  1  0  0  0  0
  9 22  1  0  0  0  0
  9 39  1  0  0  0  0
 10 11  1  0  0  0  0
 10 40  1  0  0  0  0
 11 12  2  0  0  0  0
 11 13  1  0  0  0  0
 13 14  1  0  0  0  0
 13 41  1  0  0  0  0
 13 42  1  0  0  0  0
 14 20  1  0  0  0  0
 14 15  1  0  0  0  0
 15 16  2  0  0  0  0
 15 43  1  0  0  0  0
 16 17  1  0  0  0  0
 16 44  1  0  0  0  0
 17 18  2  0  0  0  0
 17 19  1  0  0  0  0
 19 20  1  0  0  0  0
 20 21  2  0  0  0  0
 22 45  1  0  0  0  0
 22 46  1  0  0  0  0
M  CHG  1  19  -1
M  END
> <s_m_source_file>
AV-unprocessed.smi

> <i_m_source_file_index>
2855

> <i_lp_mmshare_version>
43012

> <i_f3d_flags>
0

> <s_epik_input>
W0NIM11bQ0BASF0xW0NIMl1bQ0gyXVtDQEBIXShbQ0hdKFtDSDNdKVtDSDNdKVtDQEhdKFtDSDJdMSlbTkhdQyg9TylbQ0gyXW4yW2NIXVtjSF1jKD1PKVtuSF1jMj1P

> <s_epik_cmdline>
J2VwaWtfcHl0aG9uJywgJy1waCcsICc3LjAnLCAnLXRuJywgJzgnLCAnLW1hJywgJzIwMCcsICctbWV0YWxfYmluZGluZycsICctaW1hZScsICc8aW5maWxlLm1hZT4nLCAnLW9tYWUnLCAnPG91dGZpbGUubWFlPic=

> <r_lp_tautomer_probability>
0.999537

> <r_epik_Ionization_Penalty>
3.12102

> <r_epik_Ionization_Penalty_Charging>
2.9581e-08

> <r_epik_Ionization_Penalty_Neutral>
3.12102

> <r_epik_State_Penalty>
3.12011

> <r_epik_Charging_Adjusted_Penalty>
3.12011

> <i_epik_Tot_Q>
-1

> <i_epik_Tot_abs_Q>
1

> <r_epik_Metal_State_Penalty>
0.463583

> <b_epik_Metal_Only>
1

> <s_lp_Force_Field>
OPLS_2005

> <r_lp_Energy>
25.2964

> <b_lp_Chiralities_Consistent>
1

> <s_lp_Variant>
AV-unprocessed.smi:2855-14

> <Gold.Version>
5.8.1

> <Gold.Id.Protein>
6NUR|6NUR_protein|mol2

> <Gold.PLP.Fitness>
45.3901

> <Gold.PLP.PLP>
-43.8836

> <Gold.PLP.part.hbond>
-1.0000

> <Gold.PLP.part.metal>
0.0000

> <Gold.PLP.part.buried>
-5.4500

> <Gold.PLP.part.nonpolar>
-37.4894

> <Gold.PLP.part.repulsive>
0.5427

> <Gold.PLP.ligand.clash>
0.0000

> <Gold.PLP.ligand.torsion>
0.7792

> <Gold.PLP.Chemscore.Hbond>
1.0000

> <Gold.PLP.Chemscore.CHOScore>
0.0000

> <Gold.PLP.Chemscore.Metal>
0.0000

> <Gold.Chemscore.Hbonds>
donor molecule, donor type, donor heavy atom, donor atom, acceptor molecule, acceptor atom, score
      P1  H  7989  7998       L1    21  1.00

> <Gold.PLP.Chemscore.Internal.Correction>
0.0649

> <Gold.Rescore>
     Score         DG    S(hbond)    S(metal)    S(lipo)     H(rot)  DE(clash)    DE(int)     intcor
     15.53     -18.25       0.99        0.00     120.36       1.81       0.40       2.32       ----

> <Gold.Chemscore.Fitness>
15.5330

> <Gold.Chemscore.DG>
-18.2511

> <Gold.Chemscore.ZeroCoef>
-5.4800

> <Gold.Chemscore.Hbond>
0.9948

> <Gold.Chemscore.Metal>
0.0000

> <Gold.Chemscore.Lipo>
120.3593

> <Gold.Chemscore.Internal_Hbond>
0.0000

> <Gold.Chemscore.DEClash>
0.3995

> <Gold.Chemscore.DEInternal>
2.3187

> <Gold.Chemscore.Rot>
1.8100

> <Gold.Chemscore.Internal.Correction>
   9.000000E+99

> <Gold.Chemscore.Hbonds>
donor molecule, donor type, donor heavy atom, donor atom, acceptor molecule, acceptor atom, score
      P1  H  7989  7998       L1    21  0.96

> <Gold.Chemscore.Hbond.Weighted>
-3.3226

> <Gold.Chemscore.Metal.Weighted>
-0.0000

> <Gold.Chemscore.Lipo.Weighted>
-14.0820

> <Gold.Chemscore.Internal_Hbond.Weighted>
0.0000

> <Gold.Chemscore.DEClash.Weighted>
0.3995

> <Gold.Chemscore.DEInternal.Weighted>
2.3187

> <Gold.Chemscore.Rot.Weighted>
4.6335

> <Gold.Chemscore.Internal.Correction.Weighted>
   9.000000E+99

> <Gold.Protein.RotatedTorsions>
[ 6907 6896 6895 6894 ] final  132.12 input  -60.11 | X-H torsion
[ 7974 7965 7964 7962 ] final -111.72 input  175.53 | X-H torsion
[ 8008 7997 7996 7995 ] final  -61.71 input   59.86 | X-H torsion
[ 10167 10162 10161 10158 ] final   32.89 input  -65.29 | X-H torsion
[ 10718 10713 10712 10709 ] final  -81.40 input   66.30 | X-H torsion
[ 10763 10752 10751 10750 ] final  161.11 input  -60.55 | X-H torsion
[ 11005 11000 10999 10996 ] final  138.54 input  -57.11 | X-H torsion

> <Gold.Protein.ActiveResidues>
 VAL166  LYS551  ARG553  GLY616  TRP617  ASP618  TYR619  PRO620  LYS621  CYS622 
 ASP623  PHE694  ASN695  SER759  ASP760  ASP761  ALA762  ILE779  LEU786  VAL792 
 PHE793  MET794  SER795  GLU796  ALA797  LYS798  CYS799  TRP800  GLU811  SER814 

> <Gold.Protein.RotatedAtoms>
  152.3357  133.6008  159.5840 H   0  0  0  0  0  0  0  0  0  0  0  0  # atno 6907 bound_to 6896
  150.7449  133.9800  159.3582 H   0  0  0  0  0  0  0  0  0  0  0  0  # atno 6908 bound_to 6896
  151.7670  135.0796  160.0405 H   0  0  0  0  0  0  0  0  0  0  0  0  # atno 6909 bound_to 6896
  145.1526  140.8837  143.3637 H   0  0  0  0  0  0  0  0  0  0  0  0  # atno 7974 bound_to 7965
  154.4462  140.1012  156.6473 H   0  0  0  0  0  0  0  0  0  0  0  0  # atno 8008 bound_to 7997
  155.5436  140.3484  155.4434 H   0  0  0  0  0  0  0  0  0  0  0  0  # atno 8009 bound_to 7997
  156.0579  140.1319  156.9964 H   0  0  0  0  0  0  0  0  0  0  0  0  # atno 8010 bound_to 7997
  140.4458  144.1121  150.6182 H   0  0  0  0  0  0  0  0  0  0  0  0  # atno 10167 bound_to 10162
  156.0051  130.4602  150.3946 H   0  0  0  0  0  0  0  0  0  0  0  0  # atno 10718 bound_to 10713
  154.2579  135.2769  155.2790 H   0  0  0  0  0  0  0  0  0  0  0  0  # atno 10763 bound_to 10752
  154.5409  135.5703  153.6842 H   0  0  0  0  0  0  0  0  0  0  0  0  # atno 10764 bound_to 10752
  152.9968  135.6251  154.2728 H   0  0  0  0  0  0  0  0  0  0  0  0  # atno 10765 bound_to 10752
  140.0191  134.9405  157.0437 H   0  0  0  0  0  0  0  0  0  0  0  0  # atno 11005 bound_to 11000
  145.0414  139.3257  143.5974 LP  0  0  0  0  0  0  0  0  0  0  0  0  # atno 17320 bound_to 7965
  146.3492  139.9789  142.8698 LP  0  0  0  0  0  0  0  0  0  0  0  0  # atno 17321 bound_to 7965
  140.4266  143.2587  151.9649 LP  0  0  0  0  0  0  0  0  0  0  0  0  # atno 17342 bound_to 10162
  139.4792  144.5783  151.7975 LP  0  0  0  0  0  0  0  0  0  0  0  0  # atno 17343 bound_to 10162
  157.2019  131.0440  151.2646 LP  0  0  0  0  0  0  0  0  0  0  0  0  # atno 17370 bound_to 10713
  157.3968  130.7312  149.6737 LP  0  0  0  0  0  0  0  0  0  0  0  0  # atno 17371 bound_to 10713
  140.4418  134.1673  155.7174 LP  0  0  0  0  0  0  0  0  0  0  0  0  # atno 17394 bound_to 11000
  141.1762  133.8509  157.1412 LP  0  0  0  0  0  0  0  0  0  0  0  0  # atno 17395 bound_to 11000

$$$$
