AV-unprocessed.smi:103|AV-procd|sdf|978|dock6
  -GOLD-   2262017533D 1   1.00000     0.00000
 Structure written by MMmdl.
 53 55  0  0  0  0  0  0  0  0  1 V2000
  148.2543  131.0683  160.1780 C   0  0  0  0  0  0  0  0  0  0  0  0
  148.6898  132.1390  159.1857 C   0  0  0  0  0  0  0  0  0  0  0  0
  149.7440  132.0397  158.5576 O   0  0  0  0  0  0  0  0  0  0  0  0
  147.8060  133.1483  159.0945 O   0  0  0  0  0  0  0  0  0  0  0  0
  148.0342  134.2306  158.2014 C   0  0  0  0  0  0  0  0  0  0  0  0
  149.1687  135.1455  158.7094 C   0  0  1  0  0  0  0  0  0  0  0  0
  149.7112  135.8411  157.5837 O   0  0  0  0  0  0  0  0  0  0  0  0
  149.5228  137.2173  157.7114 C   0  0  1  0  0  0  0  0  0  0  0  0
  149.1876  137.8084  156.3739 N   0  0  0  0  0  0  0  0  0  0  0  0
  149.8387  138.8086  155.6808 C   0  0  0  0  0  0  0  0  0  0  0  0
  151.3540  139.6239  156.1684 S   0  0  0  0  0  0  0  0  0  0  0  0
  150.8454  140.4536  157.7281 C   0  0  0  0  0  0  0  0  0  0  0  0
  152.3317  138.5673  156.4722 O   0  0  0  0  0  0  0  0  0  0  0  0
  151.6485  140.6463  155.1529 O   0  0  0  0  0  0  0  0  0  0  0  0
  149.3623  139.1153  154.5052 N   0  0  0  0  0  0  0  0  0  0  0  0
  148.2396  138.3070  154.4019 C   0  0  0  0  0  0  0  0  0  0  0  0
  147.2351  138.1404  153.4157 C   0  0  0  0  0  0  0  0  0  0  0  0
  147.2114  138.8377  152.2718 N   0  0  0  0  0  0  0  0  0  0  0  0
  146.2519  137.2378  153.6385 N   0  0  0  0  0  0  0  0  0  0  0  0
  146.2524  136.5309  154.7725 C   0  0  0  0  0  0  0  0  0  0  0  0
  147.1229  136.5768  155.7835 N   0  0  0  0  0  0  0  0  0  0  0  0
  148.1162  137.4869  155.5604 C   0  0  0  0  0  0  0  0  0  0  0  0
  148.4181  137.4246  158.7536 C   0  0  1  0  0  0  0  0  0  0  0  0
  147.1179  137.3305  158.1721 O   0  0  0  0  0  0  0  0  0  0  0  0
  146.0145  137.5229  158.9164 C   0  0  0  0  0  0  0  0  0  0  0  0
  144.7369  137.3968  158.0981 C   0  0  0  0  0  0  0  0  0  0  0  0
  145.9855  137.7893  160.1175 O   0  0  0  0  0  0  0  0  0  0  0  0
  148.7052  136.2499  159.6733 C   0  0  1  0  0  0  0  0  0  0  0  0
  147.5933  135.8860  160.4856 O   0  0  0  0  0  0  0  0  0  0  0  0
  147.6731  135.9812  161.8243 C   0  0  0  0  0  0  0  0  0  0  0  0
  146.7971  134.9569  162.5327 C   0  0  0  0  0  0  0  0  0  0  0  0
  148.3549  136.7900  162.4539 O   0  0  0  0  0  0  0  0  0  0  0  0
  147.5163  131.4635  160.8767 H   0  0  0  0  0  0  0  0  0  0  0  0
  149.1114  130.7105  160.7491 H   0  0  0  0  0  0  0  0  0  0  0  0
  147.8138  130.2225  159.6502 H   0  0  0  0  0  0  0  0  0  0  0  0
  148.2838  133.8231  157.2227 H   0  0  0  0  0  0  0  0  0  0  0  0
  147.1114  134.7972  158.0693 H   0  0  0  0  0  0  0  0  0  0  0  0
  149.9456  134.5485  159.1874 H   0  0  0  0  0  0  0  0  0  0  0  0
  150.4729  137.6653  158.0012 H   0  0  0  0  0  0  0  0  0  0  0  0
  151.6931  140.9992  158.1416 H   0  0  0  0  0  0  0  0  0  0  0  0
  150.5126  139.7034  158.4452 H   0  0  0  0  0  0  0  0  0  0  0  0
  150.0302  141.1473  157.5243 H   0  0  0  0  0  0  0  0  0  0  0  0
  147.9330  139.5186  152.0833 H   0  0  0  0  0  0  0  0  0  0  0  0
  146.4698  138.6856  151.6037 H   0  0  0  0  0  0  0  0  0  0  0  0
  145.4414  135.8267  154.8861 H   0  0  0  0  0  0  0  0  0  0  0  0
  148.5618  138.3722  159.2733 H   0  0  0  0  0  0  0  0  0  0  0  0
  144.8962  137.7581  157.0817 H   0  0  0  0  0  0  0  0  0  0  0  0
  143.9358  137.9822  158.5501 H   0  0  0  0  0  0  0  0  0  0  0  0
  144.4212  136.3544  158.0513 H   0  0  0  0  0  0  0  0  0  0  0  0
  149.5548  136.5084  160.3079 H   0  0  0  0  0  0  0  0  0  0  0  0
  145.8028  134.9336  162.0861 H   0  0  0  0  0  0  0  0  0  0  0  0
  146.6948  135.2066  163.5889 H   0  0  0  0  0  0  0  0  0  0  0  0
  147.2377  133.9632  162.4531 H   0  0  0  0  0  0  0  0  0  0  0  0
  1  2  1  0  0  0  0
  1 33  1  0  0  0  0
  1 34  1  0  0  0  0
  1 35  1  0  0  0  0
  2  3  2  0  0  0  0
  2  4  1  0  0  0  0
  4  5  1  0  0  0  0
  5  6  1  0  0  0  0
  5 36  1  0  0  0  0
  5 37  1  0  0  0  0
  6 28  1  0  0  0  0
  6  7  1  0  0  0  0
  6 38  1  0  0  0  0
  7  8  1  0  0  0  0
  8  9  1  0  0  0  0
  8 23  1  0  0  0  0
  8 39  1  0  0  0  0
  9 22  1  0  0  0  0
  9 10  1  0  0  0  0
 10 11  1  0  0  0  0
 10 15  2  0  0  0  0
 11 12  1  0  0  0  0
 11 13  2  0  0  0  0
 11 14  2  0  0  0  0
 12 40  1  0  0  0  0
 12 41  1  0  0  0  0
 12 42  1  0  0  0  0
 15 16  1  0  0  0  0
 16 22  2  0  0  0  0
 16 17  1  0  0  0  0
 17 18  1  0  0  0  0
 17 19  2  0  0  0  0
 18 43  1  0  0  0  0
 18 44  1  0  0  0  0
 19 20  1  0  0  0  0
 20 21  2  0  0  0  0
 20 45  1  0  0  0  0
 21 22  1  0  0  0  0
 23 24  1  0  0  0  0
 23 28  1  0  0  0  0
 23 46  1  0  0  0  0
 24 25  1  0  0  0  0
 25 26  1  0  0  0  0
 25 27  2  0  0  0  0
 26 47  1  0  0  0  0
 26 48  1  0  0  0  0
 26 49  1  0  0  0  0
 28 29  1  0  0  0  0
 28 50  1  0  0  0  0
 29 30  1  0  0  0  0
 30 31  1  0  0  0  0
 30 32  2  0  0  0  0
 31 51  1  0  0  0  0
 31 52  1  0  0  0  0
 31 53  1  0  0  0  0
M  END
> <s_m_source_file>
AV-unprocessed.smi

> <i_m_source_file_index>
103

> <i_lp_mmshare_version>
43012

> <i_f3d_flags>
0

> <s_epik_input>
W0NIM11DKD1PKU9bQ0gyXVtDQEBIXTFPW0NASF0oW0NAQEhdKE9DKD1PKVtDSDNdKVtDQEhdMU9DKD1PKVtDSDNdKW4oYyhuMilTKD1PKSg9TylbQ0gzXSljKGMyMyluW2NIXW5jM1tOSDJd

> <s_epik_cmdline>
J2VwaWtfcHl0aG9uJywgJy1waCcsICc3LjAnLCAnLXRuJywgJzgnLCAnLW1hJywgJzIwMCcsICctbWV0YWxfYmluZGluZycsICctaW1hZScsICc8aW5maWxlLm1hZT4nLCAnLW9tYWUnLCAnPG91dGZpbGUubWFlPic=

> <r_lp_tautomer_probability>
1

> <r_epik_Ionization_Penalty>
1.51338e-05

> <r_epik_Ionization_Penalty_Charging>
0

> <r_epik_Ionization_Penalty_Neutral>
1.51338e-05

> <r_epik_State_Penalty>
-0

> <r_epik_Charging_Adjusted_Penalty>
0

> <i_epik_Tot_Q>
0

> <i_epik_Tot_abs_Q>
0

> <r_epik_Metal_State_Penalty>
-0

> <b_epik_Metal_Only>
0

> <s_epik_Chemistry_Notes>
This compound has an ester and may undergo hydrolysis at high or low pH. This compound contains an acetal/aminal-like group ( X-CH(R)-Y where X, Y are N, S, or O) that may be acid/base labile, releasing an aldehyde.

> <s_lp_Force_Field>
OPLS_2005

> <r_lp_Energy>
15.224

> <b_lp_Chiralities_Consistent>
1

> <s_lp_Variant>
AV-unprocessed.smi:103-2

> <Gold.Version>
5.8.1

> <Gold.Id.Protein>
6NUR|6NUR_protein|mol2

> <Gold.PLP.Fitness>
36.0889

> <Gold.PLP.PLP>
-24.5431

> <Gold.PLP.part.hbond>
-5.3654

> <Gold.PLP.part.metal>
0.0000

> <Gold.PLP.part.buried>
-0.6636

> <Gold.PLP.part.nonpolar>
-18.7250

> <Gold.PLP.part.repulsive>
0.4337

> <Gold.PLP.ligand.clash>
0.0000

> <Gold.PLP.ligand.torsion>
2.5395

> <Gold.PLP.Chemscore.Hbond>
4.7040

> <Gold.PLP.Chemscore.CHOScore>
0.0000

> <Gold.PLP.Chemscore.Metal>
0.0000

> <Gold.Chemscore.Hbonds>
donor molecule, donor type, donor heavy atom, donor atom, acceptor molecule, acceptor atom, score
      L1  H    18    43       P1  7957  0.99
      P1  H  6896  6909       L1     3  0.93
      P1  H  6931  6943       L1    32  1.00
      P1  H  6934  6947       L1    27  1.00
      P1  H  7989  7998       L1    14  0.74

> <Gold.PLP.Chemscore.Internal.Correction>
2.5128

> <Gold.Rescore>
     Score         DG    S(hbond)    S(metal)    S(lipo)     H(rot)  DE(clash)    DE(int)     intcor
      2.84     -13.37       4.49        0.00      32.07       4.25       1.55       8.98       ----

> <Gold.Chemscore.Fitness>
2.8401

> <Gold.Chemscore.DG>
-13.3726

> <Gold.Chemscore.ZeroCoef>
-5.4800

> <Gold.Chemscore.Hbond>
4.4936

> <Gold.Chemscore.Metal>
0.0000

> <Gold.Chemscore.Lipo>
32.0749

> <Gold.Chemscore.Internal_Hbond>
0.0000

> <Gold.Chemscore.DEClash>
1.5502

> <Gold.Chemscore.DEInternal>
8.9823

> <Gold.Chemscore.Rot>
4.2456

> <Gold.Chemscore.Internal.Correction>
   9.000000E+99

> <Gold.Chemscore.Hbonds>
donor molecule, donor type, donor heavy atom, donor atom, acceptor molecule, acceptor atom, score
      L1  H    18    43       P1  7957  0.92
      P1  H  6896  6909       L1     3  0.48
      P1  H  6931  6943       L1    32  0.99
      P1  H  6934  6947       L1    27  0.95
      P1  H  7989  7998       L1    14  0.74

> <Gold.Chemscore.Hbond.Weighted>
-15.0085

> <Gold.Chemscore.Metal.Weighted>
-0.0000

> <Gold.Chemscore.Lipo.Weighted>
-3.7528

> <Gold.Chemscore.Internal_Hbond.Weighted>
0.0000

> <Gold.Chemscore.DEClash.Weighted>
1.5502

> <Gold.Chemscore.DEInternal.Weighted>
8.9823

> <Gold.Chemscore.Rot.Weighted>
10.8687

> <Gold.Chemscore.Internal.Correction.Weighted>
   9.000000E+99

> <Gold.Protein.RotatedTorsions>
[ 6907 6896 6895 6894 ] final  -16.37 input  -60.11 | X-H torsion
[ 7974 7965 7964 7962 ] final  164.24 input  175.53 | X-H torsion
[ 8008 7997 7996 7995 ] final  159.96 input   59.86 | X-H torsion
[ 10167 10162 10161 10158 ] final  141.54 input  -65.29 | X-H torsion
[ 10718 10713 10712 10709 ] final  -43.90 input   66.30 | X-H torsion
[ 10763 10752 10751 10750 ] final  103.84 input  -60.55 | X-H torsion
[ 11005 11000 10999 10996 ] final  106.71 input  -57.11 | X-H torsion

> <Gold.Protein.ActiveResidues>
 VAL166  LYS551  ARG553  GLY616  TRP617  ASP618  TYR619  PRO620  LYS621  CYS622 
 ASP623  PHE694  ASN695  SER759  ASP760  ASP761  ALA762  ILE779  LEU786  VAL792 
 PHE793  MET794  SER795  GLU796  ALA797  LYS798  CYS799  TRP800  GLU811  SER814 

> <Gold.Protein.RotatedAtoms>
  151.3097  135.0791  159.9267 H   0  0  0  0  0  0  0  0  0  0  0  0  # atno 6907 bound_to 6896
  152.5280  133.9749  159.7789 H   0  0  0  0  0  0  0  0  0  0  0  0  # atno 6908 bound_to 6896
  151.0050  133.5968  159.2720 H   0  0  0  0  0  0  0  0  0  0  0  0  # atno 6909 bound_to 6896
  144.7554  139.8298  143.6352 H   0  0  0  0  0  0  0  0  0  0  0  0  # atno 7974 bound_to 7965
  156.2205  140.1817  156.7489 H   0  0  0  0  0  0  0  0  0  0  0  0  # atno 8008 bound_to 7997
  154.5857  140.0659  156.9196 H   0  0  0  0  0  0  0  0  0  0  0  0  # atno 8009 bound_to 7997
  155.2424  140.3323  155.4293 H   0  0  0  0  0  0  0  0  0  0  0  0  # atno 8010 bound_to 7997
  139.5018  144.6165  151.6152 H   0  0  0  0  0  0  0  0  0  0  0  0  # atno 10167 bound_to 10162
  156.2441  130.4182  149.8725 H   0  0  0  0  0  0  0  0  0  0  0  0  # atno 10718 bound_to 10713
  153.3580  135.3963  155.1697 H   0  0  0  0  0  0  0  0  0  0  0  0  # atno 10763 bound_to 10752
  154.8674  135.3672  154.5136 H   0  0  0  0  0  0  0  0  0  0  0  0  # atno 10764 bound_to 10752
  153.5593  135.7081  153.5615 H   0  0  0  0  0  0  0  0  0  0  0  0  # atno 10765 bound_to 10752
  139.8818  134.9378  156.5708 H   0  0  0  0  0  0  0  0  0  0  0  0  # atno 11005 bound_to 11000
  146.1557  139.4654  143.0020 LP  0  0  0  0  0  0  0  0  0  0  0  0  # atno 17320 bound_to 7965
  145.6798  141.0194  143.1612 LP  0  0  0  0  0  0  0  0  0  0  0  0  # atno 17321 bound_to 7965
  140.5854  143.9873  150.6292 LP  0  0  0  0  0  0  0  0  0  0  0  0  # atno 17342 bound_to 10162
  140.3036  143.3244  152.0948 LP  0  0  0  0  0  0  0  0  0  0  0  0  # atno 17343 bound_to 10162
  156.6297  130.8660  151.3492 LP  0  0  0  0  0  0  0  0  0  0  0  0  # atno 17370 bound_to 10713
  157.7188  130.9531  150.1356 LP  0  0  0  0  0  0  0  0  0  0  0  0  # atno 17371 bound_to 10713
  140.8100  133.8437  155.8801 LP  0  0  0  0  0  0  0  0  0  0  0  0  # atno 17394 bound_to 11000
  140.9515  134.1773  157.4724 LP  0  0  0  0  0  0  0  0  0  0  0  0  # atno 17395 bound_to 11000

$$$$
