AV-unprocessed.smi:260|AV-procd|sdf|1980|dock5
  -GOLD-   2262021153D 1   1.00000     0.00000
 Structure written by MMmdl.
 53 56  0  0  0  0  0  0  0  0  1 V2000
  146.2564  132.0568  156.9621 C   0  0  0  0  0  0  0  0  0  0  0  0
  147.4415  132.2303  156.1368 N   0  0  0  0  0  0  0  0  0  0  0  0
  147.9155  133.4179  155.7271 C   0  0  0  0  0  0  0  0  0  0  0  0
  147.3577  134.4778  156.0154 O   0  0  0  0  0  0  0  0  0  0  0  0
  149.2011  133.4427  154.8586 C   0  0  2  0  0  0  0  0  0  0  0  0
  148.9208  132.7143  153.5297 C   0  0  0  0  0  0  0  0  0  0  0  0
  150.4574  132.8909  155.5707 C   0  0  0  0  0  0  0  0  0  0  0  0
  150.9756  134.0613  156.4170 C   0  0  0  0  0  0  0  0  0  0  0  0
  150.4371  135.2598  155.7900 N   0  0  0  0  0  0  0  0  0  0  0  0
  151.0855  136.4497  155.8756 C   0  0  0  0  0  0  0  0  0  0  0  0
  151.5333  137.0359  154.7335 N   0  0  0  0  0  0  0  0  0  0  0  0
  152.1774  138.2056  154.7778 C   0  0  0  0  0  0  0  0  0  0  0  0
  152.4725  138.9554  155.8408 N   0  0  0  0  0  0  0  0  0  0  0  0
  152.0142  138.3824  156.9899 C   0  0  0  0  0  0  0  0  0  0  0  0
  151.3166  137.1451  157.0991 C   0  0  0  0  0  0  0  0  0  0  0  0
  151.0034  136.9028  158.4330 N   0  0  0  0  0  0  0  0  0  0  0  0
  151.4955  137.9281  159.0725 C   0  0  0  0  0  0  0  0  0  0  0  0
  152.1215  138.8638  158.2820 N   0  0  0  0  0  0  0  0  0  0  0  0
  152.7580  140.0932  158.7210 C   0  0  0  0  0  0  0  0  0  0  0  0
  151.7968  140.9979  159.5171 C   0  0  2  0  0  0  0  0  0  0  0  0
  150.6206  141.2056  158.7578 O   0  0  0  0  0  0  0  0  0  0  0  0
  152.4213  142.3648  159.8542 C   0  0  1  0  0  0  0  0  0  0  0  0
  152.6143  143.2851  158.6463 C   0  0  0  0  0  0  0  0  0  0  0  0
  152.6070  144.6501  159.2938 C   0  0  0  0  0  0  0  0  0  0  0  0
  151.5317  144.4757  160.3605 C   0  0  0  0  0  0  0  0  0  0  0  0
  151.5707  143.1004  160.7327 O   0  0  0  0  0  0  0  0  0  0  0  0
  149.6453  134.8990  154.6205 C   0  0  0  0  0  0  0  0  0  0  0  0
  146.0545  130.9952  157.1031 H   0  0  0  0  0  0  0  0  0  0  0  0
  145.3827  132.5103  156.4920 H   0  0  0  0  0  0  0  0  0  0  0  0
  146.4001  132.5107  157.9432 H   0  0  0  0  0  0  0  0  0  0  0  0
  147.9415  131.3962  155.8651 H   0  0  0  0  0  0  0  0  0  0  0  0
  149.7837  132.7553  152.8644 H   0  0  0  0  0  0  0  0  0  0  0  0
  148.0807  133.1594  152.9945 H   0  0  0  0  0  0  0  0  0  0  0  0
  148.6881  131.6621  153.6975 H   0  0  0  0  0  0  0  0  0  0  0  0
  150.2938  131.9857  156.1560 H   0  0  0  0  0  0  0  0  0  0  0  0
  151.2135  132.6392  154.8255 H   0  0  0  0  0  0  0  0  0  0  0  0
  150.5988  133.9971  157.4381 H   0  0  0  0  0  0  0  0  0  0  0  0
  152.0657  134.0672  156.4514 H   0  0  0  0  0  0  0  0  0  0  0  0
  152.5031  138.5959  153.8248 H   0  0  0  0  0  0  0  0  0  0  0  0
  151.4176  138.0286  160.1451 H   0  0  0  0  0  0  0  0  0  0  0  0
  153.6215  139.8261  159.3310 H   0  0  0  0  0  0  0  0  0  0  0  0
  153.1455  140.6190  157.8471 H   0  0  0  0  0  0  0  0  0  0  0  0
  151.5145  140.4949  160.4431 H   0  0  0  0  0  0  0  0  0  0  0  0
  150.5590  142.1242  158.5452 H   0  0  0  0  0  0  0  0  0  0  0  0
  153.3796  142.2308  160.3589 H   0  0  0  0  0  0  0  0  0  0  0  0
  153.5323  143.0784  158.0956 H   0  0  0  0  0  0  0  0  0  0  0  0
  151.7745  143.1970  157.9554 H   0  0  0  0  0  0  0  0  0  0  0  0
  153.5729  144.8491  159.7601 H   0  0  0  0  0  0  0  0  0  0  0  0
  152.3895  145.4580  158.5945 H   0  0  0  0  0  0  0  0  0  0  0  0
  151.6893  145.1273  161.2203 H   0  0  0  0  0  0  0  0  0  0  0  0
  150.5462  144.6928  159.9469 H   0  0  0  0  0  0  0  0  0  0  0  0
  150.2658  134.9722  153.7260 H   0  0  0  0  0  0  0  0  0  0  0  0
  148.8027  135.5807  154.4949 H   0  0  0  0  0  0  0  0  0  0  0  0
  1  2  1  0  0  0  0
  1 28  1  0  0  0  0
  1 29  1  0  0  0  0
  1 30  1  0  0  0  0
  2  3  1  0  0  0  0
  2 31  1  0  0  0  0
  3  4  2  0  0  0  0
  3  5  1  0  0  0  0
  5 27  1  0  0  0  0
  5  6  1  0  0  0  0
  5  7  1  0  0  0  0
  6 32  1  0  0  0  0
  6 33  1  0  0  0  0
  6 34  1  0  0  0  0
  7  8  1  0  0  0  0
  7 35  1  0  0  0  0
  7 36  1  0  0  0  0
  8  9  1  0  0  0  0
  8 37  1  0  0  0  0
  8 38  1  0  0  0  0
  9 10  1  0  0  0  0
  9 27  1  0  0  0  0
 10 15  1  0  0  0  0
 10 11  2  0  0  0  0
 11 12  1  0  0  0  0
 12 13  2  0  0  0  0
 12 39  1  0  0  0  0
 13 14  1  0  0  0  0
 14 18  1  0  0  0  0
 14 15  2  0  0  0  0
 15 16  1  0  0  0  0
 16 17  2  0  0  0  0
 17 18  1  0  0  0  0
 17 40  1  0  0  0  0
 18 19  1  0  0  0  0
 19 20  1  0  0  0  0
 19 41  1  0  0  0  0
 19 42  1  0  0  0  0
 20 21  1  0  0  0  0
 20 22  1  0  0  0  0
 20 43  1  0  0  0  0
 21 44  1  0  0  0  0
 22 26  1  0  0  0  0
 22 23  1  0  0  0  0
 22 45  1  0  0  0  0
 23 24  1  0  0  0  0
 23 46  1  0  0  0  0
 23 47  1  0  0  0  0
 24 25  1  0  0  0  0
 24 48  1  0  0  0  0
 24 49  1  0  0  0  0
 25 26  1  0  0  0  0
 25 50  1  0  0  0  0
 25 51  1  0  0  0  0
 27 52  1  0  0  0  0
 27 53  1  0  0  0  0
M  END
> <s_m_source_file>
AV-unprocessed.smi

> <i_m_source_file_index>
260

> <i_lp_mmshare_version>
43012

> <i_f3d_flags>
0

> <s_epik_input>
W0NIM11bTkhdQyg9TylbQ0BAXTEoW0NIM10pW0NIMl1bQ0gyXU4oW0NIMl0xKWMobltjSF1uMiljKGMyMyluW2NIXW4zW0NIMl1bQ0BIXShbT0hdKVtDQEBIXTRbQ0gyXVtDSDJdW0NIMl1PNA==

> <s_epik_cmdline>
J2VwaWtfcHl0aG9uJywgJy1waCcsICc3LjAnLCAnLXRuJywgJzgnLCAnLW1hJywgJzIwMCcsICctbWV0YWxfYmluZGluZycsICctaW1hZScsICc8aW5maWxlLm1hZT4nLCAnLW9tYWUnLCAnPG91dGZpbGUubWFlPic=

> <r_lp_tautomer_probability>
1

> <r_epik_Ionization_Penalty>
0.00115068

> <r_epik_Ionization_Penalty_Charging>
0

> <r_epik_Ionization_Penalty_Neutral>
0.00115068

> <r_epik_State_Penalty>
0.000668876

> <r_epik_Charging_Adjusted_Penalty>
0.000668876

> <i_epik_Tot_Q>
0

> <i_epik_Tot_abs_Q>
0

> <r_epik_Metal_State_Penalty>
-0

> <b_epik_Metal_Only>
0

> <s_lp_Force_Field>
OPLS_2005

> <r_lp_Energy>
49.109

> <b_lp_Chiralities_Consistent>
1

> <s_lp_Variant>
AV-unprocessed.smi:260-6

> <Gold.Version>
5.8.1

> <Gold.Id.Protein>
6NUR|6NUR_protein|mol2

> <Gold.PLP.Fitness>
47.1736

> <Gold.PLP.PLP>
-44.7324

> <Gold.PLP.part.hbond>
-3.1286

> <Gold.PLP.part.metal>
0.0000

> <Gold.PLP.part.buried>
-7.2609

> <Gold.PLP.part.nonpolar>
-34.9778

> <Gold.PLP.part.repulsive>
0.2208

> <Gold.PLP.ligand.clash>
0.0000

> <Gold.PLP.ligand.torsion>
0.9494

> <Gold.PLP.Chemscore.Hbond>
1.3370

> <Gold.PLP.Chemscore.CHOScore>
0.0000

> <Gold.PLP.Chemscore.Metal>
0.0000

> <Gold.Chemscore.Hbonds>
donor molecule, donor type, donor heavy atom, donor atom, acceptor molecule, acceptor atom, score
      P1  H  6896  6907       L1    16  0.27
      P1  H 10752 10763       L1    11  0.83

> <Gold.PLP.Chemscore.Internal.Correction>
0.3290

> <Gold.Rescore>
     Score         DG    S(hbond)    S(metal)    S(lipo)     H(rot)  DE(clash)    DE(int)     intcor
     13.44     -14.43       1.40        0.00      91.89       2.53       0.14       0.86       ----

> <Gold.Chemscore.Fitness>
13.4353

> <Gold.Chemscore.DG>
-14.4346

> <Gold.Chemscore.ZeroCoef>
-5.4800

> <Gold.Chemscore.Hbond>
1.3983

> <Gold.Chemscore.Metal>
0.0000

> <Gold.Chemscore.Lipo>
91.8850

> <Gold.Chemscore.Internal_Hbond>
0.0000

> <Gold.Chemscore.DEClash>
0.1420

> <Gold.Chemscore.DEInternal>
0.8573

> <Gold.Chemscore.Rot>
2.5259

> <Gold.Chemscore.Internal.Correction>
   9.000000E+99

> <Gold.Chemscore.Hbonds>
donor molecule, donor type, donor heavy atom, donor atom, acceptor molecule, acceptor atom, score
      P1  H  6896  6907       L1    16  0.12
      P1  H 10752 10763       L1    11  0.11

> <Gold.Chemscore.Hbond.Weighted>
-4.6704

> <Gold.Chemscore.Metal.Weighted>
-0.0000

> <Gold.Chemscore.Lipo.Weighted>
-10.7505

> <Gold.Chemscore.Internal_Hbond.Weighted>
0.0000

> <Gold.Chemscore.DEClash.Weighted>
0.1420

> <Gold.Chemscore.DEInternal.Weighted>
0.8573

> <Gold.Chemscore.Rot.Weighted>
6.4663

> <Gold.Chemscore.Internal.Correction.Weighted>
   9.000000E+99

> <Gold.Protein.RotatedTorsions>
[ 6907 6896 6895 6894 ] final  -16.95 input  -60.11 | X-H torsion
[ 7974 7965 7964 7962 ] final  167.90 input  175.53 | X-H torsion
[ 8008 7997 7996 7995 ] final  155.28 input   59.86 | X-H torsion
[ 10167 10162 10161 10158 ] final  -44.73 input  -65.29 | X-H torsion
[ 10718 10713 10712 10709 ] final  -40.18 input   66.30 | X-H torsion
[ 10763 10752 10751 10750 ] final   30.44 input  -60.55 | X-H torsion
[ 11005 11000 10999 10996 ] final  166.11 input  -57.11 | X-H torsion

> <Gold.Protein.ActiveResidues>
 VAL166  LYS551  ARG553  GLY616  TRP617  ASP618  TYR619  PRO620  LYS621  CYS622 
 ASP623  PHE694  ASN695  SER759  ASP760  ASP761  ALA762  ILE779  LEU786  VAL792 
 PHE793  MET794  SER795  GLU796  ALA797  LYS798  CYS799  TRP800  GLU811  SER814 

> <Gold.Protein.RotatedAtoms>
  151.3008  135.0768  159.9237 H   0  0  0  0  0  0  0  0  0  0  0  0  # atno 6907 bound_to 6896
  152.5298  133.9836  159.7828 H   0  0  0  0  0  0  0  0  0  0  0  0  # atno 6908 bound_to 6896
  151.0122  133.5903  159.2712 H   0  0  0  0  0  0  0  0  0  0  0  0  # atno 6909 bound_to 6896
  144.7407  139.8829  143.6397 H   0  0  0  0  0  0  0  0  0  0  0  0  # atno 7974 bound_to 7965
  156.2487  140.1944  156.6776 H   0  0  0  0  0  0  0  0  0  0  0  0  # atno 8008 bound_to 7997
  154.6346  140.0591  156.9799 H   0  0  0  0  0  0  0  0  0  0  0  0  # atno 8009 bound_to 7997
  155.1657  140.3264  155.4405 H   0  0  0  0  0  0  0  0  0  0  0  0  # atno 8010 bound_to 7997
  140.6885  143.2915  151.3538 H   0  0  0  0  0  0  0  0  0  0  0  0  # atno 10167 bound_to 10162
  156.2842  130.4220  149.8305 H   0  0  0  0  0  0  0  0  0  0  0  0  # atno 10718 bound_to 10713
  153.0372  135.6464  154.1045 H   0  0  0  0  0  0  0  0  0  0  0  0  # atno 10763 bound_to 10752
  154.0757  135.2877  155.3301 H   0  0  0  0  0  0  0  0  0  0  0  0  # atno 10764 bound_to 10752
  154.6564  135.5407  153.8028 H   0  0  0  0  0  0  0  0  0  0  0  0  # atno 10765 bound_to 10752
  140.2631  134.7886  157.3608 H   0  0  0  0  0  0  0  0  0  0  0  0  # atno 11005 bound_to 11000
  146.1198  139.4214  143.0235 LP  0  0  0  0  0  0  0  0  0  0  0  0  # atno 17320 bound_to 7965
  145.7321  141.0038  143.1346 LP  0  0  0  0  0  0  0  0  0  0  0  0  # atno 17321 bound_to 7965
  139.6266  144.0802  152.2439 LP  0  0  0  0  0  0  0  0  0  0  0  0  # atno 17342 bound_to 10162
  140.0264  144.6114  150.7524 LP  0  0  0  0  0  0  0  0  0  0  0  0  # atno 17343 bound_to 10162
  156.5741  130.8437  151.3365 LP  0  0  0  0  0  0  0  0  0  0  0  0  # atno 17370 bound_to 10713
  157.7323  130.9714  150.1924 LP  0  0  0  0  0  0  0  0  0  0  0  0  # atno 17371 bound_to 10713
  140.1445  134.4928  155.8006 LP  0  0  0  0  0  0  0  0  0  0  0  0  # atno 17394 bound_to 11000
  141.2188  133.6838  156.7270 LP  0  0  0  0  0  0  0  0  0  0  0  0  # atno 17395 bound_to 11000

$$$$
