#       Name:                AV-unprocessed.smi:3261
#       Creating user name   scv26
#       Creation time:       Fri Mar 27 18:38:06 2020


#       File generated by GOLD software.
#

@<TRIPOS>MOLECULE
AV-unprocessed.smi:3261
    33    34     1
SMALL
NO_CHARGES


@<TRIPOS>ATOM
      1 ****         0.2959   2.8159  -0.1994 O.2            1 S1                 0.0000
      2 ****        -0.0247   1.6297  -0.1963 C.2            1 S1                 0.0000
      3 ****         0.8438   0.5991  -0.1654 N.am           1 S1                 0.0000
      4 ****         2.2655   0.6244  -0.1824 C.ar           1 S1                 0.0000
      5 ****         2.9402  -0.5462   0.2299 C.ar           1 S1                 0.0000
      6 ****         4.3496  -0.5797   0.2160 C.ar           1 S1                 0.0000
      7 ****         5.0433   0.5017  -0.1987 N.pl3          1 S1                 1.0000
      8 ****         4.4441   1.6380  -0.6143 C.ar           1 S1                 0.0000
      9 ****         3.0374   1.7306  -0.6221 C.ar           1 S1                 0.0000
     10 ****        -1.3190   1.2621  -0.1946 N.am           1 S1                 0.0000
     11 ****        -2.5065   2.1177  -0.2229 C.3            1 S1                 0.0000
     12 ****        -3.7412   1.3668   0.3094 C.3            1 S1                 0.0000
     13 ****        -4.9999   2.1588  -0.0677 C.3            1 S1                 0.0000
     14 ****        -4.6094   3.0203  -1.6382 S.o2           1 S1                 0.0000
     15 ****        -5.2726   2.3357  -2.7581 O.2            1 S1                 0.0000
     16 ****        -4.7629   4.4691  -1.4376 O.2            1 S1                 0.0000
     17 ****        -2.8277   2.5961  -1.6479 C.3            1 S1                 0.0000
     18 ****         0.4304  -0.3180  -0.0805 H              1 S1                 0.0000
     19 ****         2.3854  -1.4131   0.5591 H              1 S1                 0.0000
     20 ****         4.9381  -1.4333   0.5199 H              1 S1                 0.0000
     21 ****         5.1031   2.4329  -0.9320 H              1 S1                 0.0000
     22 ****         2.5839   2.6429  -0.9772 H              1 S1                 0.0000
     23 ****        -1.4995   0.2692  -0.1495 H              1 S1                 0.0000
     24 ****        -2.3581   2.9893   0.4170 H              1 S1                 0.0000
     25 ****        -3.7950   0.3837  -0.1606 H              1 S1                 0.0000
     26 ****        -3.6828   1.2009   1.3855 H              1 S1                 0.0000
     27 ****        -5.8787   1.5258  -0.1924 H              1 S1                 0.0000
     28 ****        -5.2211   2.9160   0.6849 H              1 S1                 0.0000
     29 ****        -2.2395   3.4594  -1.9587 H              1 S1                 0.0000
     30 ****        -2.6824   1.7956  -2.3745 H              1 S1                 0.0000
     31 ****         6.0626   0.4568  -0.2032 H              1 S1                 0.0000
     32 ****         1.2621   3.0727  -0.1780 LP             1 S1                 0.0000
     33 ****        -0.4094   3.5244  -0.2233 LP             1 S1                 0.0000
@<TRIPOS>BOND
    1    1    2 2     
    2    2    3 am    
    3    2   10 am    
    4    3    4 1     
    5    3   18 1     
    6    4    9 ar    
    7    4    5 ar    
    8    5    6 ar    
    9    5   19 1     
   10    6    7 ar    
   11    6   20 1     
   12    7    8 ar    
   13    7   31 1     
   14    8    9 ar    
   15    8   21 1     
   16    9   22 1     
   17   10   11 1     
   18   10   23 1     
   19   11   17 1     
   20   11   12 1     
   21   11   24 1     
   22   12   13 1     
   23   12   25 1     
   24   12   26 1     
   25   13   14 1     
   26   13   27 1     
   27   13   28 1     
   28   14   15 2     
   29   14   16 2     
   30   14   17 1     
   31   17   29 1     
   32   17   30 1     
   33    1   32 1     
   34    1   33 1     
@<TRIPOS>SUBSTRUCTURE
      1 S1             1
@<TRIPOS>SET
LONE_PAIRS      STATIC     ATOMS    <user>   **** ""
4 32 33 15 16
DONOR_HYDROGENS      STATIC     ATOMS    <user>   **** ""
3 18 31 23
ATOM$BLUE        STATIC     ATOMS    COLORGROUP SYSTEM
4 32 33 15 16
ATOM$RED        STATIC     ATOMS    COLORGROUP SYSTEM
3 18 31 23
