AV-unprocessed.smi:3354|AV-procd|sdf|12960|dock1
  -GOLD-   2272019393D 1   1.00000     0.00000
 Structure written by MMmdl.
 38 40  0  0  0  0  0  0  0  0  1 V2000
  150.7181  138.3065  154.6665 C   0  0  0  0  0  0  0  0  0  0  0  0
  151.5750  138.1038  155.9012 C   0  0  1  0  0  0  0  0  0  0  0  0
  150.9492  138.0497  157.2753 C   0  0  0  0  0  0  0  0  0  0  0  0
  151.5763  136.8031  156.6810 C   0  0  1  0  0  0  0  0  0  0  0  0
  150.7641  135.7077  156.2338 N   0  0  0  0  0  0  0  0  0  0  0  0
  150.7062  135.3064  154.8344 C   0  0  0  0  0  0  0  0  0  0  0  0
  149.6894  134.1528  154.7725 C   0  0  2  0  0  0  0  0  0  0  0  0
  148.7453  134.3499  153.6756 N   0  0  0  0  0  0  0  0  0  0  0  0
  147.8080  133.4668  153.3045 C   0  0  0  0  0  0  0  0  0  0  0  0
  147.6453  132.3795  153.8579 O   0  0  0  0  0  0  0  0  0  0  0  0
  147.0760  133.9382  152.2806 N   0  0  0  0  0  0  0  0  0  0  0  0
  145.9910  133.3146  151.6070 C   0  0  0  0  0  0  0  0  0  0  0  0
  145.1307  133.9749  150.6964 C   0  0  0  0  0  0  0  0  0  0  0  0
  144.0794  133.2477  150.1058 C   0  0  0  0  0  0  0  0  0  0  0  0
  143.9210  131.8920  150.4524 C   0  0  0  0  0  0  0  0  0  0  0  0
  144.7247  131.2535  151.3290 N   0  0  0  0  0  0  0  0  0  0  0  0
  145.7305  131.9572  151.8910 C   0  0  0  0  0  0  0  0  0  0  0  0
  149.0023  134.1341  156.1469 C   0  0  0  0  0  0  0  0  0  0  0  0
  149.8016  135.1333  156.9644 C   0  0  0  0  0  0  0  0  0  0  0  0
  149.5564  135.3668  158.1473 O   0  0  0  0  0  0  0  0  0  0  0  0
  149.7281  137.8695  154.7955 H   0  0  0  0  0  0  0  0  0  0  0  0
  151.1938  137.8414  153.8029 H   0  0  0  0  0  0  0  0  0  0  0  0
  150.5995  139.3714  154.4660 H   0  0  0  0  0  0  0  0  0  0  0  0
  152.5394  138.6038  155.8364 H   0  0  0  0  0  0  0  0  0  0  0  0
  151.4861  138.5403  158.0846 H   0  0  0  0  0  0  0  0  0  0  0  0
  149.8661  138.1295  157.3328 H   0  0  0  0  0  0  0  0  0  0  0  0
  152.5313  136.5185  157.1206 H   0  0  0  0  0  0  0  0  0  0  0  0
  150.3961  136.1616  154.2313 H   0  0  0  0  0  0  0  0  0  0  0  0
  151.6803  134.9750  154.4741 H   0  0  0  0  0  0  0  0  0  0  0  0
  150.2293  133.2147  154.6277 H   0  0  0  0  0  0  0  0  0  0  0  0
  148.8083  135.2211  153.1695 H   0  0  0  0  0  0  0  0  0  0  0  0
  147.2810  134.8819  151.9867 H   0  0  0  0  0  0  0  0  0  0  0  0
  145.2450  135.0190  150.4502 H   0  0  0  0  0  0  0  0  0  0  0  0
  143.4059  133.7204  149.4062 H   0  0  0  0  0  0  0  0  0  0  0  0
  143.1238  131.3065  150.0185 H   0  0  0  0  0  0  0  0  0  0  0  0
  146.3521  131.4147  152.5887 H   0  0  0  0  0  0  0  0  0  0  0  0
  147.9622  134.4596  156.0990 H   0  0  0  0  0  0  0  0  0  0  0  0
  149.0337  133.1439  156.6027 H   0  0  0  0  0  0  0  0  0  0  0  0
  1  2  1  0  0  0  0
  1 21  1  0  0  0  0
  1 22  1  0  0  0  0
  1 23  1  0  0  0  0
  2  4  1  0  0  0  0
  2  3  1  0  0  0  0
  2 24  1  0  0  0  0
  3  4  1  0  0  0  0
  3 25  1  0  0  0  0
  3 26  1  0  0  0  0
  4  5  1  0  0  0  0
  4 27  1  0  0  0  0
  5 19  1  0  0  0  0
  5  6  1  0  0  0  0
  6  7  1  0  0  0  0
  6 28  1  0  0  0  0
  6 29  1  0  0  0  0
  7  8  1  0  0  0  0
  7 18  1  0  0  0  0
  7 30  1  0  0  0  0
  8  9  1  0  0  0  0
  8 31  1  0  0  0  0
  9 10  2  0  0  0  0
  9 11  1  0  0  0  0
 11 12  1  0  0  0  0
 11 32  1  0  0  0  0
 12 17  1  0  0  0  0
 12 13  2  0  0  0  0
 13 14  1  0  0  0  0
 13 33  1  0  0  0  0
 14 15  2  0  0  0  0
 14 34  1  0  0  0  0
 15 16  1  0  0  0  0
 15 35  1  0  0  0  0
 16 17  2  0  0  0  0
 17 36  1  0  0  0  0
 18 19  1  0  0  0  0
 18 37  1  0  0  0  0
 18 38  1  0  0  0  0
 19 20  2  0  0  0  0
M  END
> <s_m_source_file>
AV-unprocessed.smi

> <i_m_source_file_index>
3354

> <i_lp_mmshare_version>
43012

> <i_f3d_flags>
0

> <s_epik_input>
W0NIM11bQ0BASF0xW0NIMl1bQ0BIXTFOMltDSDJdW0NASF0oW0NIMl1DMj1PKVtOSF1DKD1PKVtOSF1jM1tjSF1bY0hdW2NIXW5bY0hdMw==

> <s_epik_cmdline>
J2VwaWtfcHl0aG9uJywgJy1waCcsICc3LjAnLCAnLXRuJywgJzgnLCAnLW1hJywgJzIwMCcsICctbWV0YWxfYmluZGluZycsICctaW1hZScsICc8aW5maWxlLm1hZT4nLCAnLW9tYWUnLCAnPG91dGZpbGUubWFlPic=

> <r_epik_Ionization_Penalty>
0.00456191

> <r_epik_Ionization_Penalty_Charging>
0

> <r_epik_Ionization_Penalty_Neutral>
0.00456191

> <r_epik_State_Penalty>
0.00327094

> <r_epik_Charging_Adjusted_Penalty>
0.00327094

> <i_epik_Tot_Q>
0

> <i_epik_Tot_abs_Q>
0

> <r_epik_Metal_State_Penalty>
-0

> <b_epik_Metal_Only>
0

> <s_lp_Force_Field>
OPLS_2005

> <r_lp_Energy>
41.3781

> <b_lp_Chiralities_Consistent>
1

> <s_lp_Variant>
AV-unprocessed.smi:3354-6

> <Gold.Version>
5.8.1

> <Gold.Id.Protein>
6NUR|6NUR_protein|mol2

> <Gold.PLP.Fitness>
39.4813

> <Gold.PLP.PLP>
-28.7061

> <Gold.PLP.part.hbond>
-3.0000

> <Gold.PLP.part.metal>
0.0000

> <Gold.PLP.part.buried>
-4.3757

> <Gold.PLP.part.nonpolar>
-21.6149

> <Gold.PLP.part.repulsive>
0.2481

> <Gold.PLP.ligand.clash>
0.0000

> <Gold.PLP.ligand.torsion>
0.2127

> <Gold.PLP.Chemscore.Hbond>
2.6890

> <Gold.PLP.Chemscore.CHOScore>
0.9520

> <Gold.PLP.Chemscore.Metal>
0.0000

> <Gold.Chemscore.Hbonds>
donor molecule, donor type, donor heavy atom, donor atom, acceptor molecule, acceptor atom, score
      L1  H     8    31       P1  7948  1.00
      L1  H    11    32       P1  7948  0.62
      P1  H  6896  6909       L1    20  1.00
      L1  C    15    35       P1 10952  0.99

> <Gold.PLP.Chemscore.Internal.Correction>
0.2776

> <Gold.Rescore>
     Score         DG    S(hbond)    S(metal)    S(lipo)     H(rot)  DE(clash)    DE(int)     intcor
     15.65     -18.36       2.35        0.00      70.13       1.24       0.18       2.54       ----

> <Gold.Chemscore.Fitness>
15.6451

> <Gold.Chemscore.DG>
-18.3584

> <Gold.Chemscore.ZeroCoef>
-5.4800

> <Gold.Chemscore.Hbond>
2.3464

> <Gold.Chemscore.Metal>
0.0000

> <Gold.Chemscore.Lipo>
70.1342

> <Gold.Chemscore.Internal_Hbond>
0.0000

> <Gold.Chemscore.DEClash>
0.1755

> <Gold.Chemscore.DEInternal>
2.5378

> <Gold.Chemscore.Rot>
1.2361

> <Gold.Chemscore.Internal.Correction>
   9.000000E+99

> <Gold.Chemscore.Hbonds>
donor molecule, donor type, donor heavy atom, donor atom, acceptor molecule, acceptor atom, score
      L1  H     8    31       P1  7948  0.59
      L1  H    11    32       P1  7948  0.55
      P1  H  6896  6909       L1    20  0.90

> <Gold.Chemscore.Hbond.Weighted>
-7.8370

> <Gold.Chemscore.Metal.Weighted>
-0.0000

> <Gold.Chemscore.Lipo.Weighted>
-8.2057

> <Gold.Chemscore.Internal_Hbond.Weighted>
0.0000

> <Gold.Chemscore.DEClash.Weighted>
0.1755

> <Gold.Chemscore.DEInternal.Weighted>
2.5378

> <Gold.Chemscore.Rot.Weighted>
3.1643

> <Gold.Chemscore.Internal.Correction.Weighted>
   9.000000E+99

> <Gold.Protein.RotatedTorsions>
[ 6907 6896 6895 6894 ] final   38.74 input  -60.11 | X-H torsion
[ 7974 7965 7964 7962 ] final   47.29 input  175.53 | X-H torsion
[ 8008 7997 7996 7995 ] final  -78.84 input   59.86 | X-H torsion
[ 10167 10162 10161 10158 ] final   77.13 input  -65.29 | X-H torsion
[ 10718 10713 10712 10709 ] final  130.25 input   66.30 | X-H torsion
[ 10763 10752 10751 10750 ] final   30.00 input  -60.55 | X-H torsion
[ 11005 11000 10999 10996 ] final  -22.49 input  -57.11 | X-H torsion

> <Gold.Protein.ActiveResidues>
 VAL166  LYS551  ARG553  GLY616  TRP617  ASP618  TYR619  PRO620  LYS621  CYS622 
 ASP623  PHE694  ASN695  SER759  ASP760  ASP761  ALA762  ILE779  LEU786  VAL792 
 PHE793  MET794  SER795  GLU796  ALA797  LYS798  CYS799  TRP800  GLU811  SER814 

> <Gold.Protein.RotatedAtoms>
  152.1604  134.8917  160.0541 H   0  0  0  0  0  0  0  0  0  0  0  0  # atno 6907 bound_to 6896
  151.9915  133.3787  159.4154 H   0  0  0  0  0  0  0  0  0  0  0  0  # atno 6908 bound_to 6896
  150.6887  134.3854  159.5096 H   0  0  0  0  0  0  0  0  0  0  0  0  # atno 6909 bound_to 6896
  146.0312  139.4765  142.9837 H   0  0  0  0  0  0  0  0  0  0  0  0  # atno 7974 bound_to 7965
  154.5728  140.0688  156.8989 H   0  0  0  0  0  0  0  0  0  0  0  0  # atno 8008 bound_to 7997
  155.2604  140.3358  155.4255 H   0  0  0  0  0  0  0  0  0  0  0  0  # atno 8009 bound_to 7997
  156.2131  140.1767  156.7636 H   0  0  0  0  0  0  0  0  0  0  0  0  # atno 8010 bound_to 7997
  139.9848  144.5800  150.7869 H   0  0  0  0  0  0  0  0  0  0  0  0  # atno 10167 bound_to 10162
  157.5079  131.1096  150.9334 H   0  0  0  0  0  0  0  0  0  0  0  0  # atno 10718 bound_to 10713
  153.0397  135.6475  154.0978 H   0  0  0  0  0  0  0  0  0  0  0  0  # atno 10763 bound_to 10752
  154.0687  135.2882  155.3313 H   0  0  0  0  0  0  0  0  0  0  0  0  # atno 10764 bound_to 10752
  154.6609  135.5392  153.8081 H   0  0  0  0  0  0  0  0  0  0  0  0  # atno 10765 bound_to 10752
  140.8661  133.7753  156.0132 H   0  0  0  0  0  0  0  0  0  0  0  0  # atno 11005 bound_to 11000
  145.7038  141.0128  143.1490 LP  0  0  0  0  0  0  0  0  0  0  0  0  # atno 17320 bound_to 7965
  144.7031  139.8676  143.7438 LP  0  0  0  0  0  0  0  0  0  0  0  0  # atno 17321 bound_to 7965
  140.7476  143.2909  151.3334 LP  0  0  0  0  0  0  0  0  0  0  0  0  # atno 17342 bound_to 10162
  139.6383  144.0588  152.2534 LP  0  0  0  0  0  0  0  0  0  0  0  0  # atno 17343 bound_to 10162
  156.9984  130.5590  149.5309 LP  0  0  0  0  0  0  0  0  0  0  0  0  # atno 17370 bound_to 10713
  156.0270  130.5363  150.8434 LP  0  0  0  0  0  0  0  0  0  0  0  0  # atno 17371 bound_to 10713
  140.8627  134.2822  157.5227 LP  0  0  0  0  0  0  0  0  0  0  0  0  # atno 17394 bound_to 11000
  139.8709  134.9526  156.4121 LP  0  0  0  0  0  0  0  0  0  0  0  0  # atno 17395 bound_to 11000

$$$$
