AV-unprocessed.smi:2706|AV-procd|sdf|10446|dock8
  -GOLD-   2272014493D 1   1.00000     0.00000
 Structure written by MMmdl.
 43 46  0  0  0  0  0  0  0  0  1 V2000
  153.9687  141.3932  160.5261 C   0  0  0  0  0  0  0  0  0  0  0  0
  153.3537  142.5218  161.2180 N   0  0  0  0  0  0  0  0  0  0  0  0
  153.6154  142.7383  162.6353 C   0  0  0  0  0  0  0  0  0  0  0  0
  152.5034  143.4003  160.5087 C   0  0  0  0  0  0  0  0  0  0  0  0
  152.2146  144.7011  160.9862 C   0  0  0  0  0  0  0  0  0  0  0  0
  151.3645  145.5295  160.2318 C   0  0  0  0  0  0  0  0  0  0  0  0
  150.8278  145.0407  159.0273 C   0  0  0  0  0  0  0  0  0  0  0  0
  151.1524  143.7328  158.6102 C   0  0  0  0  0  0  0  0  0  0  0  0
  150.5678  143.3240  157.3819 N   0  0  0  0  0  0  0  0  0  0  0  0
  150.5940  142.1032  156.8180 C   0  0  0  0  0  0  0  0  0  0  0  0
  151.1181  141.1032  157.3104 O   0  0  0  0  0  0  0  0  0  0  0  0
  149.9639  142.1026  155.6352 N   0  0  0  0  0  0  0  0  0  0  0  0
  149.7872  140.9658  154.7890 C   0  0  2  0  0  0  0  0  0  0  0  0
  148.4065  140.5709  154.2791 C   0  0  2  0  0  0  0  0  0  0  0  0
  147.0368  140.8526  154.9008 C   0  0  1  0  0  0  0  0  0  0  0  0
  146.2245  139.5416  154.8285 C   0  0  0  0  0  0  0  0  0  0  0  0
  146.9269  138.6564  155.8898 C   0  0  0  0  0  0  0  0  0  0  0  0
  148.0397  139.5896  156.4155 C   0  0  2  0  0  0  0  0  0  0  0  0
  147.2738  140.9126  156.4096 C   0  0  0  0  0  0  0  0  0  0  0  0
  149.0880  139.7141  155.3070 C   0  0  2  0  0  0  0  0  0  0  0  0
  151.9737  142.9466  159.3472 N   0  0  0  0  0  0  0  0  0  0  0  0
  153.2040  140.7180  160.1406 H   0  0  0  0  0  0  0  0  0  0  0  0
  154.6153  140.8212  161.1914 H   0  0  0  0  0  0  0  0  0  0  0  0
  154.5758  141.7404  159.6891 H   0  0  0  0  0  0  0  0  0  0  0  0
  152.6859  142.7134  163.2048 H   0  0  0  0  0  0  0  0  0  0  0  0
  154.0971  143.7037  162.7935 H   0  0  0  0  0  0  0  0  0  0  0  0
  154.2729  141.9684  163.0393 H   0  0  0  0  0  0  0  0  0  0  0  0
  152.6270  145.0787  161.9096 H   0  0  0  0  0  0  0  0  0  0  0  0
  151.1283  146.5268  160.5720 H   0  0  0  0  0  0  0  0  0  0  0  0
  150.1740  145.6649  158.4358 H   0  0  0  0  0  0  0  0  0  0  0  0
  150.0764  144.0442  156.8738 H   0  0  0  0  0  0  0  0  0  0  0  0
  149.5670  142.9716  155.3093 H   0  0  0  0  0  0  0  0  0  0  0  0
  150.6035  140.7685  154.0955 H   0  0  0  0  0  0  0  0  0  0  0  0
  148.3732  140.2034  153.2549 H   0  0  0  0  0  0  0  0  0  0  0  0
  146.5431  141.7215  154.4656 H   0  0  0  0  0  0  0  0  0  0  0  0
  145.1807  139.7108  155.0962 H   0  0  0  0  0  0  0  0  0  0  0  0
  146.2459  139.0945  153.8337 H   0  0  0  0  0  0  0  0  0  0  0  0
  146.2330  138.3846  156.6862 H   0  0  0  0  0  0  0  0  0  0  0  0
  147.3252  137.7341  155.4649 H   0  0  0  0  0  0  0  0  0  0  0  0
  148.4676  139.2967  157.3745 H   0  0  0  0  0  0  0  0  0  0  0  0
  147.8335  141.7760  156.7573 H   0  0  0  0  0  0  0  0  0  0  0  0
  146.3506  140.8793  156.9925 H   0  0  0  0  0  0  0  0  0  0  0  0
  149.5134  138.7682  154.9764 H   0  0  0  0  0  0  0  0  0  0  0  0
  1  2  1  0  0  0  0
  1 22  1  0  0  0  0
  1 23  1  0  0  0  0
  1 24  1  0  0  0  0
  2  3  1  0  0  0  0
  2  4  1  0  0  0  0
  3 25  1  0  0  0  0
  3 26  1  0  0  0  0
  3 27  1  0  0  0  0
  4 21  1  0  0  0  0
  4  5  2  0  0  0  0
  5  6  1  0  0  0  0
  5 28  1  0  0  0  0
  6  7  2  0  0  0  0
  6 29  1  0  0  0  0
  7  8  1  0  0  0  0
  7 30  1  0  0  0  0
  8  9  1  0  0  0  0
  8 21  2  0  0  0  0
  9 10  1  0  0  0  0
  9 31  1  0  0  0  0
 10 11  2  0  0  0  0
 10 12  1  0  0  0  0
 12 13  1  0  0  0  0
 12 32  1  0  0  0  0
 13 20  1  0  0  0  0
 13 14  1  0  0  0  0
 13 33  1  0  0  0  0
 14 20  1  0  0  0  0
 14 15  1  0  0  0  0
 14 34  1  0  0  0  0
 15 19  1  0  0  0  0
 15 16  1  0  0  0  0
 15 35  1  0  0  0  0
 16 17  1  0  0  0  0
 16 36  1  0  0  0  0
 16 37  1  0  0  0  0
 17 18  1  0  0  0  0
 17 38  1  0  0  0  0
 17 39  1  0  0  0  0
 18 19  1  0  0  0  0
 18 20  1  0  0  0  0
 18 40  1  0  0  0  0
 19 41  1  0  0  0  0
 19 42  1  0  0  0  0
 20 43  1  0  0  0  0
M  END
> <s_m_source_file>
AV-unprocessed.smi

> <i_m_source_file_index>
2706

> <i_lp_mmshare_version>
43012

> <i_f3d_flags>
0

> <s_epik_input>
W0NIM11OKFtDSDNdKWMxW2NIXVtjSF1bY0hdYyhuMSlbTkhdQyg9TylbTkhdW0NASF0yW0NAQEhdM1tDQEBIXShbQ0gyXTQpW0NIMl1bQ0gyXVtDQEBIXTRbQ0BIXTIz

> <s_epik_cmdline>
J2VwaWtfcHl0aG9uJywgJy1waCcsICc3LjAnLCAnLXRuJywgJzgnLCAnLW1hJywgJzIwMCcsICctbWV0YWxfYmluZGluZycsICctaW1hZScsICc8aW5maWxlLm1hZT4nLCAnLW9tYWUnLCAnPG91dGZpbGUubWFlPic=

> <r_lp_tautomer_probability>
1

> <r_epik_Ionization_Penalty>
0.0296788

> <r_epik_Ionization_Penalty_Charging>
0

> <r_epik_Ionization_Penalty_Neutral>
0.0296788

> <r_epik_State_Penalty>
0.0248512

> <r_epik_Charging_Adjusted_Penalty>
0.0248512

> <i_epik_Tot_Q>
0

> <i_epik_Tot_abs_Q>
0

> <r_epik_Metal_State_Penalty>
0.0237882

> <b_epik_Metal_Only>
0

> <s_lp_Force_Field>
OPLS_2005

> <r_lp_Energy>
83.6561

> <b_lp_Chiralities_Consistent>
1

> <s_lp_Variant>
AV-unprocessed.smi:2706-3

> <Gold.Version>
5.8.1

> <Gold.Id.Protein>
6NUR|6NUR_protein|mol2

> <Gold.PLP.Fitness>
49.3288

> <Gold.PLP.PLP>
-44.1118

> <Gold.PLP.part.hbond>
-2.0000

> <Gold.PLP.part.metal>
0.0000

> <Gold.PLP.part.buried>
-5.3970

> <Gold.PLP.part.nonpolar>
-37.5100

> <Gold.PLP.part.repulsive>
0.1925

> <Gold.PLP.ligand.clash>
0.0000

> <Gold.PLP.ligand.torsion>
0.2129

> <Gold.PLP.Chemscore.Hbond>
1.8640

> <Gold.PLP.Chemscore.CHOScore>
0.0000

> <Gold.PLP.Chemscore.Metal>
0.0000

> <Gold.Chemscore.Hbonds>
donor molecule, donor type, donor heavy atom, donor atom, acceptor molecule, acceptor atom, score
      L1  H     9    31       P1  8028  1.00
      L1  H    12    32       P1  8028  1.00

> <Gold.PLP.Chemscore.Internal.Correction>
0.0508

> <Gold.Rescore>
     Score         DG    S(hbond)    S(metal)    S(lipo)     H(rot)  DE(clash)    DE(int)     intcor
     17.31     -18.81       1.88        0.00      82.25       1.00       0.03       1.47       ----

> <Gold.Chemscore.Fitness>
17.3139

> <Gold.Chemscore.DG>
-18.8114

> <Gold.Chemscore.ZeroCoef>
-5.4800

> <Gold.Chemscore.Hbond>
1.8766

> <Gold.Chemscore.Metal>
0.0000

> <Gold.Chemscore.Lipo>
82.2535

> <Gold.Chemscore.Internal_Hbond>
0.0000

> <Gold.Chemscore.DEClash>
0.0323

> <Gold.Chemscore.DEInternal>
1.4653

> <Gold.Chemscore.Rot>
1.0000

> <Gold.Chemscore.Internal.Correction>
   9.000000E+99

> <Gold.Chemscore.Hbonds>
donor molecule, donor type, donor heavy atom, donor atom, acceptor molecule, acceptor atom, score
      L1  H     9    31       P1  8028  0.96
      L1  H    12    32       P1  8028  0.95

> <Gold.Chemscore.Hbond.Weighted>
-6.2678

> <Gold.Chemscore.Metal.Weighted>
-0.0000

> <Gold.Chemscore.Lipo.Weighted>
-9.6237

> <Gold.Chemscore.Internal_Hbond.Weighted>
0.0000

> <Gold.Chemscore.DEClash.Weighted>
0.0323

> <Gold.Chemscore.DEInternal.Weighted>
1.4653

> <Gold.Chemscore.Rot.Weighted>
2.5600

> <Gold.Chemscore.Internal.Correction.Weighted>
   9.000000E+99

> <Gold.Protein.RotatedTorsions>
[ 6907 6896 6895 6894 ] final  126.97 input  -60.11 | X-H torsion
[ 7974 7965 7964 7962 ] final   19.72 input  175.53 | X-H torsion
[ 8008 7997 7996 7995 ] final -144.73 input   59.86 | X-H torsion
[ 10167 10162 10161 10158 ] final -170.27 input  -65.29 | X-H torsion
[ 10718 10713 10712 10709 ] final -137.88 input   66.30 | X-H torsion
[ 10763 10752 10751 10750 ] final  111.82 input  -60.55 | X-H torsion
[ 11005 11000 10999 10996 ] final  135.80 input  -57.11 | X-H torsion

> <Gold.Protein.ActiveResidues>
 VAL166  LYS551  ARG553  GLY616  TRP617  ASP618  TYR619  PRO620  LYS621  CYS622 
 ASP623  PHE694  ASN695  SER759  ASP760  ASP761  ALA762  ILE779  LEU786  VAL792 
 PHE793  MET794  SER795  GLU796  ALA797  LYS798  CYS799  TRP800  GLU811  SER814 

> <Gold.Protein.RotatedAtoms>
  152.3855  133.6605  159.6195 H   0  0  0  0  0  0  0  0  0  0  0  0  # atno 6907 bound_to 6896
  150.7775  133.9042  159.3359 H   0  0  0  0  0  0  0  0  0  0  0  0  # atno 6908 bound_to 6896
  151.6839  135.0959  160.0272 H   0  0  0  0  0  0  0  0  0  0  0  0  # atno 6909 bound_to 6896
  146.2139  139.8272  142.8667 H   0  0  0  0  0  0  0  0  0  0  0  0  # atno 7974 bound_to 7965
  155.5316  140.0600  157.2887 H   0  0  0  0  0  0  0  0  0  0  0  0  # atno 8008 bound_to 7997
  154.4482  140.1935  156.0545 H   0  0  0  0  0  0  0  0  0  0  0  0  # atno 8009 bound_to 7997
  156.0648  140.3268  155.7508 H   0  0  0  0  0  0  0  0  0  0  0  0  # atno 8010 bound_to 7997
  139.5872  144.1293  152.1590 H   0  0  0  0  0  0  0  0  0  0  0  0  # atno 10167 bound_to 10162
  156.2931  130.7386  151.1417 H   0  0  0  0  0  0  0  0  0  0  0  0  # atno 10718 bound_to 10713
  153.4689  135.3705  155.2380 H   0  0  0  0  0  0  0  0  0  0  0  0  # atno 10763 bound_to 10752
  154.8757  135.3926  154.3835 H   0  0  0  0  0  0  0  0  0  0  0  0  # atno 10764 bound_to 10752
  153.4421  135.7084  153.6227 H   0  0  0  0  0  0  0  0  0  0  0  0  # atno 10765 bound_to 10752
  140.0004  134.9481  157.0058 H   0  0  0  0  0  0  0  0  0  0  0  0  # atno 11005 bound_to 11000
  145.3034  141.0200  143.3595 LP  0  0  0  0  0  0  0  0  0  0  0  0  # atno 17320 bound_to 7965
  144.8989  139.4676  143.6642 LP  0  0  0  0  0  0  0  0  0  0  0  0  # atno 17321 bound_to 7965
  140.0859  144.5662  150.7089 LP  0  0  0  0  0  0  0  0  0  0  0  0  # atno 17342 bound_to 10162
  140.7141  143.2530  151.4488 LP  0  0  0  0  0  0  0  0  0  0  0  0  # atno 17343 bound_to 10162
  157.7348  131.0578  150.5505 LP  0  0  0  0  0  0  0  0  0  0  0  0  # atno 17370 bound_to 10713
  156.5624  130.4259  149.6057 LP  0  0  0  0  0  0  0  0  0  0  0  0  # atno 17371 bound_to 10713
  140.4739  134.1358  155.7207 LP  0  0  0  0  0  0  0  0  0  0  0  0  # atno 17394 bound_to 11000
  141.1637  133.8744  157.1776 LP  0  0  0  0  0  0  0  0  0  0  0  0  # atno 17395 bound_to 11000

$$$$
