#       Name:                AV-unprocessed.smi:299
#       Creating user name   scv26
#       Creation time:       Thu Mar 26 22:15:47 2020


#       File generated by GOLD software.
#

@<TRIPOS>MOLECULE
AV-unprocessed.smi:299
    47    48     1
SMALL
NO_CHARGES


@<TRIPOS>ATOM
      1 ****        -1.1914   3.9467   0.5130 C.3            1 S1                 0.0000
      2 ****        -1.6061   2.7563  -0.3793 C.3            1 S1                 0.0000
      3 ****        -3.1353   2.6720  -0.5708 C.3            1 S1                 0.0000
      4 ****        -3.8500   2.1786   0.6959 C.3            1 S1                 0.0000
      5 ****        -3.2447   0.8466   1.1547 C.3            1 S1                 0.0000
      6 ****        -1.7225   0.9606   1.3378 C.3            1 S1                 0.0000
      7 ****        -1.0671   1.4445   0.0916 N.4            1 S1                 1.0000
      8 ****         0.4176   1.3920   0.1381 C.3            1 S1                 0.0000
      9 ****         0.9600  -0.0364  -0.0379 C.3            1 S1                 0.0000
     10 ****         2.4959  -0.0710  -0.1112 C.3            1 S1                 0.0000
     11 ****         2.9985  -1.4341  -0.2322 N.am           1 S1                 0.0000
     12 ****         2.9970  -2.1619  -1.3602 C.2            1 S1                 0.0000
     13 ****         2.5725  -1.7427  -2.4367 O.2            1 S1                 0.0000
     14 ****         3.5545  -3.5822  -1.2582 C.3            1 S1                 0.0000
     15 ****         2.6421  -4.4481  -0.5353 N.pl3          1 S1                 0.0000
     16 ****         1.5717  -5.1317  -0.9451 C.2            1 S1                 0.0000
     17 ****         1.0019  -5.7910   0.0522 N.2            1 S1                 0.0000
     18 ****         1.8014  -5.4733   1.1374 N.2            1 S1                 0.0000
     19 ****         2.7760  -4.6763   0.7953 N.2            1 S1                 0.0000
     20 ****        -1.5893   4.8809   0.1154 H              1 S1                 0.0000
     21 ****        -0.1085   4.0596   0.5598 H              1 S1                 0.0000
     22 ****        -1.5583   3.8491   1.5342 H              1 S1                 0.0000
     23 ****        -1.1796   2.9388  -1.3668 H              1 S1                 0.0000
     24 ****        -3.5339   3.6414  -0.8721 H              1 S1                 0.0000
     25 ****        -3.3561   1.9876  -1.3913 H              1 S1                 0.0000
     26 ****        -3.7634   2.9200   1.4908 H              1 S1                 0.0000
     27 ****        -4.9163   2.0583   0.5014 H              1 S1                 0.0000
     28 ****        -3.7096   0.5277   2.0881 H              1 S1                 0.0000
     29 ****        -3.4662   0.0721   0.4188 H              1 S1                 0.0000
     30 ****        -1.4886   1.6260   2.1694 H              1 S1                 0.0000
     31 ****        -1.3344  -0.0195   1.6117 H              1 S1                 0.0000
     32 ****         0.8207   2.0050  -0.6693 H              1 S1                 0.0000
     33 ****         0.7790   1.8289   1.0702 H              1 S1                 0.0000
     34 ****         0.6330  -0.6719   0.7846 H              1 S1                 0.0000
     35 ****         0.5406  -0.4684  -0.9476 H              1 S1                 0.0000
     36 ****         2.8563   0.5337  -0.9453 H              1 S1                 0.0000
     37 ****         2.9206   0.3636   0.7942 H              1 S1                 0.0000
     38 ****         3.3679  -1.8608   0.6058 H              1 S1                 0.0000
     39 ****         3.7129  -3.9957  -2.2551 H              1 S1                 0.0000
     40 ****         4.5229  -3.5712  -0.7554 H              1 S1                 0.0000
     41 ****         1.2102  -5.1412  -1.9627 H              1 S1                 0.0000
     42 ****        -1.3324   0.7868  -0.6277 H              1 S1                 0.0000
     43 ****         2.2042  -0.8153  -2.5020 LP             1 S1                 0.0000
     44 ****         2.5960  -2.3295  -3.2461 LP             1 S1                 0.0000
     45 ****         0.1913  -6.3761   0.0276 LP             1 S1                 0.0000
     46 ****         1.6507  -5.8120   2.0661 LP             1 S1                 0.0000
     47 ****         3.4838  -4.3058   1.3967 LP             1 S1                 0.0000
@<TRIPOS>BOND
    1    1    2 1     
    2    1   20 1     
    3    1   21 1     
    4    1   22 1     
    5    2    7 1     
    6    2    3 1     
    7    2   23 1     
    8    3    4 1     
    9    3   24 1     
   10    3   25 1     
   11    4    5 1     
   12    4   26 1     
   13    4   27 1     
   14    5    6 1     
   15    5   28 1     
   16    5   29 1     
   17    6    7 1     
   18    6   30 1     
   19    6   31 1     
   20    7    8 1     
   21    7   42 1     
   22    8    9 1     
   23    8   32 1     
   24    8   33 1     
   25    9   10 1     
   26    9   34 1     
   27    9   35 1     
   28   10   11 1     
   29   10   36 1     
   30   10   37 1     
   31   11   12 am    
   32   11   38 1     
   33   12   13 2     
   34   12   14 1     
   35   14   15 1     
   36   14   39 1     
   37   14   40 1     
   38   15   19 1     
   39   15   16 1     
   40   16   17 2     
   41   16   41 1     
   42   17   18 1     
   43   18   19 2     
   44   13   43 1     
   45   13   44 1     
   46   17   45 1     
   47   18   46 1     
   48   19   47 1     
@<TRIPOS>SUBSTRUCTURE
      1 S1             1
@<TRIPOS>SET
LONE_PAIRS      STATIC     ATOMS    <user>   **** ""
5 43 44 45 46 47
DONOR_HYDROGENS      STATIC     ATOMS    <user>   **** ""
2 42 38
ATOM$BLUE        STATIC     ATOMS    COLORGROUP SYSTEM
5 43 44 45 46 47
ATOM$RED        STATIC     ATOMS    COLORGROUP SYSTEM
2 42 38
