AV-unprocessed.smi:1083|AV-procd|sdf|4715|dock3
  -GOLD-   22720 3243D 1   1.00000     0.00000
 Structure written by MMmdl.
 43 45  0  0  0  0  0  0  0  0  1 V2000
  145.1251  137.8117  153.4026 O   0  0  0  0  0  0  0  0  0  0  0  0
  146.2068  137.3454  153.0446 C   0  0  0  0  0  0  0  0  0  0  0  0
  147.3804  137.9967  153.0821 N   0  0  0  0  0  0  0  0  0  0  0  0
  147.6199  139.3395  153.4879 C   0  0  0  0  0  0  0  0  0  0  0  0
  146.6607  140.3638  153.3018 C   0  0  0  0  0  0  0  0  0  0  0  0
  146.9403  141.6590  153.7727 C   0  0  0  0  0  0  0  0  0  0  0  0
  148.1662  141.8821  154.4241 C   0  0  0  0  0  0  0  0  0  0  0  0
  149.0845  140.9141  154.6204 N   0  0  0  0  0  0  0  0  0  0  0  0
  148.8257  139.6634  154.1663 C   0  0  0  0  0  0  0  0  0  0  0  0
  149.8172  138.6818  154.3664 N   0  0  0  0  0  0  0  0  0  0  0  0
  151.1261  139.2323  154.7006 C   0  0  0  0  0  0  0  0  0  0  0  0
  152.1929  138.1258  154.6389 C   0  0  0  0  0  0  0  0  0  0  0  0
  151.8178  137.0490  155.4938 O   0  0  0  0  0  0  0  0  0  0  0  0
  150.5732  136.4692  155.1127 C   0  0  0  0  0  0  0  0  0  0  0  0
  149.4631  137.5312  155.1920 C   0  0  0  0  0  0  0  0  0  0  0  0
  146.3546  136.1135  152.5381 N   0  0  0  0  0  0  0  0  0  0  0  0
  145.2723  135.1571  152.3218 C   0  0  0  0  0  0  0  0  0  0  0  0
  145.6126  133.7939  152.9556 C   0  0  0  0  0  0  0  0  0  0  0  0
  145.3665  132.7450  151.8692 C   0  0  0  0  0  0  0  0  0  0  0  0
  145.6112  133.4887  150.5603 C   0  0  0  0  0  0  0  0  0  0  0  0
  145.0558  134.8889  150.8194 C   0  0  0  0  0  0  0  0  0  0  0  0
  148.1682  137.5228  152.6649 H   0  0  0  0  0  0  0  0  0  0  0  0
  145.7118  140.1716  152.8242 H   0  0  0  0  0  0  0  0  0  0  0  0
  146.2277  142.4604  153.6450 H   0  0  0  0  0  0  0  0  0  0  0  0
  148.4144  142.8625  154.8026 H   0  0  0  0  0  0  0  0  0  0  0  0
  151.3951  140.0425  154.0227 H   0  0  0  0  0  0  0  0  0  0  0  0
  151.0873  139.6583  155.7041 H   0  0  0  0  0  0  0  0  0  0  0  0
  152.3199  137.7656  153.6167 H   0  0  0  0  0  0  0  0  0  0  0  0
  153.1583  138.5158  154.9615 H   0  0  0  0  0  0  0  0  0  0  0  0
  150.6454  136.0561  154.1053 H   0  0  0  0  0  0  0  0  0  0  0  0
  150.3479  135.6392  155.7825 H   0  0  0  0  0  0  0  0  0  0  0  0
  149.3303  137.8471  156.2278 H   0  0  0  0  0  0  0  0  0  0  0  0
  148.5157  137.1088  154.8550 H   0  0  0  0  0  0  0  0  0  0  0  0
  147.2814  135.8183  152.2682 H   0  0  0  0  0  0  0  0  0  0  0  0
  144.3491  135.5407  152.7604 H   0  0  0  0  0  0  0  0  0  0  0  0
  146.6616  133.7570  153.2541 H   0  0  0  0  0  0  0  0  0  0  0  0
  145.0187  133.5975  153.8488 H   0  0  0  0  0  0  0  0  0  0  0  0
  146.0043  131.8678  151.9802 H   0  0  0  0  0  0  0  0  0  0  0  0
  144.3294  132.4095  151.9106 H   0  0  0  0  0  0  0  0  0  0  0  0
  146.6828  133.5480  150.3653 H   0  0  0  0  0  0  0  0  0  0  0  0
  145.1418  133.0019  149.7050 H   0  0  0  0  0  0  0  0  0  0  0  0
  143.9862  134.8950  150.6058 H   0  0  0  0  0  0  0  0  0  0  0  0
  145.5138  135.6379  150.1717 H   0  0  0  0  0  0  0  0  0  0  0  0
  1  2  2  0  0  0  0
  2  3  1  0  0  0  0
  2 16  1  0  0  0  0
  3  4  1  0  0  0  0
  3 22  1  0  0  0  0
  4  9  1  0  0  0  0
  4  5  2  0  0  0  0
  5  6  1  0  0  0  0
  5 23  1  0  0  0  0
  6  7  2  0  0  0  0
  6 24  1  0  0  0  0
  7  8  1  0  0  0  0
  7 25  1  0  0  0  0
  8  9  2  0  0  0  0
  9 10  1  0  0  0  0
 10 15  1  0  0  0  0
 10 11  1  0  0  0  0
 11 12  1  0  0  0  0
 11 26  1  0  0  0  0
 11 27  1  0  0  0  0
 12 13  1  0  0  0  0
 12 28  1  0  0  0  0
 12 29  1  0  0  0  0
 13 14  1  0  0  0  0
 14 15  1  0  0  0  0
 14 30  1  0  0  0  0
 14 31  1  0  0  0  0
 15 32  1  0  0  0  0
 15 33  1  0  0  0  0
 16 17  1  0  0  0  0
 16 34  1  0  0  0  0
 17 21  1  0  0  0  0
 17 18  1  0  0  0  0
 17 35  1  0  0  0  0
 18 19  1  0  0  0  0
 18 36  1  0  0  0  0
 18 37  1  0  0  0  0
 19 20  1  0  0  0  0
 19 38  1  0  0  0  0
 19 39  1  0  0  0  0
 20 21  1  0  0  0  0
 20 40  1  0  0  0  0
 20 41  1  0  0  0  0
 21 42  1  0  0  0  0
 21 43  1  0  0  0  0
M  END
> <s_m_source_file>
AV-unprocessed.smi

> <i_m_source_file_index>
1083

> <i_lp_mmshare_version>
43012

> <i_f3d_flags>
0

> <s_epik_input>
W0NIMl0xW0NIMl1bQ0gyXVtDSDJdW0NIXTFbTkhdQyg9TylbTkhdYzJbY0hdW2NIXVtjSF1uYzJOM1tDSDJdW0NIMl1PW0NIMl1bQ0gyXTM=

> <s_epik_cmdline>
J2VwaWtfcHl0aG9uJywgJy1waCcsICc3LjAnLCAnLXRuJywgJzgnLCAnLW1hJywgJzIwMCcsICctbWV0YWxfYmluZGluZycsICctaW1hZScsICc8aW5maWxlLm1hZT4nLCAnLW9tYWUnLCAnPG91dGZpbGUubWFlPic=

> <r_lp_tautomer_probability>
1

> <r_epik_Ionization_Penalty>
0.00217669

> <r_epik_Ionization_Penalty_Charging>
0

> <r_epik_Ionization_Penalty_Neutral>
0.00217669

> <r_epik_State_Penalty>
0.00146536

> <r_epik_Charging_Adjusted_Penalty>
0.00146536

> <i_epik_Tot_Q>
0

> <i_epik_Tot_abs_Q>
0

> <r_epik_Metal_State_Penalty>
-0

> <b_epik_Metal_Only>
0

> <s_lp_Force_Field>
OPLS_2005

> <r_lp_Energy>
35.5183

> <b_lp_Chiralities_Consistent>
1

> <s_lp_Variant>
AV-unprocessed.smi:1083-1

> <Gold.Version>
5.8.1

> <Gold.Id.Protein>
6NUR|6NUR_protein|mol2

> <Gold.PLP.Fitness>
43.3530

> <Gold.PLP.PLP>
-32.1726

> <Gold.PLP.part.hbond>
-3.0000

> <Gold.PLP.part.metal>
0.0000

> <Gold.PLP.part.buried>
-1.1185

> <Gold.PLP.part.nonpolar>
-28.6751

> <Gold.PLP.part.repulsive>
0.6326

> <Gold.PLP.ligand.clash>
0.0000

> <Gold.PLP.ligand.torsion>
0.5145

> <Gold.PLP.Chemscore.Hbond>
3.0000

> <Gold.PLP.Chemscore.CHOScore>
1.0000

> <Gold.PLP.Chemscore.Metal>
0.0000

> <Gold.Chemscore.Hbonds>
donor molecule, donor type, donor heavy atom, donor atom, acceptor molecule, acceptor atom, score
      L1  H     3    22       P1  7948  1.00
      L1  H    16    34       P1  7948  1.00
      P1  H 10752 10765       L1    13  0.89
      L1  C     7    25       P1  8028  1.00

> <Gold.PLP.Chemscore.Internal.Correction>
0.2095

> <Gold.Rescore>
     Score         DG    S(hbond)    S(metal)    S(lipo)     H(rot)  DE(clash)    DE(int)     intcor
     16.96     -19.66       2.42        0.00      78.22       1.19       0.17       2.53       ----

> <Gold.Chemscore.Fitness>
16.9584

> <Gold.Chemscore.DG>
-19.6584

> <Gold.Chemscore.ZeroCoef>
-5.4800

> <Gold.Chemscore.Hbond>
2.4176

> <Gold.Chemscore.Metal>
0.0000

> <Gold.Chemscore.Lipo>
78.2233

> <Gold.Chemscore.Internal_Hbond>
0.0000

> <Gold.Chemscore.DEClash>
0.1685

> <Gold.Chemscore.DEInternal>
2.5314

> <Gold.Chemscore.Rot>
1.1909

> <Gold.Chemscore.Internal.Correction>
   9.000000E+99

> <Gold.Chemscore.Hbonds>
donor molecule, donor type, donor heavy atom, donor atom, acceptor molecule, acceptor atom, score
      L1  H     3    22       P1  7948  0.98
      L1  H    16    34       P1  7948  0.94
      P1  H 10752 10765       L1    13  0.06

> <Gold.Chemscore.Hbond.Weighted>
-8.0749

> <Gold.Chemscore.Metal.Weighted>
-0.0000

> <Gold.Chemscore.Lipo.Weighted>
-9.1521

> <Gold.Chemscore.Internal_Hbond.Weighted>
0.0000

> <Gold.Chemscore.DEClash.Weighted>
0.1685

> <Gold.Chemscore.DEInternal.Weighted>
2.5314

> <Gold.Chemscore.Rot.Weighted>
3.0487

> <Gold.Chemscore.Internal.Correction.Weighted>
   9.000000E+99

> <Gold.Protein.RotatedTorsions>
[ 6907 6896 6895 6894 ] final -155.38 input  -60.11 | X-H torsion
[ 7974 7965 7964 7962 ] final  106.75 input  175.53 | X-H torsion
[ 8008 7997 7996 7995 ] final   68.02 input   59.86 | X-H torsion
[ 10167 10162 10161 10158 ] final  -93.04 input  -65.29 | X-H torsion
[ 10718 10713 10712 10709 ] final  -89.54 input   66.30 | X-H torsion
[ 10763 10752 10751 10750 ] final -162.32 input  -60.55 | X-H torsion
[ 11005 11000 10999 10996 ] final  -67.30 input  -57.11 | X-H torsion

> <Gold.Protein.ActiveResidues>
 VAL166  LYS551  ARG553  GLY616  TRP617  ASP618  TYR619  PRO620  LYS621  CYS622 
 ASP623  PHE694  ASN695  SER759  ASP760  ASP761  ALA762  ILE779  LEU786  VAL792 
 PHE793  MET794  SER795  GLU796  ALA797  LYS798  CYS799  TRP800  GLU811  SER814 

> <Gold.Protein.RotatedAtoms>
  151.2717  133.4252  159.2621 H   0  0  0  0  0  0  0  0  0  0  0  0  # atno 6907 bound_to 6896
  151.0439  134.9627  159.8186 H   0  0  0  0  0  0  0  0  0  0  0  0  # atno 6908 bound_to 6896
  152.5370  134.2674  159.9011 H   0  0  0  0  0  0  0  0  0  0  0  0  # atno 6909 bound_to 6896
  145.3026  139.2565  143.3806 H   0  0  0  0  0  0  0  0  0  0  0  0  # atno 7974 bound_to 7965
  155.7018  140.3495  155.4936 H   0  0  0  0  0  0  0  0  0  0  0  0  # atno 8008 bound_to 7997
  155.9433  140.1105  157.1059 H   0  0  0  0  0  0  0  0  0  0  0  0  # atno 8009 bound_to 7997
  154.4107  140.1208  156.4942 H   0  0  0  0  0  0  0  0  0  0  0  0  # atno 8010 bound_to 7997
  140.3287  143.3007  151.9966 H   0  0  0  0  0  0  0  0  0  0  0  0  # atno 10167 bound_to 10162
  155.9985  130.4876  150.5186 H   0  0  0  0  0  0  0  0  0  0  0  0  # atno 10718 bound_to 10713
  154.7225  135.3028  154.9025 H   0  0  0  0  0  0  0  0  0  0  0  0  # atno 10763 bound_to 10752
  153.9892  135.6721  153.4757 H   0  0  0  0  0  0  0  0  0  0  0  0  # atno 10764 bound_to 10752
  153.0846  135.4991  154.8489 H   0  0  0  0  0  0  0  0  0  0  0  0  # atno 10765 bound_to 10752
  141.1504  133.6716  156.6272 H   0  0  0  0  0  0  0  0  0  0  0  0  # atno 11005 bound_to 11000
  146.3147  140.3543  142.8659 LP  0  0  0  0  0  0  0  0  0  0  0  0  # atno 17320 bound_to 7965
  144.9081  140.7724  143.5824 LP  0  0  0  0  0  0  0  0  0  0  0  0  # atno 17321 bound_to 7965
  139.4860  144.6252  151.7178 LP  0  0  0  0  0  0  0  0  0  0  0  0  # atno 17342 bound_to 10162
  140.5417  144.0569  150.6091 LP  0  0  0  0  0  0  0  0  0  0  0  0  # atno 17343 bound_to 10162
  157.3150  131.0671  151.1973 LP  0  0  0  0  0  0  0  0  0  0  0  0  # atno 17370 bound_to 10713
  157.2906  130.6794  149.6112 LP  0  0  0  0  0  0  0  0  0  0  0  0  # atno 17371 bound_to 10713
  140.3495  134.7781  157.4456 LP  0  0  0  0  0  0  0  0  0  0  0  0  # atno 17394 bound_to 11000
  140.0872  134.5650  155.8480 LP  0  0  0  0  0  0  0  0  0  0  0  0  # atno 17395 bound_to 11000

$$$$
