AV-unprocessed.smi:2557|AV-procd|sdf|10031|dock7
  -GOLD-   2272014 73D 1   1.00000     0.00000
 Structure written by MMmdl.
 39 41  0  0  0  0  0  0  0  0  3 V2000
  153.8683  135.6833  160.0926 O   0  5  0  0  0  0  0  0  0  0  0  0
  153.9112  136.8331  160.5898 C   0  0  0  0  0  0  0  0  0  0  0  0
  153.5299  138.0861  160.1050 C   0  0  0  0  0  0  0  0  0  0  0  0
  152.9261  138.2043  158.7722 C   0  0  0  0  0  0  0  0  0  0  0  0
  152.6791  137.2963  157.9804 O   0  0  0  0  0  0  0  0  0  0  0  0
  152.6002  139.5368  158.3713 N   0  0  0  0  0  0  0  0  0  0  0  0
  152.8266  140.6054  159.1603 C   0  0  0  0  0  0  0  0  0  0  0  0
  152.4564  141.9636  158.6370 C   0  0  0  0  0  0  0  0  0  0  0  0
  153.2408  143.0498  159.3971 C   0  0  0  0  0  0  0  0  0  0  0  0
  152.8474  144.4549  158.9124 C   0  0  0  0  0  0  0  0  0  0  0  0
  151.3304  144.6807  159.0291 C   0  0  0  0  0  0  0  0  0  0  0  0
  150.5428  143.5913  158.2818 C   0  0  0  0  0  0  0  0  0  0  0  0
  150.9371  142.1875  158.7686 C   0  0  0  0  0  0  0  0  0  0  0  0
  153.3715  140.4890  160.3871 N   0  3  0  0  0  0  0  0  0  0  0  0
  153.6969  139.2307  160.8830 N   0  0  0  0  0  0  0  0  0  0  0  0
  154.5395  136.7518  161.9210 C   0  0  0  0  0  0  0  0  0  0  0  0
  155.8569  136.2672  162.0711 C   0  0  0  0  0  0  0  0  0  0  0  0
  156.4092  136.1981  163.3651 C   0  0  0  0  0  0  0  0  0  0  0  0
  155.7427  136.5742  164.4775 N   0  0  0  0  0  0  0  0  0  0  0  0
  154.4803  137.0305  164.3306 C   0  0  0  0  0  0  0  0  0  0  0  0
  153.8355  137.1366  163.0827 C   0  0  0  0  0  0  0  0  0  0  0  0
  152.7233  142.0183  157.5798 H   0  0  0  0  0  0  0  0  0  0  0  0
  153.0488  142.9723  160.4676 H   0  0  0  0  0  0  0  0  0  0  0  0
  154.3115  142.8944  159.2628 H   0  0  0  0  0  0  0  0  0  0  0  0
  153.3815  145.2109  159.4886 H   0  0  0  0  0  0  0  0  0  0  0  0
  153.1561  144.5830  157.8741 H   0  0  0  0  0  0  0  0  0  0  0  0
  151.0418  144.6832  160.0811 H   0  0  0  0  0  0  0  0  0  0  0  0
  151.0696  145.6635  158.6357 H   0  0  0  0  0  0  0  0  0  0  0  0
  149.4721  143.7455  158.4190 H   0  0  0  0  0  0  0  0  0  0  0  0
  150.7320  143.6735  157.2107 H   0  0  0  0  0  0  0  0  0  0  0  0
  150.4010  141.4295  158.1970 H   0  0  0  0  0  0  0  0  0  0  0  0
  150.6257  142.0702  159.8069 H   0  0  0  0  0  0  0  0  0  0  0  0
  153.5329  141.3088  160.9554 H   0  0  0  0  0  0  0  0  0  0  0  0
  154.1764  139.2404  161.7724 H   0  0  0  0  0  0  0  0  0  0  0  0
  156.4295  135.9523  161.2112 H   0  0  0  0  0  0  0  0  0  0  0  0
  157.4145  135.8322  163.5106 H   0  0  0  0  0  0  0  0  0  0  0  0
  153.9681  137.3214  165.2356 H   0  0  0  0  0  0  0  0  0  0  0  0
  152.8230  137.5070  163.0168 H   0  0  0  0  0  0  0  0  0  0  0  0
  152.1849  139.7423  157.4745 H   0  0  0  0  0  0  0  0  0  0  0  0
  1  2  1  0  0  0  0
  2  3  2  0  0  0  0
  2 16  1  0  0  0  0
  3 15  1  0  0  0  0
  3  4  1  0  0  0  0
  4  5  2  0  0  0  0
  4  6  1  0  0  0  0
  6  7  1  0  0  0  0
  6 39  1  0  0  0  0
  7  8  1  0  0  0  0
  7 14  2  0  0  0  0
  8 13  1  0  0  0  0
  8  9  1  0  0  0  0
  8 22  1  0  0  0  0
  9 10  1  0  0  0  0
  9 23  1  0  0  0  0
  9 24  1  0  0  0  0
 10 11  1  0  0  0  0
 10 25  1  0  0  0  0
 10 26  1  0  0  0  0
 11 12  1  0  0  0  0
 11 27  1  0  0  0  0
 11 28  1  0  0  0  0
 12 13  1  0  0  0  0
 12 29  1  0  0  0  0
 12 30  1  0  0  0  0
 13 31  1  0  0  0  0
 13 32  1  0  0  0  0
 14 15  1  0  0  0  0
 14 33  1  0  0  0  0
 15 34  1  0  0  0  0
 16 21  1  0  0  0  0
 16 17  2  0  0  0  0
 17 18  1  0  0  0  0
 17 35  1  0  0  0  0
 18 19  2  0  0  0  0
 18 36  1  0  0  0  0
 19 20  1  0  0  0  0
 20 21  2  0  0  0  0
 20 37  1  0  0  0  0
 21 38  1  0  0  0  0
M  CHG  1   1  -1
M  CHG  1  14   1
M  END
> <s_m_source_file>
AV-unprocessed.smi

> <i_m_source_file_index>
2557

> <i_lp_mmshare_version>
43012

> <i_f3d_flags>
0

> <s_epik_input>
W2NIXTFbY0hdbltjSF1bY0hdYzFDKD1PKUMyPUMoW09IXSlOPUMoW05IXVtOSF0yKVtDSF0zW0NIMl1bQ0gyXVtDSDJdW0NIMl1bQ0gyXTM=

> <s_epik_cmdline>
J2VwaWtfcHl0aG9uJywgJy1waCcsICc3LjAnLCAnLXRuJywgJzgnLCAnLW1hJywgJzIwMCcsICctbWV0YWxfYmluZGluZycsICctaW1hZScsICc8aW5maWxlLm1hZT4nLCAnLW9tYWUnLCAnPG91dGZpbGUubWFlPic=

> <r_epik_Ionization_Penalty>
2.4889

> <r_epik_Ionization_Penalty_Charging>
1.64109

> <r_epik_Ionization_Penalty_Neutral>
0.84781

> <r_epik_State_Penalty>
2.44612

> <r_epik_Charging_Adjusted_Penalty>
4.08721

> <i_epik_Tot_Q>
0

> <i_epik_Tot_abs_Q>
2

> <r_epik_Metal_State_Penalty>
1.55557

> <b_epik_Metal_Only>
0

> <s_epik_Chemistry_Notes>
This compound has an imine and may undergo hydrolysis.

> <s_lp_Force_Field>
OPLS_2005

> <r_lp_Energy>
23.4412

> <b_lp_Chiralities_Consistent>
1

> <s_lp_Variant>
AV-unprocessed.smi:2557-5

> <Gold.Version>
5.8.1

> <Gold.Id.Protein>
6NUR|6NUR_protein|mol2

> <Gold.PLP.Fitness>
38.3553

> <Gold.PLP.PLP>
-33.5842

> <Gold.PLP.part.hbond>
-1.0000

> <Gold.PLP.part.metal>
0.0000

> <Gold.PLP.part.buried>
-5.1493

> <Gold.PLP.part.nonpolar>
-27.4931

> <Gold.PLP.part.repulsive>
0.2843

> <Gold.PLP.ligand.clash>
0.0514

> <Gold.PLP.ligand.torsion>
1.7080

> <Gold.PLP.Chemscore.Hbond>
2.0000

> <Gold.PLP.Chemscore.CHOScore>
0.0000

> <Gold.PLP.Chemscore.Metal>
0.0000

> <Gold.Chemscore.Hbonds>
donor molecule, donor type, donor heavy atom, donor atom, acceptor molecule, acceptor atom, score
      P1  H  6896  6909       L1     1  2.00

> <Gold.PLP.Chemscore.Internal.Correction>
2.2386

> <Gold.Rescore>
     Score         DG    S(hbond)    S(metal)    S(lipo)     H(rot)  DE(clash)    DE(int)     intcor
     17.13     -19.12       0.99        0.00     110.08       1.00       0.10       1.89       ----

> <Gold.Chemscore.Fitness>
17.1325

> <Gold.Chemscore.DG>
-19.1188

> <Gold.Chemscore.ZeroCoef>
-5.4800

> <Gold.Chemscore.Hbond>
0.9938

> <Gold.Chemscore.Metal>
0.0000

> <Gold.Chemscore.Lipo>
110.0813

> <Gold.Chemscore.Internal_Hbond>
0.0000

> <Gold.Chemscore.DEClash>
0.0985

> <Gold.Chemscore.DEInternal>
1.8879

> <Gold.Chemscore.Rot>
1.0000

> <Gold.Chemscore.Internal.Correction>
   9.000000E+99

> <Gold.Chemscore.Hbonds>
donor molecule, donor type, donor heavy atom, donor atom, acceptor molecule, acceptor atom, score
      P1  H  6896  6909       L1     1  0.97

> <Gold.Chemscore.Hbond.Weighted>
-3.3193

> <Gold.Chemscore.Metal.Weighted>
-0.0000

> <Gold.Chemscore.Lipo.Weighted>
-12.8795

> <Gold.Chemscore.Internal_Hbond.Weighted>
0.0000

> <Gold.Chemscore.DEClash.Weighted>
0.0985

> <Gold.Chemscore.DEInternal.Weighted>
1.8879

> <Gold.Chemscore.Rot.Weighted>
2.5600

> <Gold.Chemscore.Internal.Correction.Weighted>
   9.000000E+99

> <Gold.Protein.RotatedTorsions>
[ 6907 6896 6895 6894 ] final  168.05 input  -60.11 | X-H torsion
[ 7974 7965 7964 7962 ] final  141.38 input  175.53 | X-H torsion
[ 8008 7997 7996 7995 ] final   72.50 input   59.86 | X-H torsion
[ 10167 10162 10161 10158 ] final   76.26 input  -65.29 | X-H torsion
[ 10718 10713 10712 10709 ] final -122.59 input   66.30 | X-H torsion
[ 10763 10752 10751 10750 ] final  106.95 input  -60.55 | X-H torsion
[ 11005 11000 10999 10996 ] final  -24.88 input  -57.11 | X-H torsion

> <Gold.Protein.ActiveResidues>
 VAL166  LYS551  ARG553  GLY616  TRP617  ASP618  TYR619  PRO620  LYS621  CYS622 
 ASP623  PHE694  ASN695  SER759  ASP760  ASP761  ALA762  ILE779  LEU786  VAL792 
 PHE793  MET794  SER795  GLU796  ALA797  LYS798  CYS799  TRP800  GLU811  SER814 

> <Gold.Protein.RotatedAtoms>
  151.8537  133.3444  159.3681 H   0  0  0  0  0  0  0  0  0  0  0  0  # atno 6907 bound_to 6896
  150.7199  134.5274  159.5692 H   0  0  0  0  0  0  0  0  0  0  0  0  # atno 6908 bound_to 6896
  152.2773  134.7868  160.0454 H   0  0  0  0  0  0  0  0  0  0  0  0  # atno 6909 bound_to 6896
  144.9101  139.5304  143.5712 H   0  0  0  0  0  0  0  0  0  0  0  0  # atno 7974 bound_to 7965
  155.7698  140.3484  155.5241 H   0  0  0  0  0  0  0  0  0  0  0  0  # atno 8008 bound_to 7997
  155.8833  140.1005  157.1491 H   0  0  0  0  0  0  0  0  0  0  0  0  # atno 8009 bound_to 7997
  154.4026  140.1318  156.4211 H   0  0  0  0  0  0  0  0  0  0  0  0  # atno 8010 bound_to 7997
  139.9941  144.5735  150.7793 H   0  0  0  0  0  0  0  0  0  0  0  0  # atno 10167 bound_to 10162
  156.1431  130.6480  150.9801 H   0  0  0  0  0  0  0  0  0  0  0  0  # atno 10718 bound_to 10713
  153.4000  135.3860  155.1981 H   0  0  0  0  0  0  0  0  0  0  0  0  # atno 10763 bound_to 10752
  154.8728  135.3769  154.4631 H   0  0  0  0  0  0  0  0  0  0  0  0  # atno 10764 bound_to 10752
  153.5127  135.7087  153.5834 H   0  0  0  0  0  0  0  0  0  0  0  0  # atno 10765 bound_to 10752
  140.8886  133.7604  156.0392 H   0  0  0  0  0  0  0  0  0  0  0  0  # atno 11005 bound_to 11000
  146.3154  139.7901  142.8987 LP  0  0  0  0  0  0  0  0  0  0  0  0  # atno 17320 bound_to 7965
  145.3468  141.0299  143.3361 LP  0  0  0  0  0  0  0  0  0  0  0  0  # atno 17321 bound_to 7965
  140.7444  143.2859  151.3464 LP  0  0  0  0  0  0  0  0  0  0  0  0  # atno 17342 bound_to 10162
  139.6319  144.0705  152.2483 LP  0  0  0  0  0  0  0  0  0  0  0  0  # atno 17343 bound_to 10162
  157.6593  131.0884  150.7875 LP  0  0  0  0  0  0  0  0  0  0  0  0  # atno 17370 bound_to 10713
  156.7949  130.4902  149.5379 LP  0  0  0  0  0  0  0  0  0  0  0  0  # atno 17371 bound_to 10713
  140.8374  134.3106  157.5326 LP  0  0  0  0  0  0  0  0  0  0  0  0  # atno 17394 bound_to 11000
  139.8727  134.9397  156.3750 LP  0  0  0  0  0  0  0  0  0  0  0  0  # atno 17395 bound_to 11000

$$$$
