AV-unprocessed.smi:1672|AV-procd|sdf|6703|dock1
  -GOLD-   22720 7443D 1   1.00000     0.00000
 Structure written by MMmdl.
 48 50  0  0  0  0  0  0  0  0  2 V2000
  143.8545  136.0247  151.8172 C   0  0  0  0  0  0  0  0  0  0  0  0
  145.3612  135.7576  151.6546 C   0  0  2  0  0  0  0  0  0  0  0  0
  146.0792  135.5580  153.0020 C   0  0  0  0  0  0  0  0  0  0  0  0
  146.2620  136.8813  153.7666 C   0  0  0  0  0  0  0  0  0  0  0  0
  146.9769  137.8862  152.9389 N   0  3  2  0  0  0  0  0  0  0  0  0
  147.2971  139.1198  153.7027 C   0  0  0  0  0  0  0  0  0  0  0  0
  148.5489  138.9617  154.5876 C   0  0  2  0  0  0  0  0  0  0  0  0
  148.1355  138.8479  155.9352 O   0  0  0  0  0  0  0  0  0  0  0  0
  149.5067  140.1612  154.4383 C   0  0  0  0  0  0  0  0  0  0  0  0
  150.5930  140.1422  155.4106 N   0  0  0  0  0  0  0  0  0  0  0  0
  151.6942  139.3472  155.4287 C   0  0  0  0  0  0  0  0  0  0  0  0
  151.9712  138.3244  154.3679 C   0  0  0  0  0  0  0  0  0  0  0  0
  151.9586  137.0001  154.8560 O   0  0  0  0  0  0  0  0  0  0  0  0
  152.5296  139.5382  156.4500 N   0  0  0  0  0  0  0  0  0  0  0  0
  151.9229  140.5587  157.1550 C   0  0  0  0  0  0  0  0  0  0  0  0
  152.3187  141.2168  158.3415 C   0  0  0  0  0  0  0  0  0  0  0  0
  151.5258  142.2495  158.8833 C   0  0  0  0  0  0  0  0  0  0  0  0
  150.3293  142.6389  158.2472 C   0  0  0  0  0  0  0  0  0  0  0  0
  149.9170  141.9964  157.0641 C   0  0  0  0  0  0  0  0  0  0  0  0
  150.7108  140.9641  156.5284 C   0  0  0  0  0  0  0  0  0  0  0  0
  146.2615  138.1509  151.6620 C   0  0  0  0  0  0  0  0  0  0  0  0
  146.0788  136.8564  150.8495 C   0  0  0  0  0  0  0  0  0  0  0  0
  143.6551  136.9396  152.3740 H   0  0  0  0  0  0  0  0  0  0  0  0
  143.3688  135.2046  152.3469 H   0  0  0  0  0  0  0  0  0  0  0  0
  143.3684  136.1176  150.8456 H   0  0  0  0  0  0  0  0  0  0  0  0
  145.4500  134.8267  151.0929 H   0  0  0  0  0  0  0  0  0  0  0  0
  145.5359  134.8409  153.6187 H   0  0  0  0  0  0  0  0  0  0  0  0
  147.0607  135.1173  152.8212 H   0  0  0  0  0  0  0  0  0  0  0  0
  145.2970  137.2826  154.0794 H   0  0  0  0  0  0  0  0  0  0  0  0
  146.8299  136.6853  154.6770 H   0  0  0  0  0  0  0  0  0  0  0  0
  147.4201  139.9505  153.0063 H   0  0  0  0  0  0  0  0  0  0  0  0
  146.4556  139.3857  154.3449 H   0  0  0  0  0  0  0  0  0  0  0  0
  149.0843  138.0512  154.3262 H   0  0  0  0  0  0  0  0  0  0  0  0
  148.8968  138.9326  156.4900 H   0  0  0  0  0  0  0  0  0  0  0  0
  149.9295  140.1821  153.4342 H   0  0  0  0  0  0  0  0  0  0  0  0
  148.9596  141.0985  154.5498 H   0  0  0  0  0  0  0  0  0  0  0  0
  151.2465  138.4252  153.5602 H   0  0  0  0  0  0  0  0  0  0  0  0
  152.9511  138.5185  153.9298 H   0  0  0  0  0  0  0  0  0  0  0  0
  151.1765  136.8807  155.3732 H   0  0  0  0  0  0  0  0  0  0  0  0
  153.2343  140.9273  158.8354 H   0  0  0  0  0  0  0  0  0  0  0  0
  151.8378  142.7463  159.7902 H   0  0  0  0  0  0  0  0  0  0  0  0
  149.7283  143.4316  158.6684 H   0  0  0  0  0  0  0  0  0  0  0  0
  149.0005  142.2935  156.5763 H   0  0  0  0  0  0  0  0  0  0  0  0
  145.2941  138.6090  151.8715 H   0  0  0  0  0  0  0  0  0  0  0  0
  146.8166  138.8654  151.0557 H   0  0  0  0  0  0  0  0  0  0  0  0
  147.0601  136.4912  150.5433 H   0  0  0  0  0  0  0  0  0  0  0  0
  145.5347  137.0663  149.9278 H   0  0  0  0  0  0  0  0  0  0  0  0
  147.8654  137.4691  152.6988 H   0  0  0  0  0  0  0  0  0  0  0  0
  1  2  1  0  0  0  0
  1 23  1  0  0  0  0
  1 24  1  0  0  0  0
  1 25  1  0  0  0  0
  2 22  1  0  0  0  0
  2  3  1  0  0  0  0
  2 26  1  0  0  0  0
  3  4  1  0  0  0  0
  3 27  1  0  0  0  0
  3 28  1  0  0  0  0
  4  5  1  0  0  0  0
  4 29  1  0  0  0  0
  4 30  1  0  0  0  0
  5  6  1  0  0  0  0
  5 21  1  0  0  0  0
  5 48  1  0  0  0  0
  6  7  1  0  0  0  0
  6 31  1  0  0  0  0
  6 32  1  0  0  0  0
  7  8  1  0  0  0  0
  7  9  1  0  0  0  0
  7 33  1  0  0  0  0
  8 34  1  0  0  0  0
  9 10  1  0  0  0  0
  9 35  1  0  0  0  0
  9 36  1  0  0  0  0
 10 20  1  0  0  0  0
 10 11  1  0  0  0  0
 11 12  1  0  0  0  0
 11 14  2  0  0  0  0
 12 13  1  0  0  0  0
 12 37  1  0  0  0  0
 12 38  1  0  0  0  0
 13 39  1  0  0  0  0
 14 15  1  0  0  0  0
 15 20  2  0  0  0  0
 15 16  1  0  0  0  0
 16 17  2  0  0  0  0
 16 40  1  0  0  0  0
 17 18  1  0  0  0  0
 17 41  1  0  0  0  0
 18 19  2  0  0  0  0
 18 42  1  0  0  0  0
 19 20  1  0  0  0  0
 19 43  1  0  0  0  0
 21 22  1  0  0  0  0
 21 44  1  0  0  0  0
 21 45  1  0  0  0  0
 22 46  1  0  0  0  0
 22 47  1  0  0  0  0
M  CHG  1   5   1
M  END
> <s_m_source_file>
AV-unprocessed.smi

> <i_m_source_file_index>
1672

> <i_lp_mmshare_version>
43012

> <i_f3d_flags>
0

> <s_epik_input>
W0NIM11bQ0hdMVtDSDJdW0NIMl1OKFtDSDJdW0NIMl0xKVtDSDJdW0NASF0oW09IXSlbQ0gyXW4oYyhuMilbQ0gyXVtPSF0pYyhjMjMpW2NIXVtjSF1bY0hdW2NIXTM=

> <s_epik_cmdline>
J2VwaWtfcHl0aG9uJywgJy1waCcsICc3LjAnLCAnLXRuJywgJzgnLCAnLW1hJywgJzIwMCcsICctbWV0YWxfYmluZGluZycsICctaW1hZScsICc8aW5maWxlLm1hZT4nLCAnLW9tYWUnLCAnPG91dGZpbGUubWFlPic=

> <r_epik_Ionization_Penalty>
0.0498263

> <r_epik_Ionization_Penalty_Charging>
0.00181365

> <r_epik_Ionization_Penalty_Neutral>
0.0480127

> <r_epik_State_Penalty>
0.0408546

> <r_epik_Charging_Adjusted_Penalty>
0.0426682

> <i_epik_Tot_Q>
1

> <i_epik_Tot_abs_Q>
1

> <r_epik_Metal_State_Penalty>
4.22946e-05

> <b_epik_Metal_Only>
0

> <s_lp_Force_Field>
OPLS_2005

> <r_lp_Energy>
23.4925

> <b_lp_Chiralities_Consistent>
1

> <s_lp_Variant>
AV-unprocessed.smi:1672-3

> <Gold.Version>
5.8.1

> <Gold.Id.Protein>
6NUR|6NUR_protein|mol2

> <Gold.PLP.Fitness>
47.0818

> <Gold.PLP.PLP>
-37.2857

> <Gold.PLP.part.hbond>
-3.0000

> <Gold.PLP.part.metal>
0.0000

> <Gold.PLP.part.buried>
-0.8599

> <Gold.PLP.part.nonpolar>
-33.8272

> <Gold.PLP.part.repulsive>
0.0329

> <Gold.PLP.ligand.clash>
0.0000

> <Gold.PLP.ligand.torsion>
1.1553

> <Gold.PLP.Chemscore.Hbond>
4.0000

> <Gold.PLP.Chemscore.CHOScore>
0.0000

> <Gold.PLP.Chemscore.Metal>
0.0000

> <Gold.Chemscore.Hbonds>
donor molecule, donor type, donor heavy atom, donor atom, acceptor molecule, acceptor atom, score
      L1  H     5    48       P1  7948  2.00
      P1  H  7997  8008       L1    14  1.00
      P1  H 10752 10764       L1    13  0.99

> <Gold.PLP.Chemscore.Internal.Correction>
0.1067

> <Gold.Rescore>
     Score         DG    S(hbond)    S(metal)    S(lipo)     H(rot)  DE(clash)    DE(int)     intcor
     16.32     -18.09       2.64        0.00      95.24       2.88       0.60       1.17       ----

> <Gold.Chemscore.Fitness>
16.3153

> <Gold.Chemscore.DG>
-18.0895

> <Gold.Chemscore.ZeroCoef>
-5.4800

> <Gold.Chemscore.Hbond>
2.6447

> <Gold.Chemscore.Metal>
0.0000

> <Gold.Chemscore.Lipo>
95.2407

> <Gold.Chemscore.Internal_Hbond>
0.0000

> <Gold.Chemscore.DEClash>
0.5998

> <Gold.Chemscore.DEInternal>
1.1744

> <Gold.Chemscore.Rot>
2.8778

> <Gold.Chemscore.Internal.Correction>
   9.000000E+99

> <Gold.Chemscore.Hbonds>
donor molecule, donor type, donor heavy atom, donor atom, acceptor molecule, acceptor atom, score
      L1  H     5    48       P1  7948  0.98
      P1  H  7997  8008       L1    14  0.39
      P1  H 10752 10764       L1    13  0.92

> <Gold.Chemscore.Hbond.Weighted>
-8.8334

> <Gold.Chemscore.Metal.Weighted>
-0.0000

> <Gold.Chemscore.Lipo.Weighted>
-11.1432

> <Gold.Chemscore.Internal_Hbond.Weighted>
0.0000

> <Gold.Chemscore.DEClash.Weighted>
0.5998

> <Gold.Chemscore.DEInternal.Weighted>
1.1744

> <Gold.Chemscore.Rot.Weighted>
7.3671

> <Gold.Chemscore.Internal.Correction.Weighted>
   9.000000E+99

> <Gold.Protein.RotatedTorsions>
[ 6907 6896 6895 6894 ] final -175.34 input  -60.11 | X-H torsion
[ 7974 7965 7964 7962 ] final  -43.16 input  175.53 | X-H torsion
[ 8008 7997 7996 7995 ] final  -39.81 input   59.86 | X-H torsion
[ 10167 10162 10161 10158 ] final  119.20 input  -65.29 | X-H torsion
[ 10718 10713 10712 10709 ] final -173.02 input   66.30 | X-H torsion
[ 10763 10752 10751 10750 ] final  -67.90 input  -60.55 | X-H torsion
[ 11005 11000 10999 10996 ] final  133.64 input  -57.11 | X-H torsion

> <Gold.Protein.ActiveResidues>
 VAL166  LYS551  ARG553  GLY616  TRP617  ASP618  TYR619  PRO620  LYS621  CYS622 
 ASP623  PHE694  ASN695  SER759  ASP760  ASP761  ALA762  ILE779  LEU786  VAL792 
 PHE793  MET794  SER795  GLU796  ALA797  LYS798  CYS799  TRP800  GLU811  SER814 

> <Gold.Protein.RotatedAtoms>
  151.5870  133.3371  159.3019 H   0  0  0  0  0  0  0  0  0  0  0  0  # atno 6907 bound_to 6896
  150.8281  134.7525  159.6841 H   0  0  0  0  0  0  0  0  0  0  0  0  # atno 6908 bound_to 6896
  152.4368  134.5677  159.9964 H   0  0  0  0  0  0  0  0  0  0  0  0  # atno 6909 bound_to 6896
  146.0046  140.7035  142.9254 H   0  0  0  0  0  0  0  0  0  0  0  0  # atno 7974 bound_to 7965
  154.4019  140.1542  156.2924 H   0  0  0  0  0  0  0  0  0  0  0  0  # atno 8008 bound_to 7997
  155.8773  140.3445  155.5841 H   0  0  0  0  0  0  0  0  0  0  0  0  # atno 8009 bound_to 7997
  155.7707  140.0830  157.2100 H   0  0  0  0  0  0  0  0  0  0  0  0  # atno 8010 bound_to 7997
  139.6061  144.7070  151.2950 H   0  0  0  0  0  0  0  0  0  0  0  0  # atno 10167 bound_to 10162
  156.7642  130.9425  151.3118 H   0  0  0  0  0  0  0  0  0  0  0  0  # atno 10718 bound_to 10713
  154.3812  135.6074  153.5791 H   0  0  0  0  0  0  0  0  0  0  0  0  # atno 10763 bound_to 10752
  152.9788  135.5861  154.4408 H   0  0  0  0  0  0  0  0  0  0  0  0  # atno 10764 bound_to 10752
  154.4178  135.2845  155.1973 H   0  0  0  0  0  0  0  0  0  0  0  0  # atno 10765 bound_to 10752
  139.9864  134.9530  156.9753 H   0  0  0  0  0  0  0  0  0  0  0  0  # atno 11005 bound_to 11000
  144.6931  140.3292  143.7219 LP  0  0  0  0  0  0  0  0  0  0  0  0  # atno 17320 bound_to 7965
  145.7436  139.1772  143.2362 LP  0  0  0  0  0  0  0  0  0  0  0  0  # atno 17321 bound_to 7965
  140.7286  143.6931  150.7905 LP  0  0  0  0  0  0  0  0  0  0  0  0  # atno 17342 bound_to 10162
  140.0517  143.5243  152.2670 LP  0  0  0  0  0  0  0  0  0  0  0  0  # atno 17343 bound_to 10162
  157.6721  130.9060  150.0063 LP  0  0  0  0  0  0  0  0  0  0  0  0  # atno 17370 bound_to 10713
  156.1319  130.3643  149.9718 LP  0  0  0  0  0  0  0  0  0  0  0  0  # atno 17371 bound_to 10713
  140.4993  134.1113  155.7247 LP  0  0  0  0  0  0  0  0  0  0  0  0  # atno 17394 bound_to 11000
  141.1528  133.8937  157.2053 LP  0  0  0  0  0  0  0  0  0  0  0  0  # atno 17395 bound_to 11000

$$$$
