AV-unprocessed.smi:1404|AV-procd|sdf|5705|dock5
  -GOLD-   22720 5333D 1   1.00000     0.00000
 Structure written by MMmdl.
 47 48  0  0  0  0  0  0  0  0  1 V2000
  150.9203  141.6461  156.5692 C   0  0  0  0  0  0  0  0  0  0  0  0
  150.7058  140.4853  155.7307 N   0  0  0  0  0  0  0  0  0  0  0  0
  151.7385  139.5250  155.6005 C   0  0  0  0  0  0  0  0  0  0  0  0
  152.8227  139.6317  156.1745 O   0  0  0  0  0  0  0  0  0  0  0  0
  151.4092  138.4003  154.7331 C   0  0  0  0  0  0  0  0  0  0  0  0
  150.2049  138.3199  154.1262 C   0  0  0  0  0  0  0  0  0  0  0  0
  149.2119  139.2710  154.2742 N   0  0  0  0  0  0  0  0  0  0  0  0
  147.9330  139.1065  153.5716 C   0  0  0  0  0  0  0  0  0  0  0  0
  146.9670  138.1663  154.3040 C   0  0  0  0  0  0  0  0  0  0  0  0
  146.4498  138.5015  155.3705 O   0  0  0  0  0  0  0  0  0  0  0  0
  146.7202  136.9939  153.7056 N   0  0  0  0  0  0  0  0  0  0  0  0
  145.8565  135.9503  154.2485 C   0  0  0  0  0  0  0  0  0  0  0  0
  146.3194  134.5262  153.8282 C   0  0  0  0  0  0  0  0  0  0  0  0
  147.8415  134.4450  154.0962 C   0  0  0  0  0  0  0  0  0  0  0  0
  145.6265  133.5381  154.8005 C   0  0  0  0  0  0  0  0  0  0  0  0
  145.9578  134.2246  152.4142 N   0  0  0  0  0  0  0  0  0  0  0  0
  146.4207  132.9217  151.9216 C   0  0  0  0  0  0  0  0  0  0  0  0
  146.1211  132.7288  150.4254 C   0  0  0  0  0  0  0  0  0  0  0  0
  144.7265  132.8844  150.1919 O   0  0  0  0  0  0  0  0  0  0  0  0
  144.2477  134.1599  150.6000 C   0  0  0  0  0  0  0  0  0  0  0  0
  144.5321  134.3666  152.0975 C   0  0  0  0  0  0  0  0  0  0  0  0
  149.4479  140.3942  155.0955 C   0  0  0  0  0  0  0  0  0  0  0  0
  148.5803  141.2587  155.2463 O   0  0  0  0  0  0  0  0  0  0  0  0
  151.9295  141.6603  156.9794 H   0  0  0  0  0  0  0  0  0  0  0  0
  150.1888  141.5977  157.3778 H   0  0  0  0  0  0  0  0  0  0  0  0
  150.7673  142.5296  155.9467 H   0  0  0  0  0  0  0  0  0  0  0  0
  152.1406  137.6215  154.5749 H   0  0  0  0  0  0  0  0  0  0  0  0
  150.0119  137.4678  153.4909 H   0  0  0  0  0  0  0  0  0  0  0  0
  147.4425  140.0737  153.4561 H   0  0  0  0  0  0  0  0  0  0  0  0
  148.1100  138.7423  152.5577 H   0  0  0  0  0  0  0  0  0  0  0  0
  147.1851  136.7930  152.8318 H   0  0  0  0  0  0  0  0  0  0  0  0
  145.8110  136.0370  155.3351 H   0  0  0  0  0  0  0  0  0  0  0  0
  144.8381  136.1380  153.9041 H   0  0  0  0  0  0  0  0  0  0  0  0
  148.0665  134.6703  155.1395 H   0  0  0  0  0  0  0  0  0  0  0  0
  148.4033  135.1581  153.4932 H   0  0  0  0  0  0  0  0  0  0  0  0
  148.2438  133.4521  153.8970 H   0  0  0  0  0  0  0  0  0  0  0  0
  145.7412  133.8512  155.8389 H   0  0  0  0  0  0  0  0  0  0  0  0
  146.0468  132.5344  154.7394 H   0  0  0  0  0  0  0  0  0  0  0  0
  144.5570  133.4600  154.6013 H   0  0  0  0  0  0  0  0  0  0  0  0
  147.4952  132.8133  152.0576 H   0  0  0  0  0  0  0  0  0  0  0  0
  145.9469  132.1158  152.4820 H   0  0  0  0  0  0  0  0  0  0  0  0
  146.6815  133.4462  149.8234 H   0  0  0  0  0  0  0  0  0  0  0  0
  146.4267  131.7331  150.1035 H   0  0  0  0  0  0  0  0  0  0  0  0
  144.7213  134.9424  150.0051 H   0  0  0  0  0  0  0  0  0  0  0  0
  143.1762  134.2155  150.4077 H   0  0  0  0  0  0  0  0  0  0  0  0
  143.9455  133.6462  152.6676 H   0  0  0  0  0  0  0  0  0  0  0  0
  144.1698  135.3562  152.3692 H   0  0  0  0  0  0  0  0  0  0  0  0
  1  2  1  0  0  0  0
  1 24  1  0  0  0  0
  1 25  1  0  0  0  0
  1 26  1  0  0  0  0
  2 22  1  0  0  0  0
  2  3  1  0  0  0  0
  3  4  2  0  0  0  0
  3  5  1  0  0  0  0
  5  6  2  0  0  0  0
  5 27  1  0  0  0  0
  6  7  1  0  0  0  0
  6 28  1  0  0  0  0
  7  8  1  0  0  0  0
  7 22  1  0  0  0  0
  8  9  1  0  0  0  0
  8 29  1  0  0  0  0
  8 30  1  0  0  0  0
  9 10  2  0  0  0  0
  9 11  1  0  0  0  0
 11 12  1  0  0  0  0
 11 31  1  0  0  0  0
 12 13  1  0  0  0  0
 12 32  1  0  0  0  0
 12 33  1  0  0  0  0
 13 14  1  0  0  0  0
 13 15  1  0  0  0  0
 13 16  1  0  0  0  0
 14 34  1  0  0  0  0
 14 35  1  0  0  0  0
 14 36  1  0  0  0  0
 15 37  1  0  0  0  0
 15 38  1  0  0  0  0
 15 39  1  0  0  0  0
 16 21  1  0  0  0  0
 16 17  1  0  0  0  0
 17 18  1  0  0  0  0
 17 40  1  0  0  0  0
 17 41  1  0  0  0  0
 18 19  1  0  0  0  0
 18 42  1  0  0  0  0
 18 43  1  0  0  0  0
 19 20  1  0  0  0  0
 20 21  1  0  0  0  0
 20 44  1  0  0  0  0
 20 45  1  0  0  0  0
 21 46  1  0  0  0  0
 21 47  1  0  0  0  0
 22 23  2  0  0  0  0
M  END
> <s_m_source_file>
AV-unprocessed.smi

> <i_m_source_file_index>
1404

> <i_lp_mmshare_version>
43012

> <i_f3d_flags>
0

> <s_epik_input>
W0NIM11uMWMoPU8pW2NIXVtjSF1uKGMxPU8pW0NIMl1DKD1PKVtOSF1bQ0gyXUMoW0NIM10pKFtDSDNdKU4yW0NIMl1bQ0gyXU9bQ0gyXVtDSDJdMg==

> <s_epik_cmdline>
J2VwaWtfcHl0aG9uJywgJy1waCcsICc3LjAnLCAnLXRuJywgJzgnLCAnLW1hJywgJzIwMCcsICctbWV0YWxfYmluZGluZycsICctaW1hZScsICc8aW5maWxlLm1hZT4nLCAnLW9tYWUnLCAnPG91dGZpbGUubWFlPic=

> <r_lp_tautomer_probability>
1

> <r_epik_Ionization_Penalty>
0.237382

> <r_epik_Ionization_Penalty_Charging>
1.16427e-08

> <r_epik_Ionization_Penalty_Neutral>
0.237382

> <r_epik_State_Penalty>
0.228245

> <r_epik_Charging_Adjusted_Penalty>
0.228245

> <i_epik_Tot_Q>
0

> <i_epik_Tot_abs_Q>
0

> <r_epik_Metal_State_Penalty>
0.22822

> <b_epik_Metal_Only>
0

> <s_lp_Force_Field>
OPLS_2005

> <r_lp_Energy>
49.615

> <b_lp_Chiralities_Consistent>
1

> <s_lp_Variant>
AV-unprocessed.smi:1404-1

> <Gold.Version>
5.8.1

> <Gold.Id.Protein>
6NUR|6NUR_protein|mol2

> <Gold.PLP.Fitness>
40.7518

> <Gold.PLP.PLP>
-32.9069

> <Gold.PLP.part.hbond>
-2.0000

> <Gold.PLP.part.metal>
0.0000

> <Gold.PLP.part.buried>
-0.8576

> <Gold.PLP.part.nonpolar>
-31.1057

> <Gold.PLP.part.repulsive>
0.4070

> <Gold.PLP.ligand.clash>
0.0000

> <Gold.PLP.ligand.torsion>
0.7710

> <Gold.PLP.Chemscore.Hbond>
1.9920

> <Gold.PLP.Chemscore.CHOScore>
1.1010

> <Gold.PLP.Chemscore.Metal>
0.0000

> <Gold.Chemscore.Hbonds>
donor molecule, donor type, donor heavy atom, donor atom, acceptor molecule, acceptor atom, score
      L1  H    11    31       P1  7948  0.83
      P1  H  7997  8009       L1     4  1.00
      L1  C     6    28       P1  7948  1.00
      L1  C     6    28       P1  7949  0.02

> <Gold.PLP.Chemscore.Internal.Correction>
0.1079

> <Gold.Rescore>
     Score         DG    S(hbond)    S(metal)    S(lipo)     H(rot)  DE(clash)    DE(int)     intcor
     13.51     -14.18       1.98        0.00      63.23       2.07       0.08       0.59       ----

> <Gold.Chemscore.Fitness>
13.5140

> <Gold.Chemscore.DG>
-14.1848

> <Gold.Chemscore.ZeroCoef>
-5.4800

> <Gold.Chemscore.Hbond>
1.9751

> <Gold.Chemscore.Metal>
0.0000

> <Gold.Chemscore.Lipo>
63.2285

> <Gold.Chemscore.Internal_Hbond>
0.0000

> <Gold.Chemscore.DEClash>
0.0818

> <Gold.Chemscore.DEInternal>
0.5889

> <Gold.Chemscore.Rot>
2.0664

> <Gold.Chemscore.Internal.Correction>
   9.000000E+99

> <Gold.Chemscore.Hbonds>
donor molecule, donor type, donor heavy atom, donor atom, acceptor molecule, acceptor atom, score
      L1  H    11    31       P1  7948  0.77
      P1  H  7997  8009       L1     4  0.98

> <Gold.Chemscore.Hbond.Weighted>
-6.5970

> <Gold.Chemscore.Metal.Weighted>
-0.0000

> <Gold.Chemscore.Lipo.Weighted>
-7.3977

> <Gold.Chemscore.Internal_Hbond.Weighted>
0.0000

> <Gold.Chemscore.DEClash.Weighted>
0.0818

> <Gold.Chemscore.DEInternal.Weighted>
0.5889

> <Gold.Chemscore.Rot.Weighted>
5.2899

> <Gold.Chemscore.Internal.Correction.Weighted>
   9.000000E+99

> <Gold.Protein.RotatedTorsions>
[ 6907 6896 6895 6894 ] final -111.80 input  -60.11 | X-H torsion
[ 7974 7965 7964 7962 ] final -154.29 input  175.53 | X-H torsion
[ 8008 7997 7996 7995 ] final -164.04 input   59.86 | X-H torsion
[ 10167 10162 10161 10158 ] final  134.85 input  -65.29 | X-H torsion
[ 10718 10713 10712 10709 ] final -166.29 input   66.30 | X-H torsion
[ 10763 10752 10751 10750 ] final  172.79 input  -60.55 | X-H torsion
[ 11005 11000 10999 10996 ] final   95.88 input  -57.11 | X-H torsion

> <Gold.Protein.ActiveResidues>
 VAL166  LYS551  ARG553  GLY616  TRP617  ASP618  TYR619  PRO620  LYS621  CYS622 
 ASP623  PHE694  ASN695  SER759  ASP760  ASP761  ALA762  ILE779  LEU786  VAL792 
 PHE793  MET794  SER795  GLU796  ALA797  LYS798  CYS799  TRP800  GLU811  SER814 

> <Gold.Protein.RotatedAtoms>
  150.7715  133.9183  159.3389 H   0  0  0  0  0  0  0  0  0  0  0  0  # atno 6907 bound_to 6896
  151.7068  135.0918  160.0270 H   0  0  0  0  0  0  0  0  0  0  0  0  # atno 6908 bound_to 6896
  152.3734  133.6411  159.6140 H   0  0  0  0  0  0  0  0  0  0  0  0  # atno 6909 bound_to 6896
  144.7697  140.4409  143.5916 H   0  0  0  0  0  0  0  0  0  0  0  0  # atno 7974 bound_to 7965
  155.8300  140.0932  157.1798 H   0  0  0  0  0  0  0  0  0  0  0  0  # atno 8008 bound_to 7997
  154.3979  140.1421  156.3663 H   0  0  0  0  0  0  0  0  0  0  0  0  # atno 8009 bound_to 7997
  155.8176  140.3447  155.5497 H   0  0  0  0  0  0  0  0  0  0  0  0  # atno 8010 bound_to 7997
  139.5240  144.6546  151.5199 H   0  0  0  0  0  0  0  0  0  0  0  0  # atno 10167 bound_to 10162
  156.6658  130.9064  151.3036 H   0  0  0  0  0  0  0  0  0  0  0  0  # atno 10718 bound_to 10713
  154.4310  135.2760  155.1912 H   0  0  0  0  0  0  0  0  0  0  0  0  # atno 10763 bound_to 10752
  154.3818  135.6086  153.5798 H   0  0  0  0  0  0  0  0  0  0  0  0  # atno 10764 bound_to 10752
  152.9836  135.5882  154.4622 H   0  0  0  0  0  0  0  0  0  0  0  0  # atno 10765 bound_to 10752
  139.8785  134.8922  156.4076 H   0  0  0  0  0  0  0  0  0  0  0  0  # atno 11005 bound_to 11000
  145.6361  139.1543  143.2942 LP  0  0  0  0  0  0  0  0  0  0  0  0  # atno 17320 bound_to 7965
  146.1834  140.6461  142.9179 LP  0  0  0  0  0  0  0  0  0  0  0  0  # atno 17321 bound_to 7965
  140.6366  143.8971  150.6653 LP  0  0  0  0  0  0  0  0  0  0  0  0  # atno 17342 bound_to 10162
  140.2292  143.3748  152.1579 LP  0  0  0  0  0  0  0  0  0  0  0  0  # atno 17343 bound_to 10162
  157.7094  130.9423  150.1039 LP  0  0  0  0  0  0  0  0  0  0  0  0  # atno 17370 bound_to 10713
  156.1976  130.3658  149.8829 LP  0  0  0  0  0  0  0  0  0  0  0  0  # atno 17371 bound_to 10713
  140.9223  133.7636  155.9922 LP  0  0  0  0  0  0  0  0  0  0  0  0  # atno 17394 bound_to 11000
  140.8425  134.3049  157.5308 LP  0  0  0  0  0  0  0  0  0  0  0  0  # atno 17395 bound_to 11000

$$$$
