AV-unprocessed.smi:630|AV-procd|sdf|3121|dock6
  -GOLD-   22720 0 43D 1   1.00000     0.00000
 Structure written by MMmdl.
 36 37  0  0  0  0  0  0  0  0  2 V2000
  148.1711  138.4137  153.8670 N   0  0  0  0  0  0  0  0  0  0  0  0
  148.7069  138.1751  155.0671 C   0  0  0  0  0  0  0  0  0  0  0  0
  148.8800  137.0327  155.4885 O   0  0  0  0  0  0  0  0  0  0  0  0
  149.1118  139.3965  155.9154 C   0  0  2  0  0  0  0  0  0  0  0  0
  150.0927  140.2766  155.1018 C   0  0  0  0  0  0  0  0  0  0  0  0
  150.2058  141.7140  155.6356 C   0  0  0  0  0  0  0  0  0  0  0  0
  151.2713  141.9224  156.7242 C   0  0  0  0  0  0  0  0  0  0  0  0
  151.4402  140.7748  157.7336 C   0  0  0  0  0  0  0  0  0  0  0  0
  150.1329  140.1193  158.2069 C   0  0  0  0  0  0  0  0  0  0  0  0
  149.6565  138.9581  157.3053 C   0  0  1  0  0  0  0  0  0  0  0  0
  148.6169  138.2229  158.0341 N   0  0  0  0  0  0  0  0  0  0  0  0
  148.7865  137.1552  158.8284 C   0  0  0  0  0  0  0  0  0  0  0  0
  149.9148  136.6970  159.0209 O   0  0  0  0  0  0  0  0  0  0  0  0
  147.6313  136.6807  159.3479 N   0  5  0  0  0  0  0  0  0  0  0  0
  147.5557  136.3868  160.6562 C   0  0  0  0  0  0  0  0  0  0  0  0
  147.7597  137.2903  161.6220 N   0  0  0  0  0  0  0  0  0  0  0  0
  147.6275  136.7659  162.9092 C   0  0  0  0  0  0  0  0  0  0  0  0
  147.3045  135.4349  162.9236 C   0  0  0  0  0  0  0  0  0  0  0  0
  147.1572  134.7961  161.3112 S   0  0  0  0  0  0  0  0  0  0  0  0
  147.8641  137.6415  153.2939 H   0  0  0  0  0  0  0  0  0  0  0  0
  148.0467  139.3643  153.5508 H   0  0  0  0  0  0  0  0  0  0  0  0
  148.2059  139.9827  156.0814 H   0  0  0  0  0  0  0  0  0  0  0  0
  151.0776  139.8119  155.0343 H   0  0  0  0  0  0  0  0  0  0  0  0
  149.7315  140.3442  154.0739 H   0  0  0  0  0  0  0  0  0  0  0  0
  150.4395  142.3835  154.8072 H   0  0  0  0  0  0  0  0  0  0  0  0
  149.2343  142.0454  156.0040 H   0  0  0  0  0  0  0  0  0  0  0  0
  152.2372  142.1000  156.2499 H   0  0  0  0  0  0  0  0  0  0  0  0
  151.0352  142.8419  157.2608 H   0  0  0  0  0  0  0  0  0  0  0  0
  152.1008  140.0122  157.3195 H   0  0  0  0  0  0  0  0  0  0  0  0
  151.9708  141.1699  158.6008 H   0  0  0  0  0  0  0  0  0  0  0  0
  150.3196  139.7159  159.2035 H   0  0  0  0  0  0  0  0  0  0  0  0
  149.3475  140.8653  158.3343 H   0  0  0  0  0  0  0  0  0  0  0  0
  150.5119  138.3021  157.1344 H   0  0  0  0  0  0  0  0  0  0  0  0
  147.6706  138.5548  157.9193 H   0  0  0  0  0  0  0  0  0  0  0  0
  147.7804  137.4136  163.7597 H   0  0  0  0  0  0  0  0  0  0  0  0
  147.1448  134.7949  163.7780 H   0  0  0  0  0  0  0  0  0  0  0  0
  1  2  1  0  0  0  0
  1 20  1  0  0  0  0
  1 21  1  0  0  0  0
  2  3  2  0  0  0  0
  2  4  1  0  0  0  0
  4 10  1  0  0  0  0
  4  5  1  0  0  0  0
  4 22  1  0  0  0  0
  5  6  1  0  0  0  0
  5 23  1  0  0  0  0
  5 24  1  0  0  0  0
  6  7  1  0  0  0  0
  6 25  1  0  0  0  0
  6 26  1  0  0  0  0
  7  8  1  0  0  0  0
  7 27  1  0  0  0  0
  7 28  1  0  0  0  0
  8  9  1  0  0  0  0
  8 29  1  0  0  0  0
  8 30  1  0  0  0  0
  9 10  1  0  0  0  0
  9 31  1  0  0  0  0
  9 32  1  0  0  0  0
 10 11  1  0  0  0  0
 10 33  1  0  0  0  0
 11 12  1  0  0  0  0
 11 34  1  0  0  0  0
 12 13  2  0  0  0  0
 12 14  1  0  0  0  0
 14 15  1  0  0  0  0
 15 19  1  0  0  0  0
 15 16  2  0  0  0  0
 16 17  1  0  0  0  0
 17 18  2  0  0  0  0
 17 35  1  0  0  0  0
 18 19  1  0  0  0  0
 18 36  1  0  0  0  0
M  CHG  1  14  -1
M  END
> <s_m_source_file>
AV-unprocessed.smi

> <i_m_source_file_index>
630

> <i_lp_mmshare_version>
43012

> <i_f3d_flags>
0

> <s_epik_input>
W05IMl1DKD1PKVtDQEBIXTFbQ0gyXVtDSDJdW0NIMl1bQ0gyXVtDSDJdW0NASF0xW05IXUMoPU8pW05IXWMybltjSF1bY0hdczI=

> <s_epik_cmdline>
J2VwaWtfcHl0aG9uJywgJy1waCcsICc3LjAnLCAnLXRuJywgJzgnLCAnLW1hJywgJzIwMCcsICctbWV0YWxfYmluZGluZycsICctaW1hZScsICc8aW5maWxlLm1hZT4nLCAnLW9tYWUnLCAnPG91dGZpbGUubWFlPic=

> <r_lp_tautomer_probability>
0.999

> <r_epik_Ionization_Penalty>
8.29606

> <r_epik_Ionization_Penalty_Charging>
6.67551

> <r_epik_Ionization_Penalty_Neutral>
1.62055

> <r_epik_State_Penalty>
6.67568

> <r_epik_Charging_Adjusted_Penalty>
13.3512

> <i_epik_Tot_Q>
-1

> <i_epik_Tot_abs_Q>
1

> <r_epik_Metal_State_Penalty>
2.59802

> <b_epik_Metal_Only>
1

> <s_lp_Force_Field>
OPLS_2005

> <r_lp_Energy>
8.76486

> <b_lp_Chiralities_Consistent>
1

> <s_lp_Variant>
AV-unprocessed.smi:630-5

> <Gold.Version>
5.8.1

> <Gold.Id.Protein>
6NUR|6NUR_protein|mol2

> <Gold.PLP.Fitness>
41.8986

> <Gold.PLP.PLP>
-33.4907

> <Gold.PLP.part.hbond>
-4.0000

> <Gold.PLP.part.metal>
0.0000

> <Gold.PLP.part.buried>
-4.5540

> <Gold.PLP.part.nonpolar>
-25.0859

> <Gold.PLP.part.repulsive>
0.2056

> <Gold.PLP.ligand.clash>
0.0000

> <Gold.PLP.ligand.torsion>
1.3206

> <Gold.PLP.Chemscore.Hbond>
3.6613

> <Gold.PLP.Chemscore.CHOScore>
0.0000

> <Gold.PLP.Chemscore.Metal>
0.0000

> <Gold.Chemscore.Hbonds>
donor molecule, donor type, donor heavy atom, donor atom, acceptor molecule, acceptor atom, score
      L1  H     1    20       P1  7948  0.25
      P1  H  6896  6907       L1    13  0.71
      P1  H  6931  6943       L1    16  0.89
      P1  H  6934  6947       L1    16  0.69

> <Gold.PLP.Chemscore.Internal.Correction>
0.0652

> <Gold.Rescore>
     Score         DG    S(hbond)    S(metal)    S(lipo)     H(rot)  DE(clash)    DE(int)     intcor
     17.30     -18.30       2.79        0.00      62.87       1.50       0.05       0.95       ----

> <Gold.Chemscore.Fitness>
17.3045

> <Gold.Chemscore.DG>
-18.3042

> <Gold.Chemscore.ZeroCoef>
-5.4800

> <Gold.Chemscore.Hbond>
2.7904

> <Gold.Chemscore.Metal>
0.0000

> <Gold.Chemscore.Lipo>
62.8672

> <Gold.Chemscore.Internal_Hbond>
0.0000

> <Gold.Chemscore.DEClash>
0.0456

> <Gold.Chemscore.DEInternal>
0.9540

> <Gold.Chemscore.Rot>
1.5044

> <Gold.Chemscore.Internal.Correction>
   9.000000E+99

> <Gold.Chemscore.Hbonds>
donor molecule, donor type, donor heavy atom, donor atom, acceptor molecule, acceptor atom, score
      L1  H     1    20       P1  7948  0.25
      P1  H  6896  6907       L1    13  0.71
      P1  H  6931  6943       L1    16  0.17
      P1  H  6934  6947       L1    16  0.44

> <Gold.Chemscore.Hbond.Weighted>
-9.3199

> <Gold.Chemscore.Metal.Weighted>
-0.0000

> <Gold.Chemscore.Lipo.Weighted>
-7.3555

> <Gold.Chemscore.Internal_Hbond.Weighted>
0.0000

> <Gold.Chemscore.DEClash.Weighted>
0.0456

> <Gold.Chemscore.DEInternal.Weighted>
0.9540

> <Gold.Chemscore.Rot.Weighted>
3.8512

> <Gold.Chemscore.Internal.Correction.Weighted>
   9.000000E+99

> <Gold.Protein.RotatedTorsions>
[ 6907 6896 6895 6894 ] final  -46.34 input  -60.11 | X-H torsion
[ 7974 7965 7964 7962 ] final  -77.36 input  175.53 | X-H torsion
[ 8008 7997 7996 7995 ] final   94.33 input   59.86 | X-H torsion
[ 10167 10162 10161 10158 ] final  176.62 input  -65.29 | X-H torsion
[ 10718 10713 10712 10709 ] final -151.27 input   66.30 | X-H torsion
[ 10763 10752 10751 10750 ] final   75.57 input  -60.55 | X-H torsion
[ 11005 11000 10999 10996 ] final  112.40 input  -57.11 | X-H torsion

> <Gold.Protein.ActiveResidues>
 VAL166  LYS551  ARG553  GLY616  TRP617  ASP618  TYR619  PRO620  LYS621  CYS622 
 ASP623  PHE694  ASN695  SER759  ASP760  ASP761  ALA762  ILE779  LEU786  VAL792 
 PHE793  MET794  SER795  GLU796  ALA797  LYS798  CYS799  TRP800  GLU811  SER814 

> <Gold.Protein.RotatedAtoms>
  150.9123  134.8540  159.7433 H   0  0  0  0  0  0  0  0  0  0  0  0  # atno 6907 bound_to 6896
  152.4950  134.4341  159.9531 H   0  0  0  0  0  0  0  0  0  0  0  0  # atno 6908 bound_to 6896
  151.4382  133.3611  159.2813 H   0  0  0  0  0  0  0  0  0  0  0  0  # atno 6909 bound_to 6896
  145.6007  140.9409  143.1242 H   0  0  0  0  0  0  0  0  0  0  0  0  # atno 7974 bound_to 7965
  156.0567  140.3301  155.7414 H   0  0  0  0  0  0  0  0  0  0  0  0  # atno 8008 bound_to 7997
  155.5518  140.0611  157.2866 H   0  0  0  0  0  0  0  0  0  0  0  0  # atno 8009 bound_to 7997
  154.4461  140.1893  156.0682 H   0  0  0  0  0  0  0  0  0  0  0  0  # atno 8010 bound_to 7997
  139.5221  144.2893  152.0477 H   0  0  0  0  0  0  0  0  0  0  0  0  # atno 10167 bound_to 10162
  156.4570  130.8195  151.2426 H   0  0  0  0  0  0  0  0  0  0  0  0  # atno 10718 bound_to 10713
  153.0664  135.4983  154.8210 H   0  0  0  0  0  0  0  0  0  0  0  0  # atno 10763 bound_to 10752
  154.6960  135.2993  154.9413 H   0  0  0  0  0  0  0  0  0  0  0  0  # atno 10764 bound_to 10752
  154.0153  135.6749  153.4821 H   0  0  0  0  0  0  0  0  0  0  0  0  # atno 10765 bound_to 10752
  139.8926  134.9529  156.6580 H   0  0  0  0  0  0  0  0  0  0  0  0  # atno 11005 bound_to 11000
  144.7311  139.7723  143.7347 LP  0  0  0  0  0  0  0  0  0  0  0  0  # atno 17320 bound_to 7965
  146.1578  139.4682  143.0007 LP  0  0  0  0  0  0  0  0  0  0  0  0  # atno 17321 bound_to 7965
  140.2345  144.4334  150.6286 LP  0  0  0  0  0  0  0  0  0  0  0  0  # atno 17342 bound_to 10162
  140.6333  143.2191  151.6450 LP  0  0  0  0  0  0  0  0  0  0  0  0  # atno 17343 bound_to 10162
  157.7500  131.0119  150.3365 LP  0  0  0  0  0  0  0  0  0  0  0  0  # atno 17370 bound_to 10713
  156.3756  130.3871  149.7141 LP  0  0  0  0  0  0  0  0  0  0  0  0  # atno 17371 bound_to 10713
  140.7469  133.8930  155.8318 LP  0  0  0  0  0  0  0  0  0  0  0  0  # atno 17394 bound_to 11000
  141.0032  134.1121  157.4296 LP  0  0  0  0  0  0  0  0  0  0  0  0  # atno 17395 bound_to 11000

$$$$
