#       Name:                AV-unprocessed.smi:2772
#       Creating user name   scv26
#       Creation time:       Fri Mar 27 15:11:11 2020


#       File generated by GOLD software.
#

@<TRIPOS>MOLECULE
AV-unprocessed.smi:2772
    58    60     1
SMALL
NO_CHARGES


@<TRIPOS>ATOM
      1 ****        -8.8941   4.3891  -0.7015 C.3            1 S1                 0.0000
      2 ****        -7.6046   3.6492  -0.4132 C.ar           1 S1                 0.0000
      3 ****        -6.3947   4.3495  -0.2307 C.ar           1 S1                 0.0000
      4 ****        -5.2231   3.6134   0.0315 C.ar           1 S1                 0.0000
      5 ****        -5.3018   2.2009   0.0933 C.ar           1 S1                 0.0000
      6 ****        -4.1993   1.3459   0.3661 N.am           1 S1                 0.0000
      7 ****        -2.8857   1.6059   0.2506 C.2            1 S1                 0.0000
      8 ****        -2.3989   2.6637  -0.1479 O.2            1 S1                 0.0000
      9 ****        -2.1480   0.5452   0.6099 N.am           1 S1                 0.0000
     10 ****        -0.6887   0.4970   0.5994 C.3            1 S1                 0.0000
     11 ****        -0.1545   0.2243  -0.8151 C.3            1 S1                 0.0000
     12 ****         1.3765   0.0946  -0.8074 C.3            1 S1                 0.0000
     13 ****         1.8392  -0.9853   0.1118 N.4            1 S1                 1.0000
     14 ****         3.3147  -1.2331  -0.0084 C.3            1 S1                 0.0000
     15 ****         3.6340  -2.0288  -1.2968 C.3            1 S1                 0.0000
     16 ****         5.1401  -2.2999  -1.4535 C.3            1 S1                 0.0000
     17 ****         5.6773  -3.0246  -0.2781 N.4            1 S1                 1.0000
     18 ****         7.0982  -3.3992  -0.4466 C.3            1 S1                 0.0000
     19 ****         5.4351  -2.2788   0.9793 C.3            1 S1                 0.0000
     20 ****         3.9349  -2.0044   1.1847 C.3            1 S1                 0.0000
     21 ****         1.3401  -0.7419   1.4973 C.3            1 S1                 0.0000
     22 ****        -0.1926  -0.6086   1.5398 C.3            1 S1                 0.0000
     23 ****        -6.5676   1.6055  -0.0926 C.ar           1 S1                 0.0000
     24 ****        -7.6952   2.3036  -0.3448 N.ar           1 S1                 0.0000
     25 ****        -8.7892   5.4550  -0.4976 H              1 S1                 0.0000
     26 ****        -9.7051   4.0046  -0.0821 H              1 S1                 0.0000
     27 ****        -9.1728   4.2666  -1.7484 H              1 S1                 0.0000
     28 ****        -6.3616   5.4276  -0.2850 H              1 S1                 0.0000
     29 ****        -4.2994   4.1468   0.1912 H              1 S1                 0.0000
     30 ****        -4.4431   0.4040   0.6355 H              1 S1                 0.0000
     31 ****        -2.6315  -0.2852   0.9199 H              1 S1                 0.0000
     32 ****        -0.2977   1.4531   0.9540 H              1 S1                 0.0000
     33 ****        -0.5974  -0.6897  -1.2142 H              1 S1                 0.0000
     34 ****        -0.4470   1.0294  -1.4903 H              1 S1                 0.0000
     35 ****         1.7040  -0.0926  -1.8282 H              1 S1                 0.0000
     36 ****         1.8254   1.0432  -0.5077 H              1 S1                 0.0000
     37 ****         3.8124  -0.2628  -0.0586 H              1 S1                 0.0000
     38 ****         3.0952  -2.9776  -1.2851 H              1 S1                 0.0000
     39 ****         3.2950  -1.4996  -2.1859 H              1 S1                 0.0000
     40 ****         5.3108  -2.8910  -2.3542 H              1 S1                 0.0000
     41 ****         5.6799  -1.3603  -1.5839 H              1 S1                 0.0000
     42 ****         7.7296  -2.5138  -0.5327 H              1 S1                 0.0000
     43 ****         7.2337  -4.0049  -1.3435 H              1 S1                 0.0000
     44 ****         7.4457  -3.9854   0.4048 H              1 S1                 0.0000
     45 ****         5.8179  -2.8544   1.8232 H              1 S1                 0.0000
     46 ****         5.9895  -1.3388   0.9601 H              1 S1                 0.0000
     47 ****         3.8324  -1.4359   2.1094 H              1 S1                 0.0000
     48 ****         3.4112  -2.9502   1.3322 H              1 S1                 0.0000
     49 ****         1.5991  -1.5705   2.1549 H              1 S1                 0.0000
     50 ****         1.8098   0.1552   1.9040 H              1 S1                 0.0000
     51 ****        -0.5143  -0.4008   2.5611 H              1 S1                 0.0000
     52 ****        -0.6453  -1.5619   1.2622 H              1 S1                 0.0000
     53 ****        -6.6806   0.5323  -0.0422 H              1 S1                 0.0000
     54 ****         1.3881  -1.8369  -0.1911 H              1 S1                 0.0000
     55 ****         5.1615  -3.8905  -0.2082 H              1 S1                 0.0000
     56 ****        -2.9964   3.4186  -0.4184 LP             1 S1                 0.0000
     57 ****        -1.4058   2.7684  -0.2012 LP             1 S1                 0.0000
     58 ****        -8.5705   1.8386  -0.4769 LP             1 S1                 0.0000
@<TRIPOS>BOND
    1    1    2 1     
    2    1   25 1     
    3    1   26 1     
    4    1   27 1     
    5    2   24 ar    
    6    2    3 ar    
    7    3    4 ar    
    8    3   28 1     
    9    4    5 ar    
   10    4   29 1     
   11    5    6 1     
   12    5   23 ar    
   13    6    7 am    
   14    6   30 1     
   15    7    8 2     
   16    7    9 am    
   17    9   10 1     
   18    9   31 1     
   19   10   22 1     
   20   10   11 1     
   21   10   32 1     
   22   11   12 1     
   23   11   33 1     
   24   11   34 1     
   25   12   13 1     
   26   12   35 1     
   27   12   36 1     
   28   13   14 1     
   29   13   21 1     
   30   13   54 1     
   31   14   20 1     
   32   14   15 1     
   33   14   37 1     
   34   15   16 1     
   35   15   38 1     
   36   15   39 1     
   37   16   17 1     
   38   16   40 1     
   39   16   41 1     
   40   17   18 1     
   41   17   19 1     
   42   17   55 1     
   43   18   42 1     
   44   18   43 1     
   45   18   44 1     
   46   19   20 1     
   47   19   45 1     
   48   19   46 1     
   49   20   47 1     
   50   20   48 1     
   51   21   22 1     
   52   21   49 1     
   53   21   50 1     
   54   22   51 1     
   55   22   52 1     
   56   23   24 ar    
   57   23   53 1     
   58    8   56 1     
   59    8   57 1     
   60   24   58 1     
@<TRIPOS>SUBSTRUCTURE
      1 S1             1
@<TRIPOS>SET
LONE_PAIRS      STATIC     ATOMS    <user>   **** ""
3 56 57 58
DONOR_HYDROGENS      STATIC     ATOMS    <user>   **** ""
4 30 31 54 55
ATOM$BLUE        STATIC     ATOMS    COLORGROUP SYSTEM
3 56 57 58
ATOM$RED        STATIC     ATOMS    COLORGROUP SYSTEM
4 30 31 54 55
