AV-unprocessed.smi:290|AV-procd|sdf|2240|dock4
  -GOLD-   2262022113D 1   1.00000     0.00000
 Structure written by MMmdl.
 59 62  0  0  0  0  0  0  0  0  2 V2000
  151.8357  145.0599  158.8828 C   0  0  0  0  0  0  0  0  0  0  0  0
  152.5714  143.7346  158.6266 C   0  0  1  0  0  0  0  0  0  0  0  0
  153.4449  143.4265  159.7125 O   0  0  0  0  0  0  0  0  0  0  0  0
  153.1201  142.1543  160.2547 C   0  0  0  0  0  0  0  0  0  0  0  0
  152.4937  141.3999  159.0896 C   0  0  0  0  0  0  0  0  0  0  0  0
  151.6889  142.4863  158.3901 C   0  0  1  0  0  0  0  0  0  0  0  0
  150.4422  142.6146  159.0560 O   0  0  0  0  0  0  0  0  0  0  0  0
  151.4190  142.2088  156.8920 C   0  0  0  0  0  0  0  0  0  0  0  0
  150.6602  140.9898  156.6557 N   0  0  0  0  0  0  0  0  0  0  0  0
  149.2926  140.8512  156.6978 C   0  0  0  0  0  0  0  0  0  0  0  0
  148.8506  139.6480  156.4570 N   0  0  0  0  0  0  0  0  0  0  0  0
  149.9959  138.8963  156.2120 C   0  0  0  0  0  0  0  0  0  0  0  0
  150.2540  137.5287  155.8902 C   0  0  0  0  0  0  0  0  0  0  0  0
  149.3096  136.5641  155.7236 N   0  0  0  0  0  0  0  0  0  0  0  0
  147.9238  136.7968  156.0922 C   0  0  0  0  0  0  0  0  0  0  0  0
  147.1194  135.9901  155.0823 C   0  0  0  0  0  0  0  0  0  0  0  0
  148.0226  134.7913  154.7494 C   0  0  1  0  0  0  0  0  0  0  0  0
  147.6839  134.1818  153.4241 N   0  3  2  0  0  0  0  0  0  0  0  0
  146.2188  133.9775  153.2759 C   0  0  0  0  0  0  0  0  0  0  0  0
  148.4635  132.9546  153.0894 C   0  0  0  0  0  0  0  0  0  0  0  0
  148.0227  131.6950  153.8593 C   0  0  0  0  0  0  0  0  0  0  0  0
  148.2299  130.5423  153.0703 O   0  0  0  0  0  0  0  0  0  0  0  0
  149.4519  135.3860  154.8730 C   0  0  2  0  0  0  0  0  0  0  0  0
  150.4581  134.3970  155.5028 C   0  0  0  0  0  0  0  0  0  0  0  0
  151.5542  137.1635  155.7384 N   0  0  0  0  0  0  0  0  0  0  0  0
  152.5353  138.0581  155.8795 C   0  0  0  0  0  0  0  0  0  0  0  0
  152.4428  139.3552  156.1713 N   0  0  0  0  0  0  0  0  0  0  0  0
  151.1437  139.7335  156.3345 C   0  0  0  0  0  0  0  0  0  0  0  0
  147.8884  134.0376  155.5279 H   0  0  0  0  0  0  0  0  0  0  0  0
  149.7865  135.7164  153.8904 H   0  0  0  0  0  0  0  0  0  0  0  0
  151.1558  145.2956  158.0641 H   0  0  0  0  0  0  0  0  0  0  0  0
  152.5445  145.8830  158.9725 H   0  0  0  0  0  0  0  0  0  0  0  0
  151.2563  145.0271  159.8058 H   0  0  0  0  0  0  0  0  0  0  0  0
  153.2225  143.8721  157.7623 H   0  0  0  0  0  0  0  0  0  0  0  0
  153.9999  141.6534  160.6589 H   0  0  0  0  0  0  0  0  0  0  0  0
  152.3994  142.2841  161.0631 H   0  0  0  0  0  0  0  0  0  0  0  0
  153.2873  141.0384  158.4347 H   0  0  0  0  0  0  0  0  0  0  0  0
  151.8997  140.5399  159.4018 H   0  0  0  0  0  0  0  0  0  0  0  0
  150.0569  143.4422  158.8126 H   0  0  0  0  0  0  0  0  0  0  0  0
  150.8754  143.0432  156.4465 H   0  0  0  0  0  0  0  0  0  0  0  0
  152.3600  142.1336  156.3453 H   0  0  0  0  0  0  0  0  0  0  0  0
  148.6301  141.6750  156.9222 H   0  0  0  0  0  0  0  0  0  0  0  0
  147.7596  136.4302  157.1062 H   0  0  0  0  0  0  0  0  0  0  0  0
  147.6479  137.8516  156.0581 H   0  0  0  0  0  0  0  0  0  0  0  0
  146.1455  135.7041  155.4801 H   0  0  0  0  0  0  0  0  0  0  0  0
  146.9552  136.5951  154.1890 H   0  0  0  0  0  0  0  0  0  0  0  0
  145.8671  133.1873  153.9402 H   0  0  0  0  0  0  0  0  0  0  0  0
  145.9479  133.7142  152.2550 H   0  0  0  0  0  0  0  0  0  0  0  0
  145.6561  134.8818  153.5022 H   0  0  0  0  0  0  0  0  0  0  0  0
  148.3532  132.7179  152.0330 H   0  0  0  0  0  0  0  0  0  0  0  0
  149.5235  133.1431  153.2639 H   0  0  0  0  0  0  0  0  0  0  0  0
  148.6221  131.5960  154.7647 H   0  0  0  0  0  0  0  0  0  0  0  0
  146.9857  131.7450  154.1889 H   0  0  0  0  0  0  0  0  0  0  0  0
  148.0666  130.7629  152.1652 H   0  0  0  0  0  0  0  0  0  0  0  0
  150.5718  133.4857  154.9193 H   0  0  0  0  0  0  0  0  0  0  0  0
  150.1389  134.1009  156.5027 H   0  0  0  0  0  0  0  0  0  0  0  0
  151.4498  134.8370  155.6009 H   0  0  0  0  0  0  0  0  0  0  0  0
  153.5373  137.6801  155.7399 H   0  0  0  0  0  0  0  0  0  0  0  0
  147.9494  134.8664  152.7300 H   0  0  0  0  0  0  0  0  0  0  0  0
  1  2  1  0  0  0  0
  1 31  1  0  0  0  0
  1 32  1  0  0  0  0
  1 33  1  0  0  0  0
  2  6  1  0  0  0  0
  2  3  1  0  0  0  0
  2 34  1  0  0  0  0
  3  4  1  0  0  0  0
  4  5  1  0  0  0  0
  4 35  1  0  0  0  0
  4 36  1  0  0  0  0
  5  6  1  0  0  0  0
  5 37  1  0  0  0  0
  5 38  1  0  0  0  0
  6  7  1  0  0  0  0
  6  8  1  0  0  0  0
  7 39  1  0  0  0  0
  8  9  1  0  0  0  0
  8 40  1  0  0  0  0
  8 41  1  0  0  0  0
  9 28  1  0  0  0  0
  9 10  1  0  0  0  0
 10 11  2  0  0  0  0
 10 42  1  0  0  0  0
 11 12  1  0  0  0  0
 12 28  2  0  0  0  0
 12 13  1  0  0  0  0
 13 14  1  0  0  0  0
 13 25  2  0  0  0  0
 14 23  1  0  0  0  0
 14 15  1  0  0  0  0
 15 16  1  0  0  0  0
 15 43  1  0  0  0  0
 15 44  1  0  0  0  0
 16 17  1  0  0  0  0
 16 45  1  0  0  0  0
 16 46  1  0  0  0  0
 17 29  1  0  0  0  0
 17 18  1  0  0  0  0
 17 23  1  0  0  0  0
 18 19  1  0  0  0  0
 18 20  1  0  0  0  0
 18 59  1  0  0  0  0
 19 47  1  0  0  0  0
 19 48  1  0  0  0  0
 19 49  1  0  0  0  0
 20 21  1  0  0  0  0
 20 50  1  0  0  0  0
 20 51  1  0  0  0  0
 21 22  1  0  0  0  0
 21 52  1  0  0  0  0
 21 53  1  0  0  0  0
 22 54  1  0  0  0  0
 23 30  1  0  0  0  0
 23 24  1  0  0  0  0
 24 55  1  0  0  0  0
 24 56  1  0  0  0  0
 24 57  1  0  0  0  0
 25 26  1  0  0  0  0
 26 27  2  0  0  0  0
 26 58  1  0  0  0  0
 27 28  1  0  0  0  0
M  CHG  1  18   1
M  END
> <s_m_source_file>
AV-unprocessed.smi

> <i_m_source_file_index>
290

> <i_lp_mmshare_version>
43012

> <i_f3d_flags>
0

> <s_epik_input>
W0NIMl0xW0NIMl1PW0NAQEhdKFtDSDNdKVtDQEBdMShbT0hdKVtDSDJdbihbY0hdbjIpYyhjMjMpbltjSF1uYzNONFtDSDJdW0NIMl1bQ0BIXShbQ0BIXTRbQ0gzXSlOKFtDSDNdKVtDSDJdW0NIMl1bT0hd

> <s_epik_cmdline>
J2VwaWtfcHl0aG9uJywgJy1waCcsICc3LjAnLCAnLXRuJywgJzgnLCAnLW1hJywgJzIwMCcsICctbWV0YWxfYmluZGluZycsICctaW1hZScsICc8aW5maWxlLm1hZT4nLCAnLW9tYWUnLCAnPG91dGZpbGUubWFlPic=

> <r_lp_tautomer_probability>
1

> <r_epik_Ionization_Penalty>
0.0036983

> <r_epik_Ionization_Penalty_Charging>
0.0032725

> <r_epik_Ionization_Penalty_Neutral>
0.000425798

> <r_epik_State_Penalty>
-0

> <r_epik_Charging_Adjusted_Penalty>
0.0032725

> <i_epik_Tot_Q>
1

> <i_epik_Tot_abs_Q>
1

> <r_epik_Metal_State_Penalty>
-0

> <b_epik_Metal_Only>
0

> <s_lp_Force_Field>
OPLS_2005

> <r_lp_Energy>
64.7492

> <b_lp_Chiralities_Consistent>
1

> <s_lp_Variant>
AV-unprocessed.smi:290-26

> <Gold.Version>
5.8.1

> <Gold.Id.Protein>
6NUR|6NUR_protein|mol2

> <Gold.PLP.Fitness>
53.5497

> <Gold.PLP.PLP>
-41.1975

> <Gold.PLP.part.hbond>
-4.3392

> <Gold.PLP.part.metal>
0.0000

> <Gold.PLP.part.buried>
-6.6757

> <Gold.PLP.part.nonpolar>
-31.0086

> <Gold.PLP.part.repulsive>
0.0253

> <Gold.PLP.ligand.clash>
0.0000

> <Gold.PLP.ligand.torsion>
0.9117

> <Gold.PLP.Chemscore.Hbond>
4.6201

> <Gold.PLP.Chemscore.CHOScore>
0.0000

> <Gold.PLP.Chemscore.Metal>
0.0000

> <Gold.Chemscore.Hbonds>
donor molecule, donor type, donor heavy atom, donor atom, acceptor molecule, acceptor atom, score
      L1  H    18    59       P1  7948  2.00
      L1  H    22    54       P1 10747  0.72
      P1  H  7997  8009       L1    27  0.88
      P1  H 10752 10765       L1    25  0.12

> <Gold.PLP.Chemscore.Internal.Correction>
0.3152

> <Gold.Rescore>
     Score         DG    S(hbond)    S(metal)    S(lipo)     H(rot)  DE(clash)    DE(int)     intcor
     13.39     -17.76       2.82        0.00      97.71       3.35       1.43       2.94       ----

> <Gold.Chemscore.Fitness>
13.3875

> <Gold.Chemscore.DG>
-17.7586

> <Gold.Chemscore.ZeroCoef>
-5.4800

> <Gold.Chemscore.Hbond>
2.8226

> <Gold.Chemscore.Metal>
0.0000

> <Gold.Chemscore.Lipo>
97.7064

> <Gold.Chemscore.Internal_Hbond>
0.0000

> <Gold.Chemscore.DEClash>
1.4313

> <Gold.Chemscore.DEInternal>
2.9398

> <Gold.Chemscore.Rot>
3.3518

> <Gold.Chemscore.Internal.Correction>
   9.000000E+99

> <Gold.Chemscore.Hbonds>
donor molecule, donor type, donor heavy atom, donor atom, acceptor molecule, acceptor atom, score
      L1  H    18    59       P1  7948  0.88
      L1  H    22    54       P1 10747  0.70
      P1  H  7997  8009       L1    27  0.60
      P1  H 10752 10765       L1    25  0.01

> <Gold.Chemscore.Hbond.Weighted>
-9.4275

> <Gold.Chemscore.Metal.Weighted>
-0.0000

> <Gold.Chemscore.Lipo.Weighted>
-11.4316

> <Gold.Chemscore.Internal_Hbond.Weighted>
0.0000

> <Gold.Chemscore.DEClash.Weighted>
1.4313

> <Gold.Chemscore.DEInternal.Weighted>
2.9398

> <Gold.Chemscore.Rot.Weighted>
8.5806

> <Gold.Chemscore.Internal.Correction.Weighted>
   9.000000E+99

> <Gold.Protein.RotatedTorsions>
[ 6907 6896 6895 6894 ] final  -93.36 input  -60.11 | X-H torsion
[ 7974 7965 7964 7962 ] final  -97.61 input  175.53 | X-H torsion
[ 8008 7997 7996 7995 ] final -175.01 input   59.86 | X-H torsion
[ 10167 10162 10161 10158 ] final  155.60 input  -65.29 | X-H torsion
[ 10718 10713 10712 10709 ] final   16.45 input   66.30 | X-H torsion
[ 10763 10752 10751 10750 ] final -167.09 input  -60.55 | X-H torsion
[ 11005 11000 10999 10996 ] final  -30.20 input  -57.11 | X-H torsion

> <Gold.Protein.ActiveResidues>
 VAL166  LYS551  ARG553  GLY616  TRP617  ASP618  TYR619  PRO620  LYS621  CYS622 
 ASP623  PHE694  ASN695  SER759  ASP760  ASP761  ALA762  ILE779  LEU786  VAL792 
 PHE793  MET794  SER795  GLU796  ALA797  LYS798  CYS799  TRP800  GLU811  SER814 

> <Gold.Protein.RotatedAtoms>
  150.6921  134.1979  159.4310 H   0  0  0  0  0  0  0  0  0  0  0  0  # atno 6907 bound_to 6896
  151.9947  134.9958  160.0572 H   0  0  0  0  0  0  0  0  0  0  0  0  # atno 6908 bound_to 6896
  152.1635  133.4562  159.4909 H   0  0  0  0  0  0  0  0  0  0  0  0  # atno 6909 bound_to 6896
  145.3315  140.9442  143.2659 H   0  0  0  0  0  0  0  0  0  0  0  0  # atno 7974 bound_to 7965
  155.9772  140.1174  157.0759 H   0  0  0  0  0  0  0  0  0  0  0  0  # atno 8008 bound_to 7997
  154.4172  140.1151  156.5454 H   0  0  0  0  0  0  0  0  0  0  0  0  # atno 8009 bound_to 7997
  155.6519  140.3473  155.4753 H   0  0  0  0  0  0  0  0  0  0  0  0  # atno 8010 bound_to 7997
  139.4821  144.5084  151.8062 H   0  0  0  0  0  0  0  0  0  0  0  0  # atno 10167 bound_to 10162
  157.0680  130.6336  149.5800 H   0  0  0  0  0  0  0  0  0  0  0  0  # atno 10718 bound_to 10713
  154.6767  135.2948  154.9668 H   0  0  0  0  0  0  0  0  0  0  0  0  # atno 10763 bound_to 10752
  154.0677  135.6622  153.4824 H   0  0  0  0  0  0  0  0  0  0  0  0  # atno 10764 bound_to 10752
  153.0521  135.5167  154.7790 H   0  0  0  0  0  0  0  0  0  0  0  0  # atno 10765 bound_to 10752
  140.9362  133.7307  156.1008 H   0  0  0  0  0  0  0  0  0  0  0  0  # atno 11005 bound_to 11000
  144.8860  139.4838  143.6700 LP  0  0  0  0  0  0  0  0  0  0  0  0  # atno 17320 bound_to 7965
  146.3044  139.7530  142.9067 LP  0  0  0  0  0  0  0  0  0  0  0  0  # atno 17321 bound_to 7965
  140.4584  144.1756  150.5904 LP  0  0  0  0  0  0  0  0  0  0  0  0  # atno 17342 bound_to 10162
  140.4510  143.2486  151.9347 LP  0  0  0  0  0  0  0  0  0  0  0  0  # atno 17343 bound_to 10162
  155.9958  130.5026  150.7475 LP  0  0  0  0  0  0  0  0  0  0  0  0  # atno 17370 bound_to 10713
  157.4901  131.0910  151.0437 LP  0  0  0  0  0  0  0  0  0  0  0  0  # atno 17371 bound_to 10713
  140.7796  134.3741  157.5490 LP  0  0  0  0  0  0  0  0  0  0  0  0  # atno 17394 bound_to 11000
  139.8808  134.9073  156.2942 LP  0  0  0  0  0  0  0  0  0  0  0  0  # atno 17395 bound_to 11000

$$$$
