#       Name:                AV-unprocessed.smi:1720
#       Creating user name   scv26
#       Creation time:       Fri Mar 27 08:14:15 2020


#       File generated by GOLD software.
#

@<TRIPOS>MOLECULE
AV-unprocessed.smi:1720
    37    38     1
SMALL
NO_CHARGES


@<TRIPOS>ATOM
      1 ****        -1.8128  -1.2382  -2.0798 C.3            1 S1                 0.0000
      2 ****        -1.2690  -0.4321  -0.8902 C.3            1 S1                 0.0000
      3 ****         0.1867  -0.3661  -1.0018 N.am           1 S1                 0.0000
      4 ****         0.9446   0.7024  -0.7154 C.2            1 S1                 0.0000
      5 ****         0.4911   1.7774  -0.3224 O.2            1 S1                 0.0000
      6 ****         2.2471   0.4411  -0.9126 N.am           1 S1                 0.0000
      7 ****         3.3422   1.3180  -0.7070 C.2            1 S1                 0.0000
      8 ****         4.7049   0.9752  -0.9212 C.2            1 S1                 0.0000
      9 ****         5.5085   1.9930  -0.6470 N.2            1 S1                 0.0000
     10 ****         4.6715   2.9822  -0.2603 N.pl3          1 S1                 0.0000
     11 ****         3.3436   2.6168  -0.2812 C.2            1 S1                 0.0000
     12 ****        -1.6651  -1.0521   0.4661 C.3            1 S1                 0.0000
     13 ****        -3.1712  -1.1236   0.7215 C.3            1 S1                 0.0000
     14 ****        -3.2765  -1.1561   2.2378 C.3            1 S1                 0.0000
     15 ****        -1.9033  -0.6781   2.7170 C.3            1 S1                 0.0000
     16 ****        -1.2318  -0.2378   1.5452 O.3            1 S1                 0.0000
     17 ****         5.0178   3.8911   0.0122 H              1 S1                 0.0000
     18 ****        -2.9026  -1.2633  -2.0786 H              1 S1                 0.0000
     19 ****        -1.4561  -2.2685  -2.0581 H              1 S1                 0.0000
     20 ****        -1.5010  -0.7972  -3.0271 H              1 S1                 0.0000
     21 ****        -1.6878   0.5738  -0.9544 H              1 S1                 0.0000
     22 ****         0.6528  -1.2048  -1.3145 H              1 S1                 0.0000
     23 ****         2.4809  -0.4850  -1.2387 H              1 S1                 0.0000
     24 ****         5.1291   0.0411  -1.2590 H              1 S1                 0.0000
     25 ****         2.5523   3.2957   0.0004 H              1 S1                 0.0000
     26 ****        -1.2235  -2.0448   0.5753 H              1 S1                 0.0000
     27 ****        -3.6603  -0.2253   0.3421 H              1 S1                 0.0000
     28 ****        -3.6396  -1.9871   0.2480 H              1 S1                 0.0000
     29 ****        -4.0786  -0.5060   2.5884 H              1 S1                 0.0000
     30 ****        -3.4778  -2.1645   2.6009 H              1 S1                 0.0000
     31 ****        -1.9722   0.1239   3.4522 H              1 S1                 0.0000
     32 ****        -1.3444  -1.5018   3.1633 H              1 S1                 0.0000
     33 ****        -0.4951   1.8894  -0.2005 LP             1 S1                 0.0000
     34 ****         1.1090   2.5386  -0.1251 LP             1 S1                 0.0000
     35 ****         6.5060   2.0226  -0.7114 LP             1 S1                 0.0000
     36 ****        -1.4585   0.7188   1.3621 LP             1 S1                 0.0000
     37 ****        -0.2432  -0.3290   1.6648 LP             1 S1                 0.0000
@<TRIPOS>BOND
    1    1    2 1     
    2    1   18 1     
    3    1   19 1     
    4    1   20 1     
    5    2    3 1     
    6    2   12 1     
    7    2   21 1     
    8    3    4 am    
    9    3   22 1     
   10    4    5 2     
   11    4    6 am    
   12    6    7 1     
   13    6   23 1     
   14    7   11 2     
   15    7    8 1     
   16    8    9 2     
   17    8   24 1     
   18    9   10 1     
   19   10   17 1     
   20   10   11 1     
   21   11   25 1     
   22   12   16 1     
   23   12   13 1     
   24   12   26 1     
   25   13   14 1     
   26   13   27 1     
   27   13   28 1     
   28   14   15 1     
   29   14   29 1     
   30   14   30 1     
   31   15   16 1     
   32   15   31 1     
   33   15   32 1     
   34    5   33 1     
   35    5   34 1     
   36    9   35 1     
   37   16   36 1     
   38   16   37 1     
@<TRIPOS>SUBSTRUCTURE
      1 S1             1
@<TRIPOS>SET
LONE_PAIRS      STATIC     ATOMS    <user>   **** ""
5 33 34 35 36 37
DONOR_HYDROGENS      STATIC     ATOMS    <user>   **** ""
3 22 23 17
ATOM$BLUE        STATIC     ATOMS    COLORGROUP SYSTEM
5 33 34 35 36 37
ATOM$RED        STATIC     ATOMS    COLORGROUP SYSTEM
3 22 23 17
