#       Name:                AV-unprocessed.smi:114
#       Creating user name   scv26
#       Creation time:       Thu Mar 26 18:24:28 2020


#       File generated by GOLD software.
#

@<TRIPOS>MOLECULE
AV-unprocessed.smi:114
    43    45     1
SMALL
NO_CHARGES


@<TRIPOS>ATOM
      1 ****        -4.9915   0.4523   0.5652 N.pl3          1 S1                 0.0000
      2 ****        -3.7196   0.5751   0.1606 C.ar           1 S1                 0.0000
      3 ****        -3.3575   1.7054  -0.4878 N.ar           1 S1                 0.0000
      4 ****        -2.0969   1.8682  -0.9042 C.ar           1 S1                 0.0000
      5 ****        -1.8197   3.0274  -1.5458 F              1 S1                 0.0000
      6 ****        -1.0805   1.0124  -0.7595 N.ar           1 S1                 0.0000
      7 ****        -1.4350  -0.1335  -0.1071 C.ar           1 S1                 0.0000
      8 ****        -2.7386  -0.4220   0.3828 C.ar           1 S1                 0.0000
      9 ****        -2.7532  -1.6651   0.9957 N.2            1 S1                 0.0000
     10 ****        -1.5223  -2.0826   0.8803 C.2            1 S1                 0.0000
     11 ****        -0.6586  -1.2353   0.2193 N.pl3          1 S1                 0.0000
     12 ****         0.8099  -1.4815  -0.0044 C.3            1 S1                 0.0000
     13 ****         1.5200  -0.8383   1.0044 O.3            1 S1                 0.0000
     14 ****         1.9387   0.4416   0.5542 C.3            1 S1                 0.0000
     15 ****         3.1460   0.9118   1.3791 C.3            1 S1                 0.0000
     16 ****         2.7107   1.4688   2.6011 O.3            1 S1                 0.0000
     17 ****         2.2698   0.1932  -0.9257 C.3            1 S1                 0.0000
     18 ****         2.0183   1.3577  -1.6864 O.3            1 S1                 0.0000
     19 ****         1.3351  -0.9450  -1.3479 C.3            1 S1                 0.0000
     20 ****         2.0618  -1.9369  -2.0450 O.3            1 S1                 0.0000
     21 ****         0.9103  -2.5631   0.0979 H              1 S1                 0.0000
     22 ****         1.1143   1.1483   0.6512 H              1 S1                 0.0000
     23 ****         3.3152  -0.1024  -1.0326 H              1 S1                 0.0000
     24 ****         0.5132  -0.6198  -1.9847 H              1 S1                 0.0000
     25 ****        -5.2850  -0.3820   1.0530 H              1 S1                 0.0000
     26 ****        -5.6510   1.1964   0.3894 H              1 S1                 0.0000
     27 ****        -1.2057  -3.0340   1.2826 H              1 S1                 0.0000
     28 ****         3.8469   0.0962   1.5596 H              1 S1                 0.0000
     29 ****         3.6860   1.6905   0.8398 H              1 S1                 0.0000
     30 ****         3.4666   1.7729   3.0796 H              1 S1                 0.0000
     31 ****         2.1828   1.1625  -2.5962 H              1 S1                 0.0000
     32 ****         1.4704  -2.6391  -2.2699 H              1 S1                 0.0000
     33 ****        -4.0345   2.4218  -0.6564 LP             1 S1                 0.0000
     34 ****        -0.1557   1.1927  -1.0945 LP             1 S1                 0.0000
     35 ****        -3.5258  -2.1324   1.4256 LP             1 S1                 0.0000
     36 ****         2.3221  -1.3843   1.2463 LP             1 S1                 0.0000
     37 ****         0.9340  -0.7327   1.8079 LP             1 S1                 0.0000
     38 ****         2.2304   0.7738   3.1362 LP             1 S1                 0.0000
     39 ****         2.0946   2.2357   2.4214 LP             1 S1                 0.0000
     40 ****         2.6230   2.0949  -1.3848 LP             1 S1                 0.0000
     41 ****         1.0658   1.6386  -1.5684 LP             1 S1                 0.0000
     42 ****         2.7965  -2.2875  -1.4642 LP             1 S1                 0.0000
     43 ****         2.4531  -1.5456  -2.8778 LP             1 S1                 0.0000
@<TRIPOS>BOND
    1    1    2 1     
    2    1   25 1     
    3    1   26 1     
    4    2    8 ar    
    5    2    3 ar    
    6    3    4 ar    
    7    4    5 1     
    8    4    6 ar    
    9    6    7 ar    
   10    7   11 1     
   11    7    8 ar    
   12    8    9 1     
   13    9   10 2     
   14   10   11 1     
   15   10   27 1     
   16   11   12 1     
   17   12   21 1     
   18   12   19 1     
   19   12   13 1     
   20   13   14 1     
   21   14   22 1     
   22   14   15 1     
   23   14   17 1     
   24   15   16 1     
   25   15   28 1     
   26   15   29 1     
   27   16   30 1     
   28   17   23 1     
   29   17   18 1     
   30   17   19 1     
   31   18   31 1     
   32   19   24 1     
   33   19   20 1     
   34   20   32 1     
   35    3   33 1     
   36    6   34 1     
   37    9   35 1     
   38   13   36 1     
   39   13   37 1     
   40   16   38 1     
   41   16   39 1     
   42   18   40 1     
   43   18   41 1     
   44   20   42 1     
   45   20   43 1     
@<TRIPOS>SUBSTRUCTURE
      1 S1             1
@<TRIPOS>SET
LONE_PAIRS      STATIC     ATOMS    <user>   **** ""
11 33 34 35 36 37 38 39 40 41 42 43
DONOR_HYDROGENS      STATIC     ATOMS    <user>   **** ""
5 25 26 30 31 32
ATOM$BLUE        STATIC     ATOMS    COLORGROUP SYSTEM
11 33 34 35 36 37 38 39 40 41 42 43
ATOM$RED        STATIC     ATOMS    COLORGROUP SYSTEM
5 25 26 30 31 32
