AV-unprocessed.smi:1584|AV-procd|sdf|6365|dock4
  -GOLD-   22720 6593D 1   1.00000     0.00000
 Structure written by MMmdl.
 39 40  0  0  0  0  0  0  0  0  1 V2000
  152.9251  138.8700  155.0187 C   0  0  0  0  0  0  0  0  0  0  0  0
  151.4625  138.9762  155.4765 C   0  0  2  0  0  0  0  0  0  0  0  0
  150.4980  139.0513  154.2770 C   0  0  0  0  0  0  0  0  0  0  0  0
  149.1101  139.1635  154.6896 N   0  0  0  0  0  0  0  0  0  0  0  0
  147.9789  139.1748  153.9004 C   0  0  0  0  0  0  0  0  0  0  0  0
  146.9046  139.3078  154.7325 C   0  0  0  0  0  0  0  0  0  0  0  0
  147.4871  139.3690  156.0293 C   0  0  0  0  0  0  0  0  0  0  0  0
  148.8072  139.2811  156.0004 N   0  0  0  0  0  0  0  0  0  0  0  0
  151.2921  140.1526  156.3267 N   0  0  0  0  0  0  0  0  0  0  0  0
  152.0037  140.4283  157.4304 C   0  0  0  0  0  0  0  0  0  0  0  0
  152.9214  139.7161  157.8394 O   0  0  0  0  0  0  0  0  0  0  0  0
  151.6167  141.7062  158.1866 C   0  0  2  0  0  0  0  0  0  0  0  0
  151.7538  142.9363  157.2814 C   0  0  0  0  0  0  0  0  0  0  0  0
  151.2932  144.1921  158.0326 C   0  0  0  0  0  0  0  0  0  0  0  0
  151.8641  144.3130  159.3818 N   0  0  0  0  0  0  0  0  0  0  0  0
  151.7828  145.6522  159.9678 C   0  0  0  0  0  0  0  0  0  0  0  0
  152.3755  143.2803  160.0951 C   0  0  0  0  0  0  0  0  0  0  0  0
  152.7878  143.4142  161.2477 O   0  0  0  0  0  0  0  0  0  0  0  0
  152.4865  141.8901  159.4464 C   0  0  0  0  0  0  0  0  0  0  0  0
  153.0767  137.9883  154.3954 H   0  0  0  0  0  0  0  0  0  0  0  0
  153.6007  138.7878  155.8709 H   0  0  0  0  0  0  0  0  0  0  0  0
  153.2244  139.7433  154.4384 H   0  0  0  0  0  0  0  0  0  0  0  0
  151.2221  138.0772  156.0477 H   0  0  0  0  0  0  0  0  0  0  0  0
  150.7433  139.9013  153.6385 H   0  0  0  0  0  0  0  0  0  0  0  0
  150.5968  138.1587  153.6574 H   0  0  0  0  0  0  0  0  0  0  0  0
  148.0329  139.0921  152.8247 H   0  0  0  0  0  0  0  0  0  0  0  0
  145.8614  139.3550  154.4572 H   0  0  0  0  0  0  0  0  0  0  0  0
  146.9936  139.4733  156.9843 H   0  0  0  0  0  0  0  0  0  0  0  0
  150.5608  140.7979  156.0655 H   0  0  0  0  0  0  0  0  0  0  0  0
  150.5731  141.6228  158.4965 H   0  0  0  0  0  0  0  0  0  0  0  0
  152.7922  143.0612  156.9692 H   0  0  0  0  0  0  0  0  0  0  0  0
  151.1667  142.8157  156.3698 H   0  0  0  0  0  0  0  0  0  0  0  0
  151.5440  145.0724  157.4389 H   0  0  0  0  0  0  0  0  0  0  0  0
  150.2067  144.1800  158.1290 H   0  0  0  0  0  0  0  0  0  0  0  0
  151.2978  145.6241  160.9449 H   0  0  0  0  0  0  0  0  0  0  0  0
  151.2091  146.3394  159.3446 H   0  0  0  0  0  0  0  0  0  0  0  0
  152.7817  146.0722  160.0932 H   0  0  0  0  0  0  0  0  0  0  0  0
  152.2236  141.1344  160.1880 H   0  0  0  0  0  0  0  0  0  0  0  0
  153.5400  141.7345  159.2092 H   0  0  0  0  0  0  0  0  0  0  0  0
  1  2  1  0  0  0  0
  1 20  1  0  0  0  0
  1 21  1  0  0  0  0
  1 22  1  0  0  0  0
  2  3  1  0  0  0  0
  2  9  1  0  0  0  0
  2 23  1  0  0  0  0
  3  4  1  0  0  0  0
  3 24  1  0  0  0  0
  3 25  1  0  0  0  0
  4  8  1  0  0  0  0
  4  5  1  0  0  0  0
  5  6  2  0  0  0  0
  5 26  1  0  0  0  0
  6  7  1  0  0  0  0
  6 27  1  0  0  0  0
  7  8  2  0  0  0  0
  7 28  1  0  0  0  0
  9 10  1  0  0  0  0
  9 29  1  0  0  0  0
 10 11  2  0  0  0  0
 10 12  1  0  0  0  0
 12 19  1  0  0  0  0
 12 13  1  0  0  0  0
 12 30  1  0  0  0  0
 13 14  1  0  0  0  0
 13 31  1  0  0  0  0
 13 32  1  0  0  0  0
 14 15  1  0  0  0  0
 14 33  1  0  0  0  0
 14 34  1  0  0  0  0
 15 16  1  0  0  0  0
 15 17  1  0  0  0  0
 16 35  1  0  0  0  0
 16 36  1  0  0  0  0
 16 37  1  0  0  0  0
 17 18  2  0  0  0  0
 17 19  1  0  0  0  0
 19 38  1  0  0  0  0
 19 39  1  0  0  0  0
M  END
> <s_m_source_file>
AV-unprocessed.smi

> <i_m_source_file_index>
1584

> <i_lp_mmshare_version>
43012

> <i_f3d_flags>
0

> <s_epik_input>
bjFbY0hdW2NIXVtjSF1uMVtDSDJdW0NAQEhdKFtDSDNdKVtOSF1DKD1PKVtDQEBIXTJbQ0gyXVtDSDJdTihbQ0gzXSlDKD1PKVtDSDJdMg==

> <s_epik_cmdline>
J2VwaWtfcHl0aG9uJywgJy1waCcsICc3LjAnLCAnLXRuJywgJzgnLCAnLW1hJywgJzIwMCcsICctbWV0YWxfYmluZGluZycsICctaW1hZScsICc8aW5maWxlLm1hZT4nLCAnLW9tYWUnLCAnPG91dGZpbGUubWFlPic=

> <r_lp_tautomer_probability>
1

> <r_epik_Ionization_Penalty>
0.000299422

> <r_epik_Ionization_Penalty_Charging>
0

> <r_epik_Ionization_Penalty_Neutral>
0.000299422

> <r_epik_State_Penalty>
-0

> <r_epik_Charging_Adjusted_Penalty>
0

> <i_epik_Tot_Q>
0

> <i_epik_Tot_abs_Q>
0

> <r_epik_Metal_State_Penalty>
-0

> <b_epik_Metal_Only>
0

> <s_lp_Force_Field>
OPLS_2005

> <r_lp_Energy>
13.4891

> <b_lp_Chiralities_Consistent>
1

> <s_lp_Variant>
AV-unprocessed.smi:1584-1

> <Gold.Version>
5.8.1

> <Gold.Id.Protein>
6NUR|6NUR_protein|mol2

> <Gold.PLP.Fitness>
43.4058

> <Gold.PLP.PLP>
-37.4590

> <Gold.PLP.part.hbond>
-1.0000

> <Gold.PLP.part.metal>
0.0000

> <Gold.PLP.part.buried>
-2.8376

> <Gold.PLP.part.nonpolar>
-33.0379

> <Gold.PLP.part.repulsive>
0.1940

> <Gold.PLP.ligand.clash>
0.0000

> <Gold.PLP.ligand.torsion>
0.0402

> <Gold.PLP.Chemscore.Hbond>
1.0000

> <Gold.PLP.Chemscore.CHOScore>
1.0000

> <Gold.PLP.Chemscore.Metal>
0.0000

> <Gold.Chemscore.Hbonds>
donor molecule, donor type, donor heavy atom, donor atom, acceptor molecule, acceptor atom, score
      P1  H  7997  8008       L1    11  1.00
      L1  C     5    26       P1  7957  1.00

> <Gold.PLP.Chemscore.Internal.Correction>
0.0272

> <Gold.Rescore>
     Score         DG    S(hbond)    S(metal)    S(lipo)     H(rot)  DE(clash)    DE(int)     intcor
     12.96     -14.32       0.98        0.00      84.28       1.67       0.08       1.28       ----

> <Gold.Chemscore.Fitness>
12.9581

> <Gold.Chemscore.DG>
-14.3235

> <Gold.Chemscore.ZeroCoef>
-5.4800

> <Gold.Chemscore.Hbond>
0.9779

> <Gold.Chemscore.Metal>
0.0000

> <Gold.Chemscore.Lipo>
84.2839

> <Gold.Chemscore.Internal_Hbond>
0.0000

> <Gold.Chemscore.DEClash>
0.0844

> <Gold.Chemscore.DEInternal>
1.2810

> <Gold.Chemscore.Rot>
1.6734

> <Gold.Chemscore.Internal.Correction>
   9.000000E+99

> <Gold.Chemscore.Hbonds>
donor molecule, donor type, donor heavy atom, donor atom, acceptor molecule, acceptor atom, score
      P1  H  7997  8008       L1    11  0.78

> <Gold.Chemscore.Hbond.Weighted>
-3.2662

> <Gold.Chemscore.Metal.Weighted>
-0.0000

> <Gold.Chemscore.Lipo.Weighted>
-9.8612

> <Gold.Chemscore.Internal_Hbond.Weighted>
0.0000

> <Gold.Chemscore.DEClash.Weighted>
0.0844

> <Gold.Chemscore.DEInternal.Weighted>
1.2810

> <Gold.Chemscore.Rot.Weighted>
4.2840

> <Gold.Chemscore.Internal.Correction.Weighted>
   9.000000E+99

> <Gold.Protein.RotatedTorsions>
[ 6907 6896 6895 6894 ] final  111.37 input  -60.11 | X-H torsion
[ 7974 7965 7964 7962 ] final  164.43 input  175.53 | X-H torsion
[ 8008 7997 7996 7995 ] final  -78.32 input   59.86 | X-H torsion
[ 10167 10162 10161 10158 ] final  -48.92 input  -65.29 | X-H torsion
[ 10718 10713 10712 10709 ] final   15.07 input   66.30 | X-H torsion
[ 10763 10752 10751 10750 ] final  103.04 input  -60.55 | X-H torsion
[ 11005 11000 10999 10996 ] final -167.17 input  -57.11 | X-H torsion

> <Gold.Protein.ActiveResidues>
 VAL166  LYS551  ARG553  GLY616  TRP617  ASP618  TYR619  PRO620  LYS621  CYS622 
 ASP623  PHE694  ASN695  SER759  ASP760  ASP761  ALA762  ILE779  LEU786  VAL792 
 PHE793  MET794  SER795  GLU796  ALA797  LYS798  CYS799  TRP800  GLU811  SER814 

> <Gold.Protein.RotatedAtoms>
  152.4972  133.8667  159.7277 H   0  0  0  0  0  0  0  0  0  0  0  0  # atno 6907 bound_to 6896
  150.9164  133.6925  159.2849 H   0  0  0  0  0  0  0  0  0  0  0  0  # atno 6908 bound_to 6896
  151.4316  135.1014  159.9696 H   0  0  0  0  0  0  0  0  0  0  0  0  # atno 6909 bound_to 6896
  144.7545  139.8325  143.6354 H   0  0  0  0  0  0  0  0  0  0  0  0  # atno 7974 bound_to 7965
  154.5678  140.0696  156.8919 H   0  0  0  0  0  0  0  0  0  0  0  0  # atno 8008 bound_to 7997
  155.2690  140.3364  155.4248 H   0  0  0  0  0  0  0  0  0  0  0  0  # atno 8009 bound_to 7997
  156.2094  140.1753  156.7713 H   0  0  0  0  0  0  0  0  0  0  0  0  # atno 8010 bound_to 7997
  140.6709  143.2719  151.4140 H   0  0  0  0  0  0  0  0  0  0  0  0  # atno 10167 bound_to 10162
  157.0482  130.6259  149.5763 H   0  0  0  0  0  0  0  0  0  0  0  0  # atno 10718 bound_to 10713
  153.3474  135.3990  155.1620 H   0  0  0  0  0  0  0  0  0  0  0  0  # atno 10763 bound_to 10752
  154.8656  135.3648  154.5266 H   0  0  0  0  0  0  0  0  0  0  0  0  # atno 10764 bound_to 10752
  153.5715  135.7079  153.5562 H   0  0  0  0  0  0  0  0  0  0  0  0  # atno 10765 bound_to 10752
  140.5563  134.5378  157.5133 H   0  0  0  0  0  0  0  0  0  0  0  0  # atno 11005 bound_to 11000
  146.1538  139.4630  143.0031 LP  0  0  0  0  0  0  0  0  0  0  0  0  # atno 17320 bound_to 7965
  145.6826  141.0187  143.1598 LP  0  0  0  0  0  0  0  0  0  0  0  0  # atno 17321 bound_to 7965
  139.5977  144.1362  152.2163 LP  0  0  0  0  0  0  0  0  0  0  0  0  # atno 17342 bound_to 10162
  140.0736  144.5759  150.7173 LP  0  0  0  0  0  0  0  0  0  0  0  0  # atno 17343 bound_to 10162
  156.0016  130.5096  150.7683 LP  0  0  0  0  0  0  0  0  0  0  0  0  # atno 17370 bound_to 10713
  157.5051  131.0921  151.0267 LP  0  0  0  0  0  0  0  0  0  0  0  0  # atno 17371 bound_to 10713
  139.9430  134.7752  156.0631 LP  0  0  0  0  0  0  0  0  0  0  0  0  # atno 17394 bound_to 11000
  141.1142  133.6633  156.3052 LP  0  0  0  0  0  0  0  0  0  0  0  0  # atno 17395 bound_to 11000

$$$$
