AV-unprocessed.smi:1413|AV-procd|sdf|5757|dock7
  -GOLD-   22720 5393D 1   1.00000     0.00000
 Structure written by MMmdl.
 53 55  0  0  0  0  0  0  0  0  1 V2000
  153.1418  142.2235  161.6230 C   0  0  0  0  0  0  0  0  0  0  0  0
  152.8757  142.5185  160.1431 C   0  0  1  0  0  0  0  0  0  0  0  0
  152.2344  141.3188  159.4231 C   0  0  0  0  0  0  0  0  0  0  0  0
  151.9016  141.6808  158.0529 N   0  0  0  0  0  0  0  0  0  0  0  0
  151.4652  140.5979  157.2786 C   0  0  0  0  0  0  0  0  0  0  0  0
  151.0709  140.7614  155.9311 C   0  0  0  0  0  0  0  0  0  0  0  0
  150.6282  139.6330  155.2157 C   0  0  0  0  0  0  0  0  0  0  0  0
  150.5823  138.3822  155.8631 C   0  0  0  0  0  0  0  0  0  0  0  0
  150.1380  137.2587  155.1148 N   0  0  0  0  0  0  0  0  0  0  0  0
  150.0136  135.9830  155.5192 C   0  0  0  0  0  0  0  0  0  0  0  0
  150.2773  135.5673  156.6471 O   0  0  0  0  0  0  0  0  0  0  0  0
  149.5409  135.2088  154.5317 N   0  0  0  0  0  0  0  0  0  0  0  0
  149.2874  133.7716  154.6159 C   0  0  1  0  0  0  0  0  0  0  0  0
  148.4442  133.4899  155.8697 C   0  0  0  0  0  0  0  0  0  0  0  0
  148.5995  133.2979  153.3206 C   0  0  2  0  0  0  0  0  0  0  0  0
  147.2192  133.9095  153.0714 C   0  0  0  0  0  0  0  0  0  0  0  0
  146.5742  132.8660  152.1894 C   0  0  0  0  0  0  0  0  0  0  0  0
  147.0920  131.5740  152.8117 C   0  0  0  0  0  0  0  0  0  0  0  0
  148.3657  131.8906  153.3669 O   0  0  0  0  0  0  0  0  0  0  0  0
  151.0177  138.3212  157.2095 C   0  0  0  0  0  0  0  0  0  0  0  0
  151.4447  139.3997  157.9008 N   0  0  0  0  0  0  0  0  0  0  0  0
  151.0247  142.8417  157.9799 C   0  0  0  0  0  0  0  0  0  0  0  0
  151.6386  144.0358  158.7382 C   0  0  2  0  0  0  0  0  0  0  0  0
  152.8107  144.6992  157.9931 C   0  0  0  0  0  0  0  0  0  0  0  0
  151.9983  143.6430  160.0661 O   0  0  0  0  0  0  0  0  0  0  0  0
  153.8148  141.3736  161.7390 H   0  0  0  0  0  0  0  0  0  0  0  0
  152.2167  141.9934  162.1522 H   0  0  0  0  0  0  0  0  0  0  0  0
  153.6023  143.0814  162.1138 H   0  0  0  0  0  0  0  0  0  0  0  0
  153.8278  142.7624  159.6712 H   0  0  0  0  0  0  0  0  0  0  0  0
  152.9197  140.4700  159.4228 H   0  0  0  0  0  0  0  0  0  0  0  0
  151.3320  141.0061  159.9505 H   0  0  0  0  0  0  0  0  0  0  0  0
  151.1023  141.7292  155.4526 H   0  0  0  0  0  0  0  0  0  0  0  0
  150.3205  139.7321  154.1851 H   0  0  0  0  0  0  0  0  0  0  0  0
  149.8106  137.4619  154.1818 H   0  0  0  0  0  0  0  0  0  0  0  0
  149.3527  135.6453  153.6414 H   0  0  0  0  0  0  0  0  0  0  0  0
  150.2281  133.2276  154.7179 H   0  0  0  0  0  0  0  0  0  0  0  0
  148.2704  132.4218  156.0008 H   0  0  0  0  0  0  0  0  0  0  0  0
  147.4721  133.9812  155.8149 H   0  0  0  0  0  0  0  0  0  0  0  0
  148.9479  133.8482  156.7681 H   0  0  0  0  0  0  0  0  0  0  0  0
  149.2379  133.4966  152.4577 H   0  0  0  0  0  0  0  0  0  0  0  0
  146.6627  134.0015  154.0056 H   0  0  0  0  0  0  0  0  0  0  0  0
  147.2664  134.8924  152.6019 H   0  0  0  0  0  0  0  0  0  0  0  0
  145.4858  132.9269  152.1746 H   0  0  0  0  0  0  0  0  0  0  0  0
  146.9380  132.9640  151.1657 H   0  0  0  0  0  0  0  0  0  0  0  0
  146.4349  131.2499  153.6194 H   0  0  0  0  0  0  0  0  0  0  0  0
  147.1638  130.7628  152.0867 H   0  0  0  0  0  0  0  0  0  0  0  0
  151.0501  137.3936  157.7592 H   0  0  0  0  0  0  0  0  0  0  0  0
  150.8395  143.1069  156.9380 H   0  0  0  0  0  0  0  0  0  0  0  0
  150.0593  142.5906  158.4214 H   0  0  0  0  0  0  0  0  0  0  0  0
  150.8633  144.7948  158.8447 H   0  0  0  0  0  0  0  0  0  0  0  0
  152.4808  145.0984  157.0338 H   0  0  0  0  0  0  0  0  0  0  0  0
  153.6212  143.9999  157.7895 H   0  0  0  0  0  0  0  0  0  0  0  0
  153.2200  145.5273  158.5718 H   0  0  0  0  0  0  0  0  0  0  0  0
  1  2  1  0  0  0  0
  1 26  1  0  0  0  0
  1 27  1  0  0  0  0
  1 28  1  0  0  0  0
  2 25  1  0  0  0  0
  2  3  1  0  0  0  0
  2 29  1  0  0  0  0
  3  4  1  0  0  0  0
  3 30  1  0  0  0  0
  3 31  1  0  0  0  0
  4  5  1  0  0  0  0
  4 22  1  0  0  0  0
  5 21  1  0  0  0  0
  5  6  2  0  0  0  0
  6  7  1  0  0  0  0
  6 32  1  0  0  0  0
  7  8  2  0  0  0  0
  7 33  1  0  0  0  0
  8  9  1  0  0  0  0
  8 20  1  0  0  0  0
  9 10  1  0  0  0  0
  9 34  1  0  0  0  0
 10 11  2  0  0  0  0
 10 12  1  0  0  0  0
 12 13  1  0  0  0  0
 12 35  1  0  0  0  0
 13 14  1  0  0  0  0
 13 15  1  0  0  0  0
 13 36  1  0  0  0  0
 14 37  1  0  0  0  0
 14 38  1  0  0  0  0
 14 39  1  0  0  0  0
 15 19  1  0  0  0  0
 15 16  1  0  0  0  0
 15 40  1  0  0  0  0
 16 17  1  0  0  0  0
 16 41  1  0  0  0  0
 16 42  1  0  0  0  0
 17 18  1  0  0  0  0
 17 43  1  0  0  0  0
 17 44  1  0  0  0  0
 18 19  1  0  0  0  0
 18 45  1  0  0  0  0
 18 46  1  0  0  0  0
 20 21  2  0  0  0  0
 20 47  1  0  0  0  0
 22 23  1  0  0  0  0
 22 48  1  0  0  0  0
 22 49  1  0  0  0  0
 23 24  1  0  0  0  0
 23 25  1  0  0  0  0
 23 50  1  0  0  0  0
 24 51  1  0  0  0  0
 24 52  1  0  0  0  0
 24 53  1  0  0  0  0
M  END
> <s_m_source_file>
AV-unprocessed.smi

> <i_m_source_file_index>
1413

> <i_lp_mmshare_version>
43012

> <i_f3d_flags>
0

> <s_epik_input>
W0NIM11bQ0BASF0xW0NIMl1OKFtDSDJdW0NASF0oTzEpW0NIM10pYzJbY0hdW2NIXWMoW2NIXW4yKVtOSF1DKD1PKVtOSF1bQ0BIXShbQ0gzXSlbQ0BASF0zW0NIMl1bQ0gyXVtDSDJdTzM=

> <s_epik_cmdline>
J2VwaWtfcHl0aG9uJywgJy1waCcsICc3LjAnLCAnLXRuJywgJzgnLCAnLW1hJywgJzIwMCcsICctbWV0YWxfYmluZGluZycsICctaW1hZScsICc8aW5maWxlLm1hZT4nLCAnLW9tYWUnLCAnPG91dGZpbGUubWFlPic=

> <r_lp_tautomer_probability>
1

> <r_epik_Ionization_Penalty>
0.00271172

> <r_epik_Ionization_Penalty_Charging>
0

> <r_epik_Ionization_Penalty_Neutral>
0.00271172

> <r_epik_State_Penalty>
0.00186503

> <r_epik_Charging_Adjusted_Penalty>
0.00186503

> <i_epik_Tot_Q>
0

> <i_epik_Tot_abs_Q>
0

> <r_epik_Metal_State_Penalty>
-0

> <b_epik_Metal_Only>
0

> <s_lp_Force_Field>
OPLS_2005

> <r_lp_Energy>
38.2473

> <b_lp_Chiralities_Consistent>
1

> <s_lp_Variant>
AV-unprocessed.smi:1413-10

> <Gold.Version>
5.8.1

> <Gold.Id.Protein>
6NUR|6NUR_protein|mol2

> <Gold.PLP.Fitness>
47.0980

> <Gold.PLP.PLP>
-44.3616

> <Gold.PLP.part.hbond>
-1.0000

> <Gold.PLP.part.metal>
0.0000

> <Gold.PLP.part.buried>
-5.6305

> <Gold.PLP.part.nonpolar>
-37.7743

> <Gold.PLP.part.repulsive>
0.2172

> <Gold.PLP.ligand.clash>
0.0000

> <Gold.PLP.ligand.torsion>
0.1926

> <Gold.PLP.Chemscore.Hbond>
1.0000

> <Gold.PLP.Chemscore.CHOScore>
0.0000

> <Gold.PLP.Chemscore.Metal>
0.0000

> <Gold.Chemscore.Hbonds>
donor molecule, donor type, donor heavy atom, donor atom, acceptor molecule, acceptor atom, score
      L1  H    12    35       P1  7948  1.00

> <Gold.PLP.Chemscore.Internal.Correction>
0.1216

> <Gold.Rescore>
     Score         DG    S(hbond)    S(metal)    S(lipo)     H(rot)  DE(clash)    DE(int)     intcor
     16.54     -19.06       0.90        0.00     119.75       1.35       0.14       2.39       ----

> <Gold.Chemscore.Fitness>
16.5370

> <Gold.Chemscore.DG>
-19.0622

> <Gold.Chemscore.ZeroCoef>
-5.4800

> <Gold.Chemscore.Hbond>
0.9042

> <Gold.Chemscore.Metal>
0.0000

> <Gold.Chemscore.Lipo>
119.7487

> <Gold.Chemscore.Internal_Hbond>
0.0000

> <Gold.Chemscore.DEClash>
0.1357

> <Gold.Chemscore.DEInternal>
2.3895

> <Gold.Chemscore.Rot>
1.3471

> <Gold.Chemscore.Internal.Correction>
   9.000000E+99

> <Gold.Chemscore.Hbonds>
donor molecule, donor type, donor heavy atom, donor atom, acceptor molecule, acceptor atom, score
      L1  H    12    35       P1  7948  0.45

> <Gold.Chemscore.Hbond.Weighted>
-3.0201

> <Gold.Chemscore.Metal.Weighted>
-0.0000

> <Gold.Chemscore.Lipo.Weighted>
-14.0106

> <Gold.Chemscore.Internal_Hbond.Weighted>
0.0000

> <Gold.Chemscore.DEClash.Weighted>
0.1357

> <Gold.Chemscore.DEInternal.Weighted>
2.3895

> <Gold.Chemscore.Rot.Weighted>
3.4485

> <Gold.Chemscore.Internal.Correction.Weighted>
   9.000000E+99

> <Gold.Protein.RotatedTorsions>
[ 6907 6896 6895 6894 ] final   28.23 input  -60.11 | X-H torsion
[ 7974 7965 7964 7962 ] final   80.37 input  175.53 | X-H torsion
[ 8008 7997 7996 7995 ] final -166.95 input   59.86 | X-H torsion
[ 10167 10162 10161 10158 ] final   -2.94 input  -65.29 | X-H torsion
[ 10718 10713 10712 10709 ] final  -15.18 input   66.30 | X-H torsion
[ 10763 10752 10751 10750 ] final -175.48 input  -60.55 | X-H torsion
[ 11005 11000 10999 10996 ] final  102.47 input  -57.11 | X-H torsion

> <Gold.Protein.ActiveResidues>
 VAL166  LYS551  ARG553  GLY616  TRP617  ASP618  TYR619  PRO620  LYS621  CYS622 
 ASP623  PHE694  ASN695  SER759  ASP760  ASP761  ALA762  ILE779  LEU786  VAL792 
 PHE793  MET794  SER795  GLU796  ALA797  LYS798  CYS799  TRP800  GLU811  SER814 

> <Gold.Protein.RotatedAtoms>
  152.0139  134.9861  160.0568 H   0  0  0  0  0  0  0  0  0  0  0  0  # atno 6907 bound_to 6896
  152.1402  133.4455  159.4771 H   0  0  0  0  0  0  0  0  0  0  0  0  # atno 6908 bound_to 6896
  150.6864  134.2232  159.4448 H   0  0  0  0  0  0  0  0  0  0  0  0  # atno 6909 bound_to 6896
  145.6521  139.2450  143.1970 H   0  0  0  0  0  0  0  0  0  0  0  0  # atno 7974 bound_to 7965
  155.8709  140.0993  157.1550 H   0  0  0  0  0  0  0  0  0  0  0  0  # atno 8008 bound_to 7997
  154.3997  140.1347  156.4140 H   0  0  0  0  0  0  0  0  0  0  0  0  # atno 8009 bound_to 7997
  155.7751  140.3460  155.5270 H   0  0  0  0  0  0  0  0  0  0  0  0  # atno 8010 bound_to 7997
  140.6871  143.6599  150.8276 H   0  0  0  0  0  0  0  0  0  0  0  0  # atno 10167 bound_to 10162
  156.6055  130.4835  149.6222 H   0  0  0  0  0  0  0  0  0  0  0  0  # atno 10718 bound_to 10713
  154.5839  135.2839  155.0705 H   0  0  0  0  0  0  0  0  0  0  0  0  # atno 10763 bound_to 10752
  154.2031  135.6421  153.5096 H   0  0  0  0  0  0  0  0  0  0  0  0  # atno 10764 bound_to 10752
  153.0097  135.5473  154.6502 H   0  0  0  0  0  0  0  0  0  0  0  0  # atno 10765 bound_to 10752
  139.8778  134.9225  156.5063 H   0  0  0  0  0  0  0  0  0  0  0  0  # atno 11005 bound_to 11000
  146.1195  140.7327  142.9464 LP  0  0  0  0  0  0  0  0  0  0  0  0  # atno 17320 bound_to 7965
  144.7119  140.4069  143.7074 LP  0  0  0  0  0  0  0  0  0  0  0  0  # atno 17321 bound_to 7965
  140.0307  143.5447  152.2761 LP  0  0  0  0  0  0  0  0  0  0  0  0  # atno 17342 bound_to 10162
  139.6238  144.7634  151.2682 LP  0  0  0  0  0  0  0  0  0  0  0  0  # atno 17343 bound_to 10162
  156.2434  130.6864  151.1577 LP  0  0  0  0  0  0  0  0  0  0  0  0  # atno 17370 bound_to 10713
  157.7268  131.0643  150.5892 LP  0  0  0  0  0  0  0  0  0  0  0  0  # atno 17371 bound_to 10713
  140.8553  133.8101  155.9210 LP  0  0  0  0  0  0  0  0  0  0  0  0  # atno 17394 bound_to 11000
  140.9104  134.2268  157.4989 LP  0  0  0  0  0  0  0  0  0  0  0  0  # atno 17395 bound_to 11000

$$$$
