AV-unprocessed.smi:2251|AV-procd|sdf|9102|dock9
  -GOLD-   2272012303D 1   1.00000     0.00000
 Structure written by MMmdl.
 45 46  0  0  0  0  0  0  0  0  2 V2000
  147.7113  136.2675  162.6063 C   0  0  0  0  0  0  0  0  0  0  0  0
  147.6182  136.7239  161.1546 C   0  0  0  0  0  0  0  0  0  0  0  0
  146.7427  137.5179  160.8110 O   0  0  0  0  0  0  0  0  0  0  0  0
  148.5304  136.2154  160.3115 N   0  0  0  0  0  0  0  0  0  0  0  0
  148.6279  136.5358  158.8900 C   0  0  0  0  0  0  0  0  0  0  0  0
  148.5432  138.0423  158.6199 C   0  0  0  0  0  0  0  0  0  0  0  0
  147.4520  138.6107  158.5681 O   0  0  0  0  0  0  0  0  0  0  0  0
  149.7105  138.6836  158.4732 N   0  0  0  0  0  0  0  0  0  0  0  0
  149.8393  140.1133  158.2085 C   0  0  0  0  0  0  0  0  0  0  0  0
  151.0947  140.4486  157.3525 C   0  0  0  0  0  0  0  0  0  0  0  0
  151.0413  139.6116  156.0536 C   0  0  0  0  0  0  0  0  0  0  0  0
  152.1853  138.8827  155.6399 C   0  0  0  0  0  0  0  0  0  0  0  0
  152.1445  138.1067  154.4646 C   0  0  0  0  0  0  0  0  0  0  0  0
  151.0123  138.0545  153.7339 N   0  3  0  0  0  0  0  0  0  0  0  0
  149.8922  138.7208  154.0816 C   0  0  0  0  0  0  0  0  0  0  0  0
  149.8755  139.5121  155.2482 C   0  0  0  0  0  0  0  0  0  0  0  0
  151.1517  141.9806  157.0546 C   0  0  0  0  0  0  0  0  0  0  0  0
  151.4024  142.8593  158.2934 C   0  0  0  0  0  0  0  0  0  0  0  0
  152.6863  142.4402  159.0183 C   0  0  0  0  0  0  0  0  0  0  0  0
  152.6511  140.9503  159.3761 C   0  0  0  0  0  0  0  0  0  0  0  0
  152.3878  140.0763  158.1355 C   0  0  0  0  0  0  0  0  0  0  0  0
  147.7181  135.1788  162.6662 H   0  0  0  0  0  0  0  0  0  0  0  0
  146.8620  136.6353  163.1831 H   0  0  0  0  0  0  0  0  0  0  0  0
  148.6254  136.6459  163.0647 H   0  0  0  0  0  0  0  0  0  0  0  0
  149.2171  135.5752  160.6833 H   0  0  0  0  0  0  0  0  0  0  0  0
  149.5868  136.1722  158.5208 H   0  0  0  0  0  0  0  0  0  0  0  0
  147.8551  136.0040  158.3315 H   0  0  0  0  0  0  0  0  0  0  0  0
  150.5625  138.1450  158.5300 H   0  0  0  0  0  0  0  0  0  0  0  0
  148.9230  140.4579  157.7306 H   0  0  0  0  0  0  0  0  0  0  0  0
  149.8875  140.6379  159.1640 H   0  0  0  0  0  0  0  0  0  0  0  0
  153.0965  138.9061  156.2190 H   0  0  0  0  0  0  0  0  0  0  0  0
  152.9774  137.5281  154.0925 H   0  0  0  0  0  0  0  0  0  0  0  0
  149.0451  138.6002  153.4220 H   0  0  0  0  0  0  0  0  0  0  0  0
  148.9589  140.0233  155.4975 H   0  0  0  0  0  0  0  0  0  0  0  0
  151.9658  142.1816  156.3567 H   0  0  0  0  0  0  0  0  0  0  0  0
  150.2379  142.3166  156.5633 H   0  0  0  0  0  0  0  0  0  0  0  0
  151.4811  143.9037  157.9896 H   0  0  0  0  0  0  0  0  0  0  0  0
  150.5543  142.8105  158.9758 H   0  0  0  0  0  0  0  0  0  0  0  0
  153.5487  142.6425  158.3817 H   0  0  0  0  0  0  0  0  0  0  0  0
  152.8197  143.0388  159.9200 H   0  0  0  0  0  0  0  0  0  0  0  0
  153.5991  140.6623  159.8316 H   0  0  0  0  0  0  0  0  0  0  0  0
  151.8883  140.7704  160.1338 H   0  0  0  0  0  0  0  0  0  0  0  0
  152.3656  139.0331  158.4503 H   0  0  0  0  0  0  0  0  0  0  0  0
  153.2458  140.1675  157.4675 H   0  0  0  0  0  0  0  0  0  0  0  0
  151.0021  137.4865  152.8860 H   0  0  0  0  0  0  0  0  0  0  0  0
  1  2  1  0  0  0  0
  1 22  1  0  0  0  0
  1 23  1  0  0  0  0
  1 24  1  0  0  0  0
  2  3  2  0  0  0  0
  2  4  1  0  0  0  0
  4  5  1  0  0  0  0
  4 25  1  0  0  0  0
  5  6  1  0  0  0  0
  5 26  1  0  0  0  0
  5 27  1  0  0  0  0
  6  7  2  0  0  0  0
  6  8  1  0  0  0  0
  8  9  1  0  0  0  0
  8 28  1  0  0  0  0
  9 10  1  0  0  0  0
  9 29  1  0  0  0  0
  9 30  1  0  0  0  0
 10 21  1  0  0  0  0
 10 11  1  0  0  0  0
 10 17  1  0  0  0  0
 11 16  1  0  0  0  0
 11 12  2  0  0  0  0
 12 13  1  0  0  0  0
 12 31  1  0  0  0  0
 13 14  2  0  0  0  0
 13 32  1  0  0  0  0
 14 15  1  0  0  0  0
 14 45  1  0  0  0  0
 15 16  2  0  0  0  0
 15 33  1  0  0  0  0
 16 34  1  0  0  0  0
 17 18  1  0  0  0  0
 17 35  1  0  0  0  0
 17 36  1  0  0  0  0
 18 19  1  0  0  0  0
 18 37  1  0  0  0  0
 18 38  1  0  0  0  0
 19 20  1  0  0  0  0
 19 39  1  0  0  0  0
 19 40  1  0  0  0  0
 20 21  1  0  0  0  0
 20 41  1  0  0  0  0
 20 42  1  0  0  0  0
 21 43  1  0  0  0  0
 21 44  1  0  0  0  0
M  CHG  1  14   1
M  END
> <s_m_source_file>
AV-unprocessed.smi

> <i_m_source_file_index>
2251

> <i_lp_mmshare_version>
43012

> <i_f3d_flags>
0

> <s_epik_input>
W0NIM11DKD1PKVtOSF1bQ0gyXUMoPU8pW05IXVtDSDJdQzEoW0NIMl1bQ0gyXVtDSDJdW0NIMl1bQ0gyXTEpYzJbY0hdW2NIXW5bY0hdW2NIXTI=

> <s_epik_cmdline>
J2VwaWtfcHl0aG9uJywgJy1waCcsICc3LjAnLCAnLXRuJywgJzgnLCAnLW1hJywgJzIwMCcsICctbWV0YWxfYmluZGluZycsICctaW1hZScsICc8aW5maWxlLm1hZT4nLCAnLW9tYWUnLCAnPG91dGZpbGUubWFlPic=

> <r_epik_Ionization_Penalty>
1.36815

> <r_epik_Ionization_Penalty_Charging>
1.36815

> <r_epik_Ionization_Penalty_Neutral>
3.04412e-07

> <r_epik_State_Penalty>
1.44763

> <r_epik_Charging_Adjusted_Penalty>
2.81578

> <i_epik_Tot_Q>
1

> <i_epik_Tot_abs_Q>
1

> <r_epik_Metal_State_Penalty>
1.50443

> <b_epik_Metal_Only>
0

> <s_lp_Force_Field>
OPLS_2005

> <r_lp_Energy>
22.2864

> <b_lp_Chiralities_Consistent>
1

> <s_lp_Variant>
AV-unprocessed.smi:2251-2

> <Gold.Version>
5.8.1

> <Gold.Id.Protein>
6NUR|6NUR_protein|mol2

> <Gold.PLP.Fitness>
44.7288

> <Gold.PLP.PLP>
-37.7391

> <Gold.PLP.part.hbond>
-3.2834

> <Gold.PLP.part.metal>
0.0000

> <Gold.PLP.part.buried>
-4.0974

> <Gold.PLP.part.nonpolar>
-31.8676

> <Gold.PLP.part.repulsive>
0.4887

> <Gold.PLP.ligand.clash>
0.0000

> <Gold.PLP.ligand.torsion>
1.0158

> <Gold.PLP.Chemscore.Hbond>
3.0000

> <Gold.PLP.Chemscore.CHOScore>
0.0000

> <Gold.PLP.Chemscore.Metal>
0.0000

> <Gold.Chemscore.Hbonds>
donor molecule, donor type, donor heavy atom, donor atom, acceptor molecule, acceptor atom, score
      L1  H    14    45       P1  7949  1.89
      P1  H  6934  6947       L1     3  1.00

> <Gold.PLP.Chemscore.Internal.Correction>
0.0213

> <Gold.Rescore>
     Score         DG    S(hbond)    S(metal)    S(lipo)     H(rot)  DE(clash)    DE(int)     intcor
     13.27     -17.29       1.84        0.00      94.14       2.10       0.11       3.91       ----

> <Gold.Chemscore.Fitness>
13.2703

> <Gold.Chemscore.DG>
-17.2863

> <Gold.Chemscore.ZeroCoef>
-5.4800

> <Gold.Chemscore.Hbond>
1.8430

> <Gold.Chemscore.Metal>
0.0000

> <Gold.Chemscore.Lipo>
94.1396

> <Gold.Chemscore.Internal_Hbond>
0.0000

> <Gold.Chemscore.DEClash>
0.1073

> <Gold.Chemscore.DEInternal>
3.9087

> <Gold.Chemscore.Rot>
2.0952

> <Gold.Chemscore.Internal.Correction>
   9.000000E+99

> <Gold.Chemscore.Hbonds>
donor molecule, donor type, donor heavy atom, donor atom, acceptor molecule, acceptor atom, score
      L1  H    14    45       P1  7949  0.27
      P1  H  6934  6947       L1     3  0.85

> <Gold.Chemscore.Hbond.Weighted>
-6.1556

> <Gold.Chemscore.Metal.Weighted>
-0.0000

> <Gold.Chemscore.Lipo.Weighted>
-11.0143

> <Gold.Chemscore.Internal_Hbond.Weighted>
0.0000

> <Gold.Chemscore.DEClash.Weighted>
0.1073

> <Gold.Chemscore.DEInternal.Weighted>
3.9087

> <Gold.Chemscore.Rot.Weighted>
5.3636

> <Gold.Chemscore.Internal.Correction.Weighted>
   9.000000E+99

> <Gold.Protein.RotatedTorsions>
[ 6907 6896 6895 6894 ] final  150.21 input  -60.11 | X-H torsion
[ 7974 7965 7964 7962 ] final  147.66 input  175.53 | X-H torsion
[ 8008 7997 7996 7995 ] final   89.13 input   59.86 | X-H torsion
[ 10167 10162 10161 10158 ] final   92.04 input  -65.29 | X-H torsion
[ 10718 10713 10712 10709 ] final  -19.34 input   66.30 | X-H torsion
[ 10763 10752 10751 10750 ] final  -60.16 input  -60.55 | X-H torsion
[ 11005 11000 10999 10996 ] final  -67.11 input  -57.11 | X-H torsion

> <Gold.Protein.ActiveResidues>
 VAL166  LYS551  ARG553  GLY616  TRP617  ASP618  TYR619  PRO620  LYS621  CYS622 
 ASP623  PHE694  ASN695  SER759  ASP760  ASP761  ALA762  ILE779  LEU786  VAL792 
 PHE793  MET794  SER795  GLU796  ALA797  LYS798  CYS799  TRP800  GLU811  SER814 

> <Gold.Protein.RotatedAtoms>
  152.1175  133.4335  159.4659 H   0  0  0  0  0  0  0  0  0  0  0  0  # atno 6907 bound_to 6896
  150.6870  134.2575  159.4545 H   0  0  0  0  0  0  0  0  0  0  0  0  # atno 6908 bound_to 6896
  152.0448  134.9689  160.0625 H   0  0  0  0  0  0  0  0  0  0  0  0  # atno 6909 bound_to 6896
  144.8574  139.6056  143.5946 H   0  0  0  0  0  0  0  0  0  0  0  0  # atno 7974 bound_to 7965
  155.9962  140.3364  155.6801 H   0  0  0  0  0  0  0  0  0  0  0  0  # atno 8008 bound_to 7997
  155.6352  140.0689  157.2654 H   0  0  0  0  0  0  0  0  0  0  0  0  # atno 8009 bound_to 7997
  154.4235  140.1752  156.1502 H   0  0  0  0  0  0  0  0  0  0  0  0  # atno 8010 bound_to 7997
  139.8315  144.6684  150.9393 H   0  0  0  0  0  0  0  0  0  0  0  0  # atno 10167 bound_to 10162
  156.5471  130.4692  149.6470 H   0  0  0  0  0  0  0  0  0  0  0  0  # atno 10718 bound_to 10713
  154.2649  135.6301  153.5288 H   0  0  0  0  0  0  0  0  0  0  0  0  # atno 10763 bound_to 10752
  152.9889  135.5596  154.5663 H   0  0  0  0  0  0  0  0  0  0  0  0  # atno 10764 bound_to 10752
  154.5221  135.2883  155.1229 H   0  0  0  0  0  0  0  0  0  0  0  0  # atno 10765 bound_to 10752
  141.1499  133.6712  156.6242 H   0  0  0  0  0  0  0  0  0  0  0  0  # atno 11005 bound_to 11000
  146.2834  139.6938  142.9213 LP  0  0  0  0  0  0  0  0  0  0  0  0  # atno 17320 bound_to 7965
  145.4379  141.0420  143.2874 LP  0  0  0  0  0  0  0  0  0  0  0  0  # atno 17321 bound_to 7965
  140.7806  143.3996  151.1171 LP  0  0  0  0  0  0  0  0  0  0  0  0  # atno 17342 bound_to 10162
  139.7649  143.8580  152.3108 LP  0  0  0  0  0  0  0  0  0  0  0  0  # atno 17343 bound_to 10162
  156.2919  130.7129  151.1979 LP  0  0  0  0  0  0  0  0  0  0  0  0  # atno 17370 bound_to 10713
  157.7394  131.0529  150.5230 LP  0  0  0  0  0  0  0  0  0  0  0  0  # atno 17371 bound_to 10713
  140.3517  134.7763  157.4471 LP  0  0  0  0  0  0  0  0  0  0  0  0  # atno 17394 bound_to 11000
  140.0856  134.5672  155.8496 LP  0  0  0  0  0  0  0  0  0  0  0  0  # atno 17395 bound_to 11000

$$$$
