AV-unprocessed.smi:2106|AV-procd|sdf|8598|dock5
  -GOLD-   2272011333D 1   1.00000     0.00000
 Structure written by MMmdl.
 48 49  0  0  0  0  0  0  0  0  2 V2000
  153.9276  140.7407  161.0881 C   0  0  0  0  0  0  0  0  0  0  0  0
  153.1328  141.5212  160.0835 C   0  0  0  0  0  0  0  0  0  0  0  0
  153.3269  142.8650  159.6587 C   0  0  0  0  0  0  0  0  0  0  0  0
  152.3385  143.0753  158.7392 C   0  0  0  0  0  0  0  0  0  0  0  0
  152.0146  144.2918  157.9360 C   0  0  0  0  0  0  0  0  0  0  0  0
  151.6172  141.8976  158.6496 N   0  0  0  0  0  0  0  0  0  0  0  0
  150.4701  141.5851  157.8123 C   0  0  0  0  0  0  0  0  0  0  0  0
  150.7714  140.4072  156.8843 C   0  0  0  0  0  0  0  0  0  0  0  0
  151.3134  139.3950  157.3279 O   0  0  0  0  0  0  0  0  0  0  0  0
  150.4137  140.5505  155.5986 N   0  0  0  0  0  0  0  0  0  0  0  0
  150.5838  139.5385  154.5625 C   0  0  0  0  0  0  0  0  0  0  0  0
  149.8665  138.2228  154.9249 C   0  0  0  0  0  0  0  0  0  0  0  0
  148.5596  138.0752  154.2366 N   0  3  1  0  0  0  0  0  0  0  0  0
  147.6442  137.1643  154.9626 C   0  0  0  0  0  0  0  0  0  0  0  0
  146.3417  136.9561  154.1685 C   0  0  1  0  0  0  0  0  0  0  0  0
  145.3306  136.0992  154.9383 C   0  0  0  0  0  0  0  0  0  0  0  0
  145.7345  138.2194  153.9110 O   0  0  0  0  0  0  0  0  0  0  0  0
  146.5567  139.1470  153.2037 C   0  0  2  0  0  0  0  0  0  0  0  0
  146.7466  138.7515  151.7281 C   0  0  0  0  0  0  0  0  0  0  0  0
  147.8830  139.3663  153.9578 C   0  0  0  0  0  0  0  0  0  0  0  0
  152.1078  140.9469  159.4753 N   0  0  0  0  0  0  0  0  0  0  0  0
  154.7157  141.3526  161.5272 H   0  0  0  0  0  0  0  0  0  0  0  0
  154.3997  139.8731  160.6268 H   0  0  0  0  0  0  0  0  0  0  0  0
  153.2936  140.3846  161.9006 H   0  0  0  0  0  0  0  0  0  0  0  0
  154.0800  143.5692  159.9803 H   0  0  0  0  0  0  0  0  0  0  0  0
  152.7265  145.0920  158.1380 H   0  0  0  0  0  0  0  0  0  0  0  0
  151.0178  144.6620  158.1760 H   0  0  0  0  0  0  0  0  0  0  0  0
  152.0496  144.0754  156.8682 H   0  0  0  0  0  0  0  0  0  0  0  0
  149.6101  141.3591  158.4454 H   0  0  0  0  0  0  0  0  0  0  0  0
  150.2048  142.4638  157.2236 H   0  0  0  0  0  0  0  0  0  0  0  0
  149.9669  141.4147  155.3268 H   0  0  0  0  0  0  0  0  0  0  0  0
  150.2249  139.9438  153.6163 H   0  0  0  0  0  0  0  0  0  0  0  0
  151.6520  139.3581  154.4393 H   0  0  0  0  0  0  0  0  0  0  0  0
  150.5149  137.3938  154.6373 H   0  0  0  0  0  0  0  0  0  0  0  0
  149.7189  138.1389  156.0026 H   0  0  0  0  0  0  0  0  0  0  0  0
  148.1314  136.2012  155.1206 H   0  0  0  0  0  0  0  0  0  0  0  0
  147.4260  137.5782  155.9487 H   0  0  0  0  0  0  0  0  0  0  0  0
  146.5624  136.4534  153.2267 H   0  0  0  0  0  0  0  0  0  0  0  0
  145.7376  135.1118  155.1578 H   0  0  0  0  0  0  0  0  0  0  0  0
  144.4169  135.9607  154.3598 H   0  0  0  0  0  0  0  0  0  0  0  0
  145.0565  136.5665  155.8846 H   0  0  0  0  0  0  0  0  0  0  0  0
  146.0134  140.0926  153.2074 H   0  0  0  0  0  0  0  0  0  0  0  0
  147.2612  139.5411  151.1801 H   0  0  0  0  0  0  0  0  0  0  0  0
  145.7840  138.5890  151.2428 H   0  0  0  0  0  0  0  0  0  0  0  0
  147.3365  137.8424  151.6135 H   0  0  0  0  0  0  0  0  0  0  0  0
  147.6860  139.8754  154.9027 H   0  0  0  0  0  0  0  0  0  0  0  0
  148.5239  140.0263  153.3744 H   0  0  0  0  0  0  0  0  0  0  0  0
  148.7487  137.6398  153.3451 H   0  0  0  0  0  0  0  0  0  0  0  0
  1  2  1  0  0  0  0
  1 22  1  0  0  0  0
  1 23  1  0  0  0  0
  1 24  1  0  0  0  0
  2 21  2  0  0  0  0
  2  3  1  0  0  0  0
  3  4  2  0  0  0  0
  3 25  1  0  0  0  0
  4  5  1  0  0  0  0
  4  6  1  0  0  0  0
  5 26  1  0  0  0  0
  5 27  1  0  0  0  0
  5 28  1  0  0  0  0
  6  7  1  0  0  0  0
  6 21  1  0  0  0  0
  7  8  1  0  0  0  0
  7 29  1  0  0  0  0
  7 30  1  0  0  0  0
  8  9  2  0  0  0  0
  8 10  1  0  0  0  0
 10 11  1  0  0  0  0
 10 31  1  0  0  0  0
 11 12  1  0  0  0  0
 11 32  1  0  0  0  0
 11 33  1  0  0  0  0
 12 13  1  0  0  0  0
 12 34  1  0  0  0  0
 12 35  1  0  0  0  0
 13 20  1  0  0  0  0
 13 14  1  0  0  0  0
 13 48  1  0  0  0  0
 14 15  1  0  0  0  0
 14 36  1  0  0  0  0
 14 37  1  0  0  0  0
 15 16  1  0  0  0  0
 15 17  1  0  0  0  0
 15 38  1  0  0  0  0
 16 39  1  0  0  0  0
 16 40  1  0  0  0  0
 16 41  1  0  0  0  0
 17 18  1  0  0  0  0
 18 19  1  0  0  0  0
 18 20  1  0  0  0  0
 18 42  1  0  0  0  0
 19 43  1  0  0  0  0
 19 44  1  0  0  0  0
 19 45  1  0  0  0  0
 20 46  1  0  0  0  0
 20 47  1  0  0  0  0
M  CHG  1  13   1
M  END
> <s_m_source_file>
AV-unprocessed.smi

> <i_m_source_file_index>
2106

> <i_lp_mmshare_version>
43012

> <i_f3d_flags>
0

> <s_epik_input>
W0NIM11jMVtjSF1jKFtDSDNdKW4objEpW0NIMl1DKD1PKVtOSF1bQ0gyXVtDSDJdTjJbQ0gyXVtDQEBIXShbQ0gzXSlPW0NAQEhdKFtDSDNdKVtDSDJdMg==

> <s_epik_cmdline>
J2VwaWtfcHl0aG9uJywgJy1waCcsICc3LjAnLCAnLXRuJywgJzgnLCAnLW1hJywgJzIwMCcsICctbWV0YWxfYmluZGluZycsICctaW1hZScsICc8aW5maWxlLm1hZT4nLCAnLW9tYWUnLCAnPG91dGZpbGUubWFlPic=

> <r_lp_tautomer_probability>
1

> <r_epik_Ionization_Penalty>
0.748586

> <r_epik_Ionization_Penalty_Charging>
0.748396

> <r_epik_Ionization_Penalty_Neutral>
0.000189656

> <r_epik_State_Penalty>
0.775162

> <r_epik_Charging_Adjusted_Penalty>
1.52356

> <i_epik_Tot_Q>
1

> <i_epik_Tot_abs_Q>
1

> <r_epik_Metal_State_Penalty>
0.775295

> <b_epik_Metal_Only>
0

> <s_lp_Force_Field>
OPLS_2005

> <r_lp_Energy>
15.4858

> <b_lp_Chiralities_Consistent>
1

> <s_lp_Variant>
AV-unprocessed.smi:2106-6

> <Gold.Version>
5.8.1

> <Gold.Id.Protein>
6NUR|6NUR_protein|mol2

> <Gold.PLP.Fitness>
42.4743

> <Gold.PLP.PLP>
-37.9454

> <Gold.PLP.part.hbond>
-1.0000

> <Gold.PLP.part.metal>
0.0000

> <Gold.PLP.part.buried>
-1.5299

> <Gold.PLP.part.nonpolar>
-36.2959

> <Gold.PLP.part.repulsive>
0.2714

> <Gold.PLP.ligand.clash>
0.0000

> <Gold.PLP.ligand.torsion>
0.7600

> <Gold.PLP.Chemscore.Hbond>
2.0000

> <Gold.PLP.Chemscore.CHOScore>
0.0000

> <Gold.PLP.Chemscore.Metal>
0.0000

> <Gold.Chemscore.Hbonds>
donor molecule, donor type, donor heavy atom, donor atom, acceptor molecule, acceptor atom, score
      L1  H    13    48       P1  7948  1.95

> <Gold.PLP.Chemscore.Internal.Correction>
0.0489

> <Gold.Rescore>
     Score         DG    S(hbond)    S(metal)    S(lipo)     H(rot)  DE(clash)    DE(int)     intcor
     12.98     -16.42       1.00        0.00     102.84       1.73       0.25       3.18       ----

> <Gold.Chemscore.Fitness>
12.9778

> <Gold.Chemscore.DG>
-16.4162

> <Gold.Chemscore.ZeroCoef>
-5.4800

> <Gold.Chemscore.Hbond>
0.9992

> <Gold.Chemscore.Metal>
0.0000

> <Gold.Chemscore.Lipo>
102.8358

> <Gold.Chemscore.Internal_Hbond>
0.0000

> <Gold.Chemscore.DEClash>
0.2539

> <Gold.Chemscore.DEInternal>
3.1845

> <Gold.Chemscore.Rot>
1.7316

> <Gold.Chemscore.Internal.Correction>
   9.000000E+99

> <Gold.Chemscore.Hbonds>
donor molecule, donor type, donor heavy atom, donor atom, acceptor molecule, acceptor atom, score
      L1  H    13    48       P1  7948  0.92

> <Gold.Chemscore.Hbond.Weighted>
-3.3374

> <Gold.Chemscore.Metal.Weighted>
-0.0000

> <Gold.Chemscore.Lipo.Weighted>
-12.0318

> <Gold.Chemscore.Internal_Hbond.Weighted>
0.0000

> <Gold.Chemscore.DEClash.Weighted>
0.2539

> <Gold.Chemscore.DEInternal.Weighted>
3.1845

> <Gold.Chemscore.Rot.Weighted>
4.4330

> <Gold.Chemscore.Internal.Correction.Weighted>
   9.000000E+99

> <Gold.Protein.RotatedTorsions>
[ 6907 6896 6895 6894 ] final  -97.38 input  -60.11 | X-H torsion
[ 7974 7965 7964 7962 ] final  161.95 input  175.53 | X-H torsion
[ 8008 7997 7996 7995 ] final  165.17 input   59.86 | X-H torsion
[ 10167 10162 10161 10158 ] final -137.98 input  -65.29 | X-H torsion
[ 10718 10713 10712 10709 ] final  173.50 input   66.30 | X-H torsion
[ 10763 10752 10751 10750 ] final   -1.47 input  -60.55 | X-H torsion
[ 11005 11000 10999 10996 ] final   60.91 input  -57.11 | X-H torsion

> <Gold.Protein.ActiveResidues>
 VAL166  LYS551  ARG553  GLY616  TRP617  ASP618  TYR619  PRO620  LYS621  CYS622 
 ASP623  PHE694  ASN695  SER759  ASP760  ASP761  ALA762  ILE779  LEU786  VAL792 
 PHE793  MET794  SER795  GLU796  ALA797  LYS798  CYS799  TRP800  GLU811  SER814 

> <Gold.Protein.RotatedAtoms>
  150.7015  134.1357  159.4085 H   0  0  0  0  0  0  0  0  0  0  0  0  # atno 6907 bound_to 6896
  151.9342  135.0240  160.0540 H   0  0  0  0  0  0  0  0  0  0  0  0  # atno 6908 bound_to 6896
  152.2149  133.4904  159.5167 H   0  0  0  0  0  0  0  0  0  0  0  0  # atno 6909 bound_to 6896
  144.7660  139.7971  143.6315 H   0  0  0  0  0  0  0  0  0  0  0  0  # atno 7974 bound_to 7965
  156.1822  140.1677  156.8253 H   0  0  0  0  0  0  0  0  0  0  0  0  # atno 8008 bound_to 7997
  154.5373  140.0744  156.8482 H   0  0  0  0  0  0  0  0  0  0  0  0  # atno 8009 bound_to 7997
  155.3286  140.3377  155.4242 H   0  0  0  0  0  0  0  0  0  0  0  0  # atno 8010 bound_to 7997
  139.8524  143.7182  152.2657 H   0  0  0  0  0  0  0  0  0  0  0  0  # atno 10167 bound_to 10162
  156.9634  131.0068  151.2922 H   0  0  0  0  0  0  0  0  0  0  0  0  # atno 10718 bound_to 10713
  153.3454  135.6983  153.6833 H   0  0  0  0  0  0  0  0  0  0  0  0  # atno 10763 bound_to 10752
  153.5581  135.3540  155.2788 H   0  0  0  0  0  0  0  0  0  0  0  0  # atno 10764 bound_to 10752
  154.8644  135.4242  154.2676 H   0  0  0  0  0  0  0  0  0  0  0  0  # atno 10765 bound_to 10752
  140.0198  134.6170  155.9656 H   0  0  0  0  0  0  0  0  0  0  0  0  # atno 11005 bound_to 11000
  146.1768  139.4942  142.9892 LP  0  0  0  0  0  0  0  0  0  0  0  0  # atno 17320 bound_to 7965
  145.6468  141.0272  143.1782 LP  0  0  0  0  0  0  0  0  0  0  0  0  # atno 17321 bound_to 7965
  139.7453  144.7549  151.0590 LP  0  0  0  0  0  0  0  0  0  0  0  0  # atno 17342 bound_to 10162
  140.7786  143.4924  150.9876 LP  0  0  0  0  0  0  0  0  0  0  0  0  # atno 17343 bound_to 10162
  157.5642  130.8266  149.8305 LP  0  0  0  0  0  0  0  0  0  0  0  0  # atno 17370 bound_to 10713
  156.0312  130.3764  150.1681 LP  0  0  0  0  0  0  0  0  0  0  0  0  # atno 17371 bound_to 10713
  141.1766  133.6541  156.4854 LP  0  0  0  0  0  0  0  0  0  0  0  0  # atno 17394 bound_to 11000
  140.4407  134.7018  157.4990 LP  0  0  0  0  0  0  0  0  0  0  0  0  # atno 17395 bound_to 11000

$$$$
