AV-unprocessed.smi:992|AV-procd|sdf|4329|dock6
  -GOLD-   22720 2233D 1   1.00000     0.00000
 Structure written by MMmdl.
 32 33  0  0  0  0  0  0  0  0  1 V2000
  153.6923  141.9795  160.6696 C   0  0  0  0  0  0  0  0  0  0  0  0
  152.5242  142.4544  159.7993 C   0  0  2  0  0  0  0  0  0  0  0  0
  152.3679  141.5987  158.5294 C   0  0  0  0  0  0  0  0  0  0  0  0
  151.3155  142.1478  157.6858 N   0  0  0  0  0  0  0  0  0  0  0  0
  150.9981  141.3379  156.5863 C   0  0  0  0  0  0  0  0  0  0  0  0
  149.9689  141.7461  155.7118 C   0  0  0  0  0  0  0  0  0  0  0  0
  149.6506  140.9272  154.6112 C   0  0  0  0  0  0  0  0  0  0  0  0
  150.3724  139.7321  154.4238 C   0  0  0  0  0  0  0  0  0  0  0  0
  150.0918  138.8885  153.3499 N   0  0  0  0  0  0  0  0  0  0  0  0
  151.3855  139.4103  155.3501 C   0  0  0  0  0  0  0  0  0  0  0  0
  151.6956  140.1898  156.4082 N   0  0  0  0  0  0  0  0  0  0  0  0
  151.5632  143.5390  157.3293 C   0  0  0  0  0  0  0  0  0  0  0  0
  151.7694  144.3987  158.5928 C   0  0  1  0  0  0  0  0  0  0  0  0
  150.4674  144.6846  159.3619 C   0  0  0  0  0  0  0  0  0  0  0  0
  152.7701  143.8119  159.4298 O   0  0  0  0  0  0  0  0  0  0  0  0
  153.5511  140.9454  160.9851 H   0  0  0  0  0  0  0  0  0  0  0  0
  153.7834  142.5918  161.5671 H   0  0  0  0  0  0  0  0  0  0  0  0
  154.6372  142.0387  160.1286 H   0  0  0  0  0  0  0  0  0  0  0  0
  151.6133  142.3949  160.3954 H   0  0  0  0  0  0  0  0  0  0  0  0
  153.3080  141.5768  157.9759 H   0  0  0  0  0  0  0  0  0  0  0  0
  152.1263  140.5690  158.7967 H   0  0  0  0  0  0  0  0  0  0  0  0
  149.4313  142.6676  155.8809 H   0  0  0  0  0  0  0  0  0  0  0  0
  148.8660  141.2146  153.9264 H   0  0  0  0  0  0  0  0  0  0  0  0
  149.3677  139.1106  152.6816 H   0  0  0  0  0  0  0  0  0  0  0  0
  150.6543  138.0715  153.1595 H   0  0  0  0  0  0  0  0  0  0  0  0
  151.9630  138.5037  155.2423 H   0  0  0  0  0  0  0  0  0  0  0  0
  152.4560  143.5942  156.7047 H   0  0  0  0  0  0  0  0  0  0  0  0
  150.7352  143.9281  156.7350 H   0  0  0  0  0  0  0  0  0  0  0  0
  152.1657  145.3636  158.2757 H   0  0  0  0  0  0  0  0  0  0  0  0
  149.7663  145.2410  158.7396 H   0  0  0  0  0  0  0  0  0  0  0  0
  150.6656  145.2834  160.2509 H   0  0  0  0  0  0  0  0  0  0  0  0
  149.9636  143.7714  159.6778 H   0  0  0  0  0  0  0  0  0  0  0  0
  1  2  1  0  0  0  0
  1 16  1  0  0  0  0
  1 17  1  0  0  0  0
  1 18  1  0  0  0  0
  2 15  1  0  0  0  0
  2  3  1  0  0  0  0
  2 19  1  0  0  0  0
  3  4  1  0  0  0  0
  3 20  1  0  0  0  0
  3 21  1  0  0  0  0
  4  5  1  0  0  0  0
  4 12  1  0  0  0  0
  5 11  1  0  0  0  0
  5  6  2  0  0  0  0
  6  7  1  0  0  0  0
  6 22  1  0  0  0  0
  7  8  2  0  0  0  0
  7 23  1  0  0  0  0
  8  9  1  0  0  0  0
  8 10  1  0  0  0  0
  9 24  1  0  0  0  0
  9 25  1  0  0  0  0
 10 11  2  0  0  0  0
 10 26  1  0  0  0  0
 12 13  1  0  0  0  0
 12 27  1  0  0  0  0
 12 28  1  0  0  0  0
 13 14  1  0  0  0  0
 13 15  1  0  0  0  0
 13 29  1  0  0  0  0
 14 30  1  0  0  0  0
 14 31  1  0  0  0  0
 14 32  1  0  0  0  0
M  END
> <s_m_source_file>
AV-unprocessed.smi

> <i_m_source_file_index>
992

> <i_lp_mmshare_version>
43012

> <i_f3d_flags>
0

> <s_epik_input>
W0NIM11bQ0BASF0xW0NIMl1OKFtDSDJdW0NASF0oTzEpW0NIM10pYzJbY0hdW2NIXWMoW05IMl0pW2NIXW4y

> <s_epik_cmdline>
J2VwaWtfcHl0aG9uJywgJy1waCcsICc3LjAnLCAnLXRuJywgJzgnLCAnLW1hJywgJzIwMCcsICctbWV0YWxfYmluZGluZycsICctaW1hZScsICc8aW5maWxlLm1hZT4nLCAnLW9tYWUnLCAnPG91dGZpbGUubWFlPic=

> <r_lp_tautomer_probability>
1

> <r_epik_Ionization_Penalty>
0.0126232

> <r_epik_Ionization_Penalty_Charging>
0

> <r_epik_Ionization_Penalty_Neutral>
0.0126232

> <r_epik_State_Penalty>
0.00976577

> <r_epik_Charging_Adjusted_Penalty>
0.00976577

> <i_epik_Tot_Q>
0

> <i_epik_Tot_abs_Q>
0

> <r_epik_Metal_State_Penalty>
9.84661e-06

> <b_epik_Metal_Only>
0

> <s_lp_Force_Field>
OPLS_2005

> <r_lp_Energy>
23.4385

> <b_lp_Chiralities_Consistent>
1

> <s_lp_Variant>
AV-unprocessed.smi:992-1

> <Gold.Version>
5.8.1

> <Gold.Id.Protein>
6NUR|6NUR_protein|mol2

> <Gold.PLP.Fitness>
37.2087

> <Gold.PLP.PLP>
-35.9505

> <Gold.PLP.part.hbond>
-1.6953

> <Gold.PLP.part.metal>
0.0000

> <Gold.PLP.part.buried>
-3.2144

> <Gold.PLP.part.nonpolar>
-30.3179

> <Gold.PLP.part.repulsive>
0.1475

> <Gold.PLP.ligand.clash>
0.0000

> <Gold.PLP.ligand.torsion>
0.0671

> <Gold.PLP.Chemscore.Hbond>
0.4320

> <Gold.PLP.Chemscore.CHOScore>
0.0000

> <Gold.PLP.Chemscore.Metal>
0.0000

> <Gold.Chemscore.Hbonds>
donor molecule, donor type, donor heavy atom, donor atom, acceptor molecule, acceptor atom, score
      L1  H     9    24       P1  7957  0.51

> <Gold.PLP.Chemscore.Internal.Correction>
0.0964

> <Gold.Rescore>
     Score         DG    S(hbond)    S(metal)    S(lipo)     H(rot)  DE(clash)    DE(int)     intcor
     15.14     -15.62       0.52        0.00      93.69       1.00       0.39       0.08       ----

> <Gold.Chemscore.Fitness>
15.1387

> <Gold.Chemscore.DG>
-15.6168

> <Gold.Chemscore.ZeroCoef>
-5.4800

> <Gold.Chemscore.Hbond>
0.5196

> <Gold.Chemscore.Metal>
0.0000

> <Gold.Chemscore.Lipo>
93.6875

> <Gold.Chemscore.Internal_Hbond>
0.0000

> <Gold.Chemscore.DEClash>
0.3933

> <Gold.Chemscore.DEInternal>
0.0848

> <Gold.Chemscore.Rot>
1.0000

> <Gold.Chemscore.Internal.Correction>
   9.000000E+99

> <Gold.Chemscore.Hbonds>
donor molecule, donor type, donor heavy atom, donor atom, acceptor molecule, acceptor atom, score
      L1  H     9    24       P1  7957  0.49

> <Gold.Chemscore.Hbond.Weighted>
-1.7353

> <Gold.Chemscore.Metal.Weighted>
-0.0000

> <Gold.Chemscore.Lipo.Weighted>
-10.9614

> <Gold.Chemscore.Internal_Hbond.Weighted>
0.0000

> <Gold.Chemscore.DEClash.Weighted>
0.3933

> <Gold.Chemscore.DEInternal.Weighted>
0.0848

> <Gold.Chemscore.Rot.Weighted>
2.5600

> <Gold.Chemscore.Internal.Correction.Weighted>
   9.000000E+99

> <Gold.Protein.RotatedTorsions>
[ 6907 6896 6895 6894 ] final  -90.86 input  -60.11 | X-H torsion
[ 7974 7965 7964 7962 ] final  148.60 input  175.53 | X-H torsion
[ 8008 7997 7996 7995 ] final  -33.48 input   59.86 | X-H torsion
[ 10167 10162 10161 10158 ] final -167.42 input  -65.29 | X-H torsion
[ 10718 10713 10712 10709 ] final   49.66 input   66.30 | X-H torsion
[ 10763 10752 10751 10750 ] final    8.18 input  -60.55 | X-H torsion
[ 11005 11000 10999 10996 ] final -123.88 input  -57.11 | X-H torsion

> <Gold.Protein.ActiveResidues>
 VAL166  LYS551  ARG553  GLY616  TRP617  ASP618  TYR619  PRO620  LYS621  CYS622 
 ASP623  PHE694  ASN695  SER759  ASP760  ASP761  ALA762  ILE779  LEU786  VAL792 
 PHE793  MET794  SER795  GLU796  ALA797  LYS798  CYS799  TRP800  GLU811  SER814 

> <Gold.Protein.RotatedAtoms>
  150.6886  134.2367  159.4455 H   0  0  0  0  0  0  0  0  0  0  0  0  # atno 6907 bound_to 6896
  152.0314  134.9763  160.0582 H   0  0  0  0  0  0  0  0  0  0  0  0  # atno 6908 bound_to 6896
  152.1301  133.4368  159.4753 H   0  0  0  0  0  0  0  0  0  0  0  0  # atno 6909 bound_to 6896
  144.8501  139.6175  143.5977 H   0  0  0  0  0  0  0  0  0  0  0  0  # atno 7974 bound_to 7965
  154.4148  140.1709  156.1895 H   0  0  0  0  0  0  0  0  0  0  0  0  # atno 8008 bound_to 7997
  155.9615  140.3393  155.6471 H   0  0  0  0  0  0  0  0  0  0  0  0  # atno 8009 bound_to 7997
  155.6742  140.0715  157.2499 H   0  0  0  0  0  0  0  0  0  0  0  0  # atno 8010 bound_to 7997
  139.6050  144.0931  152.1783 H   0  0  0  0  0  0  0  0  0  0  0  0  # atno 10167 bound_to 10162
  157.4809  130.8314  149.8092 H   0  0  0  0  0  0  0  0  0  0  0  0  # atno 10718 bound_to 10713
  153.2279  135.6889  153.7923 H   0  0  0  0  0  0  0  0  0  0  0  0  # atno 10763 bound_to 10752
  153.7098  135.3284  155.3244 H   0  0  0  0  0  0  0  0  0  0  0  0  # atno 10764 bound_to 10752
  154.8300  135.4588  154.1153 H   0  0  0  0  0  0  0  0  0  0  0  0  # atno 10765 bound_to 10752
  140.9885  134.0573  157.3683 H   0  0  0  0  0  0  0  0  0  0  0  0  # atno 11005 bound_to 11000
  146.2777  139.6797  142.9251 LP  0  0  0  0  0  0  0  0  0  0  0  0  # atno 17320 bound_to 7965
  145.4517  141.0428  143.2801 LP  0  0  0  0  0  0  0  0  0  0  0  0  # atno 17321 bound_to 7965
  140.0536  144.5913  150.7317 LP  0  0  0  0  0  0  0  0  0  0  0  0  # atno 17342 bound_to 10162
  140.7278  143.2655  151.4058 LP  0  0  0  0  0  0  0  0  0  0  0  0  # atno 17343 bound_to 10162
  156.0121  130.3829  150.2231 LP  0  0  0  0  0  0  0  0  0  0  0  0  # atno 17370 bound_to 10713
  157.0417  131.0037  151.3281 LP  0  0  0  0  0  0  0  0  0  0  0  0  # atno 17371 bound_to 10713
  139.8981  135.0153  156.7133 LP  0  0  0  0  0  0  0  0  0  0  0  0  # atno 17394 bound_to 11000
  140.7077  133.9250  155.8064 LP  0  0  0  0  0  0  0  0  0  0  0  0  # atno 17395 bound_to 11000

$$$$
