AV-unprocessed.smi:2933|AV-procd|sdf|11253|dock3
  -GOLD-   2272016143D 1   1.00000     0.00000
 Structure written by MMmdl.
 49 51  0  0  0  0  0  0  0  0  1 V2000
  151.7434  138.9245  153.9532 C   0  0  0  0  0  0  0  0  0  0  0  0
  150.9111  139.8556  154.8172 C   0  0  0  0  0  0  0  0  0  0  0  0
  151.6048  140.5795  155.7218 N   0  0  0  0  0  0  0  0  0  0  0  0
  150.9443  141.4393  156.5347 C   0  0  0  0  0  0  0  0  0  0  0  0
  151.6944  142.1774  157.4768 N   0  0  0  0  0  0  0  0  0  0  0  0
  151.1820  143.4837  157.8878 C   0  0  0  0  0  0  0  0  0  0  0  0
  152.2543  144.2596  158.6708 C   0  0  0  0  0  0  0  0  0  0  0  0
  152.7031  143.4760  159.7710 O   0  0  0  0  0  0  0  0  0  0  0  0
  153.3034  142.2585  159.3417 C   0  0  0  0  0  0  0  0  0  0  0  0
  152.2737  141.4090  158.5763 C   0  0  0  0  0  0  0  0  0  0  0  0
  149.5413  141.5964  156.4547 C   0  0  0  0  0  0  0  0  0  0  0  0
  148.8161  140.8424  155.5132 C   0  0  0  0  0  0  0  0  0  0  0  0
  149.5065  139.9362  154.6750 C   0  0  0  0  0  0  0  0  0  0  0  0
  148.8644  139.1414  153.6849 N   0  0  0  0  0  0  0  0  0  0  0  0
  147.5618  139.1104  153.3566 C   0  0  0  0  0  0  0  0  0  0  0  0
  146.6873  139.8227  153.8494 O   0  0  0  0  0  0  0  0  0  0  0  0
  147.3223  138.1757  152.4252 N   0  0  0  0  0  0  0  0  0  0  0  0
  146.0149  137.8466  151.8628 C   0  0  1  0  0  0  0  0  0  0  0  0
  146.0475  138.0750  150.3454 C   0  0  0  0  0  0  0  0  0  0  0  0
  145.6385  136.4066  152.2176 C   0  0  0  0  0  0  0  0  0  0  0  0
  146.1951  135.2401  151.3866 C   0  0  0  0  0  0  0  0  0  0  0  0
  144.8742  134.5019  151.6208 C   0  0  0  0  0  0  0  0  0  0  0  0
  144.2366  135.8669  151.8922 C   0  0  0  0  0  0  0  0  0  0  0  0
  151.4014  137.8954  154.0661 H   0  0  0  0  0  0  0  0  0  0  0  0
  152.7987  138.9593  154.2272 H   0  0  0  0  0  0  0  0  0  0  0  0
  151.6582  139.2042  152.9030 H   0  0  0  0  0  0  0  0  0  0  0  0
  150.8836  144.0655  157.0146 H   0  0  0  0  0  0  0  0  0  0  0  0
  150.2948  143.3448  158.5071 H   0  0  0  0  0  0  0  0  0  0  0  0
  153.0961  144.5186  158.0262 H   0  0  0  0  0  0  0  0  0  0  0  0
  151.8409  145.1961  159.0452 H   0  0  0  0  0  0  0  0  0  0  0  0
  154.1735  142.4701  158.7178 H   0  0  0  0  0  0  0  0  0  0  0  0
  153.6637  141.7139  160.2145 H   0  0  0  0  0  0  0  0  0  0  0  0
  151.4723  141.0992  159.2480 H   0  0  0  0  0  0  0  0  0  0  0  0
  152.7604  140.5008  158.2243 H   0  0  0  0  0  0  0  0  0  0  0  0
  149.0108  142.2717  157.1092 H   0  0  0  0  0  0  0  0  0  0  0  0
  147.7482  140.9809  155.4476 H   0  0  0  0  0  0  0  0  0  0  0  0
  149.4476  138.4441  153.2463 H   0  0  0  0  0  0  0  0  0  0  0  0
  148.1058  137.6371  152.0865 H   0  0  0  0  0  0  0  0  0  0  0  0
  145.2658  138.5260  152.2738 H   0  0  0  0  0  0  0  0  0  0  0  0
  145.0716  137.8843  149.8983 H   0  0  0  0  0  0  0  0  0  0  0  0
  146.7693  137.4175  149.8595 H   0  0  0  0  0  0  0  0  0  0  0  0
  146.3207  139.1037  150.1081 H   0  0  0  0  0  0  0  0  0  0  0  0
  145.8479  136.2046  153.2707 H   0  0  0  0  0  0  0  0  0  0  0  0
  146.3499  135.5021  150.3385 H   0  0  0  0  0  0  0  0  0  0  0  0
  147.0731  134.7543  151.8133 H   0  0  0  0  0  0  0  0  0  0  0  0
  144.4812  133.9793  150.7484 H   0  0  0  0  0  0  0  0  0  0  0  0
  144.8969  133.8614  152.5039 H   0  0  0  0  0  0  0  0  0  0  0  0
  143.5360  135.8884  152.7273 H   0  0  0  0  0  0  0  0  0  0  0  0
  143.8063  136.3149  150.9948 H   0  0  0  0  0  0  0  0  0  0  0  0
  1  2  1  0  0  0  0
  1 24  1  0  0  0  0
  1 25  1  0  0  0  0
  1 26  1  0  0  0  0
  2 13  1  0  0  0  0
  2  3  2  0  0  0  0
  3  4  1  0  0  0  0
  4  5  1  0  0  0  0
  4 11  2  0  0  0  0
  5 10  1  0  0  0  0
  5  6  1  0  0  0  0
  6  7  1  0  0  0  0
  6 27  1  0  0  0  0
  6 28  1  0  0  0  0
  7  8  1  0  0  0  0
  7 29  1  0  0  0  0
  7 30  1  0  0  0  0
  8  9  1  0  0  0  0
  9 10  1  0  0  0  0
  9 31  1  0  0  0  0
  9 32  1  0  0  0  0
 10 33  1  0  0  0  0
 10 34  1  0  0  0  0
 11 12  1  0  0  0  0
 11 35  1  0  0  0  0
 12 13  2  0  0  0  0
 12 36  1  0  0  0  0
 13 14  1  0  0  0  0
 14 15  1  0  0  0  0
 14 37  1  0  0  0  0
 15 16  2  0  0  0  0
 15 17  1  0  0  0  0
 17 18  1  0  0  0  0
 17 38  1  0  0  0  0
 18 19  1  0  0  0  0
 18 20  1  0  0  0  0
 18 39  1  0  0  0  0
 19 40  1  0  0  0  0
 19 41  1  0  0  0  0
 19 42  1  0  0  0  0
 20 23  1  0  0  0  0
 20 21  1  0  0  0  0
 20 43  1  0  0  0  0
 21 22  1  0  0  0  0
 21 44  1  0  0  0  0
 21 45  1  0  0  0  0
 22 23  1  0  0  0  0
 22 46  1  0  0  0  0
 22 47  1  0  0  0  0
 23 48  1  0  0  0  0
 23 49  1  0  0  0  0
M  END
> <s_m_source_file>
AV-unprocessed.smi

> <i_m_source_file_index>
2933

> <i_lp_mmshare_version>
43012

> <i_f3d_flags>
0

> <s_epik_input>
W0NIMl0xW0NIMl1PW0NIMl1bQ0gyXU4xYyhuYzJbQ0gzXSlbY0hdW2NIXWMyW05IXUMoPU8pW05IXVtDQEhdKFtDSDNdKVtDSF0zW0NIMl1bQ0gyXVtDSDJdMw==

> <s_epik_cmdline>
J2VwaWtfcHl0aG9uJywgJy1waCcsICc3LjAnLCAnLXRuJywgJzgnLCAnLW1hJywgJzIwMCcsICctbWV0YWxfYmluZGluZycsICctaW1hZScsICc8aW5maWxlLm1hZT4nLCAnLW9tYWUnLCAnPG91dGZpbGUubWFlPic=

> <r_lp_tautomer_probability>
1

> <r_epik_Ionization_Penalty>
0.00789884

> <r_epik_Ionization_Penalty_Charging>
0

> <r_epik_Ionization_Penalty_Neutral>
0.00789884

> <r_epik_State_Penalty>
0.00589145

> <r_epik_Charging_Adjusted_Penalty>
0.00589145

> <i_epik_Tot_Q>
0

> <i_epik_Tot_abs_Q>
0

> <r_epik_Metal_State_Penalty>
-0

> <b_epik_Metal_Only>
0

> <s_lp_Force_Field>
OPLS_2005

> <r_lp_Energy>
30.6508

> <b_lp_Chiralities_Consistent>
1

> <s_lp_Variant>
AV-unprocessed.smi:2933-2

> <Gold.Version>
5.8.1

> <Gold.Id.Protein>
6NUR|6NUR_protein|mol2

> <Gold.PLP.Fitness>
42.4886

> <Gold.PLP.PLP>
-40.3924

> <Gold.PLP.part.hbond>
-2.0000

> <Gold.PLP.part.metal>
0.0000

> <Gold.PLP.part.buried>
3.9222

> <Gold.PLP.part.nonpolar>
-42.0575

> <Gold.PLP.part.repulsive>
0.3157

> <Gold.PLP.ligand.clash>
0.0000

> <Gold.PLP.ligand.torsion>
0.6901

> <Gold.PLP.Chemscore.Hbond>
1.0000

> <Gold.PLP.Chemscore.CHOScore>
0.0000

> <Gold.PLP.Chemscore.Metal>
0.0000

> <Gold.Chemscore.Hbonds>
donor molecule, donor type, donor heavy atom, donor atom, acceptor molecule, acceptor atom, score
      L1  H    17    38       P1  7948  1.00

> <Gold.PLP.Chemscore.Internal.Correction>
0.4765

> <Gold.Rescore>
     Score         DG    S(hbond)    S(metal)    S(lipo)     H(rot)  DE(clash)    DE(int)     intcor
     14.84     -18.48       0.99        0.00     111.52       1.32       2.00       1.63       ----

> <Gold.Chemscore.Fitness>
14.8400

> <Gold.Chemscore.DG>
-18.4783

> <Gold.Chemscore.ZeroCoef>
-5.4800

> <Gold.Chemscore.Hbond>
0.9934

> <Gold.Chemscore.Metal>
0.0000

> <Gold.Chemscore.Lipo>
111.5249

> <Gold.Chemscore.Internal_Hbond>
0.0000

> <Gold.Chemscore.DEClash>
2.0049

> <Gold.Chemscore.DEInternal>
1.6334

> <Gold.Chemscore.Rot>
1.3157

> <Gold.Chemscore.Internal.Correction>
   9.000000E+99

> <Gold.Chemscore.Hbonds>
donor molecule, donor type, donor heavy atom, donor atom, acceptor molecule, acceptor atom, score
      L1  H    17    38       P1  7948  0.97

> <Gold.Chemscore.Hbond.Weighted>
-3.3181

> <Gold.Chemscore.Metal.Weighted>
-0.0000

> <Gold.Chemscore.Lipo.Weighted>
-13.0484

> <Gold.Chemscore.Internal_Hbond.Weighted>
0.0000

> <Gold.Chemscore.DEClash.Weighted>
2.0049

> <Gold.Chemscore.DEInternal.Weighted>
1.6334

> <Gold.Chemscore.Rot.Weighted>
3.3682

> <Gold.Chemscore.Internal.Correction.Weighted>
   9.000000E+99

> <Gold.Protein.RotatedTorsions>
[ 6907 6896 6895 6894 ] final  -36.95 input  -60.11 | X-H torsion
[ 7974 7965 7964 7962 ] final -167.02 input  175.53 | X-H torsion
[ 8008 7997 7996 7995 ] final  141.74 input   59.86 | X-H torsion
[ 10167 10162 10161 10158 ] final  -15.09 input  -65.29 | X-H torsion
[ 10718 10713 10712 10709 ] final -107.66 input   66.30 | X-H torsion
[ 10763 10752 10751 10750 ] final  132.17 input  -60.55 | X-H torsion
[ 11005 11000 10999 10996 ] final  -18.44 input  -57.11 | X-H torsion

> <Gold.Protein.ActiveResidues>
 VAL166  LYS551  ARG553  GLY616  TRP617  ASP618  TYR619  PRO620  LYS621  CYS622 
 ASP623  PHE694  ASN695  SER759  ASP760  ASP761  ALA762  ILE779  LEU786  VAL792 
 PHE793  MET794  SER795  GLU796  ALA797  LYS798  CYS799  TRP800  GLU811  SER814 

> <Gold.Protein.RotatedAtoms>
  151.0208  134.9467  159.8057 H   0  0  0  0  0  0  0  0  0  0  0  0  # atno 6907 bound_to 6896
  152.5324  134.2907  159.9052 H   0  0  0  0  0  0  0  0  0  0  0  0  # atno 6908 bound_to 6896
  151.2914  133.4122  159.2667 H   0  0  0  0  0  0  0  0  0  0  0  0  # atno 6909 bound_to 6896
  144.7232  140.2580  143.6269 H   0  0  0  0  0  0  0  0  0  0  0  0  # atno 7974 bound_to 7965
  156.2961  140.2307  156.4613 H   0  0  0  0  0  0  0  0  0  0  0  0  # atno 8008 bound_to 7997
  154.8015  140.0448  157.1297 H   0  0  0  0  0  0  0  0  0  0  0  0  # atno 8009 bound_to 7997
  154.9528  140.3044  155.5071 H   0  0  0  0  0  0  0  0  0  0  0  0  # atno 8010 bound_to 7997
  140.7212  143.5254  150.9584 H   0  0  0  0  0  0  0  0  0  0  0  0  # atno 10167 bound_to 10162
  156.0447  130.5674  150.7853 H   0  0  0  0  0  0  0  0  0  0  0  0  # atno 10718 bound_to 10713
  153.7864  135.3161  155.3372 H   0  0  0  0  0  0  0  0  0  0  0  0  # atno 10763 bound_to 10752
  154.8142  135.4647  154.0602 H   0  0  0  0  0  0  0  0  0  0  0  0  # atno 10764 bound_to 10752
  153.1906  135.6908  153.8444 H   0  0  0  0  0  0  0  0  0  0  0  0  # atno 10765 bound_to 10752
  140.8268  133.8027  155.9716 H   0  0  0  0  0  0  0  0  0  0  0  0  # atno 11005 bound_to 11000
  145.8163  139.2024  143.1964 LP  0  0  0  0  0  0  0  0  0  0  0  0  # atno 17320 bound_to 7965
  146.0552  140.8028  142.9762 LP  0  0  0  0  0  0  0  0  0  0  0  0  # atno 17321 bound_to 7965
  139.8972  143.6880  152.3137 LP  0  0  0  0  0  0  0  0  0  0  0  0  # atno 17342 bound_to 10162
  139.7217  144.7601  151.0945 LP  0  0  0  0  0  0  0  0  0  0  0  0  # atno 17343 bound_to 10162
  157.5309  131.0936  150.9956 LP  0  0  0  0  0  0  0  0  0  0  0  0  # atno 17370 bound_to 10713
  157.0263  130.5694  149.5337 LP  0  0  0  0  0  0  0  0  0  0  0  0  # atno 17371 bound_to 10713
  140.9041  134.2342  157.5025 LP  0  0  0  0  0  0  0  0  0  0  0  0  # atno 17394 bound_to 11000
  139.8706  134.9720  156.4757 LP  0  0  0  0  0  0  0  0  0  0  0  0  # atno 17395 bound_to 11000

$$$$
