#       Name:                AV-unprocessed.smi:95
#       Creating user name   scv26
#       Creation time:       Thu Mar 26 17:30:30 2020


#       File generated by GOLD software.
#

@<TRIPOS>MOLECULE
AV-unprocessed.smi:95
    48    51     1
SMALL
NO_CHARGES


@<TRIPOS>ATOM
      1 ****         0.2641   2.6274   1.3554 O.2            1 S1                 0.0000
      2 ****        -0.3828   1.5903   1.5141 C.2            1 S1                 0.0000
      3 ****        -1.8279   1.5631   1.7044 C.2            1 S1                 0.0000
      4 ****        -2.5213   2.7139   1.6893 F              1 S1                 0.0000
      5 ****        -2.4871   0.3965   1.8737 C.2            1 S1                 0.0000
      6 ****        -1.8555  -0.8373   1.9030 N.am           1 S1                 0.0000
      7 ****        -2.6377  -2.1330   1.9851 C.3            1 S1                 0.0000
      8 ****        -3.9659  -2.0242   2.7545 C.3            1 S1                 0.0000
      9 ****        -4.9889  -2.0246   1.6353 C.3            1 S1                 0.0000
     10 ****        -4.3000  -2.8942   0.5910 C.3            1 S1                 0.0000
     11 ****        -2.9289  -2.5273   0.6772 O.3            1 S1                 0.0000
     12 ****        -0.4656  -0.9074   1.6532 C.2            1 S1                 0.0000
     13 ****         0.1071  -1.9957   1.5621 O.2            1 S1                 0.0000
     14 ****         0.2313   0.3154   1.5008 N.am           1 S1                 0.0000
     15 ****         1.6635   0.2754   1.2543 C.3            1 S1                 0.0000
     16 ****         2.0615   0.4428  -0.2050 C.ar           1 S1                 0.0000
     17 ****         1.4527  -0.2817  -1.2540 C.ar           1 S1                 0.0000
     18 ****         1.8719  -0.0590  -2.5813 C.ar           1 S1                 0.0000
     19 ****         2.8926   0.8821  -2.8335 C.ar           1 S1                 0.0000
     20 ****         3.3405   1.1338  -4.1464 C.2            1 S1                 0.0000
     21 ****         4.3625   2.0779  -4.3714 C.2            1 S1                 0.0000
     22 ****         4.9386   2.7718  -3.2883 C.2            1 S1                 0.0000
     23 ****         4.4952   2.5257  -1.9737 C.2            1 S1                 0.0000
     24 ****         3.4735   1.5825  -1.7464 C.ar           1 S1                 0.0000
     25 ****         3.0363   1.3350  -0.4919 N.pl3          1 S1                 1.0000
     26 ****        -3.5587   0.4526   1.9795 H              1 S1                 0.0000
     27 ****        -1.9785  -2.8532   2.4724 H              1 S1                 0.0000
     28 ****        -4.0816  -2.9257   3.3577 H              1 S1                 0.0000
     29 ****        -4.0130  -1.1667   3.4256 H              1 S1                 0.0000
     30 ****        -5.9582  -2.4174   1.9434 H              1 S1                 0.0000
     31 ****        -5.1381  -1.0175   1.2455 H              1 S1                 0.0000
     32 ****        -4.4037  -3.9507   0.8430 H              1 S1                 0.0000
     33 ****        -4.6944  -2.7412  -0.4138 H              1 S1                 0.0000
     34 ****         2.1090   1.0532   1.8782 H              1 S1                 0.0000
     35 ****         2.0667  -0.6581   1.6474 H              1 S1                 0.0000
     36 ****         0.6727  -1.0005  -1.0497 H              1 S1                 0.0000
     37 ****         1.4129  -0.6060  -3.3921 H              1 S1                 0.0000
     38 ****         2.9052   0.6069  -4.9833 H              1 S1                 0.0000
     39 ****         4.7058   2.2703  -5.3775 H              1 S1                 0.0000
     40 ****         5.7219   3.4940  -3.4668 H              1 S1                 0.0000
     41 ****         4.9413   3.0618  -1.1484 H              1 S1                 0.0000
     42 ****         3.4614   1.8503   0.2788 H              1 S1                 0.0000
     43 ****         1.2527   2.5830   1.2119 LP             1 S1                 0.0000
     44 ****        -0.1997   3.5132   1.3701 LP             1 S1                 0.0000
     45 ****        -2.3576  -3.3097   0.4291 LP             1 S1                 0.0000
     46 ****        -2.7460  -1.7692   0.0512 LP             1 S1                 0.0000
     47 ****        -0.4121  -2.8441   1.6651 LP             1 S1                 0.0000
     48 ****         1.0907  -2.0299   1.3851 LP             1 S1                 0.0000
@<TRIPOS>BOND
    1    1    2 2     
    2    2   14 am    
    3    2    3 1     
    4    3    4 1     
    5    3    5 2     
    6    5    6 1     
    7    5   26 1     
    8    6    7 1     
    9    6   12 am    
   10    7   11 1     
   11    7    8 1     
   12    7   27 1     
   13    8    9 1     
   14    8   28 1     
   15    8   29 1     
   16    9   10 1     
   17    9   30 1     
   18    9   31 1     
   19   10   11 1     
   20   10   32 1     
   21   10   33 1     
   22   12   13 2     
   23   12   14 am    
   24   14   15 1     
   25   15   16 1     
   26   15   34 1     
   27   15   35 1     
   28   16   25 ar    
   29   16   17 ar    
   30   17   18 ar    
   31   17   36 1     
   32   18   19 ar    
   33   18   37 1     
   34   19   24 ar    
   35   19   20 1     
   36   20   21 2     
   37   20   38 1     
   38   21   22 1     
   39   21   39 1     
   40   22   23 2     
   41   22   40 1     
   42   23   24 1     
   43   23   41 1     
   44   24   25 ar    
   45   25   42 1     
   46    1   43 1     
   47    1   44 1     
   48   11   45 1     
   49   11   46 1     
   50   13   47 1     
   51   13   48 1     
@<TRIPOS>SUBSTRUCTURE
      1 S1             1
@<TRIPOS>SET
LONE_PAIRS      STATIC     ATOMS    <user>   **** ""
6 43 44 45 46 47 48
DONOR_HYDROGENS      STATIC     ATOMS    <user>   **** ""
1 42
ATOM$BLUE        STATIC     ATOMS    COLORGROUP SYSTEM
6 43 44 45 46 47 48
ATOM$RED        STATIC     ATOMS    COLORGROUP SYSTEM
1 42
