AV-unprocessed.smi:1445|AV-procd|sdf|5885|dock9
  -GOLD-   22720 5563D 1   1.00000     0.00000
 Structure written by MMmdl.
 46 47  0  0  0  0  0  0  0  0  2 V2000
  148.8018  131.7632  153.4827 C   0  0  0  0  0  0  0  0  0  0  0  0
  148.0695  132.7790  152.8056 O   0  0  0  0  0  0  0  0  0  0  0  0
  146.8628  132.4446  152.2207 C   0  0  0  0  0  0  0  0  0  0  0  0
  146.5605  131.1302  152.0727 N   0  0  0  0  0  0  0  0  0  0  0  0
  145.3856  130.8015  151.4982 C   0  0  0  0  0  0  0  0  0  0  0  0
  144.4602  131.7559  151.0387 C   0  0  0  0  0  0  0  0  0  0  0  0
  144.7711  133.1197  151.1908 C   0  0  0  0  0  0  0  0  0  0  0  0
  145.9953  133.4823  151.8047 C   0  0  0  0  0  0  0  0  0  0  0  0
  146.4230  134.8262  151.9994 N   0  0  0  0  0  0  0  0  0  0  0  0
  145.7050  135.9014  152.3663 C   0  0  0  0  0  0  0  0  0  0  0  0
  144.5005  135.9081  152.6187 O   0  0  0  0  0  0  0  0  0  0  0  0
  146.4770  136.9948  152.4442 N   0  0  0  0  0  0  0  0  0  0  0  0
  146.0040  138.3272  152.8024 C   0  0  0  0  0  0  0  0  0  0  0  0
  146.7472  139.4265  152.0184 C   0  0  0  0  0  0  0  0  0  0  0  0
  147.8862  139.9922  152.7846 N   0  3  1  0  0  0  0  0  0  0  0  0
  147.4676  141.1077  153.6725 C   0  0  0  0  0  0  0  0  0  0  0  0
  148.6827  141.7666  154.3441 C   0  0  0  0  0  0  0  0  0  0  0  0
  149.5077  140.7334  155.1211 C   0  0  0  0  0  0  0  0  0  0  0  0
  149.9101  139.5705  154.1988 C   0  0  1  0  0  0  0  0  0  0  0  0
  150.7157  138.5067  154.9581 C   0  0  0  0  0  0  0  0  0  0  0  0
  148.6610  138.9628  153.5289 C   0  0  0  0  0  0  0  0  0  0  0  0
  149.7218  132.1891  153.8826 H   0  0  0  0  0  0  0  0  0  0  0  0
  149.0793  130.9530  152.8067 H   0  0  0  0  0  0  0  0  0  0  0  0
  148.2357  131.3536  154.3207 H   0  0  0  0  0  0  0  0  0  0  0  0
  145.1792  129.7463  151.3968 H   0  0  0  0  0  0  0  0  0  0  0  0
  143.5338  131.4487  150.5761 H   0  0  0  0  0  0  0  0  0  0  0  0
  144.0702  133.8512  150.8219 H   0  0  0  0  0  0  0  0  0  0  0  0
  147.4157  134.9751  151.8906 H   0  0  0  0  0  0  0  0  0  0  0  0
  147.4582  136.9008  152.2257 H   0  0  0  0  0  0  0  0  0  0  0  0
  144.9351  138.3562  152.5949 H   0  0  0  0  0  0  0  0  0  0  0  0
  146.1162  138.4824  153.8769 H   0  0  0  0  0  0  0  0  0  0  0  0
  147.1262  138.9904  151.0933 H   0  0  0  0  0  0  0  0  0  0  0  0
  146.0643  140.2246  151.7229 H   0  0  0  0  0  0  0  0  0  0  0  0
  146.9311  141.8606  153.0937 H   0  0  0  0  0  0  0  0  0  0  0  0
  146.7746  140.7340  154.4283 H   0  0  0  0  0  0  0  0  0  0  0  0
  149.3078  142.2420  153.5869 H   0  0  0  0  0  0  0  0  0  0  0  0
  148.3529  142.5601  155.0153 H   0  0  0  0  0  0  0  0  0  0  0  0
  150.3947  141.2082  155.5421 H   0  0  0  0  0  0  0  0  0  0  0  0
  148.9248  140.3577  155.9633 H   0  0  0  0  0  0  0  0  0  0  0  0
  150.5536  139.9698  153.4130 H   0  0  0  0  0  0  0  0  0  0  0  0
  150.1279  138.0615  155.7614 H   0  0  0  0  0  0  0  0  0  0  0  0
  151.6131  138.9377  155.4029 H   0  0  0  0  0  0  0  0  0  0  0  0
  151.0326  137.7033  154.2925 H   0  0  0  0  0  0  0  0  0  0  0  0
  148.0188  138.4982  154.2791 H   0  0  0  0  0  0  0  0  0  0  0  0
  148.9748  138.1698  152.8510 H   0  0  0  0  0  0  0  0  0  0  0  0
  148.5119  140.3983  152.1037 H   0  0  0  0  0  0  0  0  0  0  0  0
  1  2  1  0  0  0  0
  1 22  1  0  0  0  0
  1 23  1  0  0  0  0
  1 24  1  0  0  0  0
  2  3  1  0  0  0  0
  3  8  1  0  0  0  0
  3  4  2  0  0  0  0
  4  5  1  0  0  0  0
  5  6  2  0  0  0  0
  5 25  1  0  0  0  0
  6  7  1  0  0  0  0
  6 26  1  0  0  0  0
  7  8  2  0  0  0  0
  7 27  1  0  0  0  0
  8  9  1  0  0  0  0
  9 10  1  0  0  0  0
  9 28  1  0  0  0  0
 10 11  2  0  0  0  0
 10 12  1  0  0  0  0
 12 13  1  0  0  0  0
 12 29  1  0  0  0  0
 13 14  1  0  0  0  0
 13 30  1  0  0  0  0
 13 31  1  0  0  0  0
 14 15  1  0  0  0  0
 14 32  1  0  0  0  0
 14 33  1  0  0  0  0
 15 21  1  0  0  0  0
 15 16  1  0  0  0  0
 15 46  1  0  0  0  0
 16 17  1  0  0  0  0
 16 34  1  0  0  0  0
 16 35  1  0  0  0  0
 17 18  1  0  0  0  0
 17 36  1  0  0  0  0
 17 37  1  0  0  0  0
 18 19  1  0  0  0  0
 18 38  1  0  0  0  0
 18 39  1  0  0  0  0
 19 20  1  0  0  0  0
 19 21  1  0  0  0  0
 19 40  1  0  0  0  0
 20 41  1  0  0  0  0
 20 42  1  0  0  0  0
 20 43  1  0  0  0  0
 21 44  1  0  0  0  0
 21 45  1  0  0  0  0
M  CHG  1  15   1
M  END
> <s_m_source_file>
AV-unprocessed.smi

> <i_m_source_file_index>
1445

> <i_lp_mmshare_version>
43012

> <i_f3d_flags>
0

> <s_epik_input>
W0NIM11PYzFuW2NIXVtjSF1bY0hdYzFbTkhdQyg9TylbTkhdW0NIMl1bQ0gyXU4yW0NIMl1bQ0gyXVtDSDJdW0NAQEhdKFtDSDNdKVtDSDJdMg==

> <s_epik_cmdline>
J2VwaWtfcHl0aG9uJywgJy1waCcsICc3LjAnLCAnLXRuJywgJzgnLCAnLW1hJywgJzIwMCcsICctbWV0YWxfYmluZGluZycsICctaW1hZScsICc8aW5maWxlLm1hZT4nLCAnLW9tYWUnLCAnPG91dGZpbGUubWFlPic=

> <r_lp_tautomer_probability>
1

> <r_epik_Ionization_Penalty>
0.00179544

> <r_epik_Ionization_Penalty_Charging>
0.00171832

> <r_epik_Ionization_Penalty_Neutral>
7.71118e-05

> <r_epik_State_Penalty>
0.0011618

> <r_epik_Charging_Adjusted_Penalty>
0.00288012

> <i_epik_Tot_Q>
1

> <i_epik_Tot_abs_Q>
1

> <r_epik_Metal_State_Penalty>
-0

> <b_epik_Metal_Only>
0

> <s_lp_Force_Field>
OPLS_2005

> <r_lp_Energy>
18.8564

> <b_lp_Chiralities_Consistent>
1

> <s_lp_Variant>
AV-unprocessed.smi:1445-1

> <Gold.Version>
5.8.1

> <Gold.Id.Protein>
6NUR|6NUR_protein|mol2

> <Gold.PLP.Fitness>
42.6500

> <Gold.PLP.PLP>
-36.2419

> <Gold.PLP.part.hbond>
-2.6282

> <Gold.PLP.part.metal>
0.0000

> <Gold.PLP.part.buried>
-0.9959

> <Gold.PLP.part.nonpolar>
-33.7422

> <Gold.PLP.part.repulsive>
1.3098

> <Gold.PLP.ligand.clash>
0.0000

> <Gold.PLP.ligand.torsion>
1.1146

> <Gold.PLP.Chemscore.Hbond>
2.8720

> <Gold.PLP.Chemscore.CHOScore>
0.0000

> <Gold.PLP.Chemscore.Metal>
0.0000

> <Gold.Chemscore.Hbonds>
donor molecule, donor type, donor heavy atom, donor atom, acceptor molecule, acceptor atom, score
      L1  H     9    28       P1  7948  1.00
      L1  H    12    29       P1  7948  1.00
      L1  H    15    46       P1  7957  0.73

> <Gold.PLP.Chemscore.Internal.Correction>
0.0214

> <Gold.Rescore>
     Score         DG    S(hbond)    S(metal)    S(lipo)     H(rot)  DE(clash)    DE(int)     intcor
     18.08     -20.37       2.69        0.00      87.87       1.71       1.29       1.01       ----

> <Gold.Chemscore.Fitness>
18.0760

> <Gold.Chemscore.DG>
-20.3700

> <Gold.Chemscore.ZeroCoef>
-5.4800

> <Gold.Chemscore.Hbond>
2.6911

> <Gold.Chemscore.Metal>
0.0000

> <Gold.Chemscore.Lipo>
87.8724

> <Gold.Chemscore.Internal_Hbond>
0.0000

> <Gold.Chemscore.DEClash>
1.2885

> <Gold.Chemscore.DEInternal>
1.0055

> <Gold.Chemscore.Rot>
1.7107

> <Gold.Chemscore.Internal.Correction>
   9.000000E+99

> <Gold.Chemscore.Hbonds>
donor molecule, donor type, donor heavy atom, donor atom, acceptor molecule, acceptor atom, score
      L1  H     9    28       P1  7948  0.83
      L1  H    12    29       P1  7948  1.00
      L1  H    15    46       P1  7957  0.71

> <Gold.Chemscore.Hbond.Weighted>
-8.9884

> <Gold.Chemscore.Metal.Weighted>
-0.0000

> <Gold.Chemscore.Lipo.Weighted>
-10.2811

> <Gold.Chemscore.Internal_Hbond.Weighted>
0.0000

> <Gold.Chemscore.DEClash.Weighted>
1.2885

> <Gold.Chemscore.DEInternal.Weighted>
1.0055

> <Gold.Chemscore.Rot.Weighted>
4.3794

> <Gold.Chemscore.Internal.Correction.Weighted>
   9.000000E+99

> <Gold.Protein.RotatedTorsions>
[ 6907 6896 6895 6894 ] final -155.91 input  -60.11 | X-H torsion
[ 7974 7965 7964 7962 ] final  -35.70 input  175.53 | X-H torsion
[ 8008 7997 7996 7995 ] final   28.43 input   59.86 | X-H torsion
[ 10167 10162 10161 10158 ] final -148.89 input  -65.29 | X-H torsion
[ 10718 10713 10712 10709 ] final -144.21 input   66.30 | X-H torsion
[ 10763 10752 10751 10750 ] final  179.37 input  -60.55 | X-H torsion
[ 11005 11000 10999 10996 ] final  -74.09 input  -57.11 | X-H torsion

> <Gold.Protein.ActiveResidues>
 VAL166  LYS551  ARG553  GLY616  TRP617  ASP618  TYR619  PRO620  LYS621  CYS622 
 ASP623  PHE694  ASN695  SER759  ASP760  ASP761  ALA762  ILE779  LEU786  VAL792 
 PHE793  MET794  SER795  GLU796  ALA797  LYS798  CYS799  TRP800  GLU811  SER814 

> <Gold.Protein.RotatedAtoms>
  151.2796  133.4216  159.2625 H   0  0  0  0  0  0  0  0  0  0  0  0  # atno 6907 bound_to 6896
  151.0372  134.9582  159.8153 H   0  0  0  0  0  0  0  0  0  0  0  0  # atno 6908 bound_to 6896
  152.5358  134.2756  159.9040 H   0  0  0  0  0  0  0  0  0  0  0  0  # atno 6909 bound_to 6896
  146.0724  140.6191  142.8946 H   0  0  0  0  0  0  0  0  0  0  0  0  # atno 7974 bound_to 7965
  155.0585  140.3187  155.4668 H   0  0  0  0  0  0  0  0  0  0  0  0  # atno 8008 bound_to 7997
  156.2818  140.2133  156.5656 H   0  0  0  0  0  0  0  0  0  0  0  0  # atno 8009 bound_to 7997
  154.7151  140.0494  157.0575 H   0  0  0  0  0  0  0  0  0  0  0  0  # atno 8010 bound_to 7997
  139.7491  143.8545  152.2582 H   0  0  0  0  0  0  0  0  0  0  0  0  # atno 10167 bound_to 10162
  156.3673  130.7769  151.1945 H   0  0  0  0  0  0  0  0  0  0  0  0  # atno 10718 bound_to 10713
  154.5198  135.2793  155.1272 H   0  0  0  0  0  0  0  0  0  0  0  0  # atno 10763 bound_to 10752
  154.2834  135.6281  153.5360 H   0  0  0  0  0  0  0  0  0  0  0  0  # atno 10764 bound_to 10752
  152.9934  135.5657  154.5684 H   0  0  0  0  0  0  0  0  0  0  0  0  # atno 10765 bound_to 10752
  141.1631  133.6899  156.7311 H   0  0  0  0  0  0  0  0  0  0  0  0  # atno 11005 bound_to 11000
  144.7240  140.4465  143.6987 LP  0  0  0  0  0  0  0  0  0  0  0  0  # atno 17320 bound_to 7965
  145.6367  139.1544  143.2938 LP  0  0  0  0  0  0  0  0  0  0  0  0  # atno 17321 bound_to 7965
  139.8518  144.7160  150.9205 LP  0  0  0  0  0  0  0  0  0  0  0  0  # atno 17342 bound_to 10162
  140.7796  143.3892  151.1339 LP  0  0  0  0  0  0  0  0  0  0  0  0  # atno 17343 bound_to 10162
  157.7480  131.0382  150.4494 LP  0  0  0  0  0  0  0  0  0  0  0  0  # atno 17370 bound_to 10713
  156.4715  130.4053  149.6515 LP  0  0  0  0  0  0  0  0  0  0  0  0  # atno 17371 bound_to 10713
  140.2745  134.8366  157.3877 LP  0  0  0  0  0  0  0  0  0  0  0  0  # atno 17394 bound_to 11000
  140.1491  134.4873  155.7974 LP  0  0  0  0  0  0  0  0  0  0  0  0  # atno 17395 bound_to 11000

$$$$
