AV-unprocessed.smi:196|AV-procd|sdf|1536|dock9
  -GOLD-   2262019393D 1   1.00000     0.00000
 Structure written by MMmdl.
 47 50  0  0  0  0  0  0  0  0  1 V2000
  151.6795  137.4909  154.7538 C   0  0  0  0  0  0  0  0  0  0  0  0
  151.5118  139.0176  154.8107 C   0  0  2  0  0  0  0  0  0  0  0  0
  152.2049  139.4867  155.9647 O   0  0  0  0  0  0  0  0  0  0  0  0
  151.5538  140.6467  156.4513 C   0  0  0  0  0  0  0  0  0  0  0  0
  150.0849  140.2922  156.2810 C   0  0  0  0  0  0  0  0  0  0  0  0
  150.0602  139.5607  154.9414 C   0  0  1  0  0  0  0  0  0  0  0  0
  149.8725  140.5283  153.9218 O   0  0  0  0  0  0  0  0  0  0  0  0
  148.9184  138.5170  154.8254 C   0  0  0  0  0  0  0  0  0  0  0  0
  148.5625  137.9033  156.0963 N   0  0  0  0  0  0  0  0  0  0  0  0
  147.6812  138.3964  157.0294 C   0  0  0  0  0  0  0  0  0  0  0  0
  147.5305  137.6573  158.0929 N   0  0  0  0  0  0  0  0  0  0  0  0
  148.3593  136.5599  157.8803 C   0  0  0  0  0  0  0  0  0  0  0  0
  148.6766  135.3776  158.6183 C   0  0  0  0  0  0  0  0  0  0  0  0
  148.1593  135.0414  159.8331 N   0  0  0  0  0  0  0  0  0  0  0  0
  148.1584  133.6676  160.3289 C   0  0  0  0  0  0  0  0  0  0  0  0
  147.4291  133.7137  161.6728 C   0  0  2  0  0  0  0  0  0  0  0  0
  146.1381  133.4281  161.4962 F   0  0  0  0  0  0  0  0  0  0  0  0
  147.5876  135.1697  162.1120 C   0  0  0  0  0  0  0  0  0  0  0  0
  147.5949  135.9805  160.8032 C   0  0  2  0  0  0  0  0  0  0  0  0
  146.1829  136.4572  160.4135 C   0  0  0  0  0  0  0  0  0  0  0  0
  145.2505  135.5123  160.2719 N   0  0  0  0  0  0  0  0  0  0  0  0
  145.9327  137.6492  160.2410 O   0  0  0  0  0  0  0  0  0  0  0  0
  149.5715  134.5234  158.0539 N   0  0  0  0  0  0  0  0  0  0  0  0
  150.1120  134.7855  156.8618 C   0  0  0  0  0  0  0  0  0  0  0  0
  149.9054  135.8350  156.0671 N   0  0  0  0  0  0  0  0  0  0  0  0
  149.0160  136.7058  156.6223 C   0  0  0  0  0  0  0  0  0  0  0  0
  147.8218  133.0000  162.3975 H   0  0  0  0  0  0  0  0  0  0  0  0
  148.2502  136.8424  160.9312 H   0  0  0  0  0  0  0  0  0  0  0  0
  151.1805  137.0672  153.8823 H   0  0  0  0  0  0  0  0  0  0  0  0
  151.2785  137.0098  155.6463 H   0  0  0  0  0  0  0  0  0  0  0  0
  152.7341  137.2233  154.6865 H   0  0  0  0  0  0  0  0  0  0  0  0
  152.0018  139.4486  153.9354 H   0  0  0  0  0  0  0  0  0  0  0  0
  151.8212  140.8550  157.4874 H   0  0  0  0  0  0  0  0  0  0  0  0
  151.8263  141.5088  155.8406 H   0  0  0  0  0  0  0  0  0  0  0  0
  149.7963  139.6134  157.0843 H   0  0  0  0  0  0  0  0  0  0  0  0
  149.4233  141.1587  156.3251 H   0  0  0  0  0  0  0  0  0  0  0  0
  149.4208  140.1183  153.1999 H   0  0  0  0  0  0  0  0  0  0  0  0
  148.0219  138.9787  154.4097 H   0  0  0  0  0  0  0  0  0  0  0  0
  149.1992  137.7174  154.1398 H   0  0  0  0  0  0  0  0  0  0  0  0
  147.1549  139.3306  156.8976 H   0  0  0  0  0  0  0  0  0  0  0  0
  147.6744  132.9780  159.6357 H   0  0  0  0  0  0  0  0  0  0  0  0
  149.1902  133.3426  160.4692 H   0  0  0  0  0  0  0  0  0  0  0  0
  146.8175  135.4815  162.8193 H   0  0  0  0  0  0  0  0  0  0  0  0
  148.5497  135.2895  162.6120 H   0  0  0  0  0  0  0  0  0  0  0  0
  144.3087  135.7670  160.0127 H   0  0  0  0  0  0  0  0  0  0  0  0
  145.4939  134.5436  160.4206 H   0  0  0  0  0  0  0  0  0  0  0  0
  150.8086  134.0478  156.4916 H   0  0  0  0  0  0  0  0  0  0  0  0
  1  2  1  0  0  0  0
  1 29  1  0  0  0  0
  1 30  1  0  0  0  0
  1 31  1  0  0  0  0
  2  6  1  0  0  0  0
  2  3  1  0  0  0  0
  2 32  1  0  0  0  0
  3  4  1  0  0  0  0
  4  5  1  0  0  0  0
  4 33  1  0  0  0  0
  4 34  1  0  0  0  0
  5  6  1  0  0  0  0
  5 35  1  0  0  0  0
  5 36  1  0  0  0  0
  6  7  1  0  0  0  0
  6  8  1  0  0  0  0
  7 37  1  0  0  0  0
  8  9  1  0  0  0  0
  8 38  1  0  0  0  0
  8 39  1  0  0  0  0
  9 26  1  0  0  0  0
  9 10  1  0  0  0  0
 10 11  2  0  0  0  0
 10 40  1  0  0  0  0
 11 12  1  0  0  0  0
 12 26  2  0  0  0  0
 12 13  1  0  0  0  0
 13 14  1  0  0  0  0
 13 23  2  0  0  0  0
 14 19  1  0  0  0  0
 14 15  1  0  0  0  0
 15 16  1  0  0  0  0
 15 41  1  0  0  0  0
 15 42  1  0  0  0  0
 16 27  1  0  0  0  0
 16 17  1  0  0  0  0
 16 18  1  0  0  0  0
 18 19  1  0  0  0  0
 18 43  1  0  0  0  0
 18 44  1  0  0  0  0
 19 28  1  0  0  0  0
 19 20  1  0  0  0  0
 20 21  1  0  0  0  0
 20 22  2  0  0  0  0
 21 45  1  0  0  0  0
 21 46  1  0  0  0  0
 23 24  1  0  0  0  0
 24 25  2  0  0  0  0
 24 47  1  0  0  0  0
 25 26  1  0  0  0  0
M  END
> <s_m_source_file>
AV-unprocessed.smi

> <i_m_source_file_index>
196

> <i_lp_mmshare_version>
43012

> <i_f3d_flags>
0

> <s_epik_input>
W0NIMl0xW0NIMl1PW0NAQEhdKFtDSDNdKVtDQEBdMShbT0hdKVtDSDJdbihbY0hdbjIpYyhjMjMpbltjSF1uYzNONFtDSDJdW0NASF0oRilbQ0gyXVtDQEhdNEMoPU8pW05IMl0=

> <s_epik_cmdline>
J2VwaWtfcHl0aG9uJywgJy1waCcsICc3LjAnLCAnLXRuJywgJzgnLCAnLW1hJywgJzIwMCcsICctbWV0YWxfYmluZGluZycsICctaW1hZScsICc8aW5maWxlLm1hZT4nLCAnLW9tYWUnLCAnPG91dGZpbGUubWFlPic=

> <r_lp_tautomer_probability>
1

> <r_epik_Ionization_Penalty>
0.000857933

> <r_epik_Ionization_Penalty_Charging>
0

> <r_epik_Ionization_Penalty_Neutral>
0.000857933

> <r_epik_State_Penalty>
0.000462053

> <r_epik_Charging_Adjusted_Penalty>
0.000462053

> <i_epik_Tot_Q>
0

> <i_epik_Tot_abs_Q>
0

> <r_epik_Metal_State_Penalty>
-0

> <b_epik_Metal_Only>
0

> <s_lp_Force_Field>
OPLS_2005

> <r_lp_Energy>
42.9342

> <b_lp_Chiralities_Consistent>
1

> <s_lp_Variant>
AV-unprocessed.smi:196-9

> <Gold.Version>
5.8.1

> <Gold.Id.Protein>
6NUR|6NUR_protein|mol2

> <Gold.PLP.Fitness>
45.0839

> <Gold.PLP.PLP>
-36.0830

> <Gold.PLP.part.hbond>
-4.1397

> <Gold.PLP.part.metal>
0.0000

> <Gold.PLP.part.buried>
-4.2542

> <Gold.PLP.part.nonpolar>
-27.0079

> <Gold.PLP.part.repulsive>
0.0464

> <Gold.PLP.ligand.clash>
0.0000

> <Gold.PLP.ligand.torsion>
1.1054

> <Gold.PLP.Chemscore.Hbond>
3.7271

> <Gold.PLP.Chemscore.CHOScore>
0.0000

> <Gold.PLP.Chemscore.Metal>
0.0000

> <Gold.Chemscore.Hbonds>
donor molecule, donor type, donor heavy atom, donor atom, acceptor molecule, acceptor atom, score
      L1  H     7    37       P1  7957  0.71
      P1  H  6896  6907       L1    23  1.00
      P1  H  6934  6947       L1    22  1.00
      P1  H  7989  7998       L1     7  0.66
      P1  H  7997  8010       L1     3  0.43

> <Gold.PLP.Chemscore.Internal.Correction>
0.0302

> <Gold.Rescore>
     Score         DG    S(hbond)    S(metal)    S(lipo)     H(rot)  DE(clash)    DE(int)     intcor
      9.62     -16.66       2.95        0.00      68.31       2.60       0.01       7.03       ----

> <Gold.Chemscore.Fitness>
9.6199

> <Gold.Chemscore.DG>
-16.6611

> <Gold.Chemscore.ZeroCoef>
-5.4800

> <Gold.Chemscore.Hbond>
2.9450

> <Gold.Chemscore.Metal>
0.0000

> <Gold.Chemscore.Lipo>
68.3115

> <Gold.Chemscore.Internal_Hbond>
0.0000

> <Gold.Chemscore.DEClash>
0.0149

> <Gold.Chemscore.DEInternal>
7.0263

> <Gold.Chemscore.Rot>
2.5968

> <Gold.Chemscore.Internal.Correction>
   9.000000E+99

> <Gold.Chemscore.Hbonds>
donor molecule, donor type, donor heavy atom, donor atom, acceptor molecule, acceptor atom, score
      L1  H     7    37       P1  7957  0.66
      P1  H  6896  6907       L1    23  0.52
      P1  H  6934  6947       L1    22  0.96
      P1  H  7989  7998       L1     7  0.15
      P1  H  7997  8010       L1     3  0.10

> <Gold.Chemscore.Hbond.Weighted>
-9.8364

> <Gold.Chemscore.Metal.Weighted>
-0.0000

> <Gold.Chemscore.Lipo.Weighted>
-7.9924

> <Gold.Chemscore.Internal_Hbond.Weighted>
0.0000

> <Gold.Chemscore.DEClash.Weighted>
0.0149

> <Gold.Chemscore.DEInternal.Weighted>
7.0263

> <Gold.Chemscore.Rot.Weighted>
6.6477

> <Gold.Chemscore.Internal.Correction.Weighted>
   9.000000E+99

> <Gold.Protein.RotatedTorsions>
[ 6907 6896 6895 6894 ] final -101.69 input  -60.11 | X-H torsion
[ 7974 7965 7964 7962 ] final  -93.12 input  175.53 | X-H torsion
[ 8008 7997 7996 7995 ] final   82.09 input   59.86 | X-H torsion
[ 10167 10162 10161 10158 ] final -132.77 input  -65.29 | X-H torsion
[ 10718 10713 10712 10709 ] final -145.59 input   66.30 | X-H torsion
[ 10763 10752 10751 10750 ] final   38.02 input  -60.55 | X-H torsion
[ 11005 11000 10999 10996 ] final  -37.04 input  -57.11 | X-H torsion

> <Gold.Protein.ActiveResidues>
 VAL166  LYS551  ARG553  GLY616  TRP617  ASP618  TYR619  PRO620  LYS621  CYS622 
 ASP623  PHE694  ASN695  SER759  ASP760  ASP761  ALA762  ILE779  LEU786  VAL792 
 PHE793  MET794  SER795  GLU796  ALA797  LYS798  CYS799  TRP800  GLU811  SER814 

> <Gold.Protein.RotatedAtoms>
  150.7165  134.0696  159.3859 H   0  0  0  0  0  0  0  0  0  0  0  0  # atno 6907 bound_to 6896
  151.8678  135.0498  160.0485 H   0  0  0  0  0  0  0  0  0  0  0  0  # atno 6908 bound_to 6896
  152.2667  133.5310  159.5451 H   0  0  0  0  0  0  0  0  0  0  0  0  # atno 6909 bound_to 6896
  145.3908  140.9528  143.2341 H   0  0  0  0  0  0  0  0  0  0  0  0  # atno 7974 bound_to 7965
  155.9060  140.3430  155.6062 H   0  0  0  0  0  0  0  0  0  0  0  0  # atno 8008 bound_to 7997
  155.7444  140.0812  157.2249 H   0  0  0  0  0  0  0  0  0  0  0  0  # atno 8009 bound_to 7997
  154.4049  140.1565  156.2640 H   0  0  0  0  0  0  0  0  0  0  0  0  # atno 8010 bound_to 7997
  139.9051  143.6561  152.2587 H   0  0  0  0  0  0  0  0  0  0  0  0  # atno 10167 bound_to 10162
  156.3844  130.7853  151.2049 H   0  0  0  0  0  0  0  0  0  0  0  0  # atno 10718 bound_to 10713
  153.0016  135.6261  154.2238 H   0  0  0  0  0  0  0  0  0  0  0  0  # atno 10763 bound_to 10752
  154.1981  135.2805  155.3002 H   0  0  0  0  0  0  0  0  0  0  0  0  # atno 10764 bound_to 10752
  154.5706  135.5678  153.7150 H   0  0  0  0  0  0  0  0  0  0  0  0  # atno 10765 bound_to 10752
  140.9921  133.6999  156.1869 H   0  0  0  0  0  0  0  0  0  0  0  0  # atno 11005 bound_to 11000
  144.8441  139.5424  143.6886 LP  0  0  0  0  0  0  0  0  0  0  0  0  # atno 17320 bound_to 7965
  146.2798  139.6848  142.9237 LP  0  0  0  0  0  0  0  0  0  0  0  0  # atno 17321 bound_to 7965
  139.6991  144.7637  151.1304 LP  0  0  0  0  0  0  0  0  0  0  0  0  # atno 17342 bound_to 10162
  140.7698  143.5482  150.9234 LP  0  0  0  0  0  0  0  0  0  0  0  0  # atno 17343 bound_to 10162
  157.7495  131.0334  150.4272 LP  0  0  0  0  0  0  0  0  0  0  0  0  # atno 17370 bound_to 10713
  156.4521  130.4014  149.6629 LP  0  0  0  0  0  0  0  0  0  0  0  0  # atno 17371 bound_to 10713
  140.7023  134.4550  157.5585 LP  0  0  0  0  0  0  0  0  0  0  0  0  # atno 17394 bound_to 11000
  139.8997  134.8585  156.1948 LP  0  0  0  0  0  0  0  0  0  0  0  0  # atno 17395 bound_to 11000

$$$$
