AV-unprocessed.smi:3055|AV-procd|sdf|11642|dock6
  -GOLD-   2272017 33D 1   1.00000     0.00000
 Structure written by MMmdl.
 48 50  0  0  0  0  0  0  0  0  3 V2000
  152.6070  138.7853  157.8152 O   0  0  0  0  0  0  0  0  0  0  0  0
  152.1883  139.6430  157.0368 C   0  0  0  0  0  0  0  0  0  0  0  0
  151.8108  140.8611  157.4560 N   0  0  0  0  0  0  0  0  0  0  0  0
  151.8591  141.3122  158.8410 C   0  0  0  0  0  0  0  0  0  0  0  0
  152.6538  142.6205  158.9742 C   0  0  0  0  0  0  0  0  0  0  0  0
  151.8115  143.7484  159.3842 N   0  0  0  0  0  0  0  0  0  0  0  0
  150.7649  144.2970  158.6887 C   0  0  0  0  0  0  0  0  0  0  0  0
  150.2783  145.3218  159.4586 C   0  0  0  0  0  0  0  0  0  0  0  0
  151.0469  145.3546  160.5914 N   0  3  0  0  0  0  0  0  0  0  0  0
  151.9781  144.3962  160.5449 C   0  0  0  0  0  0  0  0  0  0  0  0
  152.0490  139.4319  155.7033 N   0  0  0  0  0  0  0  0  0  0  0  0
  152.5076  138.2487  154.9583 C   0  0  0  0  0  0  0  0  0  0  0  0
  151.2876  137.3580  154.6699 C   0  0  0  0  0  0  0  0  0  0  0  0
  150.1930  138.1426  153.9199 C   0  0  0  0  0  0  0  0  0  0  0  0
  149.8488  139.4884  154.6121 C   0  0  2  0  0  0  0  0  0  0  0  0
  148.8954  140.3006  153.8054 N   0  3  0  0  0  0  0  0  0  0  0  0
  147.5943  139.6573  153.5196 C   0  0  0  0  0  0  0  0  0  0  0  0
  146.6468  140.8047  153.1900 C   0  0  0  0  0  0  0  0  0  0  0  0
  147.0949  141.8999  154.1497 C   0  0  0  0  0  0  0  0  0  0  0  0
  148.5945  141.6473  154.3559 C   0  0  0  0  0  0  0  0  0  0  0  0
  151.1630  140.2640  154.8797 C   0  0  0  0  0  0  0  0  0  0  0  0
  151.4749  141.5178  156.7672 H   0  0  0  0  0  0  0  0  0  0  0  0
  150.8457  141.4437  159.2241 H   0  0  0  0  0  0  0  0  0  0  0  0
  152.3301  140.5375  159.4477 H   0  0  0  0  0  0  0  0  0  0  0  0
  153.4349  142.5080  159.7271 H   0  0  0  0  0  0  0  0  0  0  0  0
  153.1513  142.8735  158.0366 H   0  0  0  0  0  0  0  0  0  0  0  0
  150.4532  143.9274  157.7224 H   0  0  0  0  0  0  0  0  0  0  0  0
  149.4638  146.0111  159.2898 H   0  0  0  0  0  0  0  0  0  0  0  0
  152.7185  144.1888  161.2969 H   0  0  0  0  0  0  0  0  0  0  0  0
  152.9656  138.5683  154.0209 H   0  0  0  0  0  0  0  0  0  0  0  0
  153.2776  137.6722  155.4708 H   0  0  0  0  0  0  0  0  0  0  0  0
  151.5878  136.4872  154.0865 H   0  0  0  0  0  0  0  0  0  0  0  0
  150.8850  136.9771  155.6096 H   0  0  0  0  0  0  0  0  0  0  0  0
  150.5361  138.3380  152.9027 H   0  0  0  0  0  0  0  0  0  0  0  0
  149.3088  137.5114  153.8310 H   0  0  0  0  0  0  0  0  0  0  0  0
  149.3714  139.2684  155.5690 H   0  0  0  0  0  0  0  0  0  0  0  0
  147.6650  138.9364  152.7046 H   0  0  0  0  0  0  0  0  0  0  0  0
  147.2383  139.1337  154.4086 H   0  0  0  0  0  0  0  0  0  0  0  0
  146.7973  141.1276  152.1589 H   0  0  0  0  0  0  0  0  0  0  0  0
  145.5968  140.5368  153.3113 H   0  0  0  0  0  0  0  0  0  0  0  0
  146.8844  142.9003  153.7709 H   0  0  0  0  0  0  0  0  0  0  0  0
  146.5712  141.7889  155.1004 H   0  0  0  0  0  0  0  0  0  0  0  0
  148.8373  141.7189  155.4171 H   0  0  0  0  0  0  0  0  0  0  0  0
  149.1957  142.3883  153.8280 H   0  0  0  0  0  0  0  0  0  0  0  0
  150.9710  141.2290  155.3497 H   0  0  0  0  0  0  0  0  0  0  0  0
  151.6591  140.4992  153.9368 H   0  0  0  0  0  0  0  0  0  0  0  0
  149.3268  140.4586  152.9058 H   0  0  0  0  0  0  0  0  0  0  0  0
  150.9276  146.0068  161.3565 H   0  0  0  0  0  0  0  0  0  0  0  0
  1  2  2  0  0  0  0
  2  3  1  0  0  0  0
  2 11  1  0  0  0  0
  3  4  1  0  0  0  0
  3 22  1  0  0  0  0
  4  5  1  0  0  0  0
  4 23  1  0  0  0  0
  4 24  1  0  0  0  0
  5  6  1  0  0  0  0
  5 25  1  0  0  0  0
  5 26  1  0  0  0  0
  6 10  1  0  0  0  0
  6  7  1  0  0  0  0
  7  8  2  0  0  0  0
  7 27  1  0  0  0  0
  8  9  1  0  0  0  0
  8 28  1  0  0  0  0
  9 10  2  0  0  0  0
  9 48  1  0  0  0  0
 10 29  1  0  0  0  0
 11 21  1  0  0  0  0
 11 12  1  0  0  0  0
 12 13  1  0  0  0  0
 12 30  1  0  0  0  0
 12 31  1  0  0  0  0
 13 14  1  0  0  0  0
 13 32  1  0  0  0  0
 13 33  1  0  0  0  0
 14 15  1  0  0  0  0
 14 34  1  0  0  0  0
 14 35  1  0  0  0  0
 15 16  1  0  0  0  0
 15 21  1  0  0  0  0
 15 36  1  0  0  0  0
 16 20  1  0  0  0  0
 16 17  1  0  0  0  0
 16 47  1  0  0  0  0
 17 18  1  0  0  0  0
 17 37  1  0  0  0  0
 17 38  1  0  0  0  0
 18 19  1  0  0  0  0
 18 39  1  0  0  0  0
 18 40  1  0  0  0  0
 19 20  1  0  0  0  0
 19 41  1  0  0  0  0
 19 42  1  0  0  0  0
 20 43  1  0  0  0  0
 20 44  1  0  0  0  0
 21 45  1  0  0  0  0
 21 46  1  0  0  0  0
M  CHG  1   9   1
M  CHG  1  16   1
M  END
> <s_m_source_file>
AV-unprocessed.smi

> <i_m_source_file_index>
3055

> <i_lp_mmshare_version>
43012

> <i_f3d_flags>
0

> <s_epik_input>
W2NIXTFuW2NIXVtjSF1uMVtDSDJdW0NIMl1bTkhdQyg9TylOMltDSDJdW0NIMl1bQ0gyXVtDQEhdKFtDSDJdMilOM1tDSDJdW0NIMl1bQ0gyXVtDSDJdMw==

> <s_epik_cmdline>
J2VwaWtfcHl0aG9uJywgJy1waCcsICc3LjAnLCAnLXRuJywgJzgnLCAnLW1hJywgJzIwMCcsICctbWV0YWxfYmluZGluZycsICctaW1hZScsICc8aW5maWxlLm1hZT4nLCAnLW9tYWUnLCAnPG91dGZpbGUubWFlPic=

> <r_lp_tautomer_probability>
1

> <r_epik_Ionization_Penalty>
0.259176

> <r_epik_Ionization_Penalty_Charging>
0.00125522

> <r_epik_Ionization_Penalty_Neutral>
0.257921

> <r_epik_State_Penalty>
0.249312

> <r_epik_Charging_Adjusted_Penalty>
0.250567

> <i_epik_Tot_Q>
2

> <i_epik_Tot_abs_Q>
2

> <r_epik_Metal_State_Penalty>
0.53666

> <b_epik_Metal_Only>
0

> <s_lp_Force_Field>
OPLS_2005

> <r_lp_Energy>
60.4865

> <b_lp_Chiralities_Consistent>
1

> <s_lp_Variant>
AV-unprocessed.smi:3055-2

> <Gold.Version>
5.8.1

> <Gold.Id.Protein>
6NUR|6NUR_protein|mol2

> <Gold.PLP.Fitness>
46.0672

> <Gold.PLP.PLP>
-44.1065

> <Gold.PLP.part.hbond>
-2.0000

> <Gold.PLP.part.metal>
0.0000

> <Gold.PLP.part.buried>
2.1067

> <Gold.PLP.part.nonpolar>
-44.6747

> <Gold.PLP.part.repulsive>
0.4078

> <Gold.PLP.ligand.clash>
0.9867

> <Gold.PLP.ligand.torsion>
0.5074

> <Gold.PLP.Chemscore.Hbond>
1.0000

> <Gold.PLP.Chemscore.CHOScore>
0.2984

> <Gold.PLP.Chemscore.Metal>
0.0000

> <Gold.Chemscore.Hbonds>
donor molecule, donor type, donor heavy atom, donor atom, acceptor molecule, acceptor atom, score
      L1  H    16    47       P1  7957  1.00
      L1  C     7    27       P1  8028  0.61

> <Gold.PLP.Chemscore.Internal.Correction>
0.0671

> <Gold.Rescore>
     Score         DG    S(hbond)    S(metal)    S(lipo)     H(rot)  DE(clash)    DE(int)     intcor
     13.94     -16.27       0.99        0.00     104.86       1.87       1.81       0.52       ----

> <Gold.Chemscore.Fitness>
13.9430

> <Gold.Chemscore.DG>
-16.2702

> <Gold.Chemscore.ZeroCoef>
-5.4800

> <Gold.Chemscore.Hbond>
0.9932

> <Gold.Chemscore.Metal>
0.0000

> <Gold.Chemscore.Lipo>
104.8566

> <Gold.Chemscore.Internal_Hbond>
0.0000

> <Gold.Chemscore.DEClash>
1.8058

> <Gold.Chemscore.DEInternal>
0.5214

> <Gold.Chemscore.Rot>
1.8732

> <Gold.Chemscore.Internal.Correction>
   9.000000E+99

> <Gold.Chemscore.Hbonds>
donor molecule, donor type, donor heavy atom, donor atom, acceptor molecule, acceptor atom, score
      L1  H    16    47       P1  7957  0.97

> <Gold.Chemscore.Hbond.Weighted>
-3.3174

> <Gold.Chemscore.Metal.Weighted>
-0.0000

> <Gold.Chemscore.Lipo.Weighted>
-12.2682

> <Gold.Chemscore.Internal_Hbond.Weighted>
0.0000

> <Gold.Chemscore.DEClash.Weighted>
1.8058

> <Gold.Chemscore.DEInternal.Weighted>
0.5214

> <Gold.Chemscore.Rot.Weighted>
4.7954

> <Gold.Chemscore.Internal.Correction.Weighted>
   9.000000E+99

> <Gold.Protein.RotatedTorsions>
[ 6907 6896 6895 6894 ] final   66.79 input  -60.11 | X-H torsion
[ 7974 7965 7964 7962 ] final  158.94 input  175.53 | X-H torsion
[ 8008 7997 7996 7995 ] final  125.67 input   59.86 | X-H torsion
[ 10167 10162 10161 10158 ] final  158.16 input  -65.29 | X-H torsion
[ 10718 10713 10712 10709 ] final  164.14 input   66.30 | X-H torsion
[ 10763 10752 10751 10750 ] final  169.21 input  -60.55 | X-H torsion
[ 11005 11000 10999 10996 ] final  -28.42 input  -57.11 | X-H torsion

> <Gold.Protein.ActiveResidues>
 VAL166  LYS551  ARG553  GLY616  TRP617  ASP618  TYR619  PRO620  LYS621  CYS622 
 ASP623  PHE694  ASN695  SER759  ASP760  ASP761  ALA762  ILE779  LEU786  VAL792 
 PHE793  MET794  SER795  GLU796  ALA797  LYS798  CYS799  TRP800  GLU811  SER814 

> <Gold.Protein.RotatedAtoms>
  152.4506  134.5402  159.9836 H   0  0  0  0  0  0  0  0  0  0  0  0  # atno 6907 bound_to 6896
  151.5476  133.3417  159.2955 H   0  0  0  0  0  0  0  0  0  0  0  0  # atno 6908 bound_to 6896
  150.8434  134.7766  159.7014 H   0  0  0  0  0  0  0  0  0  0  0  0  # atno 6909 bound_to 6896
  144.7817  139.7549  143.6257 H   0  0  0  0  0  0  0  0  0  0  0  0  # atno 7974 bound_to 7965
  156.2841  140.2711  156.1987 H   0  0  0  0  0  0  0  0  0  0  0  0  # atno 8008 bound_to 7997
  155.0383  140.0386  157.2518 H   0  0  0  0  0  0  0  0  0  0  0  0  # atno 8009 bound_to 7997
  154.7296  140.2704  155.6473 H   0  0  0  0  0  0  0  0  0  0  0  0  # atno 8010 bound_to 7997
  139.4825  144.4850  151.8390 H   0  0  0  0  0  0  0  0  0  0  0  0  # atno 10167 bound_to 10162
  157.0986  131.0437  151.2507 H   0  0  0  0  0  0  0  0  0  0  0  0  # atno 10718 bound_to 10713
  154.3798  135.2753  155.2218 H   0  0  0  0  0  0  0  0  0  0  0  0  # atno 10763 bound_to 10752
  154.4330  135.5973  153.6084 H   0  0  0  0  0  0  0  0  0  0  0  0  # atno 10764 bound_to 10752
  152.9835  135.6000  154.4039 H   0  0  0  0  0  0  0  0  0  0  0  0  # atno 10765 bound_to 10752
  140.9207  133.7401  156.0797 H   0  0  0  0  0  0  0  0  0  0  0  0  # atno 11005 bound_to 11000
  146.2029  139.5335  142.9731 LP  0  0  0  0  0  0  0  0  0  0  0  0  # atno 17320 bound_to 7965
  145.6031  141.0352  143.2007 LP  0  0  0  0  0  0  0  0  0  0  0  0  # atno 17321 bound_to 7965
  140.4329  144.2090  150.5888 LP  0  0  0  0  0  0  0  0  0  0  0  0  # atno 17342 bound_to 10162
  140.4761  143.2395  151.9022 LP  0  0  0  0  0  0  0  0  0  0  0  0  # atno 17343 bound_to 10162
  157.4660  130.7681  149.7279 LP  0  0  0  0  0  0  0  0  0  0  0  0  # atno 17370 bound_to 10713
  155.9879  130.3963  150.3142 LP  0  0  0  0  0  0  0  0  0  0  0  0  # atno 17371 bound_to 10713
  140.7992  134.3529  157.5444 LP  0  0  0  0  0  0  0  0  0  0  0  0  # atno 17394 bound_to 11000
  139.8775  134.9187  156.3209 LP  0  0  0  0  0  0  0  0  0  0  0  0  # atno 17395 bound_to 11000

$$$$
