AV-unprocessed.smi:2340|AV-procd|sdf|9347|dock8
  -GOLD-   2272012573D 1   1.00000     0.00000
 Structure written by MMmdl.
 40 41  0  0  0  0  0  0  0  0  1 V2000
  144.5674  132.7658  150.5027 C   0  0  0  0  0  0  0  0  0  0  0  0
  144.6555  134.1637  151.0276 C   0  0  0  0  0  0  0  0  0  0  0  0
  145.6479  135.0792  150.7811 C   0  0  0  0  0  0  0  0  0  0  0  0
  145.3637  136.5839  151.6114 S   0  0  0  0  0  0  0  0  0  0  0  0
  143.8807  135.9044  152.2734 C   0  0  0  0  0  0  0  0  0  0  0  0
  142.9893  136.6472  153.2222 C   0  0  1  0  0  0  0  0  0  0  0  0
  141.7039  135.8671  153.5333 C   0  0  0  0  0  0  0  0  0  0  0  0
  143.7206  137.1311  154.4934 C   0  0  0  0  0  0  0  0  0  0  0  0
  144.4199  138.3978  154.2828 N   0  0  0  0  0  0  0  0  0  0  0  0
  145.4033  138.8831  155.0545 C   0  0  0  0  0  0  0  0  0  0  0  0
  145.8160  138.3358  156.0768 O   0  0  0  0  0  0  0  0  0  0  0  0
  145.8911  140.0334  154.5699 N   0  0  0  0  0  0  0  0  0  0  0  0
  146.9992  140.7925  155.1504 C   0  0  1  0  0  0  0  0  0  0  0  0
  148.3181  140.0446  154.9613 C   0  0  0  0  0  0  0  0  0  0  0  0
  149.2632  141.0947  154.3872 C   0  0  0  0  0  0  0  0  0  0  0  0
  148.3977  141.9492  153.6611 O   0  0  0  0  0  0  0  0  0  0  0  0
  147.2453  142.1566  154.4645 C   0  0  1  0  0  0  0  0  0  0  0  0
  146.1070  142.7422  153.6133 C   0  0  0  0  0  0  0  0  0  0  0  0
  143.6529  134.6509  151.8698 N   0  0  0  0  0  0  0  0  0  0  0  0
  145.4090  132.5297  149.8512 H   0  0  0  0  0  0  0  0  0  0  0  0
  143.6531  132.6178  149.9279 H   0  0  0  0  0  0  0  0  0  0  0  0
  144.5685  132.0411  151.3171 H   0  0  0  0  0  0  0  0  0  0  0  0
  146.5287  134.9589  150.1680 H   0  0  0  0  0  0  0  0  0  0  0  0
  142.6720  137.5466  152.6926 H   0  0  0  0  0  0  0  0  0  0  0  0
  141.1600  135.6259  152.6193 H   0  0  0  0  0  0  0  0  0  0  0  0
  141.0369  136.4481  154.1709 H   0  0  0  0  0  0  0  0  0  0  0  0
  141.9230  134.9312  154.0481 H   0  0  0  0  0  0  0  0  0  0  0  0
  143.0018  137.2739  155.3006 H   0  0  0  0  0  0  0  0  0  0  0  0
  144.4138  136.3624  154.8395 H   0  0  0  0  0  0  0  0  0  0  0  0
  144.1534  138.9300  153.4674 H   0  0  0  0  0  0  0  0  0  0  0  0
  145.4800  140.4062  153.7266 H   0  0  0  0  0  0  0  0  0  0  0  0
  146.8268  140.9549  156.2160 H   0  0  0  0  0  0  0  0  0  0  0  0
  148.6950  139.6143  155.8895 H   0  0  0  0  0  0  0  0  0  0  0  0
  148.2073  139.2310  154.2427 H   0  0  0  0  0  0  0  0  0  0  0  0
  149.7497  141.6592  155.1842 H   0  0  0  0  0  0  0  0  0  0  0  0
  150.0353  140.6640  153.7494 H   0  0  0  0  0  0  0  0  0  0  0  0
  147.5129  142.8843  155.2330 H   0  0  0  0  0  0  0  0  0  0  0  0
  145.2084  142.8964  154.2109 H   0  0  0  0  0  0  0  0  0  0  0  0
  145.8524  142.0897  152.7778 H   0  0  0  0  0  0  0  0  0  0  0  0
  146.3958  143.7075  153.1972 H   0  0  0  0  0  0  0  0  0  0  0  0
  1  2  1  0  0  0  0
  1 20  1  0  0  0  0
  1 21  1  0  0  0  0
  1 22  1  0  0  0  0
  2 19  1  0  0  0  0
  2  3  2  0  0  0  0
  3  4  1  0  0  0  0
  3 23  1  0  0  0  0
  4  5  1  0  0  0  0
  5  6  1  0  0  0  0
  5 19  2  0  0  0  0
  6  7  1  0  0  0  0
  6  8  1  0  0  0  0
  6 24  1  0  0  0  0
  7 25  1  0  0  0  0
  7 26  1  0  0  0  0
  7 27  1  0  0  0  0
  8  9  1  0  0  0  0
  8 28  1  0  0  0  0
  8 29  1  0  0  0  0
  9 10  1  0  0  0  0
  9 30  1  0  0  0  0
 10 11  2  0  0  0  0
 10 12  1  0  0  0  0
 12 13  1  0  0  0  0
 12 31  1  0  0  0  0
 13 17  1  0  0  0  0
 13 14  1  0  0  0  0
 13 32  1  0  0  0  0
 14 15  1  0  0  0  0
 14 33  1  0  0  0  0
 14 34  1  0  0  0  0
 15 16  1  0  0  0  0
 15 35  1  0  0  0  0
 15 36  1  0  0  0  0
 16 17  1  0  0  0  0
 17 18  1  0  0  0  0
 17 37  1  0  0  0  0
 18 38  1  0  0  0  0
 18 39  1  0  0  0  0
 18 40  1  0  0  0  0
M  END
> <s_m_source_file>
AV-unprocessed.smi

> <i_m_source_file_index>
2340

> <i_lp_mmshare_version>
43012

> <i_f3d_flags>
0

> <s_epik_input>
W0NIM11jMVtjSF1zYyhuMSlbQ0BIXShbQ0gzXSlbQ0gyXVtOSF1DKD1PKVtOSF1bQ0BASF0yW0NIMl1bQ0gyXU9bQ0BIXTJbQ0gzXQ==

> <s_epik_cmdline>
J2VwaWtfcHl0aG9uJywgJy1waCcsICc3LjAnLCAnLXRuJywgJzgnLCAnLW1hJywgJzIwMCcsICctbWV0YWxfYmluZGluZycsICctaW1hZScsICc8aW5maWxlLm1hZT4nLCAnLW9tYWUnLCAnPG91dGZpbGUubWFlPic=

> <r_epik_Ionization_Penalty>
0.00156622

> <r_epik_Ionization_Penalty_Charging>
0

> <r_epik_Ionization_Penalty_Neutral>
0.00156622

> <r_epik_State_Penalty>
0.00101902

> <r_epik_Charging_Adjusted_Penalty>
0.00101902

> <i_epik_Tot_Q>
0

> <i_epik_Tot_abs_Q>
0

> <r_epik_Metal_State_Penalty>
-0

> <b_epik_Metal_Only>
0

> <s_lp_Force_Field>
OPLS_2005

> <r_lp_Energy>
5.75985

> <b_lp_Chiralities_Consistent>
1

> <s_lp_Variant>
AV-unprocessed.smi:2340-4

> <Gold.Version>
5.8.1

> <Gold.Id.Protein>
6NUR|6NUR_protein|mol2

> <Gold.PLP.Fitness>
38.8850

> <Gold.PLP.PLP>
-30.3484

> <Gold.PLP.part.hbond>
-3.0000

> <Gold.PLP.part.metal>
0.0000

> <Gold.PLP.part.buried>
-3.5720

> <Gold.PLP.part.nonpolar>
-24.3086

> <Gold.PLP.part.repulsive>
0.4061

> <Gold.PLP.ligand.clash>
0.0000

> <Gold.PLP.ligand.torsion>
0.5727

> <Gold.PLP.Chemscore.Hbond>
2.2870

> <Gold.PLP.Chemscore.CHOScore>
0.8992

> <Gold.PLP.Chemscore.Metal>
0.0000

> <Gold.Chemscore.Hbonds>
donor molecule, donor type, donor heavy atom, donor atom, acceptor molecule, acceptor atom, score
      L1  H     9    30       P1 10175  1.00
      L1  H    12    31       P1 10175  0.55
      P1  H  8011  8017       L1    16  0.32
      L1  C     3    23       P1  7921  0.68

> <Gold.PLP.Chemscore.Internal.Correction>
0.1233

> <Gold.Rescore>
     Score         DG    S(hbond)    S(metal)    S(lipo)     H(rot)  DE(clash)    DE(int)     intcor
     15.00     -15.56       1.89        0.00      65.64       1.53       0.06       0.50       ----

> <Gold.Chemscore.Fitness>
14.9978

> <Gold.Chemscore.DG>
-15.5554

> <Gold.Chemscore.ZeroCoef>
-5.4800

> <Gold.Chemscore.Hbond>
1.8918

> <Gold.Chemscore.Metal>
0.0000

> <Gold.Chemscore.Lipo>
65.6408

> <Gold.Chemscore.Internal_Hbond>
0.0000

> <Gold.Chemscore.DEClash>
0.0575

> <Gold.Chemscore.DEInternal>
0.5000

> <Gold.Chemscore.Rot>
1.5325

> <Gold.Chemscore.Internal.Correction>
   9.000000E+99

> <Gold.Chemscore.Hbonds>
donor molecule, donor type, donor heavy atom, donor atom, acceptor molecule, acceptor atom, score
      L1  H     9    30       P1 10175  0.99
      L1  H    12    31       P1 10175  0.54
      P1  H  8011  8017       L1    16  0.03

> <Gold.Chemscore.Hbond.Weighted>
-6.3187

> <Gold.Chemscore.Metal.Weighted>
-0.0000

> <Gold.Chemscore.Lipo.Weighted>
-7.6800

> <Gold.Chemscore.Internal_Hbond.Weighted>
0.0000

> <Gold.Chemscore.DEClash.Weighted>
0.0575

> <Gold.Chemscore.DEInternal.Weighted>
0.5000

> <Gold.Chemscore.Rot.Weighted>
3.9233

> <Gold.Chemscore.Internal.Correction.Weighted>
   9.000000E+99

> <Gold.Protein.RotatedTorsions>
[ 6907 6896 6895 6894 ] final  -56.61 input  -60.11 | X-H torsion
[ 7974 7965 7964 7962 ] final -136.64 input  175.53 | X-H torsion
[ 8008 7997 7996 7995 ] final  -89.21 input   59.86 | X-H torsion
[ 10167 10162 10161 10158 ] final    2.56 input  -65.29 | X-H torsion
[ 10718 10713 10712 10709 ] final  104.96 input   66.30 | X-H torsion
[ 10763 10752 10751 10750 ] final  115.04 input  -60.55 | X-H torsion
[ 11005 11000 10999 10996 ] final  -41.55 input  -57.11 | X-H torsion

> <Gold.Protein.ActiveResidues>
 VAL166  LYS551  ARG553  GLY616  TRP617  ASP618  TYR619  PRO620  LYS621  CYS622 
 ASP623  PHE694  ASN695  SER759  ASP760  ASP761  ALA762  ILE779  LEU786  VAL792 
 PHE793  MET794  SER795  GLU796  ALA797  LYS798  CYS799  TRP800  GLU811  SER814 

> <Gold.Protein.RotatedAtoms>
  150.8154  134.7332  159.6724 H   0  0  0  0  0  0  0  0  0  0  0  0  # atno 6907 bound_to 6896
  152.4272  134.5842  159.9966 H   0  0  0  0  0  0  0  0  0  0  0  0  # atno 6908 bound_to 6896
  151.6040  133.3316  159.3089 H   0  0  0  0  0  0  0  0  0  0  0  0  # atno 6909 bound_to 6896
  144.8910  140.6641  143.5145 H   0  0  0  0  0  0  0  0  0  0  0  0  # atno 7974 bound_to 7965
  154.6839  140.0544  157.0294 H   0  0  0  0  0  0  0  0  0  0  0  0  # atno 8008 bound_to 7997
  155.0913  140.3219  155.4554 H   0  0  0  0  0  0  0  0  0  0  0  0  # atno 8009 bound_to 7997
  156.2704  140.2047  156.6040 H   0  0  0  0  0  0  0  0  0  0  0  0  # atno 8010 bound_to 7997
  140.6629  143.7256  150.7772 H   0  0  0  0  0  0  0  0  0  0  0  0  # atno 10167 bound_to 10162
  157.6722  131.0816  150.5784 H   0  0  0  0  0  0  0  0  0  0  0  0  # atno 10718 bound_to 10713
  153.5162  135.3607  155.2610 H   0  0  0  0  0  0  0  0  0  0  0  0  # atno 10763 bound_to 10752
  154.8738  135.4034  154.3312 H   0  0  0  0  0  0  0  0  0  0  0  0  # atno 10764 bound_to 10752
  153.3974  135.7074  153.6517 H   0  0  0  0  0  0  0  0  0  0  0  0  # atno 10765 bound_to 10752
  141.0253  133.6844  156.2472 H   0  0  0  0  0  0  0  0  0  0  0  0  # atno 11005 bound_to 11000
  145.3784  139.1642  143.4294 LP  0  0  0  0  0  0  0  0  0  0  0  0  # atno 17320 bound_to 7965
  146.3053  140.3862  142.8689 LP  0  0  0  0  0  0  0  0  0  0  0  0  # atno 17321 bound_to 7965
  140.0928  143.4861  152.2469 LP  0  0  0  0  0  0  0  0  0  0  0  0  # atno 17342 bound_to 10162
  139.5868  144.7534  151.3499 LP  0  0  0  0  0  0  0  0  0  0  0  0  # atno 17343 bound_to 10162
  156.6085  130.4373  149.5868 LP  0  0  0  0  0  0  0  0  0  0  0  0  # atno 17370 bound_to 10713
  156.2449  130.6873  151.1591 LP  0  0  0  0  0  0  0  0  0  0  0  0  # atno 17371 bound_to 10713
  140.6501  134.5075  157.5577 LP  0  0  0  0  0  0  0  0  0  0  0  0  # atno 17394 bound_to 11000
  139.9172  134.8222  156.1327 LP  0  0  0  0  0  0  0  0  0  0  0  0  # atno 17395 bound_to 11000

$$$$
