AV-unprocessed.smi:1047|AV-procd|sdf|4578|dock8
  -GOLD-   22720 3 43D 1   1.00000     0.00000
 Structure written by MMmdl.
 56 58  0  0  0  0  0  0  0  0  2 V2000
  142.4580  139.6281  155.8868 C   0  0  0  0  0  0  0  0  0  0  0  0
  143.9547  139.8859  156.1096 C   0  0  0  0  0  0  0  0  0  0  0  0
  144.4092  141.1566  155.4852 N   0  3  1  0  0  0  0  0  0  0  0  0
  143.5238  142.3227  155.7334 C   0  0  0  0  0  0  0  0  0  0  0  0
  143.7380  142.9036  157.1442 C   0  0  0  0  0  0  0  0  0  0  0  0
  145.1128  143.2176  157.3295 O   0  0  0  0  0  0  0  0  0  0  0  0
  145.9537  142.0724  157.2266 C   0  0  2  0  0  0  0  0  0  0  0  0
  147.3944  142.5111  157.5260 C   0  0  0  0  0  0  0  0  0  0  0  0
  148.3129  141.3792  157.4604 N   0  0  0  0  0  0  0  0  0  0  0  0
  149.6766  141.7198  157.8547 C   0  0  0  0  0  0  0  0  0  0  0  0
  150.5743  141.9441  156.6222 C   0  0  1  0  0  0  0  0  0  0  0  0
  149.7455  142.2476  155.5193 O   0  0  0  0  0  0  0  0  0  0  0  0
  151.5657  143.1128  156.7852 C   0  0  0  0  0  0  0  0  0  0  0  0
  151.5439  143.6825  158.1204 N   0  0  0  0  0  0  0  0  0  0  0  0
  150.8781  144.7837  158.5180 C   0  0  0  0  0  0  0  0  0  0  0  0
  150.9970  145.1405  159.7933 N   0  0  0  0  0  0  0  0  0  0  0  0
  151.8327  144.1513  160.2827 C   0  0  0  0  0  0  0  0  0  0  0  0
  152.3521  143.9498  161.5804 C   0  0  0  0  0  0  0  0  0  0  0  0
  153.2024  142.8560  161.8591 C   0  0  0  0  0  0  0  0  0  0  0  0
  153.7392  142.6777  163.2685 C   0  0  0  0  0  0  0  0  0  0  0  0
  153.5453  141.9427  160.8299 C   0  0  0  0  0  0  0  0  0  0  0  0
  154.4575  140.7604  161.1056 C   0  0  0  0  0  0  0  0  0  0  0  0
  153.0361  142.1298  159.5277 C   0  0  0  0  0  0  0  0  0  0  0  0
  152.1909  143.2219  159.2626 C   0  0  0  0  0  0  0  0  0  0  0  0
  145.8179  141.5009  155.7992 C   0  0  0  0  0  0  0  0  0  0  0  0
  142.1797  138.6438  156.2640 H   0  0  0  0  0  0  0  0  0  0  0  0
  142.2061  139.6573  154.8263 H   0  0  0  0  0  0  0  0  0  0  0  0
  141.8349  140.3585  156.4021 H   0  0  0  0  0  0  0  0  0  0  0  0
  144.1892  139.8678  157.1737 H   0  0  0  0  0  0  0  0  0  0  0  0
  144.5019  139.0552  155.6624 H   0  0  0  0  0  0  0  0  0  0  0  0
  143.7606  143.0891  154.9943 H   0  0  0  0  0  0  0  0  0  0  0  0
  142.4768  142.0663  155.5772 H   0  0  0  0  0  0  0  0  0  0  0  0
  143.1525  143.8152  157.2638 H   0  0  0  0  0  0  0  0  0  0  0  0
  143.4018  142.2122  157.9176 H   0  0  0  0  0  0  0  0  0  0  0  0
  145.6501  141.3188  157.9557 H   0  0  0  0  0  0  0  0  0  0  0  0
  147.7018  143.2630  156.7980 H   0  0  0  0  0  0  0  0  0  0  0  0
  147.4416  142.9884  158.5058 H   0  0  0  0  0  0  0  0  0  0  0  0
  147.9677  140.6256  158.0471 H   0  0  0  0  0  0  0  0  0  0  0  0
  149.6877  142.5993  158.5002 H   0  0  0  0  0  0  0  0  0  0  0  0
  150.0746  140.8992  158.4514 H   0  0  0  0  0  0  0  0  0  0  0  0
  151.1348  141.0357  156.3960 H   0  0  0  0  0  0  0  0  0  0  0  0
  149.4366  143.1358  155.6143 H   0  0  0  0  0  0  0  0  0  0  0  0
  152.5829  142.7762  156.5791 H   0  0  0  0  0  0  0  0  0  0  0  0
  151.3480  143.9014  156.0637 H   0  0  0  0  0  0  0  0  0  0  0  0
  150.2750  145.3582  157.8297 H   0  0  0  0  0  0  0  0  0  0  0  0
  152.0911  144.6464  162.3634 H   0  0  0  0  0  0  0  0  0  0  0  0
  153.4233  141.7189  163.6797 H   0  0  0  0  0  0  0  0  0  0  0  0
  153.3785  143.4620  163.9347 H   0  0  0  0  0  0  0  0  0  0  0  0
  154.8288  142.7139  163.2693 H   0  0  0  0  0  0  0  0  0  0  0  0
  154.6141  140.1612  160.2082 H   0  0  0  0  0  0  0  0  0  0  0  0
  154.0245  140.1132  161.8686 H   0  0  0  0  0  0  0  0  0  0  0  0
  155.4323  141.1029  161.4533 H   0  0  0  0  0  0  0  0  0  0  0  0
  153.2918  141.4426  158.7350 H   0  0  0  0  0  0  0  0  0  0  0  0
  146.4609  140.6303  155.6649 H   0  0  0  0  0  0  0  0  0  0  0  0
  146.1572  142.2439  155.0759 H   0  0  0  0  0  0  0  0  0  0  0  0
  144.3847  140.9824  154.4904 H   0  0  0  0  0  0  0  0  0  0  0  0
  1  2  1  0  0  0  0
  1 26  1  0  0  0  0
  1 27  1  0  0  0  0
  1 28  1  0  0  0  0
  2  3  1  0  0  0  0
  2 29  1  0  0  0  0
  2 30  1  0  0  0  0
  3 25  1  0  0  0  0
  3  4  1  0  0  0  0
  3 56  1  0  0  0  0
  4  5  1  0  0  0  0
  4 31  1  0  0  0  0
  4 32  1  0  0  0  0
  5  6  1  0  0  0  0
  5 33  1  0  0  0  0
  5 34  1  0  0  0  0
  6  7  1  0  0  0  0
  7  8  1  0  0  0  0
  7 25  1  0  0  0  0
  7 35  1  0  0  0  0
  8  9  1  0  0  0  0
  8 36  1  0  0  0  0
  8 37  1  0  0  0  0
  9 10  1  0  0  0  0
  9 38  1  0  0  0  0
 10 11  1  0  0  0  0
 10 39  1  0  0  0  0
 10 40  1  0  0  0  0
 11 12  1  0  0  0  0
 11 13  1  0  0  0  0
 11 41  1  0  0  0  0
 12 42  1  0  0  0  0
 13 14  1  0  0  0  0
 13 43  1  0  0  0  0
 13 44  1  0  0  0  0
 14 24  1  0  0  0  0
 14 15  1  0  0  0  0
 15 16  2  0  0  0  0
 15 45  1  0  0  0  0
 16 17  1  0  0  0  0
 17 24  2  0  0  0  0
 17 18  1  0  0  0  0
 18 19  2  0  0  0  0
 18 46  1  0  0  0  0
 19 20  1  0  0  0  0
 19 21  1  0  0  0  0
 20 47  1  0  0  0  0
 20 48  1  0  0  0  0
 20 49  1  0  0  0  0
 21 22  1  0  0  0  0
 21 23  2  0  0  0  0
 22 50  1  0  0  0  0
 22 51  1  0  0  0  0
 22 52  1  0  0  0  0
 23 24  1  0  0  0  0
 23 53  1  0  0  0  0
 25 54  1  0  0  0  0
 25 55  1  0  0  0  0
M  CHG  1   3   1
M  END
> <s_m_source_file>
AV-unprocessed.smi

> <i_m_source_file_index>
1047

> <i_lp_mmshare_version>
43012

> <i_f3d_flags>
0

> <s_epik_input>
W0NIM11bQ0gyXU4xW0NIMl1bQ0gyXU9bQ0BIXShbQ0gyXTEpW0NIMl1bTkhdW0NIMl1bQ0BIXShbT0hdKVtDSDJdbihbY0hdbjIpYyhjMjMpW2NIXWMoW0NIM10pYyhbY0hdMylbQ0gzXQ==

> <s_epik_cmdline>
J2VwaWtfcHl0aG9uJywgJy1waCcsICc3LjAnLCAnLXRuJywgJzgnLCAnLW1hJywgJzIwMCcsICctbWV0YWxfYmluZGluZycsICctaW1hZScsICc8aW5maWxlLm1hZT4nLCAnLW9tYWUnLCAnPG91dGZpbGUubWFlPic=

> <r_epik_Ionization_Penalty>
1.19246

> <r_epik_Ionization_Penalty_Charging>
0.210041

> <r_epik_Ionization_Penalty_Neutral>
0.982415

> <r_epik_State_Penalty>
1.57595

> <r_epik_Charging_Adjusted_Penalty>
1.78599

> <i_epik_Tot_Q>
1

> <i_epik_Tot_abs_Q>
1

> <r_epik_Metal_State_Penalty>
1.46172

> <b_epik_Metal_Only>
0

> <s_lp_Force_Field>
OPLS_2005

> <r_lp_Energy>
33.2573

> <b_lp_Chiralities_Consistent>
1

> <s_lp_Variant>
AV-unprocessed.smi:1047-19

> <Gold.Version>
5.8.1

> <Gold.Id.Protein>
6NUR|6NUR_protein|mol2

> <Gold.PLP.Fitness>
56.5878

> <Gold.PLP.PLP>
-48.8662

> <Gold.PLP.part.hbond>
-2.0000

> <Gold.PLP.part.metal>
0.0000

> <Gold.PLP.part.buried>
-6.2516

> <Gold.PLP.part.nonpolar>
-40.5441

> <Gold.PLP.part.repulsive>
0.2754

> <Gold.PLP.ligand.clash>
0.0000

> <Gold.PLP.ligand.torsion>
1.9331

> <Gold.PLP.Chemscore.Hbond>
3.0000

> <Gold.PLP.Chemscore.CHOScore>
0.7905

> <Gold.PLP.Chemscore.Metal>
0.0000

> <Gold.Chemscore.Hbonds>
donor molecule, donor type, donor heavy atom, donor atom, acceptor molecule, acceptor atom, score
      L1  H     3    56       P1 10175  1.30
      L1  H    12    42       P1  8028  1.00
      L1  C    15    45       P1  8028  0.26
      L1  C    15    45       P1  8029  0.57

> <Gold.PLP.Chemscore.Internal.Correction>
0.2164

> <Gold.Rescore>
     Score         DG    S(hbond)    S(metal)    S(lipo)     H(rot)  DE(clash)    DE(int)     intcor
     16.45     -19.68       1.92        0.00     123.87       2.62       1.33       1.89       ----

> <Gold.Chemscore.Fitness>
16.4550

> <Gold.Chemscore.DG>
-19.6784

> <Gold.Chemscore.ZeroCoef>
-5.4800

> <Gold.Chemscore.Hbond>
1.9209

> <Gold.Chemscore.Metal>
0.0000

> <Gold.Chemscore.Lipo>
123.8659

> <Gold.Chemscore.Internal_Hbond>
0.0000

> <Gold.Chemscore.DEClash>
1.3322

> <Gold.Chemscore.DEInternal>
1.8911

> <Gold.Chemscore.Rot>
2.6209

> <Gold.Chemscore.Internal.Correction>
   9.000000E+99

> <Gold.Chemscore.Hbonds>
donor molecule, donor type, donor heavy atom, donor atom, acceptor molecule, acceptor atom, score
      L1  H     3    56       P1 10175  0.60
      L1  H    12    42       P1  8028  1.00

> <Gold.Chemscore.Hbond.Weighted>
-6.4157

> <Gold.Chemscore.Metal.Weighted>
-0.0000

> <Gold.Chemscore.Lipo.Weighted>
-14.4923

> <Gold.Chemscore.Internal_Hbond.Weighted>
0.0000

> <Gold.Chemscore.DEClash.Weighted>
1.3322

> <Gold.Chemscore.DEInternal.Weighted>
1.8911

> <Gold.Chemscore.Rot.Weighted>
6.7096

> <Gold.Chemscore.Internal.Correction.Weighted>
   9.000000E+99

> <Gold.Protein.RotatedTorsions>
[ 6907 6896 6895 6894 ] final  143.62 input  -60.11 | X-H torsion
[ 7974 7965 7964 7962 ] final  -50.84 input  175.53 | X-H torsion
[ 8008 7997 7996 7995 ] final -110.44 input   59.86 | X-H torsion
[ 10167 10162 10161 10158 ] final -148.41 input  -65.29 | X-H torsion
[ 10718 10713 10712 10709 ] final   52.90 input   66.30 | X-H torsion
[ 10763 10752 10751 10750 ] final -135.32 input  -60.55 | X-H torsion
[ 11005 11000 10999 10996 ] final  -75.69 input  -57.11 | X-H torsion

> <Gold.Protein.ActiveResidues>
 VAL166  LYS551  ARG553  GLY616  TRP617  ASP618  TYR619  PRO620  LYS621  CYS622 
 ASP623  PHE694  ASN695  SER759  ASP760  ASP761  ALA762  ILE779  LEU786  VAL792 
 PHE793  MET794  SER795  GLU796  ALA797  LYS798  CYS799  TRP800  GLU811  SER814 

> <Gold.Protein.RotatedAtoms>
  152.2040  133.4862  159.5073 H   0  0  0  0  0  0  0  0  0  0  0  0  # atno 6907 bound_to 6896
  150.6976  134.1553  159.4165 H   0  0  0  0  0  0  0  0  0  0  0  0  # atno 6908 bound_to 6896
  151.9471  135.0186  160.0590 H   0  0  0  0  0  0  0  0  0  0  0  0  # atno 6909 bound_to 6896
  145.9255  140.7796  142.9626 H   0  0  0  0  0  0  0  0  0  0  0  0  # atno 7974 bound_to 7965
  154.9745  140.0397  157.2250 H   0  0  0  0  0  0  0  0  0  0  0  0  # atno 8008 bound_to 7997
  154.7770  140.2812  155.6071 H   0  0  0  0  0  0  0  0  0  0  0  0  # atno 8009 bound_to 7997
  156.2930  140.2599  156.2586 H   0  0  0  0  0  0  0  0  0  0  0  0  # atno 8010 bound_to 7997
  139.7534  143.8484  152.2591 H   0  0  0  0  0  0  0  0  0  0  0  0  # atno 10167 bound_to 10162
  157.5118  130.8506  149.8445 H   0  0  0  0  0  0  0  0  0  0  0  0  # atno 10718 bound_to 10713
  154.8705  135.3707  154.4879 H   0  0  0  0  0  0  0  0  0  0  0  0  # atno 10763 bound_to 10752
  153.5528  135.7024  153.5588 H   0  0  0  0  0  0  0  0  0  0  0  0  # atno 10764 bound_to 10752
  153.3699  135.4024  155.1745 H   0  0  0  0  0  0  0  0  0  0  0  0  # atno 10765 bound_to 10752
  141.1648  133.6956  156.7556 H   0  0  0  0  0  0  0  0  0  0  0  0  # atno 11005 bound_to 11000
  144.6758  140.2044  143.7383 LP  0  0  0  0  0  0  0  0  0  0  0  0  # atno 17320 bound_to 7965
  145.8494  139.2168  143.1781 LP  0  0  0  0  0  0  0  0  0  0  0  0  # atno 17321 bound_to 7965
  139.8469  144.7183  150.9262 LP  0  0  0  0  0  0  0  0  0  0  0  0  # atno 17342 bound_to 10162
  140.7800  143.3933  151.1272 LP  0  0  0  0  0  0  0  0  0  0  0  0  # atno 17343 bound_to 10162
  156.0294  130.3769  150.1730 LP  0  0  0  0  0  0  0  0  0  0  0  0  # atno 17370 bound_to 10713
  156.9920  130.9896  151.3412 LP  0  0  0  0  0  0  0  0  0  0  0  0  # atno 17371 bound_to 10713
  140.2572  134.8495  157.3724 LP  0  0  0  0  0  0  0  0  0  0  0  0  # atno 17394 bound_to 11000
  140.1646  134.4685  155.7872 LP  0  0  0  0  0  0  0  0  0  0  0  0  # atno 17395 bound_to 11000

$$$$
