#       Name:                AV-unprocessed.smi:21
#       Creating user name   scv26
#       Creation time:       Thu Mar 26 15:29:41 2020


#       File generated by GOLD software.
#

@<TRIPOS>MOLECULE
AV-unprocessed.smi:21
    71    74     1
SMALL
NO_CHARGES


@<TRIPOS>ATOM
      1 ****        -6.4874  -0.9127  -3.2532 C.3            1 S1                 0.0000
      2 ****        -5.2348  -0.2855  -3.0312 O.3            1 S1                 0.0000
      3 ****        -4.8557  -0.2428  -1.6635 C.3            1 S1                 0.0000
      4 ****        -3.6043   0.6104  -1.4846 C.3            1 S1                 0.0000
      5 ****        -2.9265   0.0652  -0.2131 C.3            1 S1                 0.0000
      6 ****        -3.1232   0.9633   1.0292 C.3            1 S1                 0.0000
      7 ****        -2.3983   2.2330   0.9577 N.pl3          1 S1                 0.0000
      8 ****        -3.1367   3.4474   0.6174 C.3            1 S1                 0.0000
      9 ****        -1.0386   2.2377   0.8502 C.ar           1 S1                 0.0000
     10 ****        -0.4460   3.2423   0.1498 N.ar           1 S1                 0.0000
     11 ****         0.8784   3.2716  -0.0192 C.ar           1 S1                 0.0000
     12 ****         1.7928   2.4066   0.4191 N.ar           1 S1                 0.0000
     13 ****         1.2150   1.4025   1.1364 C.ar           1 S1                 0.0000
     14 ****        -0.1754   1.2444   1.4069 C.ar           1 S1                 0.0000
     15 ****        -0.3663   0.1062   2.1849 N.2            1 S1                 0.0000
     16 ****         0.8312  -0.3830   2.3514 C.2            1 S1                 0.0000
     17 ****         1.8382   0.3257   1.7401 N.pl3          1 S1                 0.0000
     18 ****         3.2539   0.0068   1.7390 C.3            1 S1                 0.0000
     19 ****         3.7591  -0.5827   0.3948 C.3            1 S1                 0.0000
     20 ****         3.0153  -1.8868   0.0057 C.3            1 S1                 0.0000
     21 ****         1.7224  -1.6358  -0.5074 O.3            1 S1                 0.0000
     22 ****         5.2929  -0.8121   0.4472 C.3            1 S1                 0.0000
     23 ****         6.1171   0.4312   0.7416 C.3            1 S1                 0.0000
     24 ****         7.5060   0.0203   0.2692 C.3            1 S1                 0.0000
     25 ****         7.2877  -0.8334  -0.8463 O.3            1 S1                 0.0000
     26 ****         5.9265  -1.2516  -0.8802 C.3            1 S1                 0.0000
     27 ****        -3.5291  -1.2692   0.0292 N.4            1 S1                 1.0000
     28 ****        -2.5571  -2.3323   0.3636 C.3            1 S1                 0.0000
     29 ****        -4.4031  -1.5947  -1.1155 C.3            1 S1                 0.0000
     30 ****        -5.6579   0.1677  -1.0471 H              1 S1                 0.0000
     31 ****        -1.8620  -0.0569  -0.4192 H              1 S1                 0.0000
     32 ****        -6.7259  -0.8816  -4.3163 H              1 S1                 0.0000
     33 ****        -7.2863  -0.4008  -2.7155 H              1 S1                 0.0000
     34 ****        -6.4724  -1.9588  -2.9461 H              1 S1                 0.0000
     35 ****        -2.9369   0.4594  -2.3344 H              1 S1                 0.0000
     36 ****        -3.8351   1.6740  -1.4445 H              1 S1                 0.0000
     37 ****        -4.1873   1.1658   1.1557 H              1 S1                 0.0000
     38 ****        -2.8340   0.4353   1.9364 H              1 S1                 0.0000
     39 ****        -2.7566   4.2978   1.1847 H              1 S1                 0.0000
     40 ****        -4.1964   3.3440   0.8514 H              1 S1                 0.0000
     41 ****        -3.0472   3.6748  -0.4453 H              1 S1                 0.0000
     42 ****         1.2588   4.1040  -0.5928 H              1 S1                 0.0000
     43 ****         1.0125  -1.2865   2.9150 H              1 S1                 0.0000
     44 ****         3.7859   0.9259   1.9838 H              1 S1                 0.0000
     45 ****         3.4533  -0.6902   2.5539 H              1 S1                 0.0000
     46 ****         3.5736   0.1541  -0.3888 H              1 S1                 0.0000
     47 ****         3.5484  -2.4271  -0.7751 H              1 S1                 0.0000
     48 ****         2.9457  -2.5622   0.8591 H              1 S1                 0.0000
     49 ****         1.3445  -2.4586  -0.7787 H              1 S1                 0.0000
     50 ****         5.5216  -1.5625   1.2062 H              1 S1                 0.0000
     51 ****         5.7565   1.2767   0.1535 H              1 S1                 0.0000
     52 ****         6.1100   0.7178   1.7936 H              1 S1                 0.0000
     53 ****         8.1286   0.8750   0.0038 H              1 S1                 0.0000
     54 ****         8.0199  -0.5465   1.0464 H              1 S1                 0.0000
     55 ****         5.8621  -2.3286  -1.0366 H              1 S1                 0.0000
     56 ****         5.4411  -0.7595  -1.7241 H              1 S1                 0.0000
     57 ****        -1.8525  -2.4944  -0.4531 H              1 S1                 0.0000
     58 ****        -3.0738  -3.2715   0.5629 H              1 S1                 0.0000
     59 ****        -1.9909  -2.0649   1.2559 H              1 S1                 0.0000
     60 ****        -5.2359  -2.2311  -0.8150 H              1 S1                 0.0000
     61 ****        -3.8283  -2.1252  -1.8769 H              1 S1                 0.0000
     62 ****        -4.1393  -1.1580   0.8264 H              1 S1                 0.0000
     63 ****        -5.2853   0.6523  -3.3748 LP             1 S1                 0.0000
     64 ****        -4.5348  -0.7889  -3.5378 LP             1 S1                 0.0000
     65 ****        -1.0097   3.9685  -0.2437 LP             1 S1                 0.0000
     66 ****         2.7744   2.4844   0.2444 LP             1 S1                 0.0000
     67 ****        -1.2292  -0.2557   2.5377 LP             1 S1                 0.0000
     68 ****         1.7842  -1.0178  -1.2912 LP             1 S1                 0.0000
     69 ****         1.1526  -1.2196   0.2011 LP             1 S1                 0.0000
     70 ****         7.8791  -1.6362  -0.7698 LP             1 S1                 0.0000
     71 ****         7.5036  -0.3395  -1.6887 LP             1 S1                 0.0000
@<TRIPOS>BOND
    1    1    2 1     
    2    1   32 1     
    3    1   33 1     
    4    1   34 1     
    5    2    3 1     
    6    3   30 1     
    7    3   29 1     
    8    3    4 1     
    9    4    5 1     
   10    4   35 1     
   11    4   36 1     
   12    5   31 1     
   13    5    6 1     
   14    5   27 1     
   15    6    7 1     
   16    6   37 1     
   17    6   38 1     
   18    7    8 1     
   19    7    9 1     
   20    8   39 1     
   21    8   40 1     
   22    8   41 1     
   23    9   14 ar    
   24    9   10 ar    
   25   10   11 ar    
   26   11   12 ar    
   27   11   42 1     
   28   12   13 ar    
   29   13   17 1     
   30   13   14 ar    
   31   14   15 1     
   32   15   16 2     
   33   16   17 1     
   34   16   43 1     
   35   17   18 1     
   36   18   19 1     
   37   18   44 1     
   38   18   45 1     
   39   19   20 1     
   40   19   22 1     
   41   19   46 1     
   42   20   21 1     
   43   20   47 1     
   44   20   48 1     
   45   21   49 1     
   46   22   26 1     
   47   22   23 1     
   48   22   50 1     
   49   23   24 1     
   50   23   51 1     
   51   23   52 1     
   52   24   25 1     
   53   24   53 1     
   54   24   54 1     
   55   25   26 1     
   56   26   55 1     
   57   26   56 1     
   58   27   28 1     
   59   27   29 1     
   60   27   62 1     
   61   28   57 1     
   62   28   58 1     
   63   28   59 1     
   64   29   60 1     
   65   29   61 1     
   66    2   63 1     
   67    2   64 1     
   68   10   65 1     
   69   12   66 1     
   70   15   67 1     
   71   21   68 1     
   72   21   69 1     
   73   25   70 1     
   74   25   71 1     
@<TRIPOS>SUBSTRUCTURE
      1 S1             1
@<TRIPOS>SET
LONE_PAIRS      STATIC     ATOMS    <user>   **** ""
9 63 64 65 66 67 68 69 70 71
DONOR_HYDROGENS      STATIC     ATOMS    <user>   **** ""
2 49 62
ATOM$BLUE        STATIC     ATOMS    COLORGROUP SYSTEM
9 63 64 65 66 67 68 69 70 71
ATOM$RED        STATIC     ATOMS    COLORGROUP SYSTEM
2 49 62
