#       Name:                AV-unprocessed.smi:2883
#       Creating user name   scv26
#       Creation time:       Fri Mar 27 15:54:56 2020


#       File generated by GOLD software.
#

@<TRIPOS>MOLECULE
AV-unprocessed.smi:2883
    43    45     1
SMALL
NO_CHARGES


@<TRIPOS>ATOM
      1 ****        -1.9274   2.3235  -0.2667 C.3            1 S1                 0.0000
      2 ****        -2.8217   1.1656   0.2340 C.3            1 S1                 0.0000
      3 ****        -3.2416   1.4250   1.6921 C.3            1 S1                 0.0000
      4 ****        -4.0736   1.1613  -0.6728 C.3            1 S1                 0.0000
      5 ****        -2.0790  -0.1753   0.1469 C.ar           1 S1                 0.0000
      6 ****        -2.7841  -1.3087  -0.0196 N.pl3          1 S1                 1.0000
      7 ****        -2.1583  -2.5104   0.0083 C.ar           1 S1                 0.0000
      8 ****        -0.7741  -2.5869   0.2457 C.ar           1 S1                 0.0000
      9 ****        -0.0998  -1.3736   0.4594 C.ar           1 S1                 0.0000
     10 ****         1.2773  -1.3833   0.7196 N.pl3          1 S1                 0.0000
     11 ****         2.0533  -0.1464   0.7012 C.3            1 S1                 0.0000
     12 ****         3.5045  -0.3406   1.1464 C.3            1 S1                 0.0000
     13 ****         4.2790   0.2803  -0.0249 C.3            1 S1                 0.0000
     14 ****         4.2713  -0.6375  -1.2539 C.3            1 S1                 0.0000
     15 ****         2.8288  -0.4976  -1.7359 C.3            1 S1                 0.0000
     16 ****         2.2383   0.4733  -0.6988 C.3            1 S1                 0.0000
     17 ****         3.3724   1.2853  -0.4480 O.3            1 S1                 0.0000
     18 ****        -0.7667  -0.1997   0.4265 N.ar           1 S1                 0.0000
     19 ****        -2.4620   3.2739  -0.2496 H              1 S1                 0.0000
     20 ****        -1.5940   2.1544  -1.2913 H              1 S1                 0.0000
     21 ****        -1.0384   2.4513   0.3523 H              1 S1                 0.0000
     22 ****        -2.3747   1.4661   2.3527 H              1 S1                 0.0000
     23 ****        -3.8985   0.6369   2.0620 H              1 S1                 0.0000
     24 ****        -3.7749   2.3711   1.7910 H              1 S1                 0.0000
     25 ****        -4.5823   2.1259  -0.6500 H              1 S1                 0.0000
     26 ****        -4.8034   0.4139  -0.3594 H              1 S1                 0.0000
     27 ****        -3.8119   0.9550  -1.7114 H              1 S1                 0.0000
     28 ****        -2.7885  -3.3729  -0.1519 H              1 S1                 0.0000
     29 ****        -0.2606  -3.5371   0.2722 H              1 S1                 0.0000
     30 ****         1.7772  -2.2603   0.7016 H              1 S1                 0.0000
     31 ****         1.5848   0.5843   1.3623 H              1 S1                 0.0000
     32 ****         3.6919   0.2070   2.0707 H              1 S1                 0.0000
     33 ****         3.7806  -1.3833   1.3105 H              1 S1                 0.0000
     34 ****         5.2687   0.6500   0.2444 H              1 S1                 0.0000
     35 ****         4.9654  -0.2756  -2.0133 H              1 S1                 0.0000
     36 ****         4.5393  -1.6654  -1.0075 H              1 S1                 0.0000
     37 ****         2.8056  -0.0534  -2.7315 H              1 S1                 0.0000
     38 ****         2.3004  -1.4499  -1.7820 H              1 S1                 0.0000
     39 ****         1.3699   1.0262  -1.0583 H              1 S1                 0.0000
     40 ****        -3.7919  -1.2715  -0.1744 H              1 S1                 0.0000
     41 ****         3.6891   1.7517  -1.2739 LP             1 S1                 0.0000
     42 ****         3.1989   1.9595   0.2699 LP             1 S1                 0.0000
     43 ****        -0.2808   0.6546   0.6112 LP             1 S1                 0.0000
@<TRIPOS>BOND
    1    1    2 1     
    2    1   19 1     
    3    1   20 1     
    4    1   21 1     
    5    2    3 1     
    6    2    4 1     
    7    2    5 1     
    8    3   22 1     
    9    3   23 1     
   10    3   24 1     
   11    4   25 1     
   12    4   26 1     
   13    4   27 1     
   14    5   18 ar    
   15    5    6 ar    
   16    6    7 ar    
   17    6   40 1     
   18    7    8 ar    
   19    7   28 1     
   20    8    9 ar    
   21    8   29 1     
   22    9   10 1     
   23    9   18 ar    
   24   10   11 1     
   25   10   30 1     
   26   11   16 1     
   27   11   12 1     
   28   11   31 1     
   29   12   13 1     
   30   12   32 1     
   31   12   33 1     
   32   13   17 1     
   33   13   14 1     
   34   13   34 1     
   35   14   15 1     
   36   14   35 1     
   37   14   36 1     
   38   15   16 1     
   39   15   37 1     
   40   15   38 1     
   41   16   17 1     
   42   16   39 1     
   43   17   41 1     
   44   17   42 1     
   45   18   43 1     
@<TRIPOS>SUBSTRUCTURE
      1 S1             1
@<TRIPOS>SET
LONE_PAIRS      STATIC     ATOMS    <user>   **** ""
3 41 42 43
DONOR_HYDROGENS      STATIC     ATOMS    <user>   **** ""
2 40 30
ATOM$BLUE        STATIC     ATOMS    COLORGROUP SYSTEM
3 41 42 43
ATOM$RED        STATIC     ATOMS    COLORGROUP SYSTEM
2 40 30
