AV-unprocessed.smi:3173|AV-procd|sdf|12119|dock8
  -GOLD-   2272017553D 1   1.00000     0.00000
 Structure written by MMmdl.
 36 37  0  0  0  0  0  0  0  0  2 V2000
  144.4838  137.1725  152.6146 O   0  0  0  0  0  0  0  0  0  0  0  0
  145.5684  136.8541  152.1266 C   0  0  0  0  0  0  0  0  0  0  0  0
  145.6266  136.0019  150.8542 C   0  0  0  0  0  0  0  0  0  0  0  0
  145.2303  134.5293  151.0895 C   0  0  2  0  0  0  0  0  0  0  0  0
  146.4111  133.5974  151.0000 C   0  0  0  0  0  0  0  0  0  0  0  0
  146.1946  132.5689  150.1828 C   0  0  0  0  0  0  0  0  0  0  0  0
  144.8267  132.6067  149.5604 C   0  0  0  0  0  0  0  0  0  0  0  0
  144.2417  133.9534  150.0398 C   0  0  0  0  0  0  0  0  0  0  0  0
  146.7466  137.2225  152.6528 N   0  0  0  0  0  0  0  0  0  0  0  0
  146.9065  138.0557  153.8388 C   0  0  0  0  0  0  0  0  0  0  0  0
  147.7187  139.3248  153.5302 C   0  0  0  0  0  0  0  0  0  0  0  0
  149.1354  139.2455  154.0643 C   0  0  0  0  0  0  0  0  0  0  0  0
  149.6593  140.2177  154.9438 C   0  0  0  0  0  0  0  0  0  0  0  0
  150.9841  140.0838  155.4090 C   0  0  0  0  0  0  0  0  0  0  0  0
  151.7560  138.9818  154.9862 C   0  0  0  0  0  0  0  0  0  0  0  0
  151.1820  138.0393  154.1085 C   0  0  0  0  0  0  0  0  0  0  0  0
  149.9089  138.2020  153.6857 N   0  3  0  0  0  0  0  0  0  0  0  0
  144.9814  136.4385  150.0899 H   0  0  0  0  0  0  0  0  0  0  0  0
  146.6437  136.0516  150.4639 H   0  0  0  0  0  0  0  0  0  0  0  0
  144.8140  134.4127  152.0913 H   0  0  0  0  0  0  0  0  0  0  0  0
  147.3174  133.7617  151.5640 H   0  0  0  0  0  0  0  0  0  0  0  0
  146.8971  131.7734  149.9823 H   0  0  0  0  0  0  0  0  0  0  0  0
  144.8929  132.5558  148.4731 H   0  0  0  0  0  0  0  0  0  0  0  0
  144.2367  131.7612  149.9154 H   0  0  0  0  0  0  0  0  0  0  0  0
  143.2419  133.8314  150.4581 H   0  0  0  0  0  0  0  0  0  0  0  0
  144.1501  134.6265  149.1861 H   0  0  0  0  0  0  0  0  0  0  0  0
  147.5901  136.9115  152.1924 H   0  0  0  0  0  0  0  0  0  0  0  0
  145.9274  138.3173  154.2442 H   0  0  0  0  0  0  0  0  0  0  0  0
  147.4113  137.4648  154.6035 H   0  0  0  0  0  0  0  0  0  0  0  0
  147.7539  139.4941  152.4531 H   0  0  0  0  0  0  0  0  0  0  0  0
  147.2308  140.2000  153.9614 H   0  0  0  0  0  0  0  0  0  0  0  0
  149.0541  141.0552  155.2599 H   0  0  0  0  0  0  0  0  0  0  0  0
  151.4026  140.8176  156.0825 H   0  0  0  0  0  0  0  0  0  0  0  0
  152.7729  138.8615  155.3304 H   0  0  0  0  0  0  0  0  0  0  0  0
  151.6983  137.1669  153.7353 H   0  0  0  0  0  0  0  0  0  0  0  0
  149.5144  137.5073  153.0511 H   0  0  0  0  0  0  0  0  0  0  0  0
  1  2  2  0  0  0  0
  2  3  1  0  0  0  0
  2  9  1  0  0  0  0
  3  4  1  0  0  0  0
  3 18  1  0  0  0  0
  3 19  1  0  0  0  0
  4  8  1  0  0  0  0
  4  5  1  0  0  0  0
  4 20  1  0  0  0  0
  5  6  2  0  0  0  0
  5 21  1  0  0  0  0
  6  7  1  0  0  0  0
  6 22  1  0  0  0  0
  7  8  1  0  0  0  0
  7 23  1  0  0  0  0
  7 24  1  0  0  0  0
  8 25  1  0  0  0  0
  8 26  1  0  0  0  0
  9 10  1  0  0  0  0
  9 27  1  0  0  0  0
 10 11  1  0  0  0  0
 10 28  1  0  0  0  0
 10 29  1  0  0  0  0
 11 12  1  0  0  0  0
 11 30  1  0  0  0  0
 11 31  1  0  0  0  0
 12 17  1  0  0  0  0
 12 13  2  0  0  0  0
 13 14  1  0  0  0  0
 13 32  1  0  0  0  0
 14 15  2  0  0  0  0
 14 33  1  0  0  0  0
 15 16  1  0  0  0  0
 15 34  1  0  0  0  0
 16 17  2  0  0  0  0
 16 35  1  0  0  0  0
 17 36  1  0  0  0  0
M  CHG  1  17   1
M  END
> <s_m_source_file>
AV-unprocessed.smi

> <i_m_source_file_index>
3173

> <i_lp_mmshare_version>
43012

> <i_f3d_flags>
0

> <s_epik_input>
W0NIMl0xW0NIMl1bQ0hdPVtDSF1bQ0BIXTFbQ0gyXUMoPU8pW05IXVtDSDJdW0NIMl1jMltjSF1bY0hdW2NIXVtjSF1uMg==

> <s_epik_cmdline>
J2VwaWtfcHl0aG9uJywgJy1waCcsICc3LjAnLCAnLXRuJywgJzgnLCAnLW1hJywgJzIwMCcsICctbWV0YWxfYmluZGluZycsICctaW1hZScsICc8aW5maWxlLm1hZT4nLCAnLW9tYWUnLCAnPG91dGZpbGUubWFlPic=

> <r_epik_Ionization_Penalty>
1.86798

> <r_epik_Ionization_Penalty_Charging>
1.86798

> <r_epik_Ionization_Penalty_Neutral>
1.53848e-08

> <r_epik_State_Penalty>
1.98677

> <r_epik_Charging_Adjusted_Penalty>
3.85475

> <i_epik_Tot_Q>
1

> <i_epik_Tot_abs_Q>
1

> <r_epik_Metal_State_Penalty>
2.01174

> <b_epik_Metal_Only>
0

> <s_lp_Force_Field>
OPLS_2005

> <r_lp_Energy>
19.7802

> <b_lp_Chiralities_Consistent>
1

> <s_lp_Variant>
AV-unprocessed.smi:3173-3

> <Gold.Version>
5.8.1

> <Gold.Id.Protein>
6NUR|6NUR_protein|mol2

> <Gold.PLP.Fitness>
43.1615

> <Gold.PLP.PLP>
-36.4230

> <Gold.PLP.part.hbond>
-2.8254

> <Gold.PLP.part.metal>
0.0000

> <Gold.PLP.part.buried>
-0.3164

> <Gold.PLP.part.nonpolar>
-32.4299

> <Gold.PLP.part.repulsive>
0.3076

> <Gold.PLP.ligand.clash>
0.0000

> <Gold.PLP.ligand.torsion>
1.1449

> <Gold.PLP.Chemscore.Hbond>
3.0000

> <Gold.PLP.Chemscore.CHOScore>
0.0000

> <Gold.PLP.Chemscore.Metal>
0.0000

> <Gold.Chemscore.Hbonds>
donor molecule, donor type, donor heavy atom, donor atom, acceptor molecule, acceptor atom, score
      L1  H     9    27       P1  7948  1.00
      L1  H    17    36       P1  7948  2.00

> <Gold.PLP.Chemscore.Internal.Correction>
0.0282

> <Gold.Rescore>
     Score         DG    S(hbond)    S(metal)    S(lipo)     H(rot)  DE(clash)    DE(int)     intcor
     17.09     -18.14       1.95        0.00      87.81       1.61       0.07       0.98       ----

> <Gold.Chemscore.Fitness>
17.0946

> <Gold.Chemscore.DG>
-18.1440

> <Gold.Chemscore.ZeroCoef>
-5.4800

> <Gold.Chemscore.Hbond>
1.9512

> <Gold.Chemscore.Metal>
0.0000

> <Gold.Chemscore.Lipo>
87.8137

> <Gold.Chemscore.Internal_Hbond>
0.0000

> <Gold.Chemscore.DEClash>
0.0664

> <Gold.Chemscore.DEInternal>
0.9830

> <Gold.Chemscore.Rot>
1.6122

> <Gold.Chemscore.Internal.Correction>
   9.000000E+99

> <Gold.Chemscore.Hbonds>
donor molecule, donor type, donor heavy atom, donor atom, acceptor molecule, acceptor atom, score
      L1  H     9    27       P1  7948  0.94
      L1  H    17    36       P1  7948  0.82

> <Gold.Chemscore.Hbond.Weighted>
-6.5169

> <Gold.Chemscore.Metal.Weighted>
-0.0000

> <Gold.Chemscore.Lipo.Weighted>
-10.2742

> <Gold.Chemscore.Internal_Hbond.Weighted>
0.0000

> <Gold.Chemscore.DEClash.Weighted>
0.0664

> <Gold.Chemscore.DEInternal.Weighted>
0.9830

> <Gold.Chemscore.Rot.Weighted>
4.1271

> <Gold.Chemscore.Internal.Correction.Weighted>
   9.000000E+99

> <Gold.Protein.RotatedTorsions>
[ 6907 6896 6895 6894 ] final  -15.60 input  -60.11 | X-H torsion
[ 7974 7965 7964 7962 ] final -161.79 input  175.53 | X-H torsion
[ 8008 7997 7996 7995 ] final   18.99 input   59.86 | X-H torsion
[ 10167 10162 10161 10158 ] final   29.67 input  -65.29 | X-H torsion
[ 10718 10713 10712 10709 ] final  -80.21 input   66.30 | X-H torsion
[ 10763 10752 10751 10750 ] final   -2.70 input  -60.55 | X-H torsion
[ 11005 11000 10999 10996 ] final   90.60 input  -57.11 | X-H torsion

> <Gold.Protein.ActiveResidues>
 VAL166  LYS551  ARG553  GLY616  TRP617  ASP618  TYR619  PRO620  LYS621  CYS622 
 ASP623  PHE694  ASN695  SER759  ASP760  ASP761  ALA762  ILE779  LEU786  VAL792 
 PHE793  MET794  SER795  GLU796  ALA797  LYS798  CYS799  TRP800  GLU811  SER814 

> <Gold.Protein.RotatedAtoms>
  151.3214  135.0819  159.9306 H   0  0  0  0  0  0  0  0  0  0  0  0  # atno 6907 bound_to 6896
  152.5256  133.9635  159.7738 H   0  0  0  0  0  0  0  0  0  0  0  0  # atno 6908 bound_to 6896
  150.9956  133.6053  159.2732 H   0  0  0  0  0  0  0  0  0  0  0  0  # atno 6909 bound_to 6896
  144.7379  140.3347  143.6146 H   0  0  0  0  0  0  0  0  0  0  0  0  # atno 7974 bound_to 7965
  154.9142  140.3018  155.5250 H   0  0  0  0  0  0  0  0  0  0  0  0  # atno 8008 bound_to 7997
  156.3013  140.2383  156.4120 H   0  0  0  0  0  0  0  0  0  0  0  0  # atno 8009 bound_to 7997
  154.8395  140.0414  157.1521 H   0  0  0  0  0  0  0  0  0  0  0  0  # atno 8010 bound_to 7997
  140.4745  144.0711  150.6247 H   0  0  0  0  0  0  0  0  0  0  0  0  # atno 10167 bound_to 10162
  156.0075  130.4567  150.3765 H   0  0  0  0  0  0  0  0  0  0  0  0  # atno 10718 bound_to 10713
  153.3615  135.6990  153.6708 H   0  0  0  0  0  0  0  0  0  0  0  0  # atno 10763 bound_to 10752
  153.5395  135.3576  155.2712 H   0  0  0  0  0  0  0  0  0  0  0  0  # atno 10764 bound_to 10752
  154.8669  135.4200  154.2874 H   0  0  0  0  0  0  0  0  0  0  0  0  # atno 10765 bound_to 10752
  139.8853  134.8623  156.3307 H   0  0  0  0  0  0  0  0  0  0  0  0  # atno 11005 bound_to 11000
  145.7436  139.1772  143.2362 LP  0  0  0  0  0  0  0  0  0  0  0  0  # atno 17320 bound_to 7965
  146.1115  140.7422  142.9501 LP  0  0  0  0  0  0  0  0  0  0  0  0  # atno 17321 bound_to 7965
  140.3935  143.2740  152.0032 LP  0  0  0  0  0  0  0  0  0  0  0  0  # atno 17342 bound_to 10162
  139.4823  144.6057  151.7525 LP  0  0  0  0  0  0  0  0  0  0  0  0  # atno 17343 bound_to 10162
  157.1847  131.0401  151.2731 LP  0  0  0  0  0  0  0  0  0  0  0  0  # atno 17370 bound_to 10713
  157.4114  130.7387  149.6842 LP  0  0  0  0  0  0  0  0  0  0  0  0  # atno 17371 bound_to 10713
  140.9725  133.7318  156.0554 LP  0  0  0  0  0  0  0  0  0  0  0  0  # atno 17394 bound_to 11000
  140.7853  134.3679  157.5478 LP  0  0  0  0  0  0  0  0  0  0  0  0  # atno 17395 bound_to 11000

$$$$
