AV-unprocessed.smi:2021|AV-procd|sdf|8176|dock8
  -GOLD-   2272010423D 1   1.00000     0.00000
 Structure written by MMmdl.
 42 43  0  0  0  0  0  0  0  0  2 V2000
  145.4658  132.0075  149.2885 C   0  0  0  0  0  0  0  0  0  0  0  0
  145.0090  132.0509  150.7543 C   0  0  0  0  0  0  0  0  0  0  0  0
  143.6111  132.6828  150.8622 C   0  0  0  0  0  0  0  0  0  0  0  0
  146.0459  132.7953  151.6236 C   0  0  0  0  0  0  0  0  0  0  0  0
  147.2180  131.9516  151.9853 N   0  3  2  0  0  0  0  0  0  0  0  0
  146.8528  130.7014  152.6948 C   0  0  0  0  0  0  0  0  0  0  0  0
  146.5319  130.9765  154.1746 C   0  0  0  0  0  0  0  0  0  0  0  0
  147.6475  131.6097  154.7884 O   0  0  0  0  0  0  0  0  0  0  0  0
  147.9479  132.8730  154.2026 C   0  0  1  0  0  0  0  0  0  0  0  0
  149.1162  133.5026  154.9828 C   0  0  0  0  0  0  0  0  0  0  0  0
  149.5330  134.7784  154.4091 N   0  0  0  0  0  0  0  0  0  0  0  0
  150.3392  135.6631  155.0130 C   0  0  0  0  0  0  0  0  0  0  0  0
  150.8174  135.4847  156.1336 O   0  0  0  0  0  0  0  0  0  0  0  0
  150.5480  136.7432  154.2398 N   0  0  0  0  0  0  0  0  0  0  0  0
  151.3623  137.8748  154.5118 C   0  0  0  0  0  0  0  0  0  0  0  0
  152.7017  137.8276  154.5831 N   0  0  0  0  0  0  0  0  0  0  0  0
  153.2521  139.0734  154.8552 N   0  0  0  0  0  0  0  0  0  0  0  0
  152.3075  140.0104  154.9777 C   0  0  0  0  0  0  0  0  0  0  0  0
  150.6529  139.4623  154.7719 S   0  0  0  0  0  0  0  0  0  0  0  0
  148.3014  132.6618  152.7136 C   0  0  0  0  0  0  0  0  0  0  0  0
  145.5548  133.0105  148.8697 H   0  0  0  0  0  0  0  0  0  0  0  0
  144.7594  131.4511  148.6717 H   0  0  0  0  0  0  0  0  0  0  0  0
  146.4366  131.5198  149.1933 H   0  0  0  0  0  0  0  0  0  0  0  0
  144.9355  131.0164  151.0878 H   0  0  0  0  0  0  0  0  0  0  0  0
  143.6184  133.7215  150.5298 H   0  0  0  0  0  0  0  0  0  0  0  0
  143.2413  132.6636  151.8875 H   0  0  0  0  0  0  0  0  0  0  0  0
  142.8887  132.1439  150.2483 H   0  0  0  0  0  0  0  0  0  0  0  0
  146.3797  133.7035  151.1221 H   0  0  0  0  0  0  0  0  0  0  0  0
  145.5453  133.1268  152.5342 H   0  0  0  0  0  0  0  0  0  0  0  0
  146.0174  130.2045  152.2001 H   0  0  0  0  0  0  0  0  0  0  0  0
  147.6965  130.0130  152.6325 H   0  0  0  0  0  0  0  0  0  0  0  0
  145.6388  131.5942  154.2807 H   0  0  0  0  0  0  0  0  0  0  0  0
  146.3322  130.0394  154.6942 H   0  0  0  0  0  0  0  0  0  0  0  0
  147.0771  133.5243  154.2838 H   0  0  0  0  0  0  0  0  0  0  0  0
  148.8272  133.6695  156.0208 H   0  0  0  0  0  0  0  0  0  0  0  0
  149.9681  132.8208  155.0047 H   0  0  0  0  0  0  0  0  0  0  0  0
  149.1824  135.0007  153.4888 H   0  0  0  0  0  0  0  0  0  0  0  0
  150.0756  136.7552  153.3479 H   0  0  0  0  0  0  0  0  0  0  0  0
  152.5873  141.0319  155.1895 H   0  0  0  0  0  0  0  0  0  0  0  0
  149.2059  132.0565  152.6406 H   0  0  0  0  0  0  0  0  0  0  0  0
  148.5371  133.6122  152.2374 H   0  0  0  0  0  0  0  0  0  0  0  0
  147.6090  131.6597  151.1007 H   0  0  0  0  0  0  0  0  0  0  0  0
  1  2  1  0  0  0  0
  1 21  1  0  0  0  0
  1 22  1  0  0  0  0
  1 23  1  0  0  0  0
  2  3  1  0  0  0  0
  2  4  1  0  0  0  0
  2 24  1  0  0  0  0
  3 25  1  0  0  0  0
  3 26  1  0  0  0  0
  3 27  1  0  0  0  0
  4  5  1  0  0  0  0
  4 28  1  0  0  0  0
  4 29  1  0  0  0  0
  5 20  1  0  0  0  0
  5  6  1  0  0  0  0
  5 42  1  0  0  0  0
  6  7  1  0  0  0  0
  6 30  1  0  0  0  0
  6 31  1  0  0  0  0
  7  8  1  0  0  0  0
  7 32  1  0  0  0  0
  7 33  1  0  0  0  0
  8  9  1  0  0  0  0
  9 10  1  0  0  0  0
  9 20  1  0  0  0  0
  9 34  1  0  0  0  0
 10 11  1  0  0  0  0
 10 35  1  0  0  0  0
 10 36  1  0  0  0  0
 11 12  1  0  0  0  0
 11 37  1  0  0  0  0
 12 13  2  0  0  0  0
 12 14  1  0  0  0  0
 14 15  1  0  0  0  0
 14 38  1  0  0  0  0
 15 19  1  0  0  0  0
 15 16  2  0  0  0  0
 16 17  1  0  0  0  0
 17 18  2  0  0  0  0
 18 19  1  0  0  0  0
 18 39  1  0  0  0  0
 20 40  1  0  0  0  0
 20 41  1  0  0  0  0
M  CHG  1   5   1
M  END
> <s_m_source_file>
AV-unprocessed.smi

> <i_m_source_file_index>
2021

> <i_lp_mmshare_version>
43012

> <i_f3d_flags>
0

> <s_epik_input>
W0NIM11bQ0hdKFtDSDNdKVtDSDJdTjFbQ0gyXVtDSDJdT1tDQEhdKFtDSDJdMSlbQ0gyXVtOSF1DKD1PKVtOSF1jMm5uW2NIXXMy

> <s_epik_cmdline>
J2VwaWtfcHl0aG9uJywgJy1waCcsICc3LjAnLCAnLXRuJywgJzgnLCAnLW1hJywgJzIwMCcsICctbWV0YWxfYmluZGluZycsICctaW1hZScsICc8aW5maWxlLm1hZT4nLCAnLW9tYWUnLCAnPG91dGZpbGUubWFlPic=

> <r_lp_tautomer_probability>
1

> <r_epik_Ionization_Penalty>
0.102019

> <r_epik_Ionization_Penalty_Charging>
0.098413

> <r_epik_Ionization_Penalty_Neutral>
0.00360555

> <r_epik_State_Penalty>
0.0884988

> <r_epik_Charging_Adjusted_Penalty>
0.186912

> <i_epik_Tot_Q>
1

> <i_epik_Tot_abs_Q>
1

> <r_epik_Metal_State_Penalty>
0.454709

> <b_epik_Metal_Only>
0

> <s_lp_Force_Field>
OPLS_2005

> <r_lp_Energy>
18.1157

> <b_lp_Chiralities_Consistent>
1

> <s_lp_Variant>
AV-unprocessed.smi:2021-2

> <Gold.Version>
5.8.1

> <Gold.Id.Protein>
6NUR|6NUR_protein|mol2

> <Gold.PLP.Fitness>
45.6962

> <Gold.PLP.PLP>
-35.5320

> <Gold.PLP.part.hbond>
-5.8033

> <Gold.PLP.part.metal>
0.0000

> <Gold.PLP.part.buried>
-1.7654

> <Gold.PLP.part.nonpolar>
-27.9335

> <Gold.PLP.part.repulsive>
0.1925

> <Gold.PLP.ligand.clash>
0.0000

> <Gold.PLP.ligand.torsion>
0.9417

> <Gold.PLP.Chemscore.Hbond>
3.9877

> <Gold.PLP.Chemscore.CHOScore>
0.0000

> <Gold.PLP.Chemscore.Metal>
0.0000

> <Gold.Chemscore.Hbonds>
donor molecule, donor type, donor heavy atom, donor atom, acceptor molecule, acceptor atom, score
      L1  H     5    42       P1 10747  0.93
      L1  H    11    37       P1  7948  0.90
      L1  H    14    38       P1  7948  0.75
      P1  H  7997  8010       L1    17  0.60
      P1  H 10752 10764       L1    16  0.27

> <Gold.PLP.Chemscore.Internal.Correction>
0.0844

> <Gold.Rescore>
     Score         DG    S(hbond)    S(metal)    S(lipo)     H(rot)  DE(clash)    DE(int)     intcor
     17.27     -19.15       2.91        0.00      74.90       1.88       0.94       0.94       ----

> <Gold.Chemscore.Fitness>
17.2720

> <Gold.Chemscore.DG>
-19.1481

> <Gold.Chemscore.ZeroCoef>
-5.4800

> <Gold.Chemscore.Hbond>
2.9102

> <Gold.Chemscore.Metal>
0.0000

> <Gold.Chemscore.Lipo>
74.9048

> <Gold.Chemscore.Internal_Hbond>
0.0000

> <Gold.Chemscore.DEClash>
0.9375

> <Gold.Chemscore.DEInternal>
0.9386

> <Gold.Chemscore.Rot>
1.8812

> <Gold.Chemscore.Internal.Correction>
   9.000000E+99

> <Gold.Chemscore.Hbonds>
donor molecule, donor type, donor heavy atom, donor atom, acceptor molecule, acceptor atom, score
      L1  H     5    42       P1 10747  0.90
      L1  H    11    37       P1  7948  0.17
      L1  H    14    38       P1  7948  0.09
      P1  H  7997  8010       L1    17  0.04
      P1  H 10752 10764       L1    16  0.06

> <Gold.Chemscore.Hbond.Weighted>
-9.7201

> <Gold.Chemscore.Metal.Weighted>
-0.0000

> <Gold.Chemscore.Lipo.Weighted>
-8.7639

> <Gold.Chemscore.Internal_Hbond.Weighted>
0.0000

> <Gold.Chemscore.DEClash.Weighted>
0.9375

> <Gold.Chemscore.DEInternal.Weighted>
0.9386

> <Gold.Chemscore.Rot.Weighted>
4.8159

> <Gold.Chemscore.Internal.Correction.Weighted>
   9.000000E+99

> <Gold.Protein.RotatedTorsions>
[ 6907 6896 6895 6894 ] final -132.34 input  -60.11 | X-H torsion
[ 7974 7965 7964 7962 ] final   36.99 input  175.53 | X-H torsion
[ 8008 7997 7996 7995 ] final  116.10 input   59.86 | X-H torsion
[ 10167 10162 10161 10158 ] final -122.61 input  -65.29 | X-H torsion
[ 10718 10713 10712 10709 ] final   13.31 input   66.30 | X-H torsion
[ 10763 10752 10751 10750 ] final  -82.61 input  -60.55 | X-H torsion
[ 11005 11000 10999 10996 ] final   11.05 input  -57.11 | X-H torsion

> <Gold.Protein.ActiveResidues>
 VAL166  LYS551  ARG553  GLY616  TRP617  ASP618  TYR619  PRO620  LYS621  CYS622 
 ASP623  PHE694  ASN695  SER759  ASP760  ASP761  ALA762  ILE779  LEU786  VAL792 
 PHE793  MET794  SER795  GLU796  ALA797  LYS798  CYS799  TRP800  GLU811  SER814 

> <Gold.Protein.RotatedAtoms>
  150.9613  133.6442  159.2753 H   0  0  0  0  0  0  0  0  0  0  0  0  # atno 6907 bound_to 6896
  151.3764  135.0931  159.9491 H   0  0  0  0  0  0  0  0  0  0  0  0  # atno 6908 bound_to 6896
  152.5149  133.9157  159.7564 H   0  0  0  0  0  0  0  0  0  0  0  0  # atno 6909 bound_to 6896
  146.1171  139.5949  142.9314 H   0  0  0  0  0  0  0  0  0  0  0  0  # atno 7974 bound_to 7965
  156.2420  140.2924  156.0471 H   0  0  0  0  0  0  0  0  0  0  0  0  # atno 8008 bound_to 7997
  155.1923  140.0407  157.2920 H   0  0  0  0  0  0  0  0  0  0  0  0  # atno 8009 bound_to 7997
  154.6186  140.2470  155.7585 H   0  0  0  0  0  0  0  0  0  0  0  0  # atno 8010 bound_to 7997
  140.0124  143.5428  152.2257 H   0  0  0  0  0  0  0  0  0  0  0  0  # atno 10167 bound_to 10162
  157.0228  130.6162  149.5723 H   0  0  0  0  0  0  0  0  0  0  0  0  # atno 10718 bound_to 10713
  154.5778  135.5585  153.7156 H   0  0  0  0  0  0  0  0  0  0  0  0  # atno 10763 bound_to 10752
  153.0071  135.6313  154.2024 H   0  0  0  0  0  0  0  0  0  0  0  0  # atno 10764 bound_to 10752
  154.1964  135.2880  155.2985 H   0  0  0  0  0  0  0  0  0  0  0  0  # atno 10765 bound_to 10752
  140.5076  134.0684  155.7810 H   0  0  0  0  0  0  0  0  0  0  0  0  # atno 11005 bound_to 11000
  145.5544  141.0410  143.2260 LP  0  0  0  0  0  0  0  0  0  0  0  0  # atno 17320 bound_to 7965
  144.7563  139.7067  143.7253 LP  0  0  0  0  0  0  0  0  0  0  0  0  # atno 17321 bound_to 7965
  139.6196  144.7626  151.2770 LP  0  0  0  0  0  0  0  0  0  0  0  0  # atno 17342 bound_to 10162
  140.7376  143.6673  150.8112 LP  0  0  0  0  0  0  0  0  0  0  0  0  # atno 17343 bound_to 10162
  156.0096  130.5186  150.7945 LP  0  0  0  0  0  0  0  0  0  0  0  0  # atno 17370 bound_to 10713
  157.5236  131.0933  151.0046 LP  0  0  0  0  0  0  0  0  0  0  0  0  # atno 17371 bound_to 10713
  141.1402  133.9151  157.2342 LP  0  0  0  0  0  0  0  0  0  0  0  0  # atno 17394 bound_to 11000
  139.9677  135.0137  156.9431 LP  0  0  0  0  0  0  0  0  0  0  0  0  # atno 17395 bound_to 11000

$$$$
