AV-unprocessed.smi:1274|AV-procd|sdf|5340|dock8
  -GOLD-   22720 4473D 1   1.00000     0.00000
 Structure written by MMmdl.
 37 38  0  0  0  0  0  0  0  0  1 V2000
  151.3966  139.2961  159.2136 O   0  0  0  0  0  0  0  0  0  0  0  0
  152.5753  139.9409  158.6155 S   0  0  0  0  0  0  0  0  0  0  0  0
  153.9181  139.3631  158.7797 O   0  0  0  0  0  0  0  0  0  0  0  0
  152.3015  140.1714  156.9273 N   0  0  0  0  0  0  0  0  0  0  0  0
  151.0277  139.7652  156.3300 C   0  0  0  0  0  0  0  0  0  0  0  0
  150.6639  140.6375  155.1150 C   0  0  0  0  0  0  0  0  0  0  0  0
  149.2706  140.3543  154.5814 C   0  0  0  0  0  0  0  0  0  0  0  0
  148.8876  139.0478  154.2153 C   0  0  0  0  0  0  0  0  0  0  0  0
  147.5911  138.8385  153.7071 C   0  0  0  0  0  0  0  0  0  0  0  0
  146.7308  139.9483  153.5865 C   0  0  0  0  0  0  0  0  0  0  0  0
  147.0858  141.2036  153.9354 N   0  0  0  0  0  0  0  0  0  0  0  0
  148.3299  141.3950  154.4240 C   0  0  0  0  0  0  0  0  0  0  0  0
  152.6063  141.5973  159.1222 N   0  0  0  0  0  0  0  0  0  0  0  0
  151.8434  142.5660  158.3046 C   0  0  0  0  0  0  0  0  0  0  0  0
  152.2281  144.0164  158.6383 C   0  0  0  0  0  0  0  0  0  0  0  0
  152.0709  144.2998  160.1344 C   0  0  0  0  0  0  0  0  0  0  0  0
  152.9081  143.2931  160.9277 C   0  0  0  0  0  0  0  0  0  0  0  0
  152.5254  141.8454  160.5757 C   0  0  0  0  0  0  0  0  0  0  0  0
  153.1072  139.8925  156.3679 H   0  0  0  0  0  0  0  0  0  0  0  0
  151.1103  138.7226  156.0218 H   0  0  0  0  0  0  0  0  0  0  0  0
  150.2430  139.8093  157.0858 H   0  0  0  0  0  0  0  0  0  0  0  0
  150.7200  141.6898  155.3962 H   0  0  0  0  0  0  0  0  0  0  0  0
  151.3933  140.5070  154.3159 H   0  0  0  0  0  0  0  0  0  0  0  0
  149.5758  138.2214  154.3168 H   0  0  0  0  0  0  0  0  0  0  0  0
  147.2638  137.8519  153.4145 H   0  0  0  0  0  0  0  0  0  0  0  0
  145.7305  139.8244  153.1988 H   0  0  0  0  0  0  0  0  0  0  0  0
  148.5836  142.4112  154.6873 H   0  0  0  0  0  0  0  0  0  0  0  0
  152.0201  142.3840  157.2452 H   0  0  0  0  0  0  0  0  0  0  0  0
  150.7773  142.4094  158.4745 H   0  0  0  0  0  0  0  0  0  0  0  0
  153.2598  144.2001  158.3354 H   0  0  0  0  0  0  0  0  0  0  0  0
  151.6100  144.7052  158.0622 H   0  0  0  0  0  0  0  0  0  0  0  0
  152.3869  145.3182  160.3621 H   0  0  0  0  0  0  0  0  0  0  0  0
  151.0215  144.2218  160.4213 H   0  0  0  0  0  0  0  0  0  0  0  0
  153.9668  143.4518  160.7183 H   0  0  0  0  0  0  0  0  0  0  0  0
  152.7762  143.4612  161.9969 H   0  0  0  0  0  0  0  0  0  0  0  0
  151.5121  141.6265  160.9157 H   0  0  0  0  0  0  0  0  0  0  0  0
  153.1896  141.1598  161.1021 H   0  0  0  0  0  0  0  0  0  0  0  0
  1  2  2  0  0  0  0
  2  3  2  0  0  0  0
  2  4  1  0  0  0  0
  2 13  1  0  0  0  0
  4  5  1  0  0  0  0
  4 19  1  0  0  0  0
  5  6  1  0  0  0  0
  5 20  1  0  0  0  0
  5 21  1  0  0  0  0
  6  7  1  0  0  0  0
  6 22  1  0  0  0  0
  6 23  1  0  0  0  0
  7 12  1  0  0  0  0
  7  8  2  0  0  0  0
  8  9  1  0  0  0  0
  8 24  1  0  0  0  0
  9 10  2  0  0  0  0
  9 25  1  0  0  0  0
 10 11  1  0  0  0  0
 10 26  1  0  0  0  0
 11 12  2  0  0  0  0
 12 27  1  0  0  0  0
 13 18  1  0  0  0  0
 13 14  1  0  0  0  0
 14 15  1  0  0  0  0
 14 28  1  0  0  0  0
 14 29  1  0  0  0  0
 15 16  1  0  0  0  0
 15 30  1  0  0  0  0
 15 31  1  0  0  0  0
 16 17  1  0  0  0  0
 16 32  1  0  0  0  0
 16 33  1  0  0  0  0
 17 18  1  0  0  0  0
 17 34  1  0  0  0  0
 17 35  1  0  0  0  0
 18 36  1  0  0  0  0
 18 37  1  0  0  0  0
M  END
> <s_m_source_file>
AV-unprocessed.smi

> <i_m_source_file_index>
1274

> <i_lp_mmshare_version>
43012

> <i_f3d_flags>
0

> <s_epik_input>
W0NIMl0xW0NIMl1bQ0gyXVtDSDJdW0NIMl1OMVMoPU8pKD1PKVtOSF1bQ0gyXVtDSDJdYzJbY0hdW2NIXVtjSF1uW2NIXTI=

> <s_epik_cmdline>
J2VwaWtfcHl0aG9uJywgJy1waCcsICc3LjAnLCAnLXRuJywgJzgnLCAnLW1hJywgJzIwMCcsICctbWV0YWxfYmluZGluZycsICctaW1hZScsICc8aW5maWxlLm1hZT4nLCAnLW9tYWUnLCAnPG91dGZpbGUubWFlPic=

> <r_epik_Ionization_Penalty>
0.0259724

> <r_epik_Ionization_Penalty_Charging>
0

> <r_epik_Ionization_Penalty_Neutral>
0.0259724

> <r_epik_State_Penalty>
0.0167858

> <r_epik_Charging_Adjusted_Penalty>
0.0167858

> <i_epik_Tot_Q>
0

> <i_epik_Tot_abs_Q>
0

> <r_epik_Metal_State_Penalty>
0.268382

> <b_epik_Metal_Only>
0

> <s_lp_Force_Field>
OPLS_2005

> <r_lp_Energy>
7.33886

> <b_lp_Chiralities_Consistent>
1

> <s_lp_Variant>
AV-unprocessed.smi:1274-1

> <Gold.Version>
5.8.1

> <Gold.Id.Protein>
6NUR|6NUR_protein|mol2

> <Gold.PLP.Fitness>
41.0512

> <Gold.PLP.PLP>
-33.4779

> <Gold.PLP.part.hbond>
-2.0000

> <Gold.PLP.part.metal>
0.0000

> <Gold.PLP.part.buried>
-0.6248

> <Gold.PLP.part.nonpolar>
-31.4305

> <Gold.PLP.part.repulsive>
0.1640

> <Gold.PLP.ligand.clash>
0.0000

> <Gold.PLP.ligand.torsion>
1.0931

> <Gold.PLP.Chemscore.Hbond>
1.0000

> <Gold.PLP.Chemscore.CHOScore>
2.0000

> <Gold.PLP.Chemscore.Metal>
0.0000

> <Gold.Chemscore.Hbonds>
donor molecule, donor type, donor heavy atom, donor atom, acceptor molecule, acceptor atom, score
      P1  H  7997  8010       L1     3  1.00
      L1  C    10    26       P1 10175  1.00
      L1  C    12    27       P1  8028  1.00

> <Gold.PLP.Chemscore.Internal.Correction>
0.7595

> <Gold.Rescore>
     Score         DG    S(hbond)    S(metal)    S(lipo)     H(rot)  DE(clash)    DE(int)     intcor
     13.91     -15.19       0.95        0.00      92.81       1.69       0.24       1.04       ----

> <Gold.Chemscore.Fitness>
13.9070

> <Gold.Chemscore.DG>
-15.1854

> <Gold.Chemscore.ZeroCoef>
-5.4800

> <Gold.Chemscore.Hbond>
0.9494

> <Gold.Chemscore.Metal>
0.0000

> <Gold.Chemscore.Lipo>
92.8073

> <Gold.Chemscore.Internal_Hbond>
0.0000

> <Gold.Chemscore.DEClash>
0.2353

> <Gold.Chemscore.DEInternal>
1.0432

> <Gold.Chemscore.Rot>
1.6891

> <Gold.Chemscore.Internal.Correction>
   9.000000E+99

> <Gold.Chemscore.Hbonds>
donor molecule, donor type, donor heavy atom, donor atom, acceptor molecule, acceptor atom, score
      P1  H  7997  8010       L1     3  0.40

> <Gold.Chemscore.Hbond.Weighted>
-3.1711

> <Gold.Chemscore.Metal.Weighted>
-0.0000

> <Gold.Chemscore.Lipo.Weighted>
-10.8585

> <Gold.Chemscore.Internal_Hbond.Weighted>
0.0000

> <Gold.Chemscore.DEClash.Weighted>
0.2353

> <Gold.Chemscore.DEInternal.Weighted>
1.0432

> <Gold.Chemscore.Rot.Weighted>
4.3241

> <Gold.Chemscore.Internal.Correction.Weighted>
   9.000000E+99

> <Gold.Protein.RotatedTorsions>
[ 6907 6896 6895 6894 ] final   92.51 input  -60.11 | X-H torsion
[ 7974 7965 7964 7962 ] final   96.96 input  175.53 | X-H torsion
[ 8008 7997 7996 7995 ] final   14.36 input   59.86 | X-H torsion
[ 10167 10162 10161 10158 ] final   76.42 input  -65.29 | X-H torsion
[ 10718 10713 10712 10709 ] final   93.95 input   66.30 | X-H torsion
[ 10763 10752 10751 10750 ] final  121.56 input  -60.55 | X-H torsion
[ 11005 11000 10999 10996 ] final  144.29 input  -57.11 | X-H torsion

> <Gold.Protein.ActiveResidues>
 VAL166  LYS551  ARG553  GLY616  TRP617  ASP618  TYR619  PRO620  LYS621  CYS622 
 ASP623  PHE694  ASN695  SER759  ASP760  ASP761  ALA762  ILE779  LEU786  VAL792 
 PHE793  MET794  SER795  GLU796  ALA797  LYS798  CYS799  TRP800  GLU811  SER814 

> <Gold.Protein.RotatedAtoms>
  152.5452  134.1491  159.8510 H   0  0  0  0  0  0  0  0  0  0  0  0  # atno 6907 bound_to 6896
  151.1519  133.4894  159.2602 H   0  0  0  0  0  0  0  0  0  0  0  0  # atno 6908 bound_to 6896
  151.1463  135.0215  159.8703 H   0  0  0  0  0  0  0  0  0  0  0  0  # atno 6909 bound_to 6896
  145.4319  139.2310  143.3139 H   0  0  0  0  0  0  0  0  0  0  0  0  # atno 7974 bound_to 7965
  154.8473  140.2924  155.5620 H   0  0  0  0  0  0  0  0  0  0  0  0  # atno 8008 bound_to 7997
  156.3015  140.2502  156.3358 H   0  0  0  0  0  0  0  0  0  0  0  0  # atno 8009 bound_to 7997
  154.9059  140.0390  157.1908 H   0  0  0  0  0  0  0  0  0  0  0  0  # atno 8010 bound_to 7997
  139.9925  144.5747  150.7806 H   0  0  0  0  0  0  0  0  0  0  0  0  # atno 10167 bound_to 10162
  157.6951  131.0496  150.4112 H   0  0  0  0  0  0  0  0  0  0  0  0  # atno 10718 bound_to 10713
  153.6159  135.3422  155.2994 H   0  0  0  0  0  0  0  0  0  0  0  0  # atno 10763 bound_to 10752
  154.8609  135.4261  154.2259 H   0  0  0  0  0  0  0  0  0  0  0  0  # atno 10764 bound_to 10752
  153.3121  135.7032  153.7179 H   0  0  0  0  0  0  0  0  0  0  0  0  # atno 10765 bound_to 10752
  140.0621  134.9199  157.1201 H   0  0  0  0  0  0  0  0  0  0  0  0  # atno 11005 bound_to 11000
  146.2602  140.5057  142.8856 LP  0  0  0  0  0  0  0  0  0  0  0  0  # atno 17320 bound_to 7965
  144.8177  140.6496  143.6373 LP  0  0  0  0  0  0  0  0  0  0  0  0  # atno 17321 bound_to 7965
  140.7449  143.2868  151.3441 LP  0  0  0  0  0  0  0  0  0  0  0  0  # atno 17342 bound_to 10162
  139.6330  144.0684  152.2492 LP  0  0  0  0  0  0  0  0  0  0  0  0  # atno 17343 bound_to 10162
  156.4496  130.4009  149.6644 LP  0  0  0  0  0  0  0  0  0  0  0  0  # atno 17370 bound_to 10713
  156.3799  130.7573  151.2565 LP  0  0  0  0  0  0  0  0  0  0  0  0  # atno 17371 bound_to 10713
  140.3755  134.2344  155.7174 LP  0  0  0  0  0  0  0  0  0  0  0  0  # atno 17394 bound_to 11000
  141.1977  133.8052  157.0614 LP  0  0  0  0  0  0  0  0  0  0  0  0  # atno 17395 bound_to 11000

$$$$
