AV-unprocessed.smi:2452|AV-procd|sdf|9686|dock10
  -GOLD-   2272013323D 1   1.00000     0.00000
 Structure written by MMmdl.
 34 35  0  0  0  0  0  0  0  0  1 V2000
  149.5529  139.0804  154.4830 C   0  0  0  0  0  0  0  0  0  0  0  0
  150.8332  139.0640  155.2674 C   0  0  0  0  0  0  0  0  0  0  0  0
  151.9678  139.4237  154.6899 N   0  0  0  0  0  0  0  0  0  0  0  0
  152.9664  139.2895  155.6667 O   0  0  0  0  0  0  0  0  0  0  0  0
  152.4049  138.8491  156.8255 C   0  0  0  0  0  0  0  0  0  0  0  0
  153.3459  138.5977  157.9573 C   0  0  0  0  0  0  0  0  0  0  0  0
  151.0561  138.7186  156.6261 C   0  0  0  0  0  0  0  0  0  0  0  0
  150.0485  138.2666  157.5165 N   0  0  0  0  0  0  0  0  0  0  0  0
  150.1969  137.4366  158.5605 C   0  0  0  0  0  0  0  0  0  0  0  0
  151.2662  136.9563  158.9350 O   0  0  0  0  0  0  0  0  0  0  0  0
  149.0265  137.2071  159.1710 N   0  0  0  0  0  0  0  0  0  0  0  0
  148.8452  136.3492  160.3365 C   0  0  0  0  0  0  0  0  0  0  0  0
  147.3652  136.2507  160.7422 C   0  0  1  0  0  0  0  0  0  0  0  0
  147.1382  135.5802  162.0956 C   0  0  0  0  0  0  0  0  0  0  0  0
  145.8176  136.1689  162.5703 C   0  0  0  0  0  0  0  0  0  0  0  0
  145.5824  137.3628  161.6404 C   0  0  0  0  0  0  0  0  0  0  0  0
  146.8102  137.5400  160.9487 O   0  0  0  0  0  0  0  0  0  0  0  0
  148.8135  138.4078  154.9178 H   0  0  0  0  0  0  0  0  0  0  0  0
  149.7155  138.7670  153.4512 H   0  0  0  0  0  0  0  0  0  0  0  0
  149.1207  140.0810  154.4638 H   0  0  0  0  0  0  0  0  0  0  0  0
  153.0363  137.7278  158.5366 H   0  0  0  0  0  0  0  0  0  0  0  0
  153.3868  139.4582  158.6250 H   0  0  0  0  0  0  0  0  0  0  0  0
  154.3552  138.4101  157.5908 H   0  0  0  0  0  0  0  0  0  0  0  0
  149.1351  138.6780  157.3933 H   0  0  0  0  0  0  0  0  0  0  0  0
  148.1979  137.6454  158.7966 H   0  0  0  0  0  0  0  0  0  0  0  0
  149.2465  135.3559  160.1291 H   0  0  0  0  0  0  0  0  0  0  0  0
  149.4347  136.7561  161.1587 H   0  0  0  0  0  0  0  0  0  0  0  0
  146.7864  135.7312  159.9759 H   0  0  0  0  0  0  0  0  0  0  0  0
  147.1182  134.4922  162.0251 H   0  0  0  0  0  0  0  0  0  0  0  0
  147.9305  135.8570  162.7927 H   0  0  0  0  0  0  0  0  0  0  0  0
  145.0026  135.4488  162.4868 H   0  0  0  0  0  0  0  0  0  0  0  0
  145.8857  136.4794  163.6135 H   0  0  0  0  0  0  0  0  0  0  0  0
  144.7950  137.1377  160.9194 H   0  0  0  0  0  0  0  0  0  0  0  0
  145.3001  138.2669  162.1805 H   0  0  0  0  0  0  0  0  0  0  0  0
  1  2  1  0  0  0  0
  1 18  1  0  0  0  0
  1 19  1  0  0  0  0
  1 20  1  0  0  0  0
  2  7  1  0  0  0  0
  2  3  2  0  0  0  0
  3  4  1  0  0  0  0
  4  5  1  0  0  0  0
  5  6  1  0  0  0  0
  5  7  2  0  0  0  0
  6 21  1  0  0  0  0
  6 22  1  0  0  0  0
  6 23  1  0  0  0  0
  7  8  1  0  0  0  0
  8  9  1  0  0  0  0
  8 24  1  0  0  0  0
  9 10  2  0  0  0  0
  9 11  1  0  0  0  0
 11 12  1  0  0  0  0
 11 25  1  0  0  0  0
 12 13  1  0  0  0  0
 12 26  1  0  0  0  0
 12 27  1  0  0  0  0
 13 17  1  0  0  0  0
 13 14  1  0  0  0  0
 13 28  1  0  0  0  0
 14 15  1  0  0  0  0
 14 29  1  0  0  0  0
 14 30  1  0  0  0  0
 15 16  1  0  0  0  0
 15 31  1  0  0  0  0
 15 32  1  0  0  0  0
 16 17  1  0  0  0  0
 16 33  1  0  0  0  0
 16 34  1  0  0  0  0
M  END
> <s_m_source_file>
AV-unprocessed.smi

> <i_m_source_file_index>
2452

> <i_lp_mmshare_version>
43012

> <i_f3d_flags>
0

> <s_epik_input>
W0NIM11jMW5vYyhbQ0gzXSljMVtOSF1DKD1PKVtOSF1bQ0gyXVtDQEBIXTJbQ0gyXVtDSDJdW0NIMl1PMg==

> <s_epik_cmdline>
J2VwaWtfcHl0aG9uJywgJy1waCcsICc3LjAnLCAnLXRuJywgJzgnLCAnLW1hJywgJzIwMCcsICctbWV0YWxfYmluZGluZycsICctaW1hZScsICc8aW5maWxlLm1hZT4nLCAnLW9tYWUnLCAnPG91dGZpbGUubWFlPic=

> <r_lp_tautomer_probability>
1

> <r_epik_Ionization_Penalty>
3.28451e-05

> <r_epik_Ionization_Penalty_Charging>
0

> <r_epik_Ionization_Penalty_Neutral>
3.28451e-05

> <r_epik_State_Penalty>
-0

> <r_epik_Charging_Adjusted_Penalty>
0

> <i_epik_Tot_Q>
0

> <i_epik_Tot_abs_Q>
0

> <r_epik_Metal_State_Penalty>
-0

> <b_epik_Metal_Only>
0

> <s_lp_Force_Field>
OPLS_2005

> <r_lp_Energy>
18.1661

> <b_lp_Chiralities_Consistent>
1

> <s_lp_Variant>
AV-unprocessed.smi:2452-2

> <Gold.Version>
5.8.1

> <Gold.Id.Protein>
6NUR|6NUR_protein|mol2

> <Gold.PLP.Fitness>
36.2794

> <Gold.PLP.PLP>
-24.7070

> <Gold.PLP.part.hbond>
-4.0223

> <Gold.PLP.part.metal>
0.0000

> <Gold.PLP.part.buried>
-4.3687

> <Gold.PLP.part.nonpolar>
-16.7695

> <Gold.PLP.part.repulsive>
0.2939

> <Gold.PLP.ligand.clash>
0.0000

> <Gold.PLP.ligand.torsion>
0.2012

> <Gold.PLP.Chemscore.Hbond>
3.9440

> <Gold.PLP.Chemscore.CHOScore>
0.0000

> <Gold.PLP.Chemscore.Metal>
0.0000

> <Gold.Chemscore.Hbonds>
donor molecule, donor type, donor heavy atom, donor atom, acceptor molecule, acceptor atom, score
      P1  H  6896  6908       L1    10  0.93
      P1  H  6934  6947       L1    17  0.99
      P1  H  7989  7998       L1     3  0.93
      P1  H  7997  8009       L1     4  1.00

> <Gold.PLP.Chemscore.Internal.Correction>
0.1429

> <Gold.Rescore>
     Score         DG    S(hbond)    S(metal)    S(lipo)     H(rot)  DE(clash)    DE(int)     intcor
     20.94     -21.98       3.76        0.00      60.71       1.23       0.03       1.01       ----

> <Gold.Chemscore.Fitness>
20.9419

> <Gold.Chemscore.DG>
-21.9766

> <Gold.Chemscore.ZeroCoef>
-5.4800

> <Gold.Chemscore.Hbond>
3.7580

> <Gold.Chemscore.Metal>
0.0000

> <Gold.Chemscore.Lipo>
60.7088

> <Gold.Chemscore.Internal_Hbond>
0.0000

> <Gold.Chemscore.DEClash>
0.0270

> <Gold.Chemscore.DEInternal>
1.0077

> <Gold.Chemscore.Rot>
1.2337

> <Gold.Chemscore.Internal.Correction>
   9.000000E+99

> <Gold.Chemscore.Hbonds>
donor molecule, donor type, donor heavy atom, donor atom, acceptor molecule, acceptor atom, score
      P1  H  6896  6908       L1    10  0.82
      P1  H  6934  6947       L1    17  0.65
      P1  H  7989  7998       L1     3  0.68
      P1  H  7997  8009       L1     4  0.85

> <Gold.Chemscore.Hbond.Weighted>
-12.5518

> <Gold.Chemscore.Metal.Weighted>
-0.0000

> <Gold.Chemscore.Lipo.Weighted>
-7.1029

> <Gold.Chemscore.Internal_Hbond.Weighted>
0.0000

> <Gold.Chemscore.DEClash.Weighted>
0.0270

> <Gold.Chemscore.DEInternal.Weighted>
1.0077

> <Gold.Chemscore.Rot.Weighted>
3.1582

> <Gold.Chemscore.Internal.Correction.Weighted>
   9.000000E+99

> <Gold.Protein.RotatedTorsions>
[ 6907 6896 6895 6894 ] final -139.74 input  -60.11 | X-H torsion
[ 7974 7965 7964 7962 ] final   29.46 input  175.53 | X-H torsion
[ 8008 7997 7996 7995 ] final -136.73 input   59.86 | X-H torsion
[ 10167 10162 10161 10158 ] final  -87.54 input  -65.29 | X-H torsion
[ 10718 10713 10712 10709 ] final   53.67 input   66.30 | X-H torsion
[ 10763 10752 10751 10750 ] final   26.66 input  -60.55 | X-H torsion
[ 11005 11000 10999 10996 ] final   29.89 input  -57.11 | X-H torsion

> <Gold.Protein.ActiveResidues>
 VAL166  LYS551  ARG553  GLY616  TRP617  ASP618  TYR619  PRO620  LYS621  CYS622 
 ASP623  PHE694  ASN695  SER759  ASP760  ASP761  ALA762  ILE779  LEU786  VAL792 
 PHE793  MET794  SER795  GLU796  ALA797  LYS798  CYS799  TRP800  GLU811  SER814 

> <Gold.Protein.RotatedAtoms>
  151.0517  133.5618  159.2641 H   0  0  0  0  0  0  0  0  0  0  0  0  # atno 6907 bound_to 6896
  151.2627  135.0658  159.9114 H   0  0  0  0  0  0  0  0  0  0  0  0  # atno 6908 bound_to 6896
  152.5383  134.0260  159.8057 H   0  0  0  0  0  0  0  0  0  0  0  0  # atno 6909 bound_to 6896
  146.1670  139.6918  142.8994 H   0  0  0  0  0  0  0  0  0  0  0  0  # atno 7974 bound_to 7965
  155.4000  140.0505  157.3037 H   0  0  0  0  0  0  0  0  0  0  0  0  # atno 8008 bound_to 7997
  154.4995  140.2151  155.9337 H   0  0  0  0  0  0  0  0  0  0  0  0  # atno 8009 bound_to 7997
  156.1449  140.3147  155.8559 H   0  0  0  0  0  0  0  0  0  0  0  0  # atno 8010 bound_to 7997
  140.3835  143.2738  151.9354 H   0  0  0  0  0  0  0  0  0  0  0  0  # atno 10167 bound_to 10162
  157.5188  130.8551  149.8531 H   0  0  0  0  0  0  0  0  0  0  0  0  # atno 10718 bound_to 10713
  153.0607  135.6555  154.0469 H   0  0  0  0  0  0  0  0  0  0  0  0  # atno 10763 bound_to 10752
  154.0137  135.2926  155.3391 H   0  0  0  0  0  0  0  0  0  0  0  0  # atno 10764 bound_to 10752
  154.6944  135.5270  153.8506 H   0  0  0  0  0  0  0  0  0  0  0  0  # atno 10765 bound_to 10752
  140.3002  134.2766  155.7756 H   0  0  0  0  0  0  0  0  0  0  0  0  # atno 11005 bound_to 11000
  145.4442  141.0424  143.2841 LP  0  0  0  0  0  0  0  0  0  0  0  0  # atno 17320 bound_to 7965
  144.8107  139.5968  143.7031 LP  0  0  0  0  0  0  0  0  0  0  0  0  # atno 17321 bound_to 7965
  139.4793  144.5796  151.7954 LP  0  0  0  0  0  0  0  0  0  0  0  0  # atno 17342 bound_to 10162
  140.4913  144.1305  150.5951 LP  0  0  0  0  0  0  0  0  0  0  0  0  # atno 17343 bound_to 10162
  156.0339  130.3757  150.1613 LP  0  0  0  0  0  0  0  0  0  0  0  0  # atno 17370 bound_to 10713
  156.9802  130.9861  151.3439 LP  0  0  0  0  0  0  0  0  0  0  0  0  # atno 17371 bound_to 10713
  141.2129  133.7641  156.9755 LP  0  0  0  0  0  0  0  0  0  0  0  0  # atno 17394 bound_to 11000
  140.1116  134.9473  157.2074 LP  0  0  0  0  0  0  0  0  0  0  0  0  # atno 17395 bound_to 11000

$$$$
