AV-unprocessed.smi:2400|AV-procd|sdf|9501|dock3
  -GOLD-   2272013133D 1   1.00000     0.00000
 Structure written by MMmdl.
 44 45  0  0  0  0  0  0  0  0  1 V2000
  147.5919  141.6557  154.8401 C   0  0  0  0  0  0  0  0  0  0  0  0
  148.0362  140.5652  155.6289 O   0  0  0  0  0  0  0  0  0  0  0  0
  149.2347  140.0751  155.2463 C   0  0  0  0  0  0  0  0  0  0  0  0
  149.5845  138.9487  154.5541 C   0  0  0  0  0  0  0  0  0  0  0  0
  148.7672  137.9214  154.0178 N   0  0  0  0  0  0  0  0  0  0  0  0
  147.6282  137.4381  154.5383 C   0  0  0  0  0  0  0  0  0  0  0  0
  147.0921  137.8511  155.5663 O   0  0  0  0  0  0  0  0  0  0  0  0
  147.1262  136.4535  153.7800 N   0  0  0  0  0  0  0  0  0  0  0  0
  145.8846  135.7274  154.0492 C   0  0  2  0  0  0  0  0  0  0  0  0
  146.1829  134.2420  154.3370 C   0  0  0  0  0  0  0  0  0  0  0  0
  145.4170  133.4329  153.2919 C   0  0  0  0  0  0  0  0  0  0  0  0
  144.2681  134.3455  152.8747 C   0  0  0  0  0  0  0  0  0  0  0  0
  144.8602  135.7660  152.8734 C   0  0  0  0  0  0  0  0  0  0  0  0
  143.7629  136.8185  153.1197 C   0  0  0  0  0  0  0  0  0  0  0  0
  145.5110  136.0427  151.4961 C   0  0  0  0  0  0  0  0  0  0  0  0
  151.0065  138.9630  154.5208 C   0  0  0  0  0  0  0  0  0  0  0  0
  151.9545  137.9658  153.9191 C   0  0  0  0  0  0  0  0  0  0  0  0
  151.4888  140.0509  155.1114 N   0  0  0  0  0  0  0  0  0  0  0  0
  150.4055  140.7381  155.5488 N   0  0  0  0  0  0  0  0  0  0  0  0
  150.5879  141.9870  156.2594 C   0  0  0  0  0  0  0  0  0  0  0  0
  146.6133  141.9841  155.1892 H   0  0  0  0  0  0  0  0  0  0  0  0
  147.4964  141.3672  153.7925 H   0  0  0  0  0  0  0  0  0  0  0  0
  148.2729  142.5046  154.9061 H   0  0  0  0  0  0  0  0  0  0  0  0
  149.0375  137.5703  153.1109 H   0  0  0  0  0  0  0  0  0  0  0  0
  147.6339  136.1881  152.9490 H   0  0  0  0  0  0  0  0  0  0  0  0
  145.4223  136.1342  154.9510 H   0  0  0  0  0  0  0  0  0  0  0  0
  147.2474  134.0047  154.3154 H   0  0  0  0  0  0  0  0  0  0  0  0
  145.8218  133.9869  155.3342 H   0  0  0  0  0  0  0  0  0  0  0  0
  146.0606  133.2306  152.4352 H   0  0  0  0  0  0  0  0  0  0  0  0
  145.0707  132.4740  153.6781 H   0  0  0  0  0  0  0  0  0  0  0  0
  143.8367  134.0579  151.9151 H   0  0  0  0  0  0  0  0  0  0  0  0
  143.4734  134.2705  153.6188 H   0  0  0  0  0  0  0  0  0  0  0  0
  143.0085  136.7948  152.3328 H   0  0  0  0  0  0  0  0  0  0  0  0
  144.1813  137.8250  153.1455 H   0  0  0  0  0  0  0  0  0  0  0  0
  143.2517  136.6522  154.0684 H   0  0  0  0  0  0  0  0  0  0  0  0
  144.7818  135.9469  150.6907 H   0  0  0  0  0  0  0  0  0  0  0  0
  146.3240  135.3483  151.2826 H   0  0  0  0  0  0  0  0  0  0  0  0
  145.9159  137.0536  151.4367 H   0  0  0  0  0  0  0  0  0  0  0  0
  151.4209  137.1372  153.4536 H   0  0  0  0  0  0  0  0  0  0  0  0
  152.6166  137.5478  154.6773 H   0  0  0  0  0  0  0  0  0  0  0  0
  152.5754  138.4293  153.1523 H   0  0  0  0  0  0  0  0  0  0  0  0
  149.6987  142.6092  156.1553 H   0  0  0  0  0  0  0  0  0  0  0  0
  151.4438  142.5286  155.8553 H   0  0  0  0  0  0  0  0  0  0  0  0
  150.7586  141.7837  157.3167 H   0  0  0  0  0  0  0  0  0  0  0  0
  1  2  1  0  0  0  0
  1 21  1  0  0  0  0
  1 22  1  0  0  0  0
  1 23  1  0  0  0  0
  2  3  1  0  0  0  0
  3 19  1  0  0  0  0
  3  4  2  0  0  0  0
  4  5  1  0  0  0  0
  4 16  1  0  0  0  0
  5  6  1  0  0  0  0
  5 24  1  0  0  0  0
  6  7  2  0  0  0  0
  6  8  1  0  0  0  0
  8  9  1  0  0  0  0
  8 25  1  0  0  0  0
  9 13  1  0  0  0  0
  9 10  1  0  0  0  0
  9 26  1  0  0  0  0
 10 11  1  0  0  0  0
 10 27  1  0  0  0  0
 10 28  1  0  0  0  0
 11 12  1  0  0  0  0
 11 29  1  0  0  0  0
 11 30  1  0  0  0  0
 12 13  1  0  0  0  0
 12 31  1  0  0  0  0
 12 32  1  0  0  0  0
 13 14  1  0  0  0  0
 13 15  1  0  0  0  0
 14 33  1  0  0  0  0
 14 34  1  0  0  0  0
 14 35  1  0  0  0  0
 15 36  1  0  0  0  0
 15 37  1  0  0  0  0
 15 38  1  0  0  0  0
 16 17  1  0  0  0  0
 16 18  2  0  0  0  0
 17 39  1  0  0  0  0
 17 40  1  0  0  0  0
 17 41  1  0  0  0  0
 18 19  1  0  0  0  0
 19 20  1  0  0  0  0
 20 42  1  0  0  0  0
 20 43  1  0  0  0  0
 20 44  1  0  0  0  0
M  END
> <s_m_source_file>
AV-unprocessed.smi

> <i_m_source_file_index>
2400

> <i_lp_mmshare_version>
43012

> <i_f3d_flags>
0

> <s_epik_input>
W0NIM11uMW5jKFtDSDNdKWMoYzFPW0NIM10pW05IXUMoPU8pW05IXVtDQEBIXShDMihbQ0gzXSlbQ0gzXSlbQ0gyXVtDSDJdW0NIMl0y

> <s_epik_cmdline>
J2VwaWtfcHl0aG9uJywgJy1waCcsICc3LjAnLCAnLXRuJywgJzgnLCAnLW1hJywgJzIwMCcsICctbWV0YWxfYmluZGluZycsICctaW1hZScsICc8aW5maWxlLm1hZT4nLCAnLW9tYWUnLCAnPG91dGZpbGUubWFlPic=

> <r_lp_tautomer_probability>
1

> <r_epik_Ionization_Penalty>
0.000423583

> <r_epik_Ionization_Penalty_Charging>
0

> <r_epik_Ionization_Penalty_Neutral>
0.000423583

> <r_epik_State_Penalty>
-0

> <r_epik_Charging_Adjusted_Penalty>
0

> <i_epik_Tot_Q>
0

> <i_epik_Tot_abs_Q>
0

> <r_epik_Metal_State_Penalty>
-0

> <b_epik_Metal_Only>
0

> <s_lp_Force_Field>
OPLS_2005

> <r_lp_Energy>
29.9339

> <b_lp_Chiralities_Consistent>
1

> <s_lp_Variant>
AV-unprocessed.smi:2400-1

> <Gold.Version>
5.8.1

> <Gold.Id.Protein>
6NUR|6NUR_protein|mol2

> <Gold.PLP.Fitness>
36.8894

> <Gold.PLP.PLP>
-30.7809

> <Gold.PLP.part.hbond>
-3.0000

> <Gold.PLP.part.metal>
0.0000

> <Gold.PLP.part.buried>
-2.3226

> <Gold.PLP.part.nonpolar>
-25.6249

> <Gold.PLP.part.repulsive>
0.1308

> <Gold.PLP.ligand.clash>
0.0000

> <Gold.PLP.ligand.torsion>
0.4909

> <Gold.PLP.Chemscore.Hbond>
2.3600

> <Gold.PLP.Chemscore.CHOScore>
0.0000

> <Gold.PLP.Chemscore.Metal>
0.0000

> <Gold.Chemscore.Hbonds>
donor molecule, donor type, donor heavy atom, donor atom, acceptor molecule, acceptor atom, score
      L1  H     5    24       P1  7948  1.00
      L1  H     8    25       P1  7948  1.00
      P1  H  7989  7998       L1    18  0.47

> <Gold.PLP.Chemscore.Internal.Correction>
0.0101

> <Gold.Rescore>
     Score         DG    S(hbond)    S(metal)    S(lipo)     H(rot)  DE(clash)    DE(int)     intcor
     14.51     -16.19       1.92        0.00      63.13       1.21       0.16       1.51       ----

> <Gold.Chemscore.Fitness>
14.5119

> <Gold.Chemscore.DG>
-16.1863

> <Gold.Chemscore.ZeroCoef>
-5.4800

> <Gold.Chemscore.Hbond>
1.9229

> <Gold.Chemscore.Metal>
0.0000

> <Gold.Chemscore.Lipo>
63.1309

> <Gold.Chemscore.Internal_Hbond>
0.0000

> <Gold.Chemscore.DEClash>
0.1620

> <Gold.Chemscore.DEInternal>
1.5124

> <Gold.Chemscore.Rot>
1.2119

> <Gold.Chemscore.Internal.Correction>
   9.000000E+99

> <Gold.Chemscore.Hbonds>
donor molecule, donor type, donor heavy atom, donor atom, acceptor molecule, acceptor atom, score
      L1  H     5    24       P1  7948  0.94
      L1  H     8    25       P1  7948  0.98

> <Gold.Chemscore.Hbond.Weighted>
-6.4224

> <Gold.Chemscore.Metal.Weighted>
-0.0000

> <Gold.Chemscore.Lipo.Weighted>
-7.3863

> <Gold.Chemscore.Internal_Hbond.Weighted>
0.0000

> <Gold.Chemscore.DEClash.Weighted>
0.1620

> <Gold.Chemscore.DEInternal.Weighted>
1.5124

> <Gold.Chemscore.Rot.Weighted>
3.1024

> <Gold.Chemscore.Internal.Correction.Weighted>
   9.000000E+99

> <Gold.Protein.RotatedTorsions>
[ 6907 6896 6895 6894 ] final  141.48 input  -60.11 | X-H torsion
[ 7974 7965 7964 7962 ] final   71.46 input  175.53 | X-H torsion
[ 8008 7997 7996 7995 ] final   67.32 input   59.86 | X-H torsion
[ 10167 10162 10161 10158 ] final  158.92 input  -65.29 | X-H torsion
[ 10718 10713 10712 10709 ] final   97.46 input   66.30 | X-H torsion
[ 10763 10752 10751 10750 ] final   43.35 input  -60.55 | X-H torsion
[ 11005 11000 10999 10996 ] final   84.07 input  -57.11 | X-H torsion

> <Gold.Protein.ActiveResidues>
 VAL166  LYS551  ARG553  GLY616  TRP617  ASP618  TYR619  PRO620  LYS621  CYS622 
 ASP623  PHE694  ASN695  SER759  ASP760  ASP761  ALA762  ILE779  LEU786  VAL792 
 PHE793  MET794  SER795  GLU796  ALA797  LYS798  CYS799  TRP800  GLU811  SER814 

> <Gold.Protein.RotatedAtoms>
  152.2304  133.5053  159.5212 H   0  0  0  0  0  0  0  0  0  0  0  0  # atno 6907 bound_to 6896
  150.7036  134.1224  159.4048 H   0  0  0  0  0  0  0  0  0  0  0  0  # atno 6908 bound_to 6896
  151.9145  135.0324  160.0568 H   0  0  0  0  0  0  0  0  0  0  0  0  # atno 6909 bound_to 6896
  145.7655  139.2820  143.1351 H   0  0  0  0  0  0  0  0  0  0  0  0  # atno 7974 bound_to 7965
  155.6910  140.3496  155.4894 H   0  0  0  0  0  0  0  0  0  0  0  0  # atno 8008 bound_to 7997
  155.9524  140.1122  157.0988 H   0  0  0  0  0  0  0  0  0  0  0  0  # atno 8009 bound_to 7997
  154.4125  140.1191  156.5056 H   0  0  0  0  0  0  0  0  0  0  0  0  # atno 8010 bound_to 7997
  139.4829  144.4779  151.8486 H   0  0  0  0  0  0  0  0  0  0  0  0  # atno 10167 bound_to 10162
  157.6912  131.0610  150.4647 H   0  0  0  0  0  0  0  0  0  0  0  0  # atno 10718 bound_to 10713
  152.9862  135.6104  154.3097 H   0  0  0  0  0  0  0  0  0  0  0  0  # atno 10763 bound_to 10752
  154.2813  135.2777  155.2697 H   0  0  0  0  0  0  0  0  0  0  0  0  # atno 10764 bound_to 10752
  154.5035  135.5860  153.6606 H   0  0  0  0  0  0  0  0  0  0  0  0  # atno 10765 bound_to 10752
  139.9011  134.8190  156.2395 H   0  0  0  0  0  0  0  0  0  0  0  0  # atno 11005 bound_to 11000
  146.0221  140.8338  142.9918 LP  0  0  0  0  0  0  0  0  0  0  0  0  # atno 17320 bound_to 7965
  144.6822  140.2644  143.7314 LP  0  0  0  0  0  0  0  0  0  0  0  0  # atno 17321 bound_to 7965
  140.4252  144.2190  150.5887 LP  0  0  0  0  0  0  0  0  0  0  0  0  # atno 17342 bound_to 10162
  140.4834  143.2371  151.8923 LP  0  0  0  0  0  0  0  0  0  0  0  0  # atno 17343 bound_to 10162
  156.4989  130.4112  149.6364 LP  0  0  0  0  0  0  0  0  0  0  0  0  # atno 17370 bound_to 10713
  156.3347  130.7350  151.2286 LP  0  0  0  0  0  0  0  0  0  0  0  0  # atno 17371 bound_to 10713
  141.0294  133.6997  156.1404 LP  0  0  0  0  0  0  0  0  0  0  0  0  # atno 17394 bound_to 11000
  140.7119  134.4453  157.5581 LP  0  0  0  0  0  0  0  0  0  0  0  0  # atno 17395 bound_to 11000

$$$$
