#       Name:                AV-unprocessed.smi:741
#       Creating user name   scv26
#       Creation time:       Fri Mar 27 00:55:15 2020


#       File generated by GOLD software.
#

@<TRIPOS>MOLECULE
AV-unprocessed.smi:741
    45    46     1
SMALL
NO_CHARGES


@<TRIPOS>ATOM
      1 ****        -4.0554   0.4991   0.7772 C.3            1 S1                 0.0000
      2 ****        -3.2840  -0.8237   0.6604 C.3            1 S1                 0.0000
      3 ****        -1.7529  -0.6567   0.7056 C.3            1 S1                 0.0000
      4 ****        -1.0430  -2.0290   0.6988 C.3            1 S1                 0.0000
      5 ****         0.4258  -1.9210   0.8754 N.4            1 S1                 1.0000
      6 ****         0.8711  -1.6063   2.2485 C.3            1 S1                 0.0000
      7 ****         2.3314  -2.0415   2.2880 C.3            1 S1                 0.0000
      8 ****         2.3370  -3.3046   1.4314 C.3            1 S1                 0.0000
      9 ****         1.1909  -3.1081   0.4284 C.3            1 S1                 0.0000
     10 ****        -1.3125   0.1623  -0.4265 N.am           1 S1                 0.0000
     11 ****        -0.3306   1.0757  -0.4080 C.2            1 S1                 0.0000
     12 ****         0.3605   1.3057   0.5834 O.2            1 S1                 0.0000
     13 ****        -0.1947   1.6666  -1.6077 N.am           1 S1                 0.0000
     14 ****         0.7240   2.6771  -2.0018 C.ar           1 S1                 0.0000
     15 ****         0.9674   2.8400  -3.3814 C.ar           1 S1                 0.0000
     16 ****         1.8621   3.8453  -3.7996 C.ar           1 S1                 0.0000
     17 ****         2.4984   4.6737  -2.9450 N.ar           1 S1                 0.0000
     18 ****         2.2533   4.5265  -1.6258 C.ar           1 S1                 0.0000
     19 ****         1.3781   3.5535  -1.1024 C.ar           1 S1                 0.0000
     20 ****        -5.1304   0.3189   0.7889 H              1 S1                 0.0000
     21 ****        -3.8437   1.1641  -0.0603 H              1 S1                 0.0000
     22 ****        -3.7978   1.0251   1.6969 H              1 S1                 0.0000
     23 ****        -3.5971  -1.4772   1.4756 H              1 S1                 0.0000
     24 ****        -3.5750  -1.3301  -0.2609 H              1 S1                 0.0000
     25 ****        -1.5155  -0.1444   1.6396 H              1 S1                 0.0000
     26 ****        -1.4532  -2.6816   1.4710 H              1 S1                 0.0000
     27 ****        -1.2465  -2.5195  -0.2546 H              1 S1                 0.0000
     28 ****         0.7459  -0.5514   2.4920 H              1 S1                 0.0000
     29 ****         0.2957  -2.1894   2.9695 H              1 S1                 0.0000
     30 ****         2.9582  -1.2766   1.8273 H              1 S1                 0.0000
     31 ****         2.6971  -2.2126   3.3010 H              1 S1                 0.0000
     32 ****         3.2979  -3.4704   0.9432 H              1 S1                 0.0000
     33 ****         2.1305  -4.1733   2.0581 H              1 S1                 0.0000
     34 ****         0.5651  -4.0013   0.3961 H              1 S1                 0.0000
     35 ****         1.5677  -2.9300  -0.5791 H              1 S1                 0.0000
     36 ****        -1.8220   0.0415  -1.2902 H              1 S1                 0.0000
     37 ****        -0.7871   1.3144  -2.3454 H              1 S1                 0.0000
     38 ****         0.4839   2.2063  -4.1107 H              1 S1                 0.0000
     39 ****         2.0707   3.9883  -4.8497 H              1 S1                 0.0000
     40 ****         2.7667   5.2091  -0.9649 H              1 S1                 0.0000
     41 ****         1.2199   3.5116  -0.0361 H              1 S1                 0.0000
     42 ****         0.7412  -1.1572   0.2942 H              1 S1                 0.0000
     43 ****         0.2026   0.7997   1.4313 LP             1 S1                 0.0000
     44 ****         1.0802   1.9987   0.5413 LP             1 S1                 0.0000
     45 ****         3.1305   5.3734  -3.2781 LP             1 S1                 0.0000
@<TRIPOS>BOND
    1    1    2 1     
    2    1   20 1     
    3    1   21 1     
    4    1   22 1     
    5    2    3 1     
    6    2   23 1     
    7    2   24 1     
    8    3    4 1     
    9    3   10 1     
   10    3   25 1     
   11    4    5 1     
   12    4   26 1     
   13    4   27 1     
   14    5    9 1     
   15    5    6 1     
   16    5   42 1     
   17    6    7 1     
   18    6   28 1     
   19    6   29 1     
   20    7    8 1     
   21    7   30 1     
   22    7   31 1     
   23    8    9 1     
   24    8   32 1     
   25    8   33 1     
   26    9   34 1     
   27    9   35 1     
   28   10   11 am    
   29   10   36 1     
   30   11   12 2     
   31   11   13 am    
   32   13   14 1     
   33   13   37 1     
   34   14   19 ar    
   35   14   15 ar    
   36   15   16 ar    
   37   15   38 1     
   38   16   17 ar    
   39   16   39 1     
   40   17   18 ar    
   41   18   19 ar    
   42   18   40 1     
   43   19   41 1     
   44   12   43 1     
   45   12   44 1     
   46   17   45 1     
@<TRIPOS>SUBSTRUCTURE
      1 S1             1
@<TRIPOS>SET
LONE_PAIRS      STATIC     ATOMS    <user>   **** ""
3 43 44 45
DONOR_HYDROGENS      STATIC     ATOMS    <user>   **** ""
3 42 36 37
ATOM$BLUE        STATIC     ATOMS    COLORGROUP SYSTEM
3 43 44 45
ATOM$RED        STATIC     ATOMS    COLORGROUP SYSTEM
3 42 36 37
