#       Name:                AV-unprocessed.smi:1481
#       Creating user name   scv26
#       Creation time:       Fri Mar 27 06:08:08 2020


#       File generated by GOLD software.
#

@<TRIPOS>MOLECULE
AV-unprocessed.smi:1481
    45    46     1
SMALL
NO_CHARGES


@<TRIPOS>ATOM
      1 ****        -1.8529   1.5526  -2.6944 O.2            1 S1                 0.0000
      2 ****        -1.9655   0.4203  -3.1646 C.2            1 S1                 0.0000
      3 ****        -0.9306  -0.3929  -3.4192 N.am           1 S1                 0.0000
      4 ****         0.4680  -0.0642  -3.1604 C.3            1 S1                 0.0000
      5 ****         0.8710  -0.1422  -1.6942 C.ar           1 S1                 0.0000
      6 ****         0.2759  -1.0575  -0.8007 C.ar           1 S1                 0.0000
      7 ****         0.6969  -1.0744   0.5424 C.ar           1 S1                 0.0000
      8 ****         1.7067  -0.1759   0.9618 C.ar           1 S1                 0.0000
      9 ****         2.1379  -0.1688   2.3065 N.3            1 S1                 0.0000
     10 ****         3.3375   0.5989   2.6366 C.3            1 S1                 0.0000
     11 ****         3.8131   0.2660   4.0607 C.3            1 S1                 0.0000
     12 ****         2.7515   0.4839   4.9837 O.3            1 S1                 0.0000
     13 ****         1.6339  -0.3546   4.7110 C.3            1 S1                 0.0000
     14 ****         1.0809  -0.0485   3.3082 C.3            1 S1                 0.0000
     15 ****         2.2881   0.6901   0.0951 N.ar           1 S1                 0.0000
     16 ****         1.8794   0.7036  -1.1909 C.ar           1 S1                 0.0000
     17 ****        -3.1366  -0.1528  -3.4723 N.am           1 S1                 0.0000
     18 ****        -4.4459   0.4568  -3.2633 C.3            1 S1                 0.0000
     19 ****        -5.0029   0.1558  -1.8614 C.3            1 S1                 0.0000
     20 ****        -6.2211   0.6840  -1.7527 F              1 S1                 0.0000
     21 ****        -5.0908  -1.1613  -1.6743 F              1 S1                 0.0000
     22 ****        -4.2256   0.6820  -0.9150 F              1 S1                 0.0000
     23 ****        -1.1216  -1.3054  -3.8063 H              1 S1                 0.0000
     24 ****         1.0903  -0.7607  -3.7227 H              1 S1                 0.0000
     25 ****         0.6879   0.9308  -3.5514 H              1 S1                 0.0000
     26 ****        -0.4913  -1.7415  -1.1317 H              1 S1                 0.0000
     27 ****         0.2521  -1.7810   1.2268 H              1 S1                 0.0000
     28 ****         4.1363   0.3750   1.9285 H              1 S1                 0.0000
     29 ****         3.1180   1.6647   2.5563 H              1 S1                 0.0000
     30 ****         4.1591  -0.7670   4.1240 H              1 S1                 0.0000
     31 ****         4.6563   0.9010   4.3329 H              1 S1                 0.0000
     32 ****         1.9236  -1.4036   4.7940 H              1 S1                 0.0000
     33 ****         0.8655  -0.1771   5.4634 H              1 S1                 0.0000
     34 ****         0.6824   0.9665   3.2782 H              1 S1                 0.0000
     35 ****         0.2493  -0.7209   3.1025 H              1 S1                 0.0000
     36 ****         2.3723   1.4154  -1.8366 H              1 S1                 0.0000
     37 ****        -3.1258  -1.0883  -3.8515 H              1 S1                 0.0000
     38 ****        -4.3993   1.5342  -3.4314 H              1 S1                 0.0000
     39 ****        -5.1231   0.0589  -4.0194 H              1 S1                 0.0000
     40 ****        -0.9469   1.9165  -2.4785 LP             1 S1                 0.0000
     41 ****        -2.6675   2.1083  -2.5284 LP             1 S1                 0.0000
     42 ****         2.4638  -1.1121   2.3706 LP             1 S1                 0.0000
     43 ****         2.4617   1.4391   4.9243 LP             1 S1                 0.0000
     44 ****         3.0818   0.2927   5.9081 LP             1 S1                 0.0000
     45 ****         3.0093   1.3097   0.4046 LP             1 S1                 0.0000
@<TRIPOS>BOND
    1    1    2 2     
    2    2    3 am    
    3    2   17 am    
    4    3    4 1     
    5    3   23 1     
    6    4    5 1     
    7    4   24 1     
    8    4   25 1     
    9    5   16 ar    
   10    5    6 ar    
   11    6    7 ar    
   12    6   26 1     
   13    7    8 ar    
   14    7   27 1     
   15    8    9 1     
   16    8   15 ar    
   17    9   14 1     
   18    9   10 1     
   19   10   11 1     
   20   10   28 1     
   21   10   29 1     
   22   11   12 1     
   23   11   30 1     
   24   11   31 1     
   25   12   13 1     
   26   13   14 1     
   27   13   32 1     
   28   13   33 1     
   29   14   34 1     
   30   14   35 1     
   31   15   16 ar    
   32   16   36 1     
   33   17   18 1     
   34   17   37 1     
   35   18   19 1     
   36   18   38 1     
   37   18   39 1     
   38   19   20 1     
   39   19   21 1     
   40   19   22 1     
   41    1   40 1     
   42    1   41 1     
   43    9   42 1     
   44   12   43 1     
   45   12   44 1     
   46   15   45 1     
@<TRIPOS>SUBSTRUCTURE
      1 S1             1
@<TRIPOS>SET
LONE_PAIRS      STATIC     ATOMS    <user>   **** ""
6 40 41 42 43 44 45
DONOR_HYDROGENS      STATIC     ATOMS    <user>   **** ""
2 23 37
ATOM$BLUE        STATIC     ATOMS    COLORGROUP SYSTEM
6 40 41 42 43 44 45
ATOM$RED        STATIC     ATOMS    COLORGROUP SYSTEM
2 23 37
