AV-unprocessed.smi:2143|AV-procd|sdf|8728|dock9
  -GOLD-   2272011493D 1   1.00000     0.00000
 Structure written by MMmdl.
 44 45  0  0  0  0  0  0  0  0  1 V2000
  150.9061  145.3812  160.0885 C   0  0  0  0  0  0  0  0  0  0  0  0
  151.3696  143.9247  159.9188 C   0  0  2  0  0  0  0  0  0  0  0  0
  152.8127  143.7208  160.4234 C   0  0  0  0  0  0  0  0  0  0  0  0
  153.2340  142.2450  160.3442 C   0  0  0  0  0  0  0  0  0  0  0  0
  153.0458  141.6781  158.9289 C   0  0  0  0  0  0  0  0  0  0  0  0
  151.6004  141.8808  158.4346 C   0  0  2  0  0  0  0  0  0  0  0  0
  151.4451  141.2977  157.1036 N   0  0  0  0  0  0  0  0  0  0  0  0
  151.9587  140.1244  156.7048 C   0  0  0  0  0  0  0  0  0  0  0  0
  152.6213  139.3918  157.4409 O   0  0  0  0  0  0  0  0  0  0  0  0
  151.6507  139.7153  155.2580 C   0  0  0  0  0  0  0  0  0  0  0  0
  150.7029  138.5975  155.1626 N   0  0  0  0  0  0  0  0  0  0  0  0
  149.3558  138.8549  154.9839 C   0  0  0  0  0  0  0  0  0  0  0  0
  148.4165  137.8873  154.9058 C   0  0  0  0  0  0  0  0  0  0  0  0
  148.7818  136.4795  155.0056 C   0  0  0  0  0  0  0  0  0  0  0  0
  147.9558  135.5672  154.9617 O   0  0  0  0  0  0  0  0  0  0  0  0
  150.1677  136.2432  155.1717 N   0  0  0  0  0  0  0  0  0  0  0  0
  150.6222  134.8740  155.3020 C   0  0  0  0  0  0  0  0  0  0  0  0
  151.1431  137.2609  155.2701 C   0  0  0  0  0  0  0  0  0  0  0  0
  152.3364  137.0060  155.4514 O   0  0  0  0  0  0  0  0  0  0  0  0
  151.1844  143.3775  158.4781 C   0  0  2  0  0  0  0  0  0  0  0  0
  151.8815  144.2350  157.3962 C   0  0  0  0  0  0  0  0  0  0  0  0
  151.5568  146.0785  159.5611 H   0  0  0  0  0  0  0  0  0  0  0  0
  150.9089  145.6686  161.1403 H   0  0  0  0  0  0  0  0  0  0  0  0
  149.8913  145.5181  159.7141 H   0  0  0  0  0  0  0  0  0  0  0  0
  150.7221  143.3284  160.5635 H   0  0  0  0  0  0  0  0  0  0  0  0
  153.5046  144.3327  159.8439 H   0  0  0  0  0  0  0  0  0  0  0  0
  152.8961  144.0637  161.4553 H   0  0  0  0  0  0  0  0  0  0  0  0
  154.2744  142.1381  160.6525 H   0  0  0  0  0  0  0  0  0  0  0  0
  152.6422  141.6607  161.0501 H   0  0  0  0  0  0  0  0  0  0  0  0
  153.7507  142.1538  158.2462 H   0  0  0  0  0  0  0  0  0  0  0  0
  153.2928  140.6157  158.9301 H   0  0  0  0  0  0  0  0  0  0  0  0
  150.9505  141.3279  159.1161 H   0  0  0  0  0  0  0  0  0  0  0  0
  150.9071  141.8297  156.4350 H   0  0  0  0  0  0  0  0  0  0  0  0
  151.2510  140.5864  154.7370 H   0  0  0  0  0  0  0  0  0  0  0  0
  152.5786  139.4637  154.7410 H   0  0  0  0  0  0  0  0  0  0  0  0
  149.0337  139.8836  154.9094 H   0  0  0  0  0  0  0  0  0  0  0  0
  147.3796  138.1588  154.7715 H   0  0  0  0  0  0  0  0  0  0  0  0
  151.5736  134.7680  154.7781 H   0  0  0  0  0  0  0  0  0  0  0  0
  149.9063  134.1920  154.8426 H   0  0  0  0  0  0  0  0  0  0  0  0
  150.7285  134.6766  156.3697 H   0  0  0  0  0  0  0  0  0  0  0  0
  150.1166  143.4210  158.2589 H   0  0  0  0  0  0  0  0  0  0  0  0
  152.9602  144.2808  157.5406 H   0  0  0  0  0  0  0  0  0  0  0  0
  151.5057  145.2575  157.3940 H   0  0  0  0  0  0  0  0  0  0  0  0
  151.7015  143.8420  156.3957 H   0  0  0  0  0  0  0  0  0  0  0  0
  1  2  1  0  0  0  0
  1 22  1  0  0  0  0
  1 23  1  0  0  0  0
  1 24  1  0  0  0  0
  2 20  1  0  0  0  0
  2  3  1  0  0  0  0
  2 25  1  0  0  0  0
  3  4  1  0  0  0  0
  3 26  1  0  0  0  0
  3 27  1  0  0  0  0
  4  5  1  0  0  0  0
  4 28  1  0  0  0  0
  4 29  1  0  0  0  0
  5  6  1  0  0  0  0
  5 30  1  0  0  0  0
  5 31  1  0  0  0  0
  6  7  1  0  0  0  0
  6 20  1  0  0  0  0
  6 32  1  0  0  0  0
  7  8  1  0  0  0  0
  7 33  1  0  0  0  0
  8  9  2  0  0  0  0
  8 10  1  0  0  0  0
 10 11  1  0  0  0  0
 10 34  1  0  0  0  0
 10 35  1  0  0  0  0
 11 18  1  0  0  0  0
 11 12  1  0  0  0  0
 12 13  2  0  0  0  0
 12 36  1  0  0  0  0
 13 14  1  0  0  0  0
 13 37  1  0  0  0  0
 14 15  2  0  0  0  0
 14 16  1  0  0  0  0
 16 17  1  0  0  0  0
 16 18  1  0  0  0  0
 17 38  1  0  0  0  0
 17 39  1  0  0  0  0
 17 40  1  0  0  0  0
 18 19  2  0  0  0  0
 20 21  1  0  0  0  0
 20 41  1  0  0  0  0
 21 42  1  0  0  0  0
 21 43  1  0  0  0  0
 21 44  1  0  0  0  0
M  END
> <s_m_source_file>
AV-unprocessed.smi

> <i_m_source_file_index>
2143

> <i_lp_mmshare_version>
43012

> <i_f3d_flags>
0

> <s_epik_input>
W0NIM11bQ0BASF0xW0NIMl1bQ0gyXVtDSDJdW0NASF0oW0NASF0xW0NIM10pW05IXUMoPU8pW0NIMl1uMltjSF1bY0hdYyg9TyluKFtDSDNdKWMyPU8=

> <s_epik_cmdline>
J2VwaWtfcHl0aG9uJywgJy1waCcsICc3LjAnLCAnLXRuJywgJzgnLCAnLW1hJywgJzIwMCcsICctbWV0YWxfYmluZGluZycsICctaW1hZScsICc8aW5maWxlLm1hZT4nLCAnLW9tYWUnLCAnPG91dGZpbGUubWFlPic=

> <r_lp_tautomer_probability>
1

> <r_epik_Ionization_Penalty>
3.18445e-08

> <r_epik_Ionization_Penalty_Charging>
1.27977e-08

> <r_epik_Ionization_Penalty_Neutral>
1.90469e-08

> <r_epik_State_Penalty>
-0

> <r_epik_Charging_Adjusted_Penalty>
1.27977e-08

> <i_epik_Tot_Q>
0

> <i_epik_Tot_abs_Q>
0

> <r_epik_Metal_State_Penalty>
-0

> <b_epik_Metal_Only>
0

> <s_lp_Force_Field>
OPLS_2005

> <r_lp_Energy>
21.2837

> <b_lp_Chiralities_Consistent>
1

> <s_lp_Variant>
AV-unprocessed.smi:2143-7

> <Gold.Version>
5.8.1

> <Gold.Id.Protein>
6NUR|6NUR_protein|mol2

> <Gold.PLP.Fitness>
42.2689

> <Gold.PLP.PLP>
-38.3359

> <Gold.PLP.part.hbond>
-2.0000

> <Gold.PLP.part.metal>
0.0000

> <Gold.PLP.part.buried>
-3.1958

> <Gold.PLP.part.nonpolar>
-32.2248

> <Gold.PLP.part.repulsive>
0.2311

> <Gold.PLP.ligand.clash>
0.0000

> <Gold.PLP.ligand.torsion>
0.6555

> <Gold.PLP.Chemscore.Hbond>
1.7430

> <Gold.PLP.Chemscore.CHOScore>
0.0000

> <Gold.PLP.Chemscore.Metal>
0.0000

> <Gold.Chemscore.Hbonds>
donor molecule, donor type, donor heavy atom, donor atom, acceptor molecule, acceptor atom, score
      P1  H  7997  8010       L1     9  0.85
      P1  H 10752 10764       L1    19  0.80

> <Gold.PLP.Chemscore.Internal.Correction>
0.0150

> <Gold.Rescore>
     Score         DG    S(hbond)    S(metal)    S(lipo)     H(rot)  DE(clash)    DE(int)     intcor
     15.24     -17.17       1.00        0.00     104.34       1.51       0.02       1.90       ----

> <Gold.Chemscore.Fitness>
15.2448

> <Gold.Chemscore.DG>
-17.1678

> <Gold.Chemscore.ZeroCoef>
-5.4800

> <Gold.Chemscore.Hbond>
1.0042

> <Gold.Chemscore.Metal>
0.0000

> <Gold.Chemscore.Lipo>
104.3357

> <Gold.Chemscore.Internal_Hbond>
0.0000

> <Gold.Chemscore.DEClash>
0.0194

> <Gold.Chemscore.DEInternal>
1.9035

> <Gold.Chemscore.Rot>
1.5131

> <Gold.Chemscore.Internal.Correction>
   9.000000E+99

> <Gold.Chemscore.Hbonds>
donor molecule, donor type, donor heavy atom, donor atom, acceptor molecule, acceptor atom, score
      P1  H  7997  8010       L1     9  0.18
      P1  H 10752 10764       L1    19  0.76

> <Gold.Chemscore.Hbond.Weighted>
-3.3539

> <Gold.Chemscore.Metal.Weighted>
-0.0000

> <Gold.Chemscore.Lipo.Weighted>
-12.2073

> <Gold.Chemscore.Internal_Hbond.Weighted>
0.0000

> <Gold.Chemscore.DEClash.Weighted>
0.0194

> <Gold.Chemscore.DEInternal.Weighted>
1.9035

> <Gold.Chemscore.Rot.Weighted>
3.8734

> <Gold.Chemscore.Internal.Correction.Weighted>
   9.000000E+99

> <Gold.Protein.RotatedTorsions>
[ 6907 6896 6895 6894 ] final  -36.37 input  -60.11 | X-H torsion
[ 7974 7965 7964 7962 ] final  -51.11 input  175.53 | X-H torsion
[ 8008 7997 7996 7995 ] final   39.45 input   59.86 | X-H torsion
[ 10167 10162 10161 10158 ] final  -16.07 input  -65.29 | X-H torsion
[ 10718 10713 10712 10709 ] final  134.18 input   66.30 | X-H torsion
[ 10763 10752 10751 10750 ] final  -54.97 input  -60.55 | X-H torsion
[ 11005 11000 10999 10996 ] final   69.86 input  -57.11 | X-H torsion

> <Gold.Protein.ActiveResidues>
 VAL166  LYS551  ARG553  GLY616  TRP617  ASP618  TYR619  PRO620  LYS621  CYS622 
 ASP623  PHE694  ASN695  SER759  ASP760  ASP761  ALA762  ILE779  LEU786  VAL792 
 PHE793  MET794  SER795  GLU796  ALA797  LYS798  CYS799  TRP800  GLU811  SER814 

> <Gold.Protein.RotatedAtoms>
  151.0280  134.9518  159.8095 H   0  0  0  0  0  0  0  0  0  0  0  0  # atno 6907 bound_to 6896
  152.5339  134.2817  159.9020 H   0  0  0  0  0  0  0  0  0  0  0  0  # atno 6908 bound_to 6896
  151.2826  133.4160  159.2662 H   0  0  0  0  0  0  0  0  0  0  0  0  # atno 6909 bound_to 6896
  145.9226  140.7820  142.9640 H   0  0  0  0  0  0  0  0  0  0  0  0  # atno 7974 bound_to 7965
  155.2369  140.3342  155.4297 H   0  0  0  0  0  0  0  0  0  0  0  0  # atno 8008 bound_to 7997
  156.2272  140.1834  156.7379 H   0  0  0  0  0  0  0  0  0  0  0  0  # atno 8009 bound_to 7997
  154.5918  140.0637  156.9234 H   0  0  0  0  0  0  0  0  0  0  0  0  # atno 8010 bound_to 7997
  140.7228  143.5154  150.9699 H   0  0  0  0  0  0  0  0  0  0  0  0  # atno 10167 bound_to 10162
  157.4698  131.1079  150.9817 H   0  0  0  0  0  0  0  0  0  0  0  0  # atno 10718 bound_to 10713
  154.1834  135.6439  153.5040 H   0  0  0  0  0  0  0  0  0  0  0  0  # atno 10763 bound_to 10752
  153.0053  135.5411  154.6491 H   0  0  0  0  0  0  0  0  0  0  0  0  # atno 10764 bound_to 10752
  154.5861  135.2929  155.0656 H   0  0  0  0  0  0  0  0  0  0  0  0  # atno 10765 bound_to 10752
  139.9630  134.7029  156.0606 H   0  0  0  0  0  0  0  0  0  0  0  0  # atno 11005 bound_to 11000
  144.6754  140.1999  143.7388 LP  0  0  0  0  0  0  0  0  0  0  0  0  # atno 17320 bound_to 7965
  145.8531  139.2185  143.1760 LP  0  0  0  0  0  0  0  0  0  0  0  0  # atno 17321 bound_to 7965
  139.8869  143.7002  152.3150 LP  0  0  0  0  0  0  0  0  0  0  0  0  # atno 17342 bound_to 10162
  139.7304  144.7583  151.0812 LP  0  0  0  0  0  0  0  0  0  0  0  0  # atno 17343 bound_to 10162
  157.0585  130.5816  149.5382 LP  0  0  0  0  0  0  0  0  0  0  0  0  # atno 17370 bound_to 10713
  156.0068  130.5155  150.7856 LP  0  0  0  0  0  0  0  0  0  0  0  0  # atno 17371 bound_to 10713
  141.1308  133.6587  156.3460 LP  0  0  0  0  0  0  0  0  0  0  0  0  # atno 17394 bound_to 11000
  140.5459  134.6075  157.5393 LP  0  0  0  0  0  0  0  0  0  0  0  0  # atno 17395 bound_to 11000

$$$$
