AV-unprocessed.smi:1227|AV-procd|sdf|5146|dock8
  -GOLD-   22720 4213D 1   1.00000     0.00000
 Structure written by MMmdl.
 44 45  0  0  0  0  0  0  0  0  1 V2000
  154.9813  138.0172  165.8652 C   0  0  0  0  0  0  0  0  0  0  0  0
  154.4077  137.8478  164.5734 O   0  0  0  0  0  0  0  0  0  0  0  0
  154.2006  136.5638  164.1060 C   0  0  0  0  0  0  0  0  0  0  0  0
  154.2209  135.5428  164.9992 N   0  0  0  0  0  0  0  0  0  0  0  0
  154.0232  134.2882  164.5464 C   0  0  0  0  0  0  0  0  0  0  0  0
  153.8007  133.9858  163.1910 C   0  0  0  0  0  0  0  0  0  0  0  0
  153.7797  135.0424  162.2620 C   0  0  0  0  0  0  0  0  0  0  0  0
  153.9767  136.3681  162.7224 C   0  0  0  0  0  0  0  0  0  0  0  0
  153.9912  137.5163  161.8803 N   0  0  0  0  0  0  0  0  0  0  0  0
  153.4017  137.7126  160.6884 C   0  0  0  0  0  0  0  0  0  0  0  0
  152.7025  136.8961  160.0893 O   0  0  0  0  0  0  0  0  0  0  0  0
  153.6634  138.9411  160.2207 N   0  0  0  0  0  0  0  0  0  0  0  0
  153.1860  139.4731  158.9502 C   0  0  0  0  0  0  0  0  0  0  0  0
  151.9047  140.3097  159.1277 C   0  0  0  0  0  0  0  0  0  0  0  0
  152.2232  141.7232  159.3781 N   0  0  0  0  0  0  0  0  0  0  0  0
  152.9996  141.9945  160.5979 C   0  0  0  0  0  0  0  0  0  0  0  0
  152.2130  142.8255  161.6304 C   0  0  0  0  0  0  0  0  0  0  0  0
  152.2153  144.3358  161.3509 C   0  0  0  0  0  0  0  0  0  0  0  0
  151.5284  144.7374  160.0378 C   0  0  0  0  0  0  0  0  0  0  0  0
  152.2100  144.1471  158.7923 C   0  0  0  0  0  0  0  0  0  0  0  0
  151.8020  142.6919  158.5300 C   0  0  0  0  0  0  0  0  0  0  0  0
  151.1121  142.4519  157.5381 O   0  0  0  0  0  0  0  0  0  0  0  0
  155.0794  139.0815  166.0791 H   0  0  0  0  0  0  0  0  0  0  0  0
  155.9778  137.5766  165.9194 H   0  0  0  0  0  0  0  0  0  0  0  0
  154.3530  137.5801  166.6424 H   0  0  0  0  0  0  0  0  0  0  0  0
  154.0478  133.5016  165.2861 H   0  0  0  0  0  0  0  0  0  0  0  0
  153.6538  132.9653  162.8699 H   0  0  0  0  0  0  0  0  0  0  0  0
  153.6243  134.8060  161.2218 H   0  0  0  0  0  0  0  0  0  0  0  0
  154.4935  138.3081  162.2544 H   0  0  0  0  0  0  0  0  0  0  0  0
  154.2414  139.5508  160.7805 H   0  0  0  0  0  0  0  0  0  0  0  0
  153.9824  140.0862  158.5277 H   0  0  0  0  0  0  0  0  0  0  0  0
  153.0159  138.6579  158.2448 H   0  0  0  0  0  0  0  0  0  0  0  0
  151.2641  140.2085  158.2511 H   0  0  0  0  0  0  0  0  0  0  0  0
  151.3107  139.9063  159.9497 H   0  0  0  0  0  0  0  0  0  0  0  0
  153.2834  141.0579  161.0784 H   0  0  0  0  0  0  0  0  0  0  0  0
  153.9425  142.4807  160.3444 H   0  0  0  0  0  0  0  0  0  0  0  0
  151.1897  142.4562  161.7124 H   0  0  0  0  0  0  0  0  0  0  0  0
  152.6640  142.6686  162.6108 H   0  0  0  0  0  0  0  0  0  0  0  0
  151.7164  144.8451  162.1761 H   0  0  0  0  0  0  0  0  0  0  0  0
  153.2420  144.7040  161.3515 H   0  0  0  0  0  0  0  0  0  0  0  0
  150.4754  144.4524  160.0665 H   0  0  0  0  0  0  0  0  0  0  0  0
  151.5390  145.8250  159.9599 H   0  0  0  0  0  0  0  0  0  0  0  0
  151.9195  144.7376  157.9222 H   0  0  0  0  0  0  0  0  0  0  0  0
  153.2952  144.2329  158.8576 H   0  0  0  0  0  0  0  0  0  0  0  0
  1  2  1  0  0  0  0
  1 23  1  0  0  0  0
  1 24  1  0  0  0  0
  1 25  1  0  0  0  0
  2  3  1  0  0  0  0
  3  8  1  0  0  0  0
  3  4  2  0  0  0  0
  4  5  1  0  0  0  0
  5  6  2  0  0  0  0
  5 26  1  0  0  0  0
  6  7  1  0  0  0  0
  6 27  1  0  0  0  0
  7  8  2  0  0  0  0
  7 28  1  0  0  0  0
  8  9  1  0  0  0  0
  9 10  1  0  0  0  0
  9 29  1  0  0  0  0
 10 11  2  0  0  0  0
 10 12  1  0  0  0  0
 12 13  1  0  0  0  0
 12 30  1  0  0  0  0
 13 14  1  0  0  0  0
 13 31  1  0  0  0  0
 13 32  1  0  0  0  0
 14 15  1  0  0  0  0
 14 33  1  0  0  0  0
 14 34  1  0  0  0  0
 15 21  1  0  0  0  0
 15 16  1  0  0  0  0
 16 17  1  0  0  0  0
 16 35  1  0  0  0  0
 16 36  1  0  0  0  0
 17 18  1  0  0  0  0
 17 37  1  0  0  0  0
 17 38  1  0  0  0  0
 18 19  1  0  0  0  0
 18 39  1  0  0  0  0
 18 40  1  0  0  0  0
 19 20  1  0  0  0  0
 19 41  1  0  0  0  0
 19 42  1  0  0  0  0
 20 21  1  0  0  0  0
 20 43  1  0  0  0  0
 20 44  1  0  0  0  0
 21 22  2  0  0  0  0
M  END
> <s_m_source_file>
AV-unprocessed.smi

> <i_m_source_file_index>
1227

> <i_lp_mmshare_version>
43012

> <i_f3d_flags>
0

> <s_epik_input>
W0NIM11PYzFuW2NIXVtjSF1bY0hdYzFbTkhdQyg9TylbTkhdW0NIMl1bQ0gyXU4yW0NIMl1bQ0gyXVtDSDJdW0NIMl1bQ0gyXUMyPU8=

> <s_epik_cmdline>
J2VwaWtfcHl0aG9uJywgJy1waCcsICc3LjAnLCAnLXRuJywgJzgnLCAnLW1hJywgJzIwMCcsICctbWV0YWxfYmluZGluZycsICctaW1hZScsICc8aW5maWxlLm1hZT4nLCAnLW9tYWUnLCAnPG91dGZpbGUubWFlPic=

> <r_lp_tautomer_probability>
1

> <r_epik_Ionization_Penalty>
8.86757e-05

> <r_epik_Ionization_Penalty_Charging>
0

> <r_epik_Ionization_Penalty_Neutral>
8.86757e-05

> <r_epik_State_Penalty>
-0

> <r_epik_Charging_Adjusted_Penalty>
0

> <i_epik_Tot_Q>
0

> <i_epik_Tot_abs_Q>
0

> <r_epik_Metal_State_Penalty>
-0

> <b_epik_Metal_Only>
0

> <s_lp_Force_Field>
OPLS_2005

> <r_lp_Energy>
20.5681

> <b_lp_Chiralities_Consistent>
1

> <s_lp_Variant>
AV-unprocessed.smi:1227-1

> <Gold.Version>
5.8.1

> <Gold.Id.Protein>
6NUR|6NUR_protein|mol2

> <Gold.PLP.Fitness>
42.9929

> <Gold.PLP.PLP>
-41.7191

> <Gold.PLP.part.hbond>
-0.8394

> <Gold.PLP.part.metal>
0.0000

> <Gold.PLP.part.buried>
-6.1324

> <Gold.PLP.part.nonpolar>
-34.5553

> <Gold.PLP.part.repulsive>
0.2664

> <Gold.PLP.ligand.clash>
0.0000

> <Gold.PLP.ligand.torsion>
0.7153

> <Gold.PLP.Chemscore.Hbond>
0.8938

> <Gold.PLP.Chemscore.CHOScore>
0.0000

> <Gold.PLP.Chemscore.Metal>
0.0000

> <Gold.Chemscore.Hbonds>
donor molecule, donor type, donor heavy atom, donor atom, acceptor molecule, acceptor atom, score
      P1  H  6896  6907       L1    11  1.00

> <Gold.PLP.Chemscore.Internal.Correction>
0.0232

> <Gold.Rescore>
     Score         DG    S(hbond)    S(metal)    S(lipo)     H(rot)  DE(clash)    DE(int)     intcor
     14.18     -15.66       1.00        0.00      97.69       1.79       0.03       1.46       ----

> <Gold.Chemscore.Fitness>
14.1776

> <Gold.Chemscore.DG>
-15.6641

> <Gold.Chemscore.ZeroCoef>
-5.4800

> <Gold.Chemscore.Hbond>
0.9983

> <Gold.Chemscore.Metal>
0.0000

> <Gold.Chemscore.Lipo>
97.6897

> <Gold.Chemscore.Internal_Hbond>
0.0000

> <Gold.Chemscore.DEClash>
0.0270

> <Gold.Chemscore.DEInternal>
1.4594

> <Gold.Chemscore.Rot>
1.7890

> <Gold.Chemscore.Internal.Correction>
   9.000000E+99

> <Gold.Chemscore.Hbonds>
donor molecule, donor type, donor heavy atom, donor atom, acceptor molecule, acceptor atom, score
      P1  H  6896  6907       L1    11  0.98

> <Gold.Chemscore.Hbond.Weighted>
-3.3342

> <Gold.Chemscore.Metal.Weighted>
-0.0000

> <Gold.Chemscore.Lipo.Weighted>
-11.4297

> <Gold.Chemscore.Internal_Hbond.Weighted>
0.0000

> <Gold.Chemscore.DEClash.Weighted>
0.0270

> <Gold.Chemscore.DEInternal.Weighted>
1.4594

> <Gold.Chemscore.Rot.Weighted>
4.5799

> <Gold.Chemscore.Internal.Correction.Weighted>
   9.000000E+99

> <Gold.Protein.RotatedTorsions>
[ 6907 6896 6895 6894 ] final   32.30 input  -60.11 | X-H torsion
[ 7974 7965 7964 7962 ] final  139.29 input  175.53 | X-H torsion
[ 8008 7997 7996 7995 ] final   12.43 input   59.86 | X-H torsion
[ 10167 10162 10161 10158 ] final  -16.40 input  -65.29 | X-H torsion
[ 10718 10713 10712 10709 ] final   71.29 input   66.30 | X-H torsion
[ 10763 10752 10751 10750 ] final  116.08 input  -60.55 | X-H torsion
[ 11005 11000 10999 10996 ] final   93.27 input  -57.11 | X-H torsion

> <Gold.Protein.ActiveResidues>
 VAL166  LYS551  ARG553  GLY616  TRP617  ASP618  TYR619  PRO620  LYS621  CYS622 
 ASP623  PHE694  ASN695  SER759  ASP760  ASP761  ALA762  ILE779  LEU786  VAL792 
 PHE793  MET794  SER795  GLU796  ALA797  LYS798  CYS799  TRP800  GLU811  SER814 

> <Gold.Protein.RotatedAtoms>
  152.0726  134.9524  160.0574 H   0  0  0  0  0  0  0  0  0  0  0  0  # atno 6907 bound_to 6896
  152.0844  133.4164  159.4524 H   0  0  0  0  0  0  0  0  0  0  0  0  # atno 6908 bound_to 6896
  150.6836  134.2864  159.4692 H   0  0  0  0  0  0  0  0  0  0  0  0  # atno 6909 bound_to 6896
  144.9292  139.5069  143.5626 H   0  0  0  0  0  0  0  0  0  0  0  0  # atno 7974 bound_to 7965
  154.8204  140.2883  155.5790 H   0  0  0  0  0  0  0  0  0  0  0  0  # atno 8008 bound_to 7997
  156.2997  140.2551  156.3041 H   0  0  0  0  0  0  0  0  0  0  0  0  # atno 8009 bound_to 7997
  154.9345  140.0382  157.2054 H   0  0  0  0  0  0  0  0  0  0  0  0  # atno 8010 bound_to 7997
  140.7233  143.5120  150.9738 H   0  0  0  0  0  0  0  0  0  0  0  0  # atno 10167 bound_to 10162
  157.6444  130.9521  150.0769 H   0  0  0  0  0  0  0  0  0  0  0  0  # atno 10718 bound_to 10713
  153.5319  135.3576  155.2679 H   0  0  0  0  0  0  0  0  0  0  0  0  # atno 10763 bound_to 10752
  154.8726  135.4070  154.3142 H   0  0  0  0  0  0  0  0  0  0  0  0  # atno 10764 bound_to 10752
  153.3832  135.7069  153.6617 H   0  0  0  0  0  0  0  0  0  0  0  0  # atno 10765 bound_to 10752
  139.8812  134.8780  156.3693 H   0  0  0  0  0  0  0  0  0  0  0  0  # atno 11005 bound_to 11000
  146.3239  139.8230  142.8923 LP  0  0  0  0  0  0  0  0  0  0  0  0  # atno 17320 bound_to 7965
  145.3169  141.0234  143.3522 LP  0  0  0  0  0  0  0  0  0  0  0  0  # atno 17321 bound_to 7965
  139.8834  143.7044  152.3154 LP  0  0  0  0  0  0  0  0  0  0  0  0  # atno 17342 bound_to 10162
  139.7334  144.7577  151.0766 LP  0  0  0  0  0  0  0  0  0  0  0  0  # atno 17343 bound_to 10162
  156.1756  130.3648  149.9104 LP  0  0  0  0  0  0  0  0  0  0  0  0  # atno 17370 bound_to 10713
  156.7069  130.8955  151.3605 LP  0  0  0  0  0  0  0  0  0  0  0  0  # atno 17371 bound_to 10713
  140.9475  133.7473  156.0228 LP  0  0  0  0  0  0  0  0  0  0  0  0  # atno 17394 bound_to 11000
  140.8146  134.3360  157.5401 LP  0  0  0  0  0  0  0  0  0  0  0  0  # atno 17395 bound_to 11000

$$$$
