AV-unprocessed.smi:2609|AV-procd|sdf|10205|dock1
  -GOLD-   2272014213D 1   1.00000     0.00000
 Structure written by MMmdl.
 25 26  0  0  0  0  0  0  0  0  1 V2000
  149.0280  141.7005  154.0722 O   0  0  0  0  0  0  0  0  0  0  0  0
  149.7945  141.2816  154.9363 C   0  0  0  0  0  0  0  0  0  0  0  0
  150.4668  139.9811  154.8771 C   0  0  0  0  0  0  0  0  0  0  0  0
  151.2964  139.6099  155.8799 C   0  0  0  0  0  0  0  0  0  0  0  0
  151.5482  140.4217  156.9908 N   0  0  0  0  0  0  0  0  0  0  0  0
  150.9514  141.5720  157.0463 C   0  0  0  0  0  0  0  0  0  0  0  0
  151.1111  142.5870  158.1783 C   0  0  0  0  0  0  0  0  0  0  0  0
  151.6144  143.9545  157.6749 C   0  0  0  0  0  0  0  0  0  0  0  0
  151.7905  144.9367  158.8450 C   0  0  0  0  0  0  0  0  0  0  0  0
  152.6739  144.3883  159.8168 O   0  0  0  0  0  0  0  0  0  0  0  0
  152.1835  143.1837  160.3946 C   0  0  0  0  0  0  0  0  0  0  0  0
  152.0403  142.1039  159.3102 C   0  0  0  0  0  0  0  0  0  0  0  0
  150.0818  142.0132  156.0397 N   0  0  0  0  0  0  0  0  0  0  0  0
  149.6469  142.9193  156.1347 H   0  0  0  0  0  0  0  0  0  0  0  0
  150.2993  139.3231  154.0371 H   0  0  0  0  0  0  0  0  0  0  0  0
  151.8057  138.6577  155.8648 H   0  0  0  0  0  0  0  0  0  0  0  0
  150.1211  142.7370  158.6125 H   0  0  0  0  0  0  0  0  0  0  0  0
  152.5694  143.8327  157.1613 H   0  0  0  0  0  0  0  0  0  0  0  0
  150.9222  144.3820  156.9487 H   0  0  0  0  0  0  0  0  0  0  0  0
  152.2063  145.8772  158.4834 H   0  0  0  0  0  0  0  0  0  0  0  0
  150.8291  145.1709  159.3045 H   0  0  0  0  0  0  0  0  0  0  0  0
  152.8833  142.8518  161.1617 H   0  0  0  0  0  0  0  0  0  0  0  0
  151.2296  143.3668  160.8919 H   0  0  0  0  0  0  0  0  0  0  0  0
  151.6549  141.1856  159.7555 H   0  0  0  0  0  0  0  0  0  0  0  0
  153.0294  141.8695  158.9131 H   0  0  0  0  0  0  0  0  0  0  0  0
  1  2  2  0  0  0  0
  2  3  1  0  0  0  0
  2 13  1  0  0  0  0
  3 15  1  0  0  0  0
  3  4  2  0  0  0  0
  4 16  1  0  0  0  0
  4  5  1  0  0  0  0
  5  6  2  0  0  0  0
  6  7  1  0  0  0  0
  6 13  1  0  0  0  0
  7 12  1  0  0  0  0
  7  8  1  0  0  0  0
  7 17  1  0  0  0  0
  8  9  1  0  0  0  0
  8 18  1  0  0  0  0
  8 19  1  0  0  0  0
  9 10  1  0  0  0  0
  9 20  1  0  0  0  0
  9 21  1  0  0  0  0
 10 11  1  0  0  0  0
 11 12  1  0  0  0  0
 11 22  1  0  0  0  0
 11 23  1  0  0  0  0
 12 24  1  0  0  0  0
 12 25  1  0  0  0  0
 13 14  1  0  0  0  0
M  END
> <s_m_source_file>
AV-unprocessed.smi

> <i_m_source_file_index>
2609

> <i_lp_mmshare_version>
43012

> <i_f3d_flags>
0

> <s_epik_input>
Tz1jMVtjSF1bY0hdW25IXWMobjEpW0NIXTJbQ0gyXVtDSDJdT1tDSDJdW0NIMl0y

> <s_epik_cmdline>
J2VwaWtfcHl0aG9uJywgJy1waCcsICc3LjAnLCAnLXRuJywgJzgnLCAnLW1hJywgJzIwMCcsICctbWV0YWxfYmluZGluZycsICctaW1hZScsICc8aW5maWxlLm1hZT4nLCAnLW9tYWUnLCAnPG91dGZpbGUubWFlPic=

> <r_lp_tautomer_probability>
0.839158

> <r_epik_Ionization_Penalty>
0.000496986

> <r_epik_Ionization_Penalty_Charging>
0.000470711

> <r_epik_Ionization_Penalty_Neutral>
2.62743e-05

> <r_epik_State_Penalty>
0.0498811

> <r_epik_Charging_Adjusted_Penalty>
0.0503518

> <i_epik_Tot_Q>
0

> <i_epik_Tot_abs_Q>
0

> <r_epik_Metal_State_Penalty>
0.251987

> <b_epik_Metal_Only>
0

> <s_lp_Force_Field>
OPLS_2005

> <r_lp_Energy>
14.7139

> <b_lp_Chiralities_Consistent>
1

> <s_lp_Variant>
AV-unprocessed.smi:2609-1

> <Gold.Version>
5.8.1

> <Gold.Id.Protein>
6NUR|6NUR_protein|mol2

> <Gold.PLP.Fitness>
33.8333

> <Gold.PLP.PLP>
-29.1062

> <Gold.PLP.part.hbond>
-2.3252

> <Gold.PLP.part.metal>
0.0000

> <Gold.PLP.part.buried>
-0.3490

> <Gold.PLP.part.nonpolar>
-25.9231

> <Gold.PLP.part.repulsive>
0.3216

> <Gold.PLP.ligand.clash>
0.0000

> <Gold.PLP.ligand.torsion>
0.0083

> <Gold.PLP.Chemscore.Hbond>
1.5760

> <Gold.PLP.Chemscore.CHOScore>
0.0000

> <Gold.PLP.Chemscore.Metal>
0.0000

> <Gold.Chemscore.Hbonds>
donor molecule, donor type, donor heavy atom, donor atom, acceptor molecule, acceptor atom, score
      L1  H    13    14       P1  8028  1.00
      P1  H  8011  8017       L1     1  0.58

> <Gold.PLP.Chemscore.Internal.Correction>
0.0156

> <Gold.Rescore>
     Score         DG    S(hbond)    S(metal)    S(lipo)     H(rot)  DE(clash)    DE(int)     intcor
     15.46     -15.90       1.50        0.00      68.14       1.00       0.42       0.01       ----

> <Gold.Chemscore.Fitness>
15.4605

> <Gold.Chemscore.DG>
-15.8963

> <Gold.Chemscore.ZeroCoef>
-5.4800

> <Gold.Chemscore.Hbond>
1.4980

> <Gold.Chemscore.Metal>
0.0000

> <Gold.Chemscore.Lipo>
68.1445

> <Gold.Chemscore.Internal_Hbond>
0.0000

> <Gold.Chemscore.DEClash>
0.4216

> <Gold.Chemscore.DEInternal>
0.0142

> <Gold.Chemscore.Rot>
1.0000

> <Gold.Chemscore.Internal.Correction>
   9.000000E+99

> <Gold.Chemscore.Hbonds>
donor molecule, donor type, donor heavy atom, donor atom, acceptor molecule, acceptor atom, score
      L1  H    13    14       P1  8028  0.95
      P1  H  8011  8017       L1     1  0.51

> <Gold.Chemscore.Hbond.Weighted>
-5.0034

> <Gold.Chemscore.Metal.Weighted>
-0.0000

> <Gold.Chemscore.Lipo.Weighted>
-7.9729

> <Gold.Chemscore.Internal_Hbond.Weighted>
0.0000

> <Gold.Chemscore.DEClash.Weighted>
0.4216

> <Gold.Chemscore.DEInternal.Weighted>
0.0142

> <Gold.Chemscore.Rot.Weighted>
2.5600

> <Gold.Chemscore.Internal.Correction.Weighted>
   9.000000E+99

> <Gold.Protein.RotatedTorsions>
[ 6907 6896 6895 6894 ] final  -27.69 input  -60.11 | X-H torsion
[ 7974 7965 7964 7962 ] final  -30.43 input  175.53 | X-H torsion
[ 8008 7997 7996 7995 ] final  131.04 input   59.86 | X-H torsion
[ 10167 10162 10161 10158 ] final -128.19 input  -65.29 | X-H torsion
[ 10718 10713 10712 10709 ] final  -55.40 input   66.30 | X-H torsion
[ 10763 10752 10751 10750 ] final  130.93 input  -60.55 | X-H torsion
[ 11005 11000 10999 10996 ] final   67.64 input  -57.11 | X-H torsion

> <Gold.Protein.ActiveResidues>
 VAL166  LYS551  ARG553  GLY616  TRP617  ASP618  TYR619  PRO620  LYS621  CYS622 
 ASP623  PHE694  ASN695  SER759  ASP760  ASP761  ALA762  ILE779  LEU786  VAL792 
 PHE793  MET794  SER795  GLU796  ALA797  LYS798  CYS799  TRP800  GLU811  SER814 

> <Gold.Protein.RotatedAtoms>
  151.1433  135.0191  159.8635 H   0  0  0  0  0  0  0  0  0  0  0  0  # atno 6907 bound_to 6896
  152.5452  134.1473  159.8514 H   0  0  0  0  0  0  0  0  0  0  0  0  # atno 6908 bound_to 6896
  151.1551  133.4836  159.2627 H   0  0  0  0  0  0  0  0  0  0  0  0  # atno 6909 bound_to 6896
  146.1143  140.5539  142.8764 H   0  0  0  0  0  0  0  0  0  0  0  0  # atno 7974 bound_to 7965
  156.2964  140.2581  156.2860 H   0  0  0  0  0  0  0  0  0  0  0  0  # atno 8008 bound_to 7997
  154.9556  140.0393  157.2184 H   0  0  0  0  0  0  0  0  0  0  0  0  # atno 8009 bound_to 7997
  154.7995  140.2825  155.5936 H   0  0  0  0  0  0  0  0  0  0  0  0  # atno 8010 bound_to 7997
  139.9529  143.6036  152.2470 H   0  0  0  0  0  0  0  0  0  0  0  0  # atno 10167 bound_to 10162
  156.1372  130.4156  150.0165 H   0  0  0  0  0  0  0  0  0  0  0  0  # atno 10718 bound_to 10713
  153.7661  135.3189  155.3345 H   0  0  0  0  0  0  0  0  0  0  0  0  # atno 10763 bound_to 10752
  154.8213  135.4601  154.0790 H   0  0  0  0  0  0  0  0  0  0  0  0  # atno 10764 bound_to 10752
  153.2035  135.6926  153.8285 H   0  0  0  0  0  0  0  0  0  0  0  0  # atno 10765 bound_to 10752
  139.9758  134.6824  156.0356 H   0  0  0  0  0  0  0  0  0  0  0  0  # atno 11005 bound_to 11000
  144.7539  140.5260  143.6782 LP  0  0  0  0  0  0  0  0  0  0  0  0  # atno 17320 bound_to 7965
  145.5599  139.1479  143.3347 LP  0  0  0  0  0  0  0  0  0  0  0  0  # atno 17321 bound_to 7965
  139.6614  144.7662  151.1955 LP  0  0  0  0  0  0  0  0  0  0  0  0  # atno 17342 bound_to 10162
  140.7577  143.6004  150.8706 LP  0  0  0  0  0  0  0  0  0  0  0  0  # atno 17343 bound_to 10162
  156.8061  130.9308  151.3645 LP  0  0  0  0  0  0  0  0  0  0  0  0  # atno 17370 bound_to 10713
  157.6543  130.8911  149.9696 LP  0  0  0  0  0  0  0  0  0  0  0  0  # atno 17371 bound_to 10713
  141.1435  133.6560  156.3800 LP  0  0  0  0  0  0  0  0  0  0  0  0  # atno 17394 bound_to 11000
  140.5197  134.6316  157.5314 LP  0  0  0  0  0  0  0  0  0  0  0  0  # atno 17395 bound_to 11000

$$$$
