AV-unprocessed.smi:72|AV-procd|sdf|751|dock1
  -GOLD-   2262017 83D 1   1.00000     0.00000
 Structure written by MMmdl.
 29 30  0  0  0  0  0  0  0  0  1 V2000
  149.4321  131.0048  154.7621 N   0  0  0  0  0  0  0  0  0  0  0  0
  149.4647  132.3585  155.0255 C   0  0  0  0  0  0  0  0  0  0  0  0
  149.2280  133.2111  153.9380 N   0  0  0  0  0  0  0  0  0  0  0  0
  149.2508  134.4830  154.1830 C   0  0  0  0  0  0  0  0  0  0  0  0
  149.5007  134.9883  155.5212 N   0  0  0  0  0  0  0  0  0  0  0  0
  149.5284  136.4761  155.8054 C   0  0  2  0  0  0  0  0  0  0  0  0
  148.3597  137.0490  155.3095 O   0  0  0  0  0  0  0  0  0  0  0  0
  148.6385  138.3856  154.9234 C   0  0  2  0  0  0  0  0  0  0  0  0
  147.5655  138.8835  153.9428 C   0  0  0  0  0  0  0  0  0  0  0  0
  147.9457  140.1283  153.3962 O   0  0  0  0  0  0  0  0  0  0  0  0
  150.0331  138.2699  154.2981 C   0  0  1  0  0  0  0  0  0  0  0  0
  150.7114  139.5076  154.3834 O   0  0  0  0  0  0  0  0  0  0  0  0
  150.7229  137.2127  155.1564 C   0  0  2  0  0  0  0  0  0  0  0  0
  151.5602  136.3921  154.3615 O   0  0  0  0  0  0  0  0  0  0  0  0
  149.7547  134.0677  156.5739 C   0  0  0  0  0  0  0  0  0  0  0  0
  150.0068  134.4754  157.7078 O   0  0  0  0  0  0  0  0  0  0  0  0
  149.7137  132.7046  156.2562 N   0  0  0  0  0  0  0  0  0  0  0  0
  149.5084  136.5899  156.8904 H   0  0  0  0  0  0  0  0  0  0  0  0
  148.6819  139.0123  155.8172 H   0  0  0  0  0  0  0  0  0  0  0  0
  149.9558  137.9420  153.2599 H   0  0  0  0  0  0  0  0  0  0  0  0
  151.3100  137.6627  155.9585 H   0  0  0  0  0  0  0  0  0  0  0  0
  149.5891  130.2981  155.4659 H   0  0  0  0  0  0  0  0  0  0  0  0
  149.2504  130.6200  153.8466 H   0  0  0  0  0  0  0  0  0  0  0  0
  149.0930  135.2436  153.4169 H   0  0  0  0  0  0  0  0  0  0  0  0
  147.4610  138.1827  153.1139 H   0  0  0  0  0  0  0  0  0  0  0  0
  146.5913  138.9604  154.4263 H   0  0  0  0  0  0  0  0  0  0  0  0
  148.5658  139.9739  152.7001 H   0  0  0  0  0  0  0  0  0  0  0  0
  150.7966  139.7407  155.2950 H   0  0  0  0  0  0  0  0  0  0  0  0
  151.3151  136.5023  153.4553 H   0  0  0  0  0  0  0  0  0  0  0  0
  1  2  1  0  0  0  0
  1 22  1  0  0  0  0
  1 23  1  0  0  0  0
  2 17  2  0  0  0  0
  2  3  1  0  0  0  0
  3  4  2  0  0  0  0
  4  5  1  0  0  0  0
  4 24  1  0  0  0  0
  5  6  1  0  0  0  0
  5 15  1  0  0  0  0
  6 18  1  0  0  0  0
  6 13  1  0  0  0  0
  6  7  1  0  0  0  0
  7  8  1  0  0  0  0
  8 19  1  0  0  0  0
  8  9  1  0  0  0  0
  8 11  1  0  0  0  0
  9 10  1  0  0  0  0
  9 25  1  0  0  0  0
  9 26  1  0  0  0  0
 10 27  1  0  0  0  0
 11 20  1  0  0  0  0
 11 12  1  0  0  0  0
 11 13  1  0  0  0  0
 12 28  1  0  0  0  0
 13 21  1  0  0  0  0
 13 14  1  0  0  0  0
 14 29  1  0  0  0  0
 15 16  2  0  0  0  0
 15 17  1  0  0  0  0
M  END
> <s_m_source_file>
AV-unprocessed.smi

> <i_m_source_file_index>
72

> <i_lp_mmshare_version>
43012

> <i_f3d_flags>
0

> <s_epik_input>
W05IMl1jMW5bY0hdbihjKD1PKW4xKVtDQEBIXTJPW0NASF0oW0NIMl1bT0hdKVtDQEBIXShbT0hdKVtDQEhdMltPSF0=

> <s_epik_cmdline>
J2VwaWtfcHl0aG9uJywgJy1waCcsICc3LjAnLCAnLXRuJywgJzgnLCAnLW1hJywgJzIwMCcsICctbWV0YWxfYmluZGluZycsICctaW1hZScsICc8aW5maWxlLm1hZT4nLCAnLW9tYWUnLCAnPG91dGZpbGUubWFlPic=

> <r_lp_tautomer_probability>
4.77166e-05

> <r_epik_Ionization_Penalty>
1.3546

> <r_epik_Ionization_Penalty_Charging>
1.46833e-10

> <r_epik_Ionization_Penalty_Neutral>
1.3546

> <r_epik_State_Penalty>
3.51908

> <r_epik_Charging_Adjusted_Penalty>
3.51908

> <i_epik_Tot_Q>
0

> <i_epik_Tot_abs_Q>
0

> <r_epik_Metal_State_Penalty>
3.44088

> <b_epik_Metal_Only>
1

> <s_epik_Chemistry_Notes>
This compound contains an acetal/aminal-like group ( X-CH(R)-Y where X, Y are N, S, or O) that may be acid/base labile, releasing an aldehyde.

> <s_lp_Force_Field>
OPLS_2005

> <r_lp_Energy>
32.6436

> <b_lp_Chiralities_Consistent>
1

> <s_lp_Variant>
AV-unprocessed.smi:72-89

> <Gold.Version>
5.8.1

> <Gold.Id.Protein>
6NUR|6NUR_protein|mol2

> <Gold.PLP.Fitness>
35.4519

> <Gold.PLP.PLP>
-18.7473

> <Gold.PLP.part.hbond>
-5.0000

> <Gold.PLP.part.metal>
0.0000

> <Gold.PLP.part.buried>
-3.8077

> <Gold.PLP.part.nonpolar>
-11.7367

> <Gold.PLP.part.repulsive>
0.2114

> <Gold.PLP.ligand.clash>
0.0000

> <Gold.PLP.ligand.torsion>
0.1599

> <Gold.PLP.Chemscore.Hbond>
4.8065

> <Gold.PLP.Chemscore.CHOScore>
0.7750

> <Gold.PLP.Chemscore.Metal>
0.0000

> <Gold.Chemscore.Hbonds>
donor molecule, donor type, donor heavy atom, donor atom, acceptor molecule, acceptor atom, score
      L1  H    10    27       P1  7957  1.00
      L1  H    14    29       P1  7949  0.99
      P1  H  6896  6907       L1    16  0.91
      P1  H  7989  7998       L1    12  1.00
      P1  H 10752 10765       L1    14  1.00
      L1  C     4    24       P1  7948  0.45

> <Gold.PLP.Chemscore.Internal.Correction>
0.2798

> <Gold.Rescore>
     Score         DG    S(hbond)    S(metal)    S(lipo)     H(rot)  DE(clash)    DE(int)     intcor
      9.19     -11.18       4.07        0.00      21.51       4.06       1.59       0.41       ----

> <Gold.Chemscore.Fitness>
9.1866

> <Gold.Chemscore.DG>
-11.1843

> <Gold.Chemscore.ZeroCoef>
-5.4800

> <Gold.Chemscore.Hbond>
4.0662

> <Gold.Chemscore.Metal>
0.0000

> <Gold.Chemscore.Lipo>
21.5124

> <Gold.Chemscore.Internal_Hbond>
0.0000

> <Gold.Chemscore.DEClash>
1.5902

> <Gold.Chemscore.DEInternal>
0.4075

> <Gold.Chemscore.Rot>
4.0600

> <Gold.Chemscore.Internal.Correction>
   9.000000E+99

> <Gold.Chemscore.Hbonds>
donor molecule, donor type, donor heavy atom, donor atom, acceptor molecule, acceptor atom, score
      L1  H    10    27       P1  7957  1.00
      L1  H    14    29       P1  7949  0.59
      P1  H  6896  6907       L1    16  0.88
      P1  H  7989  7998       L1    12  0.45
      P1  H 10752 10765       L1    14  0.43

> <Gold.Chemscore.Hbond.Weighted>
-13.5810

> <Gold.Chemscore.Metal.Weighted>
-0.0000

> <Gold.Chemscore.Lipo.Weighted>
-2.5169

> <Gold.Chemscore.Internal_Hbond.Weighted>
0.0000

> <Gold.Chemscore.DEClash.Weighted>
1.5902

> <Gold.Chemscore.DEInternal.Weighted>
0.4075

> <Gold.Chemscore.Rot.Weighted>
10.3936

> <Gold.Chemscore.Internal.Correction.Weighted>
   9.000000E+99

> <Gold.Protein.RotatedTorsions>
[ 6907 6896 6895 6894 ] final  -99.51 input  -60.11 | X-H torsion
[ 7974 7965 7964 7962 ] final   20.67 input  175.53 | X-H torsion
[ 8008 7997 7996 7995 ] final   94.52 input   59.86 | X-H torsion
[ 10167 10162 10161 10158 ] final -160.24 input  -65.29 | X-H torsion
[ 10718 10713 10712 10709 ] final   51.47 input   66.30 | X-H torsion
[ 10763 10752 10751 10750 ] final  162.59 input  -60.55 | X-H torsion
[ 11005 11000 10999 10996 ] final  -80.72 input  -57.11 | X-H torsion

> <Gold.Protein.ActiveResidues>
 VAL166  LYS551  ARG553  GLY616  TRP617  ASP618  TYR619  PRO620  LYS621  CYS622 
 ASP623  PHE694  ASN695  SER759  ASP760  ASP761  ALA762  ILE779  LEU786  VAL792 
 PHE793  MET794  SER795  GLU796  ALA797  LYS798  CYS799  TRP800  GLU811  SER814 

> <Gold.Protein.RotatedAtoms>
  150.7082  134.1029  159.3972 H   0  0  0  0  0  0  0  0  0  0  0  0  # atno 6907 bound_to 6896
  151.9015  135.0374  160.0516 H   0  0  0  0  0  0  0  0  0  0  0  0  # atno 6908 bound_to 6896
  152.2410  133.5100  159.5306 H   0  0  0  0  0  0  0  0  0  0  0  0  # atno 6909 bound_to 6896
  146.2102  139.8137  142.8694 H   0  0  0  0  0  0  0  0  0  0  0  0  # atno 7974 bound_to 7965
  156.0588  140.3299  155.7437 H   0  0  0  0  0  0  0  0  0  0  0  0  # atno 8008 bound_to 7997
  155.5486  140.0608  157.2872 H   0  0  0  0  0  0  0  0  0  0  0  0  # atno 8009 bound_to 7997
  154.4471  140.1898  156.0652 H   0  0  0  0  0  0  0  0  0  0  0  0  # atno 8010 bound_to 7997
  139.6554  144.0007  152.2190 H   0  0  0  0  0  0  0  0  0  0  0  0  # atno 10167 bound_to 10162
  157.4984  130.8421  149.8286 H   0  0  0  0  0  0  0  0  0  0  0  0  # atno 10718 bound_to 10713
  154.2808  135.2763  155.2698 H   0  0  0  0  0  0  0  0  0  0  0  0  # atno 10763 bound_to 10752
  154.5220  135.5753  153.6692 H   0  0  0  0  0  0  0  0  0  0  0  0  # atno 10764 bound_to 10752
  152.9929  135.6207  154.2967 H   0  0  0  0  0  0  0  0  0  0  0  0  # atno 10765 bound_to 10752
  141.1667  133.7163  156.8315 H   0  0  0  0  0  0  0  0  0  0  0  0  # atno 11005 bound_to 11000
  145.3169  141.0234  143.3522 LP  0  0  0  0  0  0  0  0  0  0  0  0  # atno 17320 bound_to 7965
  144.8895  139.4794  143.6685 LP  0  0  0  0  0  0  0  0  0  0  0  0  # atno 17321 bound_to 7965
  139.9733  144.6479  150.7969 LP  0  0  0  0  0  0  0  0  0  0  0  0  # atno 17342 bound_to 10162
  140.7557  143.3051  151.2982 LP  0  0  0  0  0  0  0  0  0  0  0  0  # atno 17343 bound_to 10162
  156.0214  130.3794  150.1950 LP  0  0  0  0  0  0  0  0  0  0  0  0  # atno 17370 bound_to 10713
  157.0140  130.9959  151.3358 LP  0  0  0  0  0  0  0  0  0  0  0  0  # atno 17371 bound_to 10713
  140.2047  134.8871  157.3209 LP  0  0  0  0  0  0  0  0  0  0  0  0  # atno 17394 bound_to 11000
  140.2149  134.4093  155.7594 LP  0  0  0  0  0  0  0  0  0  0  0  0  # atno 17395 bound_to 11000

$$$$
