#       Name:                AV-unprocessed.smi:2211
#       Creating user name   scv26
#       Creation time:       Fri Mar 27 12:16:44 2020


#       File generated by GOLD software.
#

@<TRIPOS>MOLECULE
AV-unprocessed.smi:2211
    30    31     1
SMALL
NO_CHARGES


@<TRIPOS>ATOM
      1 ****        -0.2132   0.9307   0.2352 O.2            1 S1                 0.0000
      2 ****         0.4438  -0.1015   0.3786 C.2            1 S1                 0.0000
      3 ****         1.9363  -0.0432   0.7320 C.3            1 S1                 0.0000
      4 ****         2.3386   1.2283   1.3354 N.am           1 S1                 0.0000
      5 ****         3.0115   2.1227   0.5626 N.2            1 S1                 0.0000
      6 ****         3.2907   3.1897   1.2149 C.2            1 S1                 0.0000
      7 ****         2.7567   3.2367   2.9000 S.3            1 S1                 0.0000
      8 ****         2.0827   1.6023   2.6516 C.2            1 S1                 0.0000
      9 ****         1.5028   0.9661   3.5298 O.2            1 S1                 0.0000
     10 ****        -0.0742  -1.3290   0.2217 N.am           1 S1                 0.0000
     11 ****        -1.4598  -1.6121  -0.1287 C.3            1 S1                 0.0000
     12 ****        -1.8020  -1.4162  -1.5932 C.3            1 S1                 0.0000
     13 ****        -2.4371  -0.1355  -2.0849 C.3            1 S1                 0.0000
     14 ****        -3.2440  -1.4098  -2.0446 C.3            1 S1                 0.0000
     15 ****         2.1776  -0.8542   1.4212 H              1 S1                 0.0000
     16 ****         2.5146  -0.2283  -0.1747 H              1 S1                 0.0000
     17 ****         3.8212   4.0599   0.8286 H              1 S1                 0.0000
     18 ****         0.5353  -2.1234   0.3532 H              1 S1                 0.0000
     19 ****        -1.6560  -2.6532   0.1280 H              1 S1                 0.0000
     20 ****        -2.1315  -1.0144   0.4900 H              1 S1                 0.0000
     21 ****        -1.1047  -1.9010  -2.2740 H              1 S1                 0.0000
     22 ****        -2.6713   0.6309  -1.3486 H              1 S1                 0.0000
     23 ****        -2.1270   0.2346  -3.0599 H              1 S1                 0.0000
     24 ****        -3.4752  -1.8887  -2.9939 H              1 S1                 0.0000
     25 ****        -4.0153  -1.4907  -1.2813 H              1 S1                 0.0000
     26 ****         0.2251   1.8222   0.3491 LP             1 S1                 0.0000
     27 ****        -1.1849   0.8770   0.0050 LP             1 S1                 0.0000
     28 ****         3.2574   1.9671  -0.3941 LP             1 S1                 0.0000
     29 ****         1.1453   0.0532   3.3326 LP             1 S1                 0.0000
     30 ****         1.3887   1.3616   4.4412 LP             1 S1                 0.0000
@<TRIPOS>BOND
    1    1    2 2     
    2    2    3 1     
    3    2   10 am    
    4    3    4 1     
    5    3   15 1     
    6    3   16 1     
    7    4    8 am    
    8    4    5 1     
    9    5    6 2     
   10    6    7 1     
   11    6   17 1     
   12    7    8 1     
   13    8    9 2     
   14   10   11 1     
   15   10   18 1     
   16   11   12 1     
   17   11   19 1     
   18   11   20 1     
   19   12   14 1     
   20   12   13 1     
   21   12   21 1     
   22   13   14 1     
   23   13   22 1     
   24   13   23 1     
   25   14   24 1     
   26   14   25 1     
   27    1   26 1     
   28    1   27 1     
   29    5   28 1     
   30    9   29 1     
   31    9   30 1     
@<TRIPOS>SUBSTRUCTURE
      1 S1             1
@<TRIPOS>SET
LONE_PAIRS      STATIC     ATOMS    <user>   **** ""
5 26 27 28 29 30
DONOR_HYDROGENS      STATIC     ATOMS    <user>   **** ""
1 18
ATOM$BLUE        STATIC     ATOMS    COLORGROUP SYSTEM
5 26 27 28 29 30
ATOM$RED        STATIC     ATOMS    COLORGROUP SYSTEM
1 18
