AV-unprocessed.smi:2855|AV-procd|sdf|10983|dock2
  -GOLD-   2272015433D 1   1.00000     0.00000
 Structure written by MMmdl.
 47 48  0  0  0  0  0  0  0  0  1 V2000
  147.3232  131.9855  160.3018 C   0  0  0  0  0  0  0  0  0  0  0  0
  147.6919  133.3300  160.9447 C   0  0  2  0  0  0  0  0  0  0  0  0
  146.8464  133.6055  162.2059 C   0  0  0  0  0  0  0  0  0  0  0  0
  147.1462  134.9914  162.8108 C   0  0  0  0  0  0  0  0  0  0  0  0
  146.9306  136.1345  161.7866 C   0  0  2  0  0  0  0  0  0  0  0  0
  145.4188  136.3493  161.4212 C   0  0  0  0  0  0  0  0  0  0  0  0
  145.1477  137.5760  160.5284 C   0  0  0  0  0  0  0  0  0  0  0  0
  144.5271  136.4629  162.6746 C   0  0  0  0  0  0  0  0  0  0  0  0
  147.9041  135.8352  160.6074 C   0  0  2  0  0  0  0  0  0  0  0  0
  148.0034  136.9060  159.6221 N   0  0  0  0  0  0  0  0  0  0  0  0
  149.1171  137.2742  158.9653 C   0  0  0  0  0  0  0  0  0  0  0  0
  150.2024  136.7182  159.1303 O   0  0  0  0  0  0  0  0  0  0  0  0
  149.0238  138.4513  157.9788 C   0  0  0  0  0  0  0  0  0  0  0  0
  150.1928  138.6166  157.0983 N   0  0  0  0  0  0  0  0  0  0  0  0
  150.0369  138.5775  155.7199 C   0  0  0  0  0  0  0  0  0  0  0  0
  151.0647  138.7105  154.8485 C   0  0  0  0  0  0  0  0  0  0  0  0
  152.4254  138.9082  155.3362 C   0  0  0  0  0  0  0  0  0  0  0  0
  153.4211  139.0375  154.6276 O   0  0  0  0  0  0  0  0  0  0  0  0
  152.5415  138.9435  156.7284 N   0  0  0  0  0  0  0  0  0  0  0  0
  151.4866  138.8065  157.6318 C   0  0  0  0  0  0  0  0  0  0  0  0
  151.7010  138.8437  158.8427 O   0  0  0  0  0  0  0  0  0  0  0  0
  147.5795  134.4897  159.9337 C   0  0  0  0  0  0  0  0  0  0  0  0
  153.4658  139.0776  157.1122 H   0  0  0  0  0  0  0  0  0  0  0  0
  146.2856  131.9780  159.9662 H   0  0  0  0  0  0  0  0  0  0  0  0
  147.4511  131.1645  161.0079 H   0  0  0  0  0  0  0  0  0  0  0  0
  147.9542  131.7773  159.4374 H   0  0  0  0  0  0  0  0  0  0  0  0
  148.7355  133.2665  161.2572 H   0  0  0  0  0  0  0  0  0  0  0  0
  145.7856  133.5270  161.9675 H   0  0  0  0  0  0  0  0  0  0  0  0
  147.0424  132.8358  162.9530 H   0  0  0  0  0  0  0  0  0  0  0  0
  146.5629  135.1437  163.7173 H   0  0  0  0  0  0  0  0  0  0  0  0
  148.1838  135.0066  163.1478 H   0  0  0  0  0  0  0  0  0  0  0  0
  147.2713  137.0537  162.2656 H   0  0  0  0  0  0  0  0  0  0  0  0
  145.0617  135.4824  160.8665 H   0  0  0  0  0  0  0  0  0  0  0  0
  145.6292  138.4725  160.9204 H   0  0  0  0  0  0  0  0  0  0  0  0
  144.0802  137.7838  160.4502 H   0  0  0  0  0  0  0  0  0  0  0  0
  145.4915  137.4149  159.5081 H   0  0  0  0  0  0  0  0  0  0  0  0
  144.8841  137.2440  163.3464 H   0  0  0  0  0  0  0  0  0  0  0  0
  144.4829  135.5283  163.2324 H   0  0  0  0  0  0  0  0  0  0  0  0
  143.4972  136.7029  162.4088 H   0  0  0  0  0  0  0  0  0  0  0  0
  148.9067  135.7276  161.0271 H   0  0  0  0  0  0  0  0  0  0  0  0
  147.1553  137.4176  159.4258 H   0  0  0  0  0  0  0  0  0  0  0  0
  148.1246  138.3142  157.3761 H   0  0  0  0  0  0  0  0  0  0  0  0
  148.8444  139.3656  158.5473 H   0  0  0  0  0  0  0  0  0  0  0  0
  149.0467  138.4276  155.3135 H   0  0  0  0  0  0  0  0  0  0  0  0
  150.8792  138.6691  153.7848 H   0  0  0  0  0  0  0  0  0  0  0  0
  148.2729  134.3160  159.1095 H   0  0  0  0  0  0  0  0  0  0  0  0
  146.5834  134.5159  159.4914 H   0  0  0  0  0  0  0  0  0  0  0  0
  1  2  1  0  0  0  0
  1 24  1  0  0  0  0
  1 25  1  0  0  0  0
  1 26  1  0  0  0  0
  2 22  1  0  0  0  0
  2  3  1  0  0  0  0
  2 27  1  0  0  0  0
  3  4  1  0  0  0  0
  3 28  1  0  0  0  0
  3 29  1  0  0  0  0
  4  5  1  0  0  0  0
  4 30  1  0  0  0  0
  4 31  1  0  0  0  0
  5  6  1  0  0  0  0
  5  9  1  0  0  0  0
  5 32  1  0  0  0  0
  6  7  1  0  0  0  0
  6  8  1  0  0  0  0
  6 33  1  0  0  0  0
  7 34  1  0  0  0  0
  7 35  1  0  0  0  0
  7 36  1  0  0  0  0
  8 37  1  0  0  0  0
  8 38  1  0  0  0  0
  8 39  1  0  0  0  0
  9 10  1  0  0  0  0
  9 22  1  0  0  0  0
  9 40  1  0  0  0  0
 10 11  1  0  0  0  0
 10 41  1  0  0  0  0
 11 12  2  0  0  0  0
 11 13  1  0  0  0  0
 13 14  1  0  0  0  0
 13 42  1  0  0  0  0
 13 43  1  0  0  0  0
 14 20  1  0  0  0  0
 14 15  1  0  0  0  0
 15 16  2  0  0  0  0
 15 44  1  0  0  0  0
 16 17  1  0  0  0  0
 16 45  1  0  0  0  0
 17 18  2  0  0  0  0
 17 19  1  0  0  0  0
 19 23  1  0  0  0  0
 19 20  1  0  0  0  0
 20 21  2  0  0  0  0
 22 46  1  0  0  0  0
 22 47  1  0  0  0  0
M  END
> <s_m_source_file>
AV-unprocessed.smi

> <i_m_source_file_index>
2855

> <i_lp_mmshare_version>
43012

> <i_f3d_flags>
0

> <s_epik_input>
W0NIM11bQ0BASF0xW0NIMl1bQ0gyXVtDQEBIXShbQ0hdKFtDSDNdKVtDSDNdKVtDQEhdKFtDSDJdMSlbTkhdQyg9TylbQ0gyXW4yW2NIXVtjSF1jKD1PKVtuSF1jMj1P

> <s_epik_cmdline>
J2VwaWtfcHl0aG9uJywgJy1waCcsICc3LjAnLCAnLXRuJywgJzgnLCAnLW1hJywgJzIwMCcsICctbWV0YWxfYmluZGluZycsICctaW1hZScsICc8aW5maWxlLm1hZT4nLCAnLW9tYWUnLCAnPG91dGZpbGUubWFlPic=

> <r_lp_tautomer_probability>
0.999537

> <r_epik_Ionization_Penalty>
0.00306256

> <r_epik_Ionization_Penalty_Charging>
0.00306254

> <r_epik_Ionization_Penalty_Neutral>
2.0223e-08

> <r_epik_State_Penalty>
0.0021533

> <r_epik_Charging_Adjusted_Penalty>
0.00521583

> <i_epik_Tot_Q>
0

> <i_epik_Tot_abs_Q>
0

> <r_epik_Metal_State_Penalty>
0.362116

> <b_epik_Metal_Only>
0

> <s_lp_Force_Field>
OPLS_2005

> <r_lp_Energy>
18.1406

> <b_lp_Chiralities_Consistent>
1

> <s_lp_Variant>
AV-unprocessed.smi:2855-7

> <Gold.Version>
5.8.1

> <Gold.Id.Protein>
6NUR|6NUR_protein|mol2

> <Gold.PLP.Fitness>
39.9151

> <Gold.PLP.PLP>
-34.9601

> <Gold.PLP.part.hbond>
-2.0000

> <Gold.PLP.part.metal>
0.0000

> <Gold.PLP.part.buried>
-6.7985

> <Gold.PLP.part.nonpolar>
-27.6144

> <Gold.PLP.part.repulsive>
0.6485

> <Gold.PLP.ligand.clash>
0.0000

> <Gold.PLP.ligand.torsion>
0.5472

> <Gold.PLP.Chemscore.Hbond>
2.0000

> <Gold.PLP.Chemscore.CHOScore>
0.0000

> <Gold.PLP.Chemscore.Metal>
0.0000

> <Gold.Chemscore.Hbonds>
donor molecule, donor type, donor heavy atom, donor atom, acceptor molecule, acceptor atom, score
      P1  H  6896  6909       L1    12  1.00
      P1  H  7997  8009       L1    18  0.95

> <Gold.PLP.Chemscore.Internal.Correction>
0.0494

> <Gold.Rescore>
     Score         DG    S(hbond)    S(metal)    S(lipo)     H(rot)  DE(clash)    DE(int)     intcor
     11.42     -15.88       1.93        0.00      74.48       1.85       0.11       4.35       ----

> <Gold.Chemscore.Fitness>
11.4248

> <Gold.Chemscore.DG>
-15.8814

> <Gold.Chemscore.ZeroCoef>
-5.4800

> <Gold.Chemscore.Hbond>
1.9262

> <Gold.Chemscore.Metal>
0.0000

> <Gold.Chemscore.Lipo>
74.4786

> <Gold.Chemscore.Internal_Hbond>
0.0000

> <Gold.Chemscore.DEClash>
0.1051

> <Gold.Chemscore.DEInternal>
4.3515

> <Gold.Chemscore.Rot>
1.8539

> <Gold.Chemscore.Internal.Correction>
   9.000000E+99

> <Gold.Chemscore.Hbonds>
donor molecule, donor type, donor heavy atom, donor atom, acceptor molecule, acceptor atom, score
      P1  H  6896  6909       L1    12  0.95
      P1  H  7997  8009       L1    18  0.21

> <Gold.Chemscore.Hbond.Weighted>
-6.4334

> <Gold.Chemscore.Metal.Weighted>
-0.0000

> <Gold.Chemscore.Lipo.Weighted>
-8.7140

> <Gold.Chemscore.Internal_Hbond.Weighted>
0.0000

> <Gold.Chemscore.DEClash.Weighted>
0.1051

> <Gold.Chemscore.DEInternal.Weighted>
4.3515

> <Gold.Chemscore.Rot.Weighted>
4.7460

> <Gold.Chemscore.Internal.Correction.Weighted>
   9.000000E+99

> <Gold.Protein.RotatedTorsions>
[ 6907 6896 6895 6894 ] final   75.82 input  -60.11 | X-H torsion
[ 7974 7965 7964 7962 ] final -100.18 input  175.53 | X-H torsion
[ 8008 7997 7996 7995 ] final -131.79 input   59.86 | X-H torsion
[ 10167 10162 10161 10158 ] final   12.56 input  -65.29 | X-H torsion
[ 10718 10713 10712 10709 ] final  -16.54 input   66.30 | X-H torsion
[ 10763 10752 10751 10750 ] final -166.67 input  -60.55 | X-H torsion
[ 11005 11000 10999 10996 ] final  154.35 input  -57.11 | X-H torsion

> <Gold.Protein.ActiveResidues>
 VAL166  LYS551  ARG553  GLY616  TRP617  ASP618  TYR619  PRO620  LYS621  CYS622 
 ASP623  PHE694  ASN695  SER759  ASP760  ASP761  ALA762  ILE779  LEU786  VAL792 
 PHE793  MET794  SER795  GLU796  ALA797  LYS798  CYS799  TRP800  GLU811  SER814 

> <Gold.Protein.RotatedAtoms>
  152.5044  134.4063  159.9433 H   0  0  0  0  0  0  0  0  0  0  0  0  # atno 6907 bound_to 6896
  151.4029  133.3746  159.2742 H   0  0  0  0  0  0  0  0  0  0  0  0  # atno 6908 bound_to 6896
  150.9348  134.8783  159.7634 H   0  0  0  0  0  0  0  0  0  0  0  0  # atno 6909 bound_to 6896
  145.2980  140.9370  143.2840 H   0  0  0  0  0  0  0  0  0  0  0  0  # atno 7974 bound_to 7965
  155.3181  140.0460  157.3038 H   0  0  0  0  0  0  0  0  0  0  0  0  # atno 8008 bound_to 7997
  154.5395  140.2283  155.8631 H   0  0  0  0  0  0  0  0  0  0  0  0  # atno 8009 bound_to 7997
  156.1867  140.3060  155.9259 H   0  0  0  0  0  0  0  0  0  0  0  0  # atno 8010 bound_to 7997
  140.6060  143.8507  150.7014 H   0  0  0  0  0  0  0  0  0  0  0  0  # atno 10167 bound_to 10162
  156.5862  130.4787  149.6299 H   0  0  0  0  0  0  0  0  0  0  0  0  # atno 10718 bound_to 10713
  154.6810  135.2954  154.9613 H   0  0  0  0  0  0  0  0  0  0  0  0  # atno 10763 bound_to 10752
  154.0608  135.6631  153.4815 H   0  0  0  0  0  0  0  0  0  0  0  0  # atno 10764 bound_to 10752
  153.0547  135.5152  154.7853 H   0  0  0  0  0  0  0  0  0  0  0  0  # atno 10765 bound_to 10752
  140.1481  134.8693  157.2419 H   0  0  0  0  0  0  0  0  0  0  0  0  # atno 11005 bound_to 11000
  144.9117  139.4520  143.6583 LP  0  0  0  0  0  0  0  0  0  0  0  0  # atno 17320 bound_to 7965
  146.3162  139.7929  142.8981 LP  0  0  0  0  0  0  0  0  0  0  0  0  # atno 17321 bound_to 7965
  140.2064  143.3918  152.1752 LP  0  0  0  0  0  0  0  0  0  0  0  0  # atno 17342 bound_to 10162
  139.5325  144.7175  151.5006 LP  0  0  0  0  0  0  0  0  0  0  0  0  # atno 17343 bound_to 10162
  156.2589  130.6951  151.1713 LP  0  0  0  0  0  0  0  0  0  0  0  0  # atno 17370 bound_to 10713
  157.7315  131.0608  150.5676 LP  0  0  0  0  0  0  0  0  0  0  0  0  # atno 17371 bound_to 10713
  140.2638  134.3540  155.7397 LP  0  0  0  0  0  0  0  0  0  0  0  0  # atno 17394 bound_to 11000
  141.2195  133.7384  156.9120 LP  0  0  0  0  0  0  0  0  0  0  0  0  # atno 17395 bound_to 11000

$$$$
