AV-unprocessed.smi:285|AV-procd|sdf|2168|dock6
  -GOLD-   2262021533D 1   1.00000     0.00000
 Structure written by MMmdl.
 31 33  0  0  0  0  0  0  0  0  1 V2000
  153.2300  142.2873  161.1277 N   0  0  0  0  0  0  0  0  0  0  0  0
  152.6070  142.7594  160.0389 C   0  0  0  0  0  0  0  0  0  0  0  0
  152.7689  144.0651  159.7208 N   0  0  0  0  0  0  0  0  0  0  0  0
  152.1578  144.5618  158.6402 C   0  0  0  0  0  0  0  0  0  0  0  0
  151.3623  143.9365  157.7682 N   0  0  0  0  0  0  0  0  0  0  0  0
  151.2007  142.6184  158.0890 C   0  0  0  0  0  0  0  0  0  0  0  0
  151.7874  141.9558  159.2068 C   0  0  0  0  0  0  0  0  0  0  0  0
  151.4052  140.6200  159.2279 N   0  0  0  0  0  0  0  0  0  0  0  0
  150.6401  140.5234  158.1765 C   0  0  0  0  0  0  0  0  0  0  0  0
  149.8161  138.8646  157.7330 Br  0  0  0  0  0  0  0  0  0  0  0  0
  150.4543  141.6634  157.4277 N   0  0  0  0  0  0  0  0  0  0  0  0
  149.6474  141.8574  156.1855 C   0  0  1  0  0  0  0  0  0  0  0  0
  150.0288  140.8471  155.1087 C   0  0  0  0  0  0  0  0  0  0  0  0
  148.6989  140.6085  154.4015 C   0  0  2  0  0  0  0  0  0  0  0  0
  148.7424  141.1065  153.0789 O   0  0  0  0  0  0  0  0  0  0  0  0
  147.6551  141.3722  155.2423 C   0  0  1  0  0  0  0  0  0  0  0  0
  146.3678  140.5724  155.4936 C   0  0  0  0  0  0  0  0  0  0  0  0
  145.8973  140.0159  154.2845 O   0  0  0  0  0  0  0  0  0  0  0  0
  148.3157  141.6138  156.4777 O   0  0  0  0  0  0  0  0  0  0  0  0
  153.1250  141.3168  161.3869 H   0  0  0  0  0  0  0  0  0  0  0  0
  153.8044  142.9020  161.6861 H   0  0  0  0  0  0  0  0  0  0  0  0
  152.3313  145.6099  158.4458 H   0  0  0  0  0  0  0  0  0  0  0  0
  149.7875  142.8945  155.8800 H   0  0  0  0  0  0  0  0  0  0  0  0
  150.8200  141.2459  154.4723 H   0  0  0  0  0  0  0  0  0  0  0  0
  150.3801  139.9221  155.5675 H   0  0  0  0  0  0  0  0  0  0  0  0
  148.4864  139.5388  154.3755 H   0  0  0  0  0  0  0  0  0  0  0  0
  148.9360  140.3910  152.4927 H   0  0  0  0  0  0  0  0  0  0  0  0
  147.4320  142.3338  154.7744 H   0  0  0  0  0  0  0  0  0  0  0  0
  146.5673  139.7452  156.1753 H   0  0  0  0  0  0  0  0  0  0  0  0
  145.5983  141.1941  155.9529 H   0  0  0  0  0  0  0  0  0  0  0  0
  145.1548  140.5207  153.9900 H   0  0  0  0  0  0  0  0  0  0  0  0
  1  2  1  0  0  0  0
  1 20  1  0  0  0  0
  1 21  1  0  0  0  0
  2  7  1  0  0  0  0
  2  3  2  0  0  0  0
  3  4  1  0  0  0  0
  4  5  2  0  0  0  0
  4 22  1  0  0  0  0
  5  6  1  0  0  0  0
  6 11  1  0  0  0  0
  6  7  2  0  0  0  0
  7  8  1  0  0  0  0
  8  9  2  0  0  0  0
  9 10  1  0  0  0  0
  9 11  1  0  0  0  0
 11 12  1  0  0  0  0
 12 19  1  0  0  0  0
 12 13  1  0  0  0  0
 12 23  1  0  0  0  0
 13 14  1  0  0  0  0
 13 24  1  0  0  0  0
 13 25  1  0  0  0  0
 14 15  1  0  0  0  0
 14 16  1  0  0  0  0
 14 26  1  0  0  0  0
 15 27  1  0  0  0  0
 16 17  1  0  0  0  0
 16 19  1  0  0  0  0
 16 28  1  0  0  0  0
 17 18  1  0  0  0  0
 17 29  1  0  0  0  0
 17 30  1  0  0  0  0
 18 31  1  0  0  0  0
M  END
> <s_m_source_file>
AV-unprocessed.smi

> <i_m_source_file_index>
285

> <i_lp_mmshare_version>
43012

> <i_f3d_flags>
0

> <s_epik_input>
bjFbY0hdbmMoW05IMl0pYyhjMTIpbmMoQnIpbjJbQ0BASF0zW0NIMl1bQ0BASF0oW09IXSlbQ0BIXShPMylbQ0gyXVtPSF0=

> <s_epik_cmdline>
J2VwaWtfcHl0aG9uJywgJy1waCcsICc3LjAnLCAnLXRuJywgJzgnLCAnLW1hJywgJzIwMCcsICctbWV0YWxfYmluZGluZycsICctaW1hZScsICc8aW5maWxlLm1hZT4nLCAnLW9tYWUnLCAnPG91dGZpbGUubWFlPic=

> <r_lp_tautomer_probability>
1

> <r_epik_Ionization_Penalty>
0.000103242

> <r_epik_Ionization_Penalty_Charging>
0

> <r_epik_Ionization_Penalty_Neutral>
0.000103242

> <r_epik_State_Penalty>
-0

> <r_epik_Charging_Adjusted_Penalty>
0

> <i_epik_Tot_Q>
0

> <i_epik_Tot_abs_Q>
0

> <r_epik_Metal_State_Penalty>
-0

> <b_epik_Metal_Only>
0

> <s_epik_Chemistry_Notes>
This compound contains an acetal/aminal-like group ( X-CH(R)-Y where X, Y are N, S, or O) that may be acid/base labile, releasing an aldehyde.

> <s_lp_Force_Field>
OPLS_2005

> <r_lp_Energy>
33.2332

> <b_lp_Chiralities_Consistent>
1

> <s_lp_Variant>
AV-unprocessed.smi:285-4

> <Gold.Version>
5.8.1

> <Gold.Id.Protein>
6NUR|6NUR_protein|mol2

> <Gold.PLP.Fitness>
37.1251

> <Gold.PLP.PLP>
-29.9028

> <Gold.PLP.part.hbond>
-2.4664

> <Gold.PLP.part.metal>
0.0000

> <Gold.PLP.part.buried>
-3.0608

> <Gold.PLP.part.nonpolar>
-24.4759

> <Gold.PLP.part.repulsive>
0.3119

> <Gold.PLP.ligand.clash>
0.0000

> <Gold.PLP.ligand.torsion>
0.1451

> <Gold.PLP.Chemscore.Hbond>
2.4980

> <Gold.PLP.Chemscore.CHOScore>
0.0000

> <Gold.PLP.Chemscore.Metal>
0.0000

> <Gold.Chemscore.Hbonds>
donor molecule, donor type, donor heavy atom, donor atom, acceptor molecule, acceptor atom, score
      L1  H    15    27       P1  7957  0.86
      L1  H    18    31       P1 10175  0.65
      P1  H  8011  8017       L1    15  0.95

> <Gold.PLP.Chemscore.Internal.Correction>
0.0185

> <Gold.Rescore>
     Score         DG    S(hbond)    S(metal)    S(lipo)     H(rot)  DE(clash)    DE(int)     intcor
      8.08      -8.33       2.10        0.00      31.48       3.06       0.09       0.17       ----

> <Gold.Chemscore.Fitness>
8.0761

> <Gold.Chemscore.DG>
-8.3346

> <Gold.Chemscore.ZeroCoef>
-5.4800

> <Gold.Chemscore.Hbond>
2.0979

> <Gold.Chemscore.Metal>
0.0000

> <Gold.Chemscore.Lipo>
31.4782

> <Gold.Chemscore.Internal_Hbond>
0.0000

> <Gold.Chemscore.DEClash>
0.0901

> <Gold.Chemscore.DEInternal>
0.1684

> <Gold.Chemscore.Rot>
3.0607

> <Gold.Chemscore.Internal.Correction>
   9.000000E+99

> <Gold.Chemscore.Hbonds>
donor molecule, donor type, donor heavy atom, donor atom, acceptor molecule, acceptor atom, score
      L1  H    15    27       P1  7957  0.78
      L1  H    18    31       P1 10175  0.64
      P1  H  8011  8017       L1    15  0.21

> <Gold.Chemscore.Hbond.Weighted>
-7.0070

> <Gold.Chemscore.Metal.Weighted>
-0.0000

> <Gold.Chemscore.Lipo.Weighted>
-3.6830

> <Gold.Chemscore.Internal_Hbond.Weighted>
0.0000

> <Gold.Chemscore.DEClash.Weighted>
0.0901

> <Gold.Chemscore.DEInternal.Weighted>
0.1684

> <Gold.Chemscore.Rot.Weighted>
7.8354

> <Gold.Chemscore.Internal.Correction.Weighted>
   9.000000E+99

> <Gold.Protein.RotatedTorsions>
[ 6907 6896 6895 6894 ] final  -54.95 input  -60.11 | X-H torsion
[ 7974 7965 7964 7962 ] final -123.69 input  175.53 | X-H torsion
[ 8008 7997 7996 7995 ] final  -70.14 input   59.86 | X-H torsion
[ 10167 10162 10161 10158 ] final  -79.87 input  -65.29 | X-H torsion
[ 10718 10713 10712 10709 ] final -166.57 input   66.30 | X-H torsion
[ 10763 10752 10751 10750 ] final  -92.57 input  -60.55 | X-H torsion
[ 11005 11000 10999 10996 ] final -103.23 input  -57.11 | X-H torsion

> <Gold.Protein.ActiveResidues>
 VAL166  LYS551  ARG553  GLY616  TRP617  ASP618  TYR619  PRO620  LYS621  CYS622 
 ASP623  PHE694  ASN695  SER759  ASP760  ASP761  ALA762  ILE779  LEU786  VAL792 
 PHE793  MET794  SER795  GLU796  ALA797  LYS798  CYS799  TRP800  GLU811  SER814 

> <Gold.Protein.RotatedAtoms>
  150.8294  134.7540  159.6840 H   0  0  0  0  0  0  0  0  0  0  0  0  # atno 6907 bound_to 6896
  152.4400  134.5606  159.9903 H   0  0  0  0  0  0  0  0  0  0  0  0  # atno 6908 bound_to 6896
  151.5770  133.3345  159.3037 H   0  0  0  0  0  0  0  0  0  0  0  0  # atno 6909 bound_to 6896
  145.0160  140.7947  143.4410 H   0  0  0  0  0  0  0  0  0  0  0  0  # atno 7974 bound_to 7965
  154.4990  140.0840  156.7758 H   0  0  0  0  0  0  0  0  0  0  0  0  # atno 8008 bound_to 7997
  155.4048  140.3439  155.4241 H   0  0  0  0  0  0  0  0  0  0  0  0  # atno 8009 bound_to 7997
  156.1432  140.1535  156.8876 H   0  0  0  0  0  0  0  0  0  0  0  0  # atno 8010 bound_to 7997
  140.4555  143.2470  151.8427 H   0  0  0  0  0  0  0  0  0  0  0  0  # atno 10167 bound_to 10162
  156.6698  130.9079  151.3042 H   0  0  0  0  0  0  0  0  0  0  0  0  # atno 10718 bound_to 10713
  154.6874  135.5226  153.8345 H   0  0  0  0  0  0  0  0  0  0  0  0  # atno 10763 bound_to 10752
  153.0607  135.6567  154.0478 H   0  0  0  0  0  0  0  0  0  0  0  0  # atno 10764 bound_to 10752
  154.0357  135.2981  155.3342 H   0  0  0  0  0  0  0  0  0  0  0  0  # atno 10765 bound_to 10752
  141.1155  133.8623  157.1460 H   0  0  0  0  0  0  0  0  0  0  0  0  # atno 11005 bound_to 11000
  145.1959  139.2277  143.5218 LP  0  0  0  0  0  0  0  0  0  0  0  0  # atno 17320 bound_to 7965
  146.3478  140.1766  142.8589 LP  0  0  0  0  0  0  0  0  0  0  0  0  # atno 17321 bound_to 7965
  139.4800  144.5070  151.8984 LP  0  0  0  0  0  0  0  0  0  0  0  0  # atno 17342 bound_to 10162
  140.4157  144.2311  150.5888 LP  0  0  0  0  0  0  0  0  0  0  0  0  # atno 17343 bound_to 10162
  157.7081  130.9408  150.0998 LP  0  0  0  0  0  0  0  0  0  0  0  0  # atno 17370 bound_to 10713
  156.1947  130.3656  149.8864 LP  0  0  0  0  0  0  0  0  0  0  0  0  # atno 17371 bound_to 10713
  140.0074  135.0003  157.0322 LP  0  0  0  0  0  0  0  0  0  0  0  0  # atno 17394 bound_to 11000
  140.4659  134.1436  155.7197 LP  0  0  0  0  0  0  0  0  0  0  0  0  # atno 17395 bound_to 11000

$$$$
