AV-unprocessed.smi:1082|AV-procd|sdf|4712|dock2
  -GOLD-   22720 3233D 1   1.00000     0.00000
 Structure written by MMmdl.
 48 50  0  0  0  0  0  0  0  0  2 V2000
  145.0096  138.0256  153.0687 O   0  0  0  0  0  0  0  0  0  0  0  0
  146.0819  137.5004  152.7685 C   0  0  0  0  0  0  0  0  0  0  0  0
  146.1771  136.2939  152.1926 N   0  0  0  0  0  0  0  0  0  0  0  0
  145.0432  135.4492  151.8370 C   0  0  0  0  0  0  0  0  0  0  0  0
  144.6136  134.5633  153.0206 C   0  0  0  0  0  0  0  0  0  0  0  0
  144.3763  133.1584  152.6132 N   0  3  0  0  0  0  0  0  0  0  0  0
  143.5084  133.0101  151.4198 C   0  0  0  0  0  0  0  0  0  0  0  0
  144.1741  131.9720  150.5075 C   0  0  0  0  0  0  0  0  0  0  0  0
  145.1737  131.2584  151.4098 C   0  0  0  0  0  0  0  0  0  0  0  0
  145.5975  132.3578  152.3779 C   0  0  0  0  0  0  0  0  0  0  0  0
  147.2927  138.0548  152.9422 N   0  0  0  0  0  0  0  0  0  0  0  0
  147.5997  139.3296  153.4953 C   0  0  0  0  0  0  0  0  0  0  0  0
  146.6795  140.4056  153.4848 C   0  0  0  0  0  0  0  0  0  0  0  0
  147.0474  141.6273  154.0768 C   0  0  0  0  0  0  0  0  0  0  0  0
  148.3199  141.7280  154.6671 C   0  0  0  0  0  0  0  0  0  0  0  0
  149.2015  140.7078  154.6990 N   0  0  0  0  0  0  0  0  0  0  0  0
  148.8550  139.5299  154.1255 C   0  0  0  0  0  0  0  0  0  0  0  0
  149.7807  138.4729  154.1959 N   0  0  0  0  0  0  0  0  0  0  0  0
  149.3485  137.3524  155.0241 C   0  0  0  0  0  0  0  0  0  0  0  0
  150.5191  137.0194  155.9536 C   0  0  0  0  0  0  0  0  0  0  0  0
  151.7304  137.5638  155.2056 C   0  0  0  0  0  0  0  0  0  0  0  0
  151.1630  138.8067  154.5245 C   0  0  0  0  0  0  0  0  0  0  0  0
  147.0981  135.9396  151.9785 H   0  0  0  0  0  0  0  0  0  0  0  0
  144.2271  136.1052  151.5345 H   0  0  0  0  0  0  0  0  0  0  0  0
  145.2888  134.8364  150.9678 H   0  0  0  0  0  0  0  0  0  0  0  0
  145.3984  134.5704  153.7788 H   0  0  0  0  0  0  0  0  0  0  0  0
  143.7167  134.9659  153.4940 H   0  0  0  0  0  0  0  0  0  0  0  0
  142.5253  132.6698  151.7465 H   0  0  0  0  0  0  0  0  0  0  0  0
  143.3705  133.9528  150.8881 H   0  0  0  0  0  0  0  0  0  0  0  0
  143.4566  131.2897  150.0509 H   0  0  0  0  0  0  0  0  0  0  0  0
  144.7083  132.4797  149.7032 H   0  0  0  0  0  0  0  0  0  0  0  0
  144.6773  130.4531  151.9532 H   0  0  0  0  0  0  0  0  0  0  0  0
  146.0122  130.8294  150.8604 H   0  0  0  0  0  0  0  0  0  0  0  0
  146.3649  132.9778  151.9112 H   0  0  0  0  0  0  0  0  0  0  0  0
  146.0046  131.9579  153.3072 H   0  0  0  0  0  0  0  0  0  0  0  0
  148.0768  137.5542  152.5496 H   0  0  0  0  0  0  0  0  0  0  0  0
  145.6966  140.3085  153.0496 H   0  0  0  0  0  0  0  0  0  0  0  0
  146.3666  142.4657  154.0838 H   0  0  0  0  0  0  0  0  0  0  0  0
  148.6352  142.6493  155.1340 H   0  0  0  0  0  0  0  0  0  0  0  0
  148.4415  137.5696  155.5906 H   0  0  0  0  0  0  0  0  0  0  0  0
  149.1339  136.5085  154.3682 H   0  0  0  0  0  0  0  0  0  0  0  0
  150.4017  137.5534  156.8978 H   0  0  0  0  0  0  0  0  0  0  0  0
  150.5958  135.9548  156.1757 H   0  0  0  0  0  0  0  0  0  0  0  0
  152.5746  137.7847  155.8592 H   0  0  0  0  0  0  0  0  0  0  0  0
  152.0591  136.8428  154.4558 H   0  0  0  0  0  0  0  0  0  0  0  0
  151.7246  139.0586  153.6247 H   0  0  0  0  0  0  0  0  0  0  0  0
  151.2220  139.6586  155.2023 H   0  0  0  0  0  0  0  0  0  0  0  0
  143.8802  132.7086  153.3695 H   0  0  0  0  0  0  0  0  0  0  0  0
  1  2  2  0  0  0  0
  2  3  1  0  0  0  0
  2 11  1  0  0  0  0
  3  4  1  0  0  0  0
  3 23  1  0  0  0  0
  4  5  1  0  0  0  0
  4 24  1  0  0  0  0
  4 25  1  0  0  0  0
  5  6  1  0  0  0  0
  5 26  1  0  0  0  0
  5 27  1  0  0  0  0
  6 10  1  0  0  0  0
  6  7  1  0  0  0  0
  6 48  1  0  0  0  0
  7  8  1  0  0  0  0
  7 28  1  0  0  0  0
  7 29  1  0  0  0  0
  8  9  1  0  0  0  0
  8 30  1  0  0  0  0
  8 31  1  0  0  0  0
  9 10  1  0  0  0  0
  9 32  1  0  0  0  0
  9 33  1  0  0  0  0
 10 34  1  0  0  0  0
 10 35  1  0  0  0  0
 11 12  1  0  0  0  0
 11 36  1  0  0  0  0
 12 17  1  0  0  0  0
 12 13  2  0  0  0  0
 13 14  1  0  0  0  0
 13 37  1  0  0  0  0
 14 15  2  0  0  0  0
 14 38  1  0  0  0  0
 15 16  1  0  0  0  0
 15 39  1  0  0  0  0
 16 17  2  0  0  0  0
 17 18  1  0  0  0  0
 18 22  1  0  0  0  0
 18 19  1  0  0  0  0
 19 20  1  0  0  0  0
 19 40  1  0  0  0  0
 19 41  1  0  0  0  0
 20 21  1  0  0  0  0
 20 42  1  0  0  0  0
 20 43  1  0  0  0  0
 21 22  1  0  0  0  0
 21 44  1  0  0  0  0
 21 45  1  0  0  0  0
 22 46  1  0  0  0  0
 22 47  1  0  0  0  0
M  CHG  1   6   1
M  END
> <s_m_source_file>
AV-unprocessed.smi

> <i_m_source_file_index>
1082

> <i_lp_mmshare_version>
43012

> <i_f3d_flags>
0

> <s_epik_input>
W0NIMl0xW0NIMl1bQ0gyXVtDSDJdTjFbQ0gyXVtDSDJdW05IXUMoPU8pW05IXWMyW2NIXVtjSF1bY0hdbmMyTjNbQ0gyXVtDSDJdW0NIMl1bQ0gyXTM=

> <s_epik_cmdline>
J2VwaWtfcHl0aG9uJywgJy1waCcsICc3LjAnLCAnLXRuJywgJzgnLCAnLW1hJywgJzIwMCcsICctbWV0YWxfYmluZGluZycsICctaW1hZScsICc8aW5maWxlLm1hZT4nLCAnLW9tYWUnLCAnPG91dGZpbGUubWFlPic=

> <r_lp_tautomer_probability>
1

> <r_epik_Ionization_Penalty>
0.0844881

> <r_epik_Ionization_Penalty_Charging>
0.00210487

> <r_epik_Ionization_Penalty_Neutral>
0.0823833

> <r_epik_State_Penalty>
0.0725565

> <r_epik_Charging_Adjusted_Penalty>
0.0746613

> <i_epik_Tot_Q>
1

> <i_epik_Tot_abs_Q>
1

> <r_epik_Metal_State_Penalty>
0.064294

> <b_epik_Metal_Only>
0

> <s_lp_Force_Field>
OPLS_2005

> <r_lp_Energy>
55.3809

> <b_lp_Chiralities_Consistent>
1

> <s_lp_Variant>
AV-unprocessed.smi:1082-1

> <Gold.Version>
5.8.1

> <Gold.Id.Protein>
6NUR|6NUR_protein|mol2

> <Gold.PLP.Fitness>
46.8375

> <Gold.PLP.PLP>
-33.8789

> <Gold.PLP.part.hbond>
-2.9609

> <Gold.PLP.part.metal>
0.0000

> <Gold.PLP.part.buried>
-3.8961

> <Gold.PLP.part.nonpolar>
-30.4081

> <Gold.PLP.part.repulsive>
2.7263

> <Gold.PLP.ligand.clash>
0.0000

> <Gold.PLP.ligand.torsion>
1.0035

> <Gold.PLP.Chemscore.Hbond>
3.9425

> <Gold.PLP.Chemscore.CHOScore>
1.0000

> <Gold.PLP.Chemscore.Metal>
0.0000

> <Gold.Chemscore.Hbonds>
donor molecule, donor type, donor heavy atom, donor atom, acceptor molecule, acceptor atom, score
      L1  H     3    23       P1  7948  1.00
      L1  H     6    48       P1 10957  1.76
      L1  H    11    36       P1  7948  1.00
      L1  C    15    39       P1  8028  1.00

> <Gold.PLP.Chemscore.Internal.Correction>
0.1382

> <Gold.Rescore>
     Score         DG    S(hbond)    S(metal)    S(lipo)     H(rot)  DE(clash)    DE(int)     intcor
     17.19     -20.67       2.86        0.00      83.23       1.60       1.23       2.25       ----

> <Gold.Chemscore.Fitness>
17.1934

> <Gold.Chemscore.DG>
-20.6733

> <Gold.Chemscore.ZeroCoef>
-5.4800

> <Gold.Chemscore.Hbond>
2.8596

> <Gold.Chemscore.Metal>
0.0000

> <Gold.Chemscore.Lipo>
83.2293

> <Gold.Chemscore.Internal_Hbond>
0.0000

> <Gold.Chemscore.DEClash>
1.2265

> <Gold.Chemscore.DEInternal>
2.2534

> <Gold.Chemscore.Rot>
1.5998

> <Gold.Chemscore.Internal.Correction>
   9.000000E+99

> <Gold.Chemscore.Hbonds>
donor molecule, donor type, donor heavy atom, donor atom, acceptor molecule, acceptor atom, score
      L1  H     3    23       P1  7948  0.94
      L1  H     6    48       P1 10957  0.38
      L1  H    11    36       P1  7948  0.99

> <Gold.Chemscore.Hbond.Weighted>
-9.5511

> <Gold.Chemscore.Metal.Weighted>
-0.0000

> <Gold.Chemscore.Lipo.Weighted>
-9.7378

> <Gold.Chemscore.Internal_Hbond.Weighted>
0.0000

> <Gold.Chemscore.DEClash.Weighted>
1.2265

> <Gold.Chemscore.DEInternal.Weighted>
2.2534

> <Gold.Chemscore.Rot.Weighted>
4.0956

> <Gold.Chemscore.Internal.Correction.Weighted>
   9.000000E+99

> <Gold.Protein.RotatedTorsions>
[ 6907 6896 6895 6894 ] final -107.17 input  -60.11 | X-H torsion
[ 7974 7965 7964 7962 ] final  147.38 input  175.53 | X-H torsion
[ 8008 7997 7996 7995 ] final  -12.05 input   59.86 | X-H torsion
[ 10167 10162 10161 10158 ] final -166.50 input  -65.29 | X-H torsion
[ 10718 10713 10712 10709 ] final   47.54 input   66.30 | X-H torsion
[ 10763 10752 10751 10750 ] final  -45.40 input  -60.55 | X-H torsion
[ 11005 11000 10999 10996 ] final  113.60 input  -57.11 | X-H torsion

> <Gold.Protein.ActiveResidues>
 VAL166  LYS551  ARG553  GLY616  TRP617  ASP618  TYR619  PRO620  LYS621  CYS622 
 ASP623  PHE694  ASN695  SER759  ASP760  ASP761  ALA762  ILE779  LEU786  VAL792 
 PHE793  MET794  SER795  GLU796  ALA797  LYS798  CYS799  TRP800  GLU811  SER814 

> <Gold.Protein.RotatedAtoms>
  150.7429  133.9866  159.3593 H   0  0  0  0  0  0  0  0  0  0  0  0  # atno 6907 bound_to 6896
  151.7811  135.0759  160.0383 H   0  0  0  0  0  0  0  0  0  0  0  0  # atno 6908 bound_to 6896
  152.3273  133.5883  159.5822 H   0  0  0  0  0  0  0  0  0  0  0  0  # atno 6909 bound_to 6896
  144.8596  139.6022  143.5936 H   0  0  0  0  0  0  0  0  0  0  0  0  # atno 7974 bound_to 7965
  154.5411  140.2286  155.8639 H   0  0  0  0  0  0  0  0  0  0  0  0  # atno 8008 bound_to 7997
  156.1859  140.3089  155.9200 H   0  0  0  0  0  0  0  0  0  0  0  0  # atno 8009 bound_to 7997
  155.3256  140.0442  157.3031 H   0  0  0  0  0  0  0  0  0  0  0  0  # atno 8010 bound_to 7997
  139.6111  144.0813  152.1842 H   0  0  0  0  0  0  0  0  0  0  0  0  # atno 10167 bound_to 10162
  157.4596  130.8188  149.7872 H   0  0  0  0  0  0  0  0  0  0  0  0  # atno 10718 bound_to 10713
  154.0280  135.6660  153.4778 H   0  0  0  0  0  0  0  0  0  0  0  0  # atno 10763 bound_to 10752
  153.0552  135.5060  154.7960 H   0  0  0  0  0  0  0  0  0  0  0  0  # atno 10764 bound_to 10752
  154.6896  135.3059  154.9463 H   0  0  0  0  0  0  0  0  0  0  0  0  # atno 10765 bound_to 10752
  139.8957  134.9553  156.6764 H   0  0  0  0  0  0  0  0  0  0  0  0  # atno 11005 bound_to 11000
  146.2850  139.6980  142.9202 LP  0  0  0  0  0  0  0  0  0  0  0  0  # atno 17320 bound_to 7965
  145.4338  141.0417  143.2896 LP  0  0  0  0  0  0  0  0  0  0  0  0  # atno 17321 bound_to 7965
  140.0432  144.5991  150.7394 LP  0  0  0  0  0  0  0  0  0  0  0  0  # atno 17342 bound_to 10162
  140.7319  143.2700  151.3919 LP  0  0  0  0  0  0  0  0  0  0  0  0  # atno 17343 bound_to 10162
  156.0022  130.3874  150.2561 LP  0  0  0  0  0  0  0  0  0  0  0  0  # atno 17370 bound_to 10713
  157.0738  131.0124  151.3181 LP  0  0  0  0  0  0  0  0  0  0  0  0  # atno 17371 bound_to 10713
  140.7334  133.9040  155.8227 LP  0  0  0  0  0  0  0  0  0  0  0  0  # atno 17394 bound_to 11000
  141.0135  134.0987  157.4196 LP  0  0  0  0  0  0  0  0  0  0  0  0  # atno 17395 bound_to 11000

$$$$
