AV-unprocessed.smi:1554|AV-procd|sdf|6251|dock1
  -GOLD-   22720 6433D 1   1.00000     0.00000
 Structure written by MMmdl.
 48 50  0  0  0  0  0  0  0  0  2 V2000
  152.1381  142.7937  160.5056 C   0  0  0  0  0  0  0  0  0  0  0  0
  151.8106  142.0908  159.2000 C   0  0  0  0  0  0  0  0  0  0  0  0
  152.6852  141.0898  158.7201 C   0  0  0  0  0  0  0  0  0  0  0  0
  152.4179  140.4141  157.5093 C   0  0  0  0  0  0  0  0  0  0  0  0
  153.1251  139.4161  156.8607 N   0  0  0  0  0  0  0  0  0  0  0  0
  152.3710  139.2087  155.7851 C   0  0  0  0  0  0  0  0  0  0  0  0
  151.2584  139.9576  155.6587 N   0  0  0  0  0  0  0  0  0  0  0  0
  150.2889  139.9206  154.5785 C   0  0  0  0  0  0  0  0  0  0  0  0
  149.4010  138.6628  154.6352 C   0  0  1  0  0  0  0  0  0  0  0  0
  148.5743  138.6235  153.4873 O   0  0  0  0  0  0  0  0  0  0  0  0
  150.2348  137.3679  154.6941 C   0  0  0  0  0  0  0  0  0  0  0  0
  149.4281  136.1575  154.3919 N   0  3  2  0  0  0  0  0  0  0  0  0
  148.1974  136.0395  155.2128 C   0  0  0  0  0  0  0  0  0  0  0  0
  147.3990  134.7914  154.8030 C   0  0  0  0  0  0  0  0  0  0  0  0
  148.2201  133.6367  154.9267 O   0  0  0  0  0  0  0  0  0  0  0  0
  149.3628  133.6921  154.0798 C   0  0  2  0  0  0  0  0  0  0  0  0
  150.1279  132.3716  154.2223 C   0  0  0  0  0  0  0  0  0  0  0  0
  150.2231  134.9090  154.4733 C   0  0  0  0  0  0  0  0  0  0  0  0
  151.2435  140.7720  156.7853 C   0  0  0  0  0  0  0  0  0  0  0  0
  150.3642  141.7646  157.2532 C   0  0  0  0  0  0  0  0  0  0  0  0
  150.6452  142.4283  158.4656 C   0  0  0  0  0  0  0  0  0  0  0  0
  149.6888  143.4977  158.9634 C   0  0  0  0  0  0  0  0  0  0  0  0
  153.0483  142.3956  160.9551 H   0  0  0  0  0  0  0  0  0  0  0  0
  151.3281  142.6657  161.2237 H   0  0  0  0  0  0  0  0  0  0  0  0
  152.2864  143.8607  160.3370 H   0  0  0  0  0  0  0  0  0  0  0  0
  153.5720  140.8316  159.2802 H   0  0  0  0  0  0  0  0  0  0  0  0
  152.6457  138.4727  155.0433 H   0  0  0  0  0  0  0  0  0  0  0  0
  149.6803  140.8252  154.6196 H   0  0  0  0  0  0  0  0  0  0  0  0
  150.8354  139.9541  153.6351 H   0  0  0  0  0  0  0  0  0  0  0  0
  148.7589  138.7351  155.5120 H   0  0  0  0  0  0  0  0  0  0  0  0
  148.9405  138.0079  152.8704 H   0  0  0  0  0  0  0  0  0  0  0  0
  151.0563  137.4513  153.9804 H   0  0  0  0  0  0  0  0  0  0  0  0
  150.6966  137.2535  155.6760 H   0  0  0  0  0  0  0  0  0  0  0  0
  148.4651  135.9789  156.2690 H   0  0  0  0  0  0  0  0  0  0  0  0
  147.5676  136.9204  155.0945 H   0  0  0  0  0  0  0  0  0  0  0  0
  146.5285  134.6753  155.4488 H   0  0  0  0  0  0  0  0  0  0  0  0
  147.0279  134.8833  153.7808 H   0  0  0  0  0  0  0  0  0  0  0  0
  149.0362  133.7931  153.0429 H   0  0  0  0  0  0  0  0  0  0  0  0
  151.0135  132.3596  153.5865 H   0  0  0  0  0  0  0  0  0  0  0  0
  149.5023  131.5262  153.9350 H   0  0  0  0  0  0  0  0  0  0  0  0
  150.4518  132.2106  155.2509 H   0  0  0  0  0  0  0  0  0  0  0  0
  151.0844  134.9780  153.8073 H   0  0  0  0  0  0  0  0  0  0  0  0
  150.6093  134.7891  155.4871 H   0  0  0  0  0  0  0  0  0  0  0  0
  149.4810  142.0125  156.6834 H   0  0  0  0  0  0  0  0  0  0  0  0
  148.8333  143.6083  158.2963 H   0  0  0  0  0  0  0  0  0  0  0  0
  150.1930  144.4622  159.0252 H   0  0  0  0  0  0  0  0  0  0  0  0
  149.3085  143.2412  159.9524 H   0  0  0  0  0  0  0  0  0  0  0  0
  149.1355  136.2440  153.4284 H   0  0  0  0  0  0  0  0  0  0  0  0
  1  2  1  0  0  0  0
  1 23  1  0  0  0  0
  1 24  1  0  0  0  0
  1 25  1  0  0  0  0
  2 21  1  0  0  0  0
  2  3  2  0  0  0  0
  3  4  1  0  0  0  0
  3 26  1  0  0  0  0
  4 19  2  0  0  0  0
  4  5  1  0  0  0  0
  5  6  2  0  0  0  0
  6  7  1  0  0  0  0
  6 27  1  0  0  0  0
  7  8  1  0  0  0  0
  7 19  1  0  0  0  0
  8  9  1  0  0  0  0
  8 28  1  0  0  0  0
  8 29  1  0  0  0  0
  9 10  1  0  0  0  0
  9 11  1  0  0  0  0
  9 30  1  0  0  0  0
 10 31  1  0  0  0  0
 11 12  1  0  0  0  0
 11 32  1  0  0  0  0
 11 33  1  0  0  0  0
 12 18  1  0  0  0  0
 12 13  1  0  0  0  0
 12 48  1  0  0  0  0
 13 14  1  0  0  0  0
 13 34  1  0  0  0  0
 13 35  1  0  0  0  0
 14 15  1  0  0  0  0
 14 36  1  0  0  0  0
 14 37  1  0  0  0  0
 15 16  1  0  0  0  0
 16 17  1  0  0  0  0
 16 18  1  0  0  0  0
 16 38  1  0  0  0  0
 17 39  1  0  0  0  0
 17 40  1  0  0  0  0
 17 41  1  0  0  0  0
 18 42  1  0  0  0  0
 18 43  1  0  0  0  0
 19 20  1  0  0  0  0
 20 21  2  0  0  0  0
 20 44  1  0  0  0  0
 21 22  1  0  0  0  0
 22 45  1  0  0  0  0
 22 46  1  0  0  0  0
 22 47  1  0  0  0  0
M  CHG  1  12   1
M  END
> <s_m_source_file>
AV-unprocessed.smi

> <i_m_source_file_index>
1554

> <i_lp_mmshare_version>
43012

> <i_f3d_flags>
0

> <s_epik_input>
W0NIM11jKFtjSF0xKWMoW0NIM10pW2NIXWMoYzEyKW4oW2NIXW4yKVtDSDJdW0NASF0oW09IXSlbQ0gyXU4zW0NIMl1bQ0gyXU9bQ0BASF0oW0NIM10pW0NIMl0z

> <s_epik_cmdline>
J2VwaWtfcHl0aG9uJywgJy1waCcsICc3LjAnLCAnLXRuJywgJzgnLCAnLW1hJywgJzIwMCcsICctbWV0YWxfYmluZGluZycsICctaW1hZScsICc8aW5maWxlLm1hZT4nLCAnLW9tYWUnLCAnPG91dGZpbGUubWFlPic=

> <r_epik_Ionization_Penalty>
0.695251

> <r_epik_Ionization_Penalty_Charging>
0.608065

> <r_epik_Ionization_Penalty_Neutral>
0.0871863

> <r_epik_State_Penalty>
0.731955

> <r_epik_Charging_Adjusted_Penalty>
1.34002

> <i_epik_Tot_Q>
1

> <i_epik_Tot_abs_Q>
1

> <r_epik_Metal_State_Penalty>
0.652186

> <b_epik_Metal_Only>
0

> <s_lp_Force_Field>
OPLS_2005

> <r_lp_Energy>
20.6032

> <b_lp_Chiralities_Consistent>
1

> <s_lp_Variant>
AV-unprocessed.smi:1554-12

> <Gold.Version>
5.8.1

> <Gold.Id.Protein>
6NUR|6NUR_protein|mol2

> <Gold.PLP.Fitness>
49.3662

> <Gold.PLP.PLP>
-38.0977

> <Gold.PLP.part.hbond>
-4.0000

> <Gold.PLP.part.metal>
0.0000

> <Gold.PLP.part.buried>
-0.9166

> <Gold.PLP.part.nonpolar>
-33.5313

> <Gold.PLP.part.repulsive>
0.0615

> <Gold.PLP.ligand.clash>
0.0000

> <Gold.PLP.ligand.torsion>
0.3050

> <Gold.PLP.Chemscore.Hbond>
3.9413

> <Gold.PLP.Chemscore.CHOScore>
0.0000

> <Gold.PLP.Chemscore.Metal>
0.0000

> <Gold.Chemscore.Hbonds>
donor molecule, donor type, donor heavy atom, donor atom, acceptor molecule, acceptor atom, score
      L1  H    10    31       P1  7948  1.00
      L1  H    12    48       P1  7948  2.00
      P1  H  7997  8008       L1     5  0.78

> <Gold.PLP.Chemscore.Internal.Correction>
0.0549

> <Gold.Rescore>
     Score         DG    S(hbond)    S(metal)    S(lipo)     H(rot)  DE(clash)    DE(int)     intcor
     19.52     -20.14       2.64        0.00      94.74       2.05       0.29       0.32       ----

> <Gold.Chemscore.Fitness>
19.5229

> <Gold.Chemscore.DG>
-20.1357

> <Gold.Chemscore.ZeroCoef>
-5.4800

> <Gold.Chemscore.Hbond>
2.6439

> <Gold.Chemscore.Metal>
0.0000

> <Gold.Chemscore.Lipo>
94.7419

> <Gold.Chemscore.Internal_Hbond>
0.0000

> <Gold.Chemscore.DEClash>
0.2935

> <Gold.Chemscore.DEInternal>
0.3193

> <Gold.Chemscore.Rot>
2.0546

> <Gold.Chemscore.Internal.Correction>
   9.000000E+99

> <Gold.Chemscore.Hbonds>
donor molecule, donor type, donor heavy atom, donor atom, acceptor molecule, acceptor atom, score
      L1  H    10    31       P1  7948  0.93
      L1  H    12    48       P1  7948  0.91
      P1  H  7997  8008       L1     5  0.21

> <Gold.Chemscore.Hbond.Weighted>
-8.8306

> <Gold.Chemscore.Metal.Weighted>
-0.0000

> <Gold.Chemscore.Lipo.Weighted>
-11.0848

> <Gold.Chemscore.Internal_Hbond.Weighted>
0.0000

> <Gold.Chemscore.DEClash.Weighted>
0.2935

> <Gold.Chemscore.DEInternal.Weighted>
0.3193

> <Gold.Chemscore.Rot.Weighted>
5.2597

> <Gold.Chemscore.Internal.Correction.Weighted>
   9.000000E+99

> <Gold.Protein.RotatedTorsions>
[ 6907 6896 6895 6894 ] final -178.47 input  -60.11 | X-H torsion
[ 7974 7965 7964 7962 ] final -136.79 input  175.53 | X-H torsion
[ 8008 7997 7996 7995 ] final  -52.85 input   59.86 | X-H torsion
[ 10167 10162 10161 10158 ] final   58.09 input  -65.29 | X-H torsion
[ 10718 10713 10712 10709 ] final  109.29 input   66.30 | X-H torsion
[ 10763 10752 10751 10750 ] final  -83.55 input  -60.55 | X-H torsion
[ 11005 11000 10999 10996 ] final    2.37 input  -57.11 | X-H torsion

> <Gold.Protein.ActiveResidues>
 VAL166  LYS551  ARG553  GLY616  TRP617  ASP618  TYR619  PRO620  LYS621  CYS622 
 ASP623  PHE694  ASN695  SER759  ASP760  ASP761  ALA762  ILE779  LEU786  VAL792 
 PHE793  MET794  SER795  GLU796  ALA797  LYS798  CYS799  TRP800  GLU811  SER814 

> <Gold.Protein.RotatedAtoms>
  151.6377  133.3328  159.3122 H   0  0  0  0  0  0  0  0  0  0  0  0  # atno 6907 bound_to 6896
  150.8024  134.7130  159.6624 H   0  0  0  0  0  0  0  0  0  0  0  0  # atno 6908 bound_to 6896
  152.4117  134.6117  160.0079 H   0  0  0  0  0  0  0  0  0  0  0  0  # atno 6909 bound_to 6896
  144.8897  140.6624  143.5153 H   0  0  0  0  0  0  0  0  0  0  0  0  # atno 7974 bound_to 7965
  154.4117  140.1214  156.5059 H   0  0  0  0  0  0  0  0  0  0  0  0  # atno 8008 bound_to 7997
  155.6848  140.3496  155.4850 H   0  0  0  0  0  0  0  0  0  0  0  0  # atno 8009 bound_to 7997
  155.9520  140.1106  157.0959 H   0  0  0  0  0  0  0  0  0  0  0  0  # atno 8010 bound_to 7997
  140.1909  144.4086  150.6571 H   0  0  0  0  0  0  0  0  0  0  0  0  # atno 10167 bound_to 10162
  157.6548  131.0911  150.6432 H   0  0  0  0  0  0  0  0  0  0  0  0  # atno 10718 bound_to 10713
  154.5891  135.5552  153.7260 H   0  0  0  0  0  0  0  0  0  0  0  0  # atno 10763 bound_to 10752
  153.0110  135.6339  154.1875 H   0  0  0  0  0  0  0  0  0  0  0  0  # atno 10764 bound_to 10752
  154.1815  135.2887  155.3030 H   0  0  0  0  0  0  0  0  0  0  0  0  # atno 10765 bound_to 10752
  140.6050  133.9801  155.8150 H   0  0  0  0  0  0  0  0  0  0  0  0  # atno 11005 bound_to 11000
  145.3805  139.1638  143.4283 LP  0  0  0  0  0  0  0  0  0  0  0  0  # atno 17320 bound_to 7965
  146.3046  140.3886  142.8692 LP  0  0  0  0  0  0  0  0  0  0  0  0  # atno 17321 bound_to 7965
  140.6456  143.2213  151.6193 LP  0  0  0  0  0  0  0  0  0  0  0  0  # atno 17342 bound_to 10162
  139.5256  144.3069  152.1026 LP  0  0  0  0  0  0  0  0  0  0  0  0  # atno 17343 bound_to 10162
  156.6740  130.4548  149.5648 LP  0  0  0  0  0  0  0  0  0  0  0  0  # atno 17370 bound_to 10713
  156.1977  130.6600  151.1133 LP  0  0  0  0  0  0  0  0  0  0  0  0  # atno 17371 bound_to 10713
  141.0847  134.0009  157.3332 LP  0  0  0  0  0  0  0  0  0  0  0  0  # atno 17394 bound_to 11000
  139.9216  135.0200  156.8085 LP  0  0  0  0  0  0  0  0  0  0  0  0  # atno 17395 bound_to 11000

$$$$
