AV-unprocessed.smi:1648|AV-procd|sdf|6627|dock10
  -GOLD-   22720 7323D 1   1.00000     0.00000
 Structure written by MMmdl.
 42 42  0  0  0  0  0  0  0  0  2 V2000
  146.6150  136.3765  154.6447 C   0  0  0  0  0  0  0  0  0  0  0  0
  146.9757  134.8898  154.6459 C   0  0  0  0  0  0  0  0  0  0  0  0
  146.4940  134.1539  155.5037 O   0  0  0  0  0  0  0  0  0  0  0  0
  147.8157  134.4145  153.7102 N   0  0  0  0  0  0  0  0  0  0  0  0
  148.2762  133.0329  153.5495 C   0  0  2  0  0  0  0  0  0  0  0  0
  147.0398  132.1756  153.2236 C   0  0  0  0  0  0  0  0  0  0  0  0
  145.9813  132.3536  153.8281 O   0  0  0  0  0  0  0  0  0  0  0  0
  147.1875  131.2599  152.2529 N   0  0  0  0  0  0  0  0  0  0  0  0
  146.1371  130.3764  151.7481 C   0  0  2  0  0  0  0  0  0  0  0  0
  146.6685  128.9370  151.7270 C   0  0  0  0  0  0  0  0  0  0  0  0
  145.6651  130.8202  150.3452 C   0  0  0  0  0  0  0  0  0  0  0  0
  145.0531  132.1544  150.3385 N   0  0  0  0  0  0  0  0  0  0  0  0
  145.6358  133.3375  150.7152 C   0  0  0  0  0  0  0  0  0  0  0  0
  144.6946  134.3158  150.5234 C   0  0  0  0  0  0  0  0  0  0  0  0
  143.5741  133.6885  150.0490 N   0  3  0  0  0  0  0  0  0  0  0  0
  143.7903  132.3732  149.9481 C   0  0  0  0  0  0  0  0  0  0  0  0
  148.9199  132.5559  154.8844 C   0  0  0  0  0  0  0  0  0  0  0  0
  149.9676  133.5596  155.4044 C   0  0  0  0  0  0  0  0  0  0  0  0
  149.5698  131.1610  154.7715 C   0  0  0  0  0  0  0  0  0  0  0  0
  147.4893  136.9793  154.8917 H   0  0  0  0  0  0  0  0  0  0  0  0
  145.8427  136.5847  155.3859 H   0  0  0  0  0  0  0  0  0  0  0  0
  146.2382  136.6923  153.6725 H   0  0  0  0  0  0  0  0  0  0  0  0
  148.2176  135.0878  153.0737 H   0  0  0  0  0  0  0  0  0  0  0  0
  149.0156  132.9566  152.7503 H   0  0  0  0  0  0  0  0  0  0  0  0
  148.0960  131.1767  151.8198 H   0  0  0  0  0  0  0  0  0  0  0  0
  145.2846  130.3930  152.4296 H   0  0  0  0  0  0  0  0  0  0  0  0
  145.9012  128.2406  151.3877 H   0  0  0  0  0  0  0  0  0  0  0  0
  146.9823  128.6194  152.7219 H   0  0  0  0  0  0  0  0  0  0  0  0
  147.5254  128.8382  151.0597 H   0  0  0  0  0  0  0  0  0  0  0  0
  146.4942  130.8107  149.6354 H   0  0  0  0  0  0  0  0  0  0  0  0
  144.9155  130.1262  149.9631 H   0  0  0  0  0  0  0  0  0  0  0  0
  146.6541  133.3951  151.0713 H   0  0  0  0  0  0  0  0  0  0  0  0
  144.7373  135.3832  150.6841 H   0  0  0  0  0  0  0  0  0  0  0  0
  143.0853  131.6371  149.6060 H   0  0  0  0  0  0  0  0  0  0  0  0
  148.1402  132.4886  155.6454 H   0  0  0  0  0  0  0  0  0  0  0  0
  150.7695  133.7041  154.6796 H   0  0  0  0  0  0  0  0  0  0  0  0
  150.4202  133.2092  156.3326 H   0  0  0  0  0  0  0  0  0  0  0  0
  149.5298  134.5354  155.6148 H   0  0  0  0  0  0  0  0  0  0  0  0
  150.3355  131.1439  153.9952 H   0  0  0  0  0  0  0  0  0  0  0  0
  148.8413  130.3842  154.5386 H   0  0  0  0  0  0  0  0  0  0  0  0
  150.0452  130.8738  155.7099 H   0  0  0  0  0  0  0  0  0  0  0  0
  142.7058  134.1509  149.8093 H   0  0  0  0  0  0  0  0  0  0  0  0
  1  2  1  0  0  0  0
  1 20  1  0  0  0  0
  1 21  1  0  0  0  0
  1 22  1  0  0  0  0
  2  3  2  0  0  0  0
  2  4  1  0  0  0  0
  4  5  1  0  0  0  0
  4 23  1  0  0  0  0
  5  6  1  0  0  0  0
  5 17  1  0  0  0  0
  5 24  1  0  0  0  0
  6  7  2  0  0  0  0
  6  8  1  0  0  0  0
  8  9  1  0  0  0  0
  8 25  1  0  0  0  0
  9 10  1  0  0  0  0
  9 11  1  0  0  0  0
  9 26  1  0  0  0  0
 10 27  1  0  0  0  0
 10 28  1  0  0  0  0
 10 29  1  0  0  0  0
 11 12  1  0  0  0  0
 11 30  1  0  0  0  0
 11 31  1  0  0  0  0
 12 16  1  0  0  0  0
 12 13  1  0  0  0  0
 13 14  2  0  0  0  0
 13 32  1  0  0  0  0
 14 15  1  0  0  0  0
 14 33  1  0  0  0  0
 15 16  2  0  0  0  0
 15 42  1  0  0  0  0
 16 34  1  0  0  0  0
 17 18  1  0  0  0  0
 17 19  1  0  0  0  0
 17 35  1  0  0  0  0
 18 36  1  0  0  0  0
 18 37  1  0  0  0  0
 18 38  1  0  0  0  0
 19 39  1  0  0  0  0
 19 40  1  0  0  0  0
 19 41  1  0  0  0  0
M  CHG  1  15   1
M  END
> <s_m_source_file>
AV-unprocessed.smi

> <i_m_source_file_index>
1648

> <i_lp_mmshare_version>
43012

> <i_f3d_flags>
0

> <s_epik_input>
W0NIM11DKD1PKVtOSF1bQ0BASF0oW0NIXShbQ0gzXSlbQ0gzXSlDKD1PKVtOSF1bQ0BIXShbQ0gzXSlbQ0gyXW4xW2NIXVtjSF1uW2NIXTE=

> <s_epik_cmdline>
J2VwaWtfcHl0aG9uJywgJy1waCcsICc3LjAnLCAnLXRuJywgJzgnLCAnLW1hJywgJzIwMCcsICctbWV0YWxfYmluZGluZycsICctaW1hZScsICc8aW5maWxlLm1hZT4nLCAnLW9tYWUnLCAnPG91dGZpbGUubWFlPic=

> <r_lp_tautomer_probability>
1

> <r_epik_Ionization_Penalty>
0.251562

> <r_epik_Ionization_Penalty_Charging>
0

> <r_epik_Ionization_Penalty_Neutral>
0.251562

> <r_epik_State_Penalty>
0.242926

> <r_epik_Charging_Adjusted_Penalty>
0.242926

> <i_epik_Tot_Q>
1

> <i_epik_Tot_abs_Q>
1

> <r_epik_Metal_State_Penalty>
0.53388

> <b_epik_Metal_Only>
0

> <s_lp_Force_Field>
OPLS_2005

> <r_lp_Energy>
9.98337

> <b_lp_Chiralities_Consistent>
1

> <s_lp_Variant>
AV-unprocessed.smi:1648-1

> <Gold.Version>
5.8.1

> <Gold.Id.Protein>
6NUR|6NUR_protein|mol2

> <Gold.PLP.Fitness>
47.5337

> <Gold.PLP.PLP>
-33.8305

> <Gold.PLP.part.hbond>
-3.0000

> <Gold.PLP.part.metal>
0.0000

> <Gold.PLP.part.buried>
-4.0294

> <Gold.PLP.part.nonpolar>
-26.9795

> <Gold.PLP.part.repulsive>
0.1874

> <Gold.PLP.ligand.clash>
0.0000

> <Gold.PLP.ligand.torsion>
0.6787

> <Gold.PLP.Chemscore.Hbond>
4.0000

> <Gold.PLP.Chemscore.CHOScore>
1.0000

> <Gold.PLP.Chemscore.Metal>
0.0000

> <Gold.Chemscore.Hbonds>
donor molecule, donor type, donor heavy atom, donor atom, acceptor molecule, acceptor atom, score
      L1  H     4    23       P1  7948  1.00
      L1  H     8    25       P1 10747  0.91
      L1  H    15    42       P1 10186  2.00
      L1  C    16    34       P1 10952  0.81

> <Gold.PLP.Chemscore.Internal.Correction>
0.0607

> <Gold.Rescore>
     Score         DG    S(hbond)    S(metal)    S(lipo)     H(rot)  DE(clash)    DE(int)     intcor
     11.66     -16.42       2.80        0.00      70.79       2.61       1.36       3.39       ----

> <Gold.Chemscore.Fitness>
11.6642

> <Gold.Chemscore.DG>
-16.4196

> <Gold.Chemscore.ZeroCoef>
-5.4800

> <Gold.Chemscore.Hbond>
2.7988

> <Gold.Chemscore.Metal>
0.0000

> <Gold.Chemscore.Lipo>
70.7895

> <Gold.Chemscore.Internal_Hbond>
0.0000

> <Gold.Chemscore.DEClash>
1.3641

> <Gold.Chemscore.DEInternal>
3.3913

> <Gold.Chemscore.Rot>
2.6135

> <Gold.Chemscore.Internal.Correction>
   9.000000E+99

> <Gold.Chemscore.Hbonds>
donor molecule, donor type, donor heavy atom, donor atom, acceptor molecule, acceptor atom, score
      L1  H     4    23       P1  7948  0.94
      L1  H     8    25       P1 10747  0.90
      L1  H    15    42       P1 10186  0.99

> <Gold.Chemscore.Hbond.Weighted>
-9.3479

> <Gold.Chemscore.Metal.Weighted>
-0.0000

> <Gold.Chemscore.Lipo.Weighted>
-8.2824

> <Gold.Chemscore.Internal_Hbond.Weighted>
0.0000

> <Gold.Chemscore.DEClash.Weighted>
1.3641

> <Gold.Chemscore.DEInternal.Weighted>
3.3913

> <Gold.Chemscore.Rot.Weighted>
6.6906

> <Gold.Chemscore.Internal.Correction.Weighted>
   9.000000E+99

> <Gold.Protein.RotatedTorsions>
[ 6907 6896 6895 6894 ] final  149.78 input  -60.11 | X-H torsion
[ 7974 7965 7964 7962 ] final  104.28 input  175.53 | X-H torsion
[ 8008 7997 7996 7995 ] final -151.07 input   59.86 | X-H torsion
[ 10167 10162 10161 10158 ] final -144.63 input  -65.29 | X-H torsion
[ 10718 10713 10712 10709 ] final    9.70 input   66.30 | X-H torsion
[ 10763 10752 10751 10750 ] final  102.86 input  -60.55 | X-H torsion
[ 11005 11000 10999 10996 ] final -102.20 input  -57.11 | X-H torsion

> <Gold.Protein.ActiveResidues>
 VAL166  LYS551  ARG553  GLY616  TRP617  ASP618  TYR619  PRO620  LYS621  CYS622 
 ASP623  PHE694  ASN695  SER759  ASP760  ASP761  ALA762  ILE779  LEU786  VAL792 
 PHE793  MET794  SER795  GLU796  ALA797  LYS798  CYS799  TRP800  GLU811  SER814 

> <Gold.Protein.RotatedAtoms>
  152.1234  133.4366  159.4685 H   0  0  0  0  0  0  0  0  0  0  0  0  # atno 6907 bound_to 6896
  150.6873  134.2508  159.4519 H   0  0  0  0  0  0  0  0  0  0  0  0  # atno 6908 bound_to 6896
  152.0386  134.9724  160.0624 H   0  0  0  0  0  0  0  0  0  0  0  0  # atno 6909 bound_to 6896
  145.3348  139.2477  143.3641 H   0  0  0  0  0  0  0  0  0  0  0  0  # atno 7974 bound_to 7965
  155.6336  140.0694  157.2641 H   0  0  0  0  0  0  0  0  0  0  0  0  # atno 8008 bound_to 7997
  154.4200  140.1763  156.1547 H   0  0  0  0  0  0  0  0  0  0  0  0  # atno 8009 bound_to 7997
  155.9913  140.3345  155.6759 H   0  0  0  0  0  0  0  0  0  0  0  0  # atno 8010 bound_to 7997
  139.7881  143.8005  152.2647 H   0  0  0  0  0  0  0  0  0  0  0  0  # atno 10167 bound_to 10162
  156.9702  130.5966  149.5668 H   0  0  0  0  0  0  0  0  0  0  0  0  # atno 10718 bound_to 10713
  153.3451  135.3996  155.1602 H   0  0  0  0  0  0  0  0  0  0  0  0  # atno 10763 bound_to 10752
  154.8651  135.3643  154.5295 H   0  0  0  0  0  0  0  0  0  0  0  0  # atno 10764 bound_to 10752
  153.5742  135.7078  153.5551 H   0  0  0  0  0  0  0  0  0  0  0  0  # atno 10765 bound_to 10752
  141.1199  133.8539  157.1330 H   0  0  0  0  0  0  0  0  0  0  0  0  # atno 11005 bound_to 11000
  146.3031  140.3934  142.8697 LP  0  0  0  0  0  0  0  0  0  0  0  0  # atno 17320 bound_to 7965
  144.8836  140.7432  143.5971 LP  0  0  0  0  0  0  0  0  0  0  0  0  # atno 17321 bound_to 7965
  139.8088  144.7344  150.9725 LP  0  0  0  0  0  0  0  0  0  0  0  0  # atno 17342 bound_to 10162
  140.7820  143.4271  151.0751 LP  0  0  0  0  0  0  0  0  0  0  0  0  # atno 17343 bound_to 10162
  156.0286  130.5378  150.8473 LP  0  0  0  0  0  0  0  0  0  0  0  0  # atno 17370 bound_to 10713
  157.5598  131.0945  150.9576 LP  0  0  0  0  0  0  0  0  0  0  0  0  # atno 17371 bound_to 10713
  140.0148  134.9972  157.0471 LP  0  0  0  0  0  0  0  0  0  0  0  0  # atno 17394 bound_to 11000
  140.4538  134.1555  155.7184 LP  0  0  0  0  0  0  0  0  0  0  0  0  # atno 17395 bound_to 11000

$$$$
