AV-unprocessed.smi:1563|AV-procd|sdf|6290|dock8
  -GOLD-   22720 6493D 1   1.00000     0.00000
 Structure written by MMmdl.
 43 44  0  0  0  0  0  0  0  0  1 V2000
  145.8465  132.3953  150.0871 C   0  0  0  0  0  0  0  0  0  0  0  0
  146.1687  132.6496  151.5558 C   0  0  0  0  0  0  0  0  0  0  0  0
  145.3394  133.1961  152.2823 O   0  0  0  0  0  0  0  0  0  0  0  0
  147.3744  132.2420  151.9806 N   0  0  0  0  0  0  0  0  0  0  0  0
  147.8748  132.3798  153.3444 C   0  0  1  0  0  0  0  0  0  0  0  0
  148.1861  130.9940  153.9560 C   0  0  0  0  0  0  0  0  0  0  0  0
  148.9116  131.1089  155.3108 C   0  0  0  0  0  0  0  0  0  0  0  0
  150.1130  132.0664  155.2157 C   0  0  0  0  0  0  0  0  0  0  0  0
  149.6330  133.3702  154.7280 N   0  0  0  0  0  0  0  0  0  0  0  0
  149.4172  134.4775  155.4824 C   0  0  0  0  0  0  0  0  0  0  0  0
  149.3049  134.4465  156.7089 O   0  0  0  0  0  0  0  0  0  0  0  0
  149.3181  135.6228  154.7862 N   0  0  0  0  0  0  0  0  0  0  0  0
  149.1220  136.9453  155.3685 C   0  0  0  0  0  0  0  0  0  0  0  0
  150.0419  137.9896  154.7141 C   0  0  0  0  0  0  0  0  0  0  0  0
  149.3613  139.3353  154.5530 C   0  0  0  0  0  0  0  0  0  0  0  0
  148.0507  139.4207  154.0367 C   0  0  0  0  0  0  0  0  0  0  0  0
  147.4646  140.6940  153.9016 C   0  0  0  0  0  0  0  0  0  0  0  0
  148.2080  141.8270  154.2847 C   0  0  0  0  0  0  0  0  0  0  0  0
  149.5105  141.6352  154.7874 C   0  0  0  0  0  0  0  0  0  0  0  0
  150.0821  140.4186  154.9211 N   0  0  0  0  0  0  0  0  0  0  0  0
  149.1367  133.2668  153.3502 C   0  0  0  0  0  0  0  0  0  0  0  0
  146.7223  132.5674  149.4603 H   0  0  0  0  0  0  0  0  0  0  0  0
  145.0504  133.0587  149.7475 H   0  0  0  0  0  0  0  0  0  0  0  0
  145.5174  131.3654  149.9473 H   0  0  0  0  0  0  0  0  0  0  0  0
  147.9895  131.8031  151.3110 H   0  0  0  0  0  0  0  0  0  0  0  0
  147.1144  132.8724  153.9540 H   0  0  0  0  0  0  0  0  0  0  0  0
  147.2697  130.4147  154.0739 H   0  0  0  0  0  0  0  0  0  0  0  0
  148.8187  130.4313  153.2682 H   0  0  0  0  0  0  0  0  0  0  0  0
  148.2152  131.4740  156.0670 H   0  0  0  0  0  0  0  0  0  0  0  0
  149.2407  130.1238  155.6421 H   0  0  0  0  0  0  0  0  0  0  0  0
  150.6281  132.1148  156.1748 H   0  0  0  0  0  0  0  0  0  0  0  0
  150.8495  131.6689  154.5158 H   0  0  0  0  0  0  0  0  0  0  0  0
  149.4076  135.5751  153.7817 H   0  0  0  0  0  0  0  0  0  0  0  0
  148.0781  137.2260  155.2267 H   0  0  0  0  0  0  0  0  0  0  0  0
  149.2906  136.9086  156.4463 H   0  0  0  0  0  0  0  0  0  0  0  0
  150.9470  138.1207  155.3087 H   0  0  0  0  0  0  0  0  0  0  0  0
  150.3694  137.6386  153.7342 H   0  0  0  0  0  0  0  0  0  0  0  0
  147.5066  138.5329  153.7490 H   0  0  0  0  0  0  0  0  0  0  0  0
  146.4635  140.7996  153.5106 H   0  0  0  0  0  0  0  0  0  0  0  0
  147.7905  142.8189  154.1951 H   0  0  0  0  0  0  0  0  0  0  0  0
  150.1092  142.4816  155.0894 H   0  0  0  0  0  0  0  0  0  0  0  0
  149.9120  132.8297  152.7188 H   0  0  0  0  0  0  0  0  0  0  0  0
  148.9173  134.2420  152.9124 H   0  0  0  0  0  0  0  0  0  0  0  0
  1  2  1  0  0  0  0
  1 22  1  0  0  0  0
  1 23  1  0  0  0  0
  1 24  1  0  0  0  0
  2  3  2  0  0  0  0
  2  4  1  0  0  0  0
  4  5  1  0  0  0  0
  4 25  1  0  0  0  0
  5 21  1  0  0  0  0
  5  6  1  0  0  0  0
  5 26  1  0  0  0  0
  6  7  1  0  0  0  0
  6 27  1  0  0  0  0
  6 28  1  0  0  0  0
  7  8  1  0  0  0  0
  7 29  1  0  0  0  0
  7 30  1  0  0  0  0
  8  9  1  0  0  0  0
  8 31  1  0  0  0  0
  8 32  1  0  0  0  0
  9 10  1  0  0  0  0
  9 21  1  0  0  0  0
 10 11  2  0  0  0  0
 10 12  1  0  0  0  0
 12 13  1  0  0  0  0
 12 33  1  0  0  0  0
 13 14  1  0  0  0  0
 13 34  1  0  0  0  0
 13 35  1  0  0  0  0
 14 15  1  0  0  0  0
 14 36  1  0  0  0  0
 14 37  1  0  0  0  0
 15 20  1  0  0  0  0
 15 16  2  0  0  0  0
 16 17  1  0  0  0  0
 16 38  1  0  0  0  0
 17 18  2  0  0  0  0
 17 39  1  0  0  0  0
 18 19  1  0  0  0  0
 18 40  1  0  0  0  0
 19 20  2  0  0  0  0
 19 41  1  0  0  0  0
 21 42  1  0  0  0  0
 21 43  1  0  0  0  0
M  END
> <s_m_source_file>
AV-unprocessed.smi

> <i_m_source_file_index>
1563

> <i_lp_mmshare_version>
43012

> <i_f3d_flags>
0

> <s_epik_input>
W0NIM11DKD1PKVtOSF1bQ0BASF0xW0NIMl1bQ0gyXVtDSDJdTihbQ0gyXTEpQyg9TylbTkhdW0NIMl1bQ0gyXWMyW2NIXVtjSF1bY0hdW2NIXW4y

> <s_epik_cmdline>
J2VwaWtfcHl0aG9uJywgJy1waCcsICc3LjAnLCAnLXRuJywgJzgnLCAnLW1hJywgJzIwMCcsICctbWV0YWxfYmluZGluZycsICctaW1hZScsICc8aW5maWxlLm1hZT4nLCAnLW9tYWUnLCAnPG91dGZpbGUubWFlPic=

> <r_epik_Ionization_Penalty>
0.0442074

> <r_epik_Ionization_Penalty_Charging>
0

> <r_epik_Ionization_Penalty_Neutral>
0.0442074

> <r_epik_State_Penalty>
0.0374027

> <r_epik_Charging_Adjusted_Penalty>
0.0374027

> <i_epik_Tot_Q>
0

> <i_epik_Tot_abs_Q>
0

> <r_epik_Metal_State_Penalty>
0.0347963

> <b_epik_Metal_Only>
0

> <s_lp_Force_Field>
OPLS_2005

> <r_lp_Energy>
22.675

> <b_lp_Chiralities_Consistent>
1

> <s_lp_Variant>
AV-unprocessed.smi:1563-2

> <Gold.Version>
5.8.1

> <Gold.Id.Protein>
6NUR|6NUR_protein|mol2

> <Gold.PLP.Fitness>
47.2058

> <Gold.PLP.PLP>
-37.8330

> <Gold.PLP.part.hbond>
-3.0000

> <Gold.PLP.part.metal>
0.0000

> <Gold.PLP.part.buried>
-0.9150

> <Gold.PLP.part.nonpolar>
-32.1737

> <Gold.PLP.part.repulsive>
0.2418

> <Gold.PLP.ligand.clash>
0.0000

> <Gold.PLP.ligand.torsion>
0.7790

> <Gold.PLP.Chemscore.Hbond>
2.6752

> <Gold.PLP.Chemscore.CHOScore>
0.9508

> <Gold.PLP.Chemscore.Metal>
0.0000

> <Gold.Chemscore.Hbonds>
donor molecule, donor type, donor heavy atom, donor atom, acceptor molecule, acceptor atom, score
      L1  H     4    25       P1 10747  1.00
      L1  H    12    33       P1  7948  0.96
      P1  H  7989  7998       L1    20  0.42
      L1  C    19    41       P1  8028  0.62

> <Gold.PLP.Chemscore.Internal.Correction>
0.0529

> <Gold.Rescore>
     Score         DG    S(hbond)    S(metal)    S(lipo)     H(rot)  DE(clash)    DE(int)     intcor
     15.83     -17.34       1.99        0.00      81.31       1.68       0.97       0.54       ----

> <Gold.Chemscore.Fitness>
15.8299

> <Gold.Chemscore.DG>
-17.3400

> <Gold.Chemscore.ZeroCoef>
-5.4800

> <Gold.Chemscore.Hbond>
1.9914

> <Gold.Chemscore.Metal>
0.0000

> <Gold.Chemscore.Lipo>
81.3064

> <Gold.Chemscore.Internal_Hbond>
0.0000

> <Gold.Chemscore.DEClash>
0.9652

> <Gold.Chemscore.DEInternal>
0.5449

> <Gold.Chemscore.Rot>
1.6813

> <Gold.Chemscore.Internal.Correction>
   9.000000E+99

> <Gold.Chemscore.Hbonds>
donor molecule, donor type, donor heavy atom, donor atom, acceptor molecule, acceptor atom, score
      L1  H     4    25       P1 10747  1.00
      L1  H    12    33       P1  7948  0.35
      P1  H  7989  7998       L1    20  0.02

> <Gold.Chemscore.Hbond.Weighted>
-6.6514

> <Gold.Chemscore.Metal.Weighted>
-0.0000

> <Gold.Chemscore.Lipo.Weighted>
-9.5129

> <Gold.Chemscore.Internal_Hbond.Weighted>
0.0000

> <Gold.Chemscore.DEClash.Weighted>
0.9652

> <Gold.Chemscore.DEInternal.Weighted>
0.5449

> <Gold.Chemscore.Rot.Weighted>
4.3042

> <Gold.Chemscore.Internal.Correction.Weighted>
   9.000000E+99

> <Gold.Protein.RotatedTorsions>
[ 6907 6896 6895 6894 ] final  -91.86 input  -60.11 | X-H torsion
[ 7974 7965 7964 7962 ] final -141.61 input  175.53 | X-H torsion
[ 8008 7997 7996 7995 ] final  -62.36 input   59.86 | X-H torsion
[ 10167 10162 10161 10158 ] final    9.93 input  -65.29 | X-H torsion
[ 10718 10713 10712 10709 ] final  -78.13 input   66.30 | X-H torsion
[ 10763 10752 10751 10750 ] final  -47.18 input  -60.55 | X-H torsion
[ 11005 11000 10999 10996 ] final  -49.29 input  -57.11 | X-H torsion

> <Gold.Protein.ActiveResidues>
 VAL166  LYS551  ARG553  GLY616  TRP617  ASP618  TYR619  PRO620  LYS621  CYS622 
 ASP623  PHE694  ASN695  SER759  ASP760  ASP761  ALA762  ILE779  LEU786  VAL792 
 PHE793  MET794  SER795  GLU796  ALA797  LYS798  CYS799  TRP800  GLU811  SER814 

> <Gold.Protein.RotatedAtoms>
  150.6898  134.2211  159.4396 H   0  0  0  0  0  0  0  0  0  0  0  0  # atno 6907 bound_to 6896
  152.0167  134.9843  160.0579 H   0  0  0  0  0  0  0  0  0  0  0  0  # atno 6908 bound_to 6896
  152.1436  133.4444  159.4816 H   0  0  0  0  0  0  0  0  0  0  0  0  # atno 6909 bound_to 6896
  144.8506  140.6059  143.5392 H   0  0  0  0  0  0  0  0  0  0  0  0  # atno 7974 bound_to 7965
  154.4496  140.0998  156.6575 H   0  0  0  0  0  0  0  0  0  0  0  0  # atno 8008 bound_to 7997
  155.5329  140.3482  155.4411 H   0  0  0  0  0  0  0  0  0  0  0  0  # atno 8009 bound_to 7997
  156.0651  140.1336  156.9884 H   0  0  0  0  0  0  0  0  0  0  0  0  # atno 8010 bound_to 7997
  140.6225  143.8173  150.7193 H   0  0  0  0  0  0  0  0  0  0  0  0  # atno 10167 bound_to 10162
  156.0126  130.4509  150.3449 H   0  0  0  0  0  0  0  0  0  0  0  0  # atno 10718 bound_to 10713
  154.0572  135.6623  153.4807 H   0  0  0  0  0  0  0  0  0  0  0  0  # atno 10763 bound_to 10752
  153.0441  135.5126  154.7694 H   0  0  0  0  0  0  0  0  0  0  0  0  # atno 10764 bound_to 10752
  154.6719  135.3031  154.9697 H   0  0  0  0  0  0  0  0  0  0  0  0  # atno 10765 bound_to 10752
  141.0750  133.6668  156.3564 H   0  0  0  0  0  0  0  0  0  0  0  0  # atno 11005 bound_to 11000
  145.4507  139.1524  143.3920 LP  0  0  0  0  0  0  0  0  0  0  0  0  # atno 17320 bound_to 7965
  146.2782  140.4633  142.8787 LP  0  0  0  0  0  0  0  0  0  0  0  0  # atno 17321 bound_to 7965
  140.1766  143.4150  152.1963 LP  0  0  0  0  0  0  0  0  0  0  0  0  # atno 17342 bound_to 10162
  139.5451  144.7291  151.4609 LP  0  0  0  0  0  0  0  0  0  0  0  0  # atno 17343 bound_to 10162
  157.1543  131.0329  151.2870 LP  0  0  0  0  0  0  0  0  0  0  0  0  # atno 17370 bound_to 10713
  157.4365  130.7520  149.7033 LP  0  0  0  0  0  0  0  0  0  0  0  0  # atno 17371 bound_to 10713
  140.5592  134.5951  157.5429 LP  0  0  0  0  0  0  0  0  0  0  0  0  # atno 17394 bound_to 11000
  139.9563  134.7530  156.0335 LP  0  0  0  0  0  0  0  0  0  0  0  0  # atno 17395 bound_to 11000

$$$$
