AV-unprocessed.smi:467|AV-procd|sdf|2645|dock3
  -GOLD-   2262023 53D 1   1.00000     0.00000
 Structure written by MMmdl.
 45 47  0  0  0  0  0  0  0  0  2 V2000
  153.2825  142.3693  160.8491 C   0  0  0  0  0  0  0  0  0  0  0  0
  152.3404  142.1523  159.6780 C   0  0  0  0  0  0  0  0  0  0  0  0
  152.0387  140.8319  159.2754 C   0  0  0  0  0  0  0  0  0  0  0  0
  151.1696  140.5863  158.1901 C   0  0  0  0  0  0  0  0  0  0  0  0
  150.7388  139.3933  157.6355 N   0  0  0  0  0  0  0  0  0  0  0  0
  149.9481  139.8223  156.6565 C   0  0  0  0  0  0  0  0  0  0  0  0
  149.8092  141.1546  156.5151 N   0  0  0  0  0  0  0  0  0  0  0  0
  148.9994  141.8457  155.5284 C   0  0  0  0  0  0  0  0  0  0  0  0
  148.5999  140.9359  154.3505 C   0  0  2  0  0  0  0  0  0  0  0  0
  149.5070  141.1877  153.2960 O   0  0  0  0  0  0  0  0  0  0  0  0
  147.1588  141.1828  153.8490 C   0  0  0  0  0  0  0  0  0  0  0  0
  146.5022  139.9490  153.3473 N   0  3  0  0  0  0  0  0  0  0  0  0
  147.2574  139.2736  152.2625 C   0  0  0  0  0  0  0  0  0  0  0  0
  146.4977  138.0289  151.7728 C   0  0  0  0  0  0  0  0  0  0  0  0
  146.2650  137.1491  152.8655 O   0  0  0  0  0  0  0  0  0  0  0  0
  145.4687  137.7548  153.8759 C   0  0  0  0  0  0  0  0  0  0  0  0
  146.1955  138.9897  154.4349 C   0  0  0  0  0  0  0  0  0  0  0  0
  150.6066  141.7071  157.5119 C   0  0  0  0  0  0  0  0  0  0  0  0
  150.8973  143.0255  157.9046 C   0  0  0  0  0  0  0  0  0  0  0  0
  151.7657  143.2530  158.9927 C   0  0  0  0  0  0  0  0  0  0  0  0
  152.0720  144.6805  159.4095 C   0  0  0  0  0  0  0  0  0  0  0  0
  153.7098  141.4280  161.1960 H   0  0  0  0  0  0  0  0  0  0  0  0
  152.7513  142.8252  161.6846 H   0  0  0  0  0  0  0  0  0  0  0  0
  154.1072  143.0232  160.5645 H   0  0  0  0  0  0  0  0  0  0  0  0
  152.4742  139.9935  159.7990 H   0  0  0  0  0  0  0  0  0  0  0  0
  149.4357  139.1281  156.0062 H   0  0  0  0  0  0  0  0  0  0  0  0
  148.1128  142.2468  156.0212 H   0  0  0  0  0  0  0  0  0  0  0  0
  149.5680  142.7039  155.1668 H   0  0  0  0  0  0  0  0  0  0  0  0
  148.7263  139.8996  154.6627 H   0  0  0  0  0  0  0  0  0  0  0  0
  149.3920  140.5304  152.6275 H   0  0  0  0  0  0  0  0  0  0  0  0
  146.5348  141.6070  154.6362 H   0  0  0  0  0  0  0  0  0  0  0  0
  147.1931  141.9322  153.0563 H   0  0  0  0  0  0  0  0  0  0  0  0
  147.4149  139.9510  151.4240 H   0  0  0  0  0  0  0  0  0  0  0  0
  148.2444  138.9846  152.6277 H   0  0  0  0  0  0  0  0  0  0  0  0
  145.5516  138.3081  151.3064 H   0  0  0  0  0  0  0  0  0  0  0  0
  147.0831  137.5050  151.0170 H   0  0  0  0  0  0  0  0  0  0  0  0
  144.4913  138.0258  153.4731 H   0  0  0  0  0  0  0  0  0  0  0  0
  145.2950  137.0294  154.6707 H   0  0  0  0  0  0  0  0  0  0  0  0
  147.1208  138.6877  154.9285 H   0  0  0  0  0  0  0  0  0  0  0  0
  145.5710  139.4709  155.1887 H   0  0  0  0  0  0  0  0  0  0  0  0
  150.4557  143.8555  157.3733 H   0  0  0  0  0  0  0  0  0  0  0  0
  151.4830  145.3971  158.8364 H   0  0  0  0  0  0  0  0  0  0  0  0
  153.1261  144.9060  159.2468 H   0  0  0  0  0  0  0  0  0  0  0  0
  151.8442  144.8302  160.4651 H   0  0  0  0  0  0  0  0  0  0  0  0
  145.6122  140.2309  152.9623 H   0  0  0  0  0  0  0  0  0  0  0  0
  1  2  1  0  0  0  0
  1 22  1  0  0  0  0
  1 23  1  0  0  0  0
  1 24  1  0  0  0  0
  2 20  1  0  0  0  0
  2  3  2  0  0  0  0
  3  4  1  0  0  0  0
  3 25  1  0  0  0  0
  4 18  2  0  0  0  0
  4  5  1  0  0  0  0
  5  6  2  0  0  0  0
  6  7  1  0  0  0  0
  6 26  1  0  0  0  0
  7  8  1  0  0  0  0
  7 18  1  0  0  0  0
  8  9  1  0  0  0  0
  8 27  1  0  0  0  0
  8 28  1  0  0  0  0
  9 10  1  0  0  0  0
  9 11  1  0  0  0  0
  9 29  1  0  0  0  0
 10 30  1  0  0  0  0
 11 12  1  0  0  0  0
 11 31  1  0  0  0  0
 11 32  1  0  0  0  0
 12 17  1  0  0  0  0
 12 13  1  0  0  0  0
 12 45  1  0  0  0  0
 13 14  1  0  0  0  0
 13 33  1  0  0  0  0
 13 34  1  0  0  0  0
 14 15  1  0  0  0  0
 14 35  1  0  0  0  0
 14 36  1  0  0  0  0
 15 16  1  0  0  0  0
 16 17  1  0  0  0  0
 16 37  1  0  0  0  0
 16 38  1  0  0  0  0
 17 39  1  0  0  0  0
 17 40  1  0  0  0  0
 18 19  1  0  0  0  0
 19 20  2  0  0  0  0
 19 41  1  0  0  0  0
 20 21  1  0  0  0  0
 21 42  1  0  0  0  0
 21 43  1  0  0  0  0
 21 44  1  0  0  0  0
M  CHG  1  12   1
M  END
> <s_m_source_file>
AV-unprocessed.smi

> <i_m_source_file_index>
467

> <i_lp_mmshare_version>
43012

> <i_f3d_flags>
0

> <s_epik_input>
W0NIM11jKFtjSF0xKWMoW0NIM10pW2NIXWMoYzEyKW4oW2NIXW4yKVtDSDJdW0NASF0oW09IXSlbQ0gyXU4zW0NIMl1bQ0gyXU9bQ0gyXVtDSDJdMw==

> <s_epik_cmdline>
J2VwaWtfcHl0aG9uJywgJy1waCcsICc3LjAnLCAnLXRuJywgJzgnLCAnLW1hJywgJzIwMCcsICctbWV0YWxfYmluZGluZycsICctaW1hZScsICc8aW5maWxlLm1hZT4nLCAnLW9tYWUnLCAnPG91dGZpbGUubWFlPic=

> <r_epik_Ionization_Penalty>
0.695168

> <r_epik_Ionization_Penalty_Charging>
0.608065

> <r_epik_Ionization_Penalty_Neutral>
0.0871028

> <r_epik_State_Penalty>
0.731876

> <r_epik_Charging_Adjusted_Penalty>
1.33994

> <i_epik_Tot_Q>
1

> <i_epik_Tot_abs_Q>
1

> <r_epik_Metal_State_Penalty>
0.652189

> <b_epik_Metal_Only>
0

> <s_lp_Force_Field>
OPLS_2005

> <r_lp_Energy>
23.0141

> <b_lp_Chiralities_Consistent>
1

> <s_lp_Variant>
AV-unprocessed.smi:467-3

> <Gold.Version>
5.8.1

> <Gold.Id.Protein>
6NUR|6NUR_protein|mol2

> <Gold.PLP.Fitness>
51.1749

> <Gold.PLP.PLP>
-41.9156

> <Gold.PLP.part.hbond>
-3.3004

> <Gold.PLP.part.metal>
0.0000

> <Gold.PLP.part.buried>
-0.3861

> <Gold.PLP.part.nonpolar>
-38.2642

> <Gold.PLP.part.repulsive>
0.1788

> <Gold.PLP.ligand.clash>
0.0000

> <Gold.PLP.ligand.torsion>
1.2164

> <Gold.PLP.Chemscore.Hbond>
3.8778

> <Gold.PLP.Chemscore.CHOScore>
0.0000

> <Gold.PLP.Chemscore.Metal>
0.0000

> <Gold.Chemscore.Hbonds>
donor molecule, donor type, donor heavy atom, donor atom, acceptor molecule, acceptor atom, score
      L1  H    10    30       P1  7957  0.99
      L1  H    12    45       P1 10175  2.00
      P1  H  7989  7998       L1    10  0.07
      P1  H  8011  8017       L1    10  0.85

> <Gold.PLP.Chemscore.Internal.Correction>
0.0589

> <Gold.Rescore>
     Score         DG    S(hbond)    S(metal)    S(lipo)     H(rot)  DE(clash)    DE(int)     intcor
     19.98     -21.06       2.30        0.00     113.47       2.10       0.08       0.99       ----

> <Gold.Chemscore.Fitness>
19.9786

> <Gold.Chemscore.DG>
-21.0554

> <Gold.Chemscore.ZeroCoef>
-5.4800

> <Gold.Chemscore.Hbond>
2.2990

> <Gold.Chemscore.Metal>
0.0000

> <Gold.Chemscore.Lipo>
113.4680

> <Gold.Chemscore.Internal_Hbond>
0.0000

> <Gold.Chemscore.DEClash>
0.0820

> <Gold.Chemscore.DEInternal>
0.9948

> <Gold.Chemscore.Rot>
2.1011

> <Gold.Chemscore.Internal.Correction>
   9.000000E+99

> <Gold.Chemscore.Hbonds>
donor molecule, donor type, donor heavy atom, donor atom, acceptor molecule, acceptor atom, score
      L1  H    10    30       P1  7957  0.90
      L1  H    12    45       P1 10175  0.93
      P1  H  7989  7998       L1    10  0.01
      P1  H  8011  8017       L1    10  0.14

> <Gold.Chemscore.Hbond.Weighted>
-7.6786

> <Gold.Chemscore.Metal.Weighted>
-0.0000

> <Gold.Chemscore.Lipo.Weighted>
-13.2758

> <Gold.Chemscore.Internal_Hbond.Weighted>
0.0000

> <Gold.Chemscore.DEClash.Weighted>
0.0820

> <Gold.Chemscore.DEInternal.Weighted>
0.9948

> <Gold.Chemscore.Rot.Weighted>
5.3789

> <Gold.Chemscore.Internal.Correction.Weighted>
   9.000000E+99

> <Gold.Protein.RotatedTorsions>
[ 6907 6896 6895 6894 ] final    4.33 input  -60.11 | X-H torsion
[ 7974 7965 7964 7962 ] final -164.03 input  175.53 | X-H torsion
[ 8008 7997 7996 7995 ] final  -21.44 input   59.86 | X-H torsion
[ 10167 10162 10161 10158 ] final   40.38 input  -65.29 | X-H torsion
[ 10718 10713 10712 10709 ] final   21.52 input   66.30 | X-H torsion
[ 10763 10752 10751 10750 ] final   19.95 input  -60.55 | X-H torsion
[ 11005 11000 10999 10996 ] final  116.10 input  -57.11 | X-H torsion

> <Gold.Protein.ActiveResidues>
 VAL166  LYS551  ARG553  GLY616  TRP617  ASP618  TYR619  PRO620  LYS621  CYS622 
 ASP623  PHE694  ASN695  SER759  ASP760  ASP761  ALA762  ILE779  LEU786  VAL792 
 PHE793  MET794  SER795  GLU796  ALA797  LYS798  CYS799  TRP800  GLU811  SER814 

> <Gold.Protein.RotatedAtoms>
  151.6396  135.1014  160.0138 H   0  0  0  0  0  0  0  0  0  0  0  0  # atno 6907 bound_to 6896
  152.4061  133.6887  159.6366 H   0  0  0  0  0  0  0  0  0  0  0  0  # atno 6908 bound_to 6896
  150.7956  133.8623  159.3276 H   0  0  0  0  0  0  0  0  0  0  0  0  # atno 6909 bound_to 6896
  144.7308  140.3020  143.6203 H   0  0  0  0  0  0  0  0  0  0  0  0  # atno 7974 bound_to 7965
  154.4705  140.2034  156.0007 H   0  0  0  0  0  0  0  0  0  0  0  0  # atno 8008 bound_to 7997
  156.1003  140.3245  155.7903 H   0  0  0  0  0  0  0  0  0  0  0  0  # atno 8009 bound_to 7997
  155.4809  140.0538  157.2958 H   0  0  0  0  0  0  0  0  0  0  0  0  # atno 8010 bound_to 7997
  140.3747  144.2058  150.6132 H   0  0  0  0  0  0  0  0  0  0  0  0  # atno 10167 bound_to 10162
  157.1396  130.6626  149.5977 H   0  0  0  0  0  0  0  0  0  0  0  0  # atno 10718 bound_to 10713
  153.1118  135.6698  153.9487 H   0  0  0  0  0  0  0  0  0  0  0  0  # atno 10763 bound_to 10752
  153.9028  135.3034  155.3450 H   0  0  0  0  0  0  0  0  0  0  0  0  # atno 10764 bound_to 10752
  154.7537  135.5022  153.9413 H   0  0  0  0  0  0  0  0  0  0  0  0  # atno 10765 bound_to 10752
  139.9030  134.9593  156.7147 H   0  0  0  0  0  0  0  0  0  0  0  0  # atno 11005 bound_to 11000
  145.7751  139.1871  143.2190 LP  0  0  0  0  0  0  0  0  0  0  0  0  # atno 17320 bound_to 7965
  146.0879  140.7689  142.9609 LP  0  0  0  0  0  0  0  0  0  0  0  0  # atno 17321 bound_to 7965
  140.4998  143.2321  151.8696 LP  0  0  0  0  0  0  0  0  0  0  0  0  # atno 17342 bound_to 10162
  139.4800  144.5072  151.8981 LP  0  0  0  0  0  0  0  0  0  0  0  0  # atno 17343 bound_to 10162
  155.9791  130.4782  150.6697 LP  0  0  0  0  0  0  0  0  0  0  0  0  # atno 17370 bound_to 10713
  157.4319  131.0850  151.1030 LP  0  0  0  0  0  0  0  0  0  0  0  0  # atno 17371 bound_to 10713
  140.7048  133.9275  155.8047 LP  0  0  0  0  0  0  0  0  0  0  0  0  # atno 17394 bound_to 11000
  141.0345  134.0709  157.3976 LP  0  0  0  0  0  0  0  0  0  0  0  0  # atno 17395 bound_to 11000

$$$$
