AV-unprocessed.smi:2220|AV-procd|sdf|8979|dock6
  -GOLD-   2272012193D 1   1.00000     0.00000
 Structure written by MMmdl.
 38 39  0  0  0  0  0  0  0  0  1 V2000
  147.3625  142.4281  154.1355 C   0  0  0  0  0  0  0  0  0  0  0  0
  148.3587  141.3861  154.2876 N   0  0  0  0  0  0  0  0  0  0  0  0
  149.5434  141.4942  154.9046 C   0  0  0  0  0  0  0  0  0  0  0  0
  150.2696  140.3845  154.9011 N   0  0  0  0  0  0  0  0  0  0  0  0
  149.4746  139.4711  154.2145 C   0  0  0  0  0  0  0  0  0  0  0  0
  148.2957  140.0718  153.8303 C   0  0  0  0  0  0  0  0  0  0  0  0
  147.1338  139.4998  153.0827 C   0  0  0  0  0  0  0  0  0  0  0  0
  146.5356  138.2562  153.7602 C   0  0  0  0  0  0  0  0  0  0  0  0
  146.5278  137.1083  152.8614 N   0  0  0  0  0  0  0  0  0  0  0  0
  145.4273  136.5438  152.3403 C   0  0  0  0  0  0  0  0  0  0  0  0
  144.2878  136.9498  152.5707 O   0  0  0  0  0  0  0  0  0  0  0  0
  145.6473  135.3348  151.4210 C   0  0  0  0  0  0  0  0  0  0  0  0
  144.3022  134.7790  150.9084 C   0  0  0  0  0  0  0  0  0  0  0  0
  144.5175  133.5701  149.9836 C   0  0  0  0  0  0  0  0  0  0  0  0
  145.3398  132.4711  150.6779 C   0  0  0  0  0  0  0  0  0  0  0  0
  144.6288  131.9540  151.6812 F   0  0  0  0  0  0  0  0  0  0  0  0
  145.5936  131.4974  149.8037 F   0  0  0  0  0  0  0  0  0  0  0  0
  146.6705  133.0167  151.2240 C   0  0  0  0  0  0  0  0  0  0  0  0
  146.4457  134.2288  152.1425 C   0  0  0  0  0  0  0  0  0  0  0  0
  147.7459  143.3753  154.5164 H   0  0  0  0  0  0  0  0  0  0  0  0
  146.4633  142.1627  154.6910 H   0  0  0  0  0  0  0  0  0  0  0  0
  147.1115  142.5499  153.0816 H   0  0  0  0  0  0  0  0  0  0  0  0
  149.8831  142.4086  155.3687 H   0  0  0  0  0  0  0  0  0  0  0  0
  149.8079  138.4568  154.0513 H   0  0  0  0  0  0  0  0  0  0  0  0
  146.3626  140.2614  152.9647 H   0  0  0  0  0  0  0  0  0  0  0  0
  147.4559  139.2457  152.0722 H   0  0  0  0  0  0  0  0  0  0  0  0
  147.0853  138.0165  154.6722 H   0  0  0  0  0  0  0  0  0  0  0  0
  145.5070  138.4521  154.0622 H   0  0  0  0  0  0  0  0  0  0  0  0
  147.4245  136.7126  152.6189 H   0  0  0  0  0  0  0  0  0  0  0  0
  146.2291  135.6636  150.5579 H   0  0  0  0  0  0  0  0  0  0  0  0
  143.6722  134.4813  151.7480 H   0  0  0  0  0  0  0  0  0  0  0  0
  143.7537  135.5545  150.3719 H   0  0  0  0  0  0  0  0  0  0  0  0
  143.5554  133.1716  149.6603 H   0  0  0  0  0  0  0  0  0  0  0  0
  145.0351  133.8967  149.0805 H   0  0  0  0  0  0  0  0  0  0  0  0
  147.2041  132.2336  151.7636 H   0  0  0  0  0  0  0  0  0  0  0  0
  147.3127  133.3105  150.3926 H   0  0  0  0  0  0  0  0  0  0  0  0
  147.4092  134.6159  152.4767 H   0  0  0  0  0  0  0  0  0  0  0  0
  145.9160  133.9051  153.0398 H   0  0  0  0  0  0  0  0  0  0  0  0
  1  2  1  0  0  0  0
  1 20  1  0  0  0  0
  1 21  1  0  0  0  0
  1 22  1  0  0  0  0
  2  6  1  0  0  0  0
  2  3  1  0  0  0  0
  3  4  2  0  0  0  0
  3 23  1  0  0  0  0
  4  5  1  0  0  0  0
  5  6  2  0  0  0  0
  5 24  1  0  0  0  0
  6  7  1  0  0  0  0
  7  8  1  0  0  0  0
  7 25  1  0  0  0  0
  7 26  1  0  0  0  0
  8  9  1  0  0  0  0
  8 27  1  0  0  0  0
  8 28  1  0  0  0  0
  9 10  1  0  0  0  0
  9 29  1  0  0  0  0
 10 11  2  0  0  0  0
 10 12  1  0  0  0  0
 12 19  1  0  0  0  0
 12 13  1  0  0  0  0
 12 30  1  0  0  0  0
 13 14  1  0  0  0  0
 13 31  1  0  0  0  0
 13 32  1  0  0  0  0
 14 15  1  0  0  0  0
 14 33  1  0  0  0  0
 14 34  1  0  0  0  0
 15 16  1  0  0  0  0
 15 17  1  0  0  0  0
 15 18  1  0  0  0  0
 18 19  1  0  0  0  0
 18 35  1  0  0  0  0
 18 36  1  0  0  0  0
 19 37  1  0  0  0  0
 19 38  1  0  0  0  0
M  END
> <s_m_source_file>
AV-unprocessed.smi

> <i_m_source_file_index>
2220

> <i_lp_mmshare_version>
43012

> <i_f3d_flags>
0

> <s_epik_input>
W0NIM11uMVtjSF1uW2NIXWMxW0NIMl1bQ0gyXVtOSF1DKD1PKVtDSF0oW0NIMl1bQ0gyXTIpW0NIMl1bQ0gyXUMyKEYpRg==

> <s_epik_cmdline>
J2VwaWtfcHl0aG9uJywgJy1waCcsICc3LjAnLCAnLXRuJywgJzgnLCAnLW1hJywgJzIwMCcsICctbWV0YWxfYmluZGluZycsICctaW1hZScsICc8aW5maWxlLm1hZT4nLCAnLW9tYWUnLCAnPG91dGZpbGUubWFlPic=

> <r_lp_tautomer_probability>
1

> <r_epik_Ionization_Penalty>
0.872556

> <r_epik_Ionization_Penalty_Charging>
0.872556

> <r_epik_Ionization_Penalty_Neutral>
1.72153e-08

> <r_epik_State_Penalty>
0.910028

> <r_epik_Charging_Adjusted_Penalty>
1.78258

> <i_epik_Tot_Q>
0

> <i_epik_Tot_abs_Q>
0

> <r_epik_Metal_State_Penalty>
0.360885

> <b_epik_Metal_Only>
0

> <s_lp_Force_Field>
OPLS_2005

> <r_lp_Energy>
9.62652

> <b_lp_Chiralities_Consistent>
1

> <s_lp_Variant>
AV-unprocessed.smi:2220-2

> <Gold.Version>
5.8.1

> <Gold.Id.Protein>
6NUR|6NUR_protein|mol2

> <Gold.PLP.Fitness>
45.3036

> <Gold.PLP.PLP>
-37.1481

> <Gold.PLP.part.hbond>
-2.0000

> <Gold.PLP.part.metal>
0.0000

> <Gold.PLP.part.buried>
-0.5963

> <Gold.PLP.part.nonpolar>
-35.0135

> <Gold.PLP.part.repulsive>
0.2817

> <Gold.PLP.ligand.clash>
0.0000

> <Gold.PLP.ligand.torsion>
0.4341

> <Gold.PLP.Chemscore.Hbond>
2.0000

> <Gold.PLP.Chemscore.CHOScore>
1.0000

> <Gold.PLP.Chemscore.Metal>
0.0000

> <Gold.Chemscore.Hbonds>
donor molecule, donor type, donor heavy atom, donor atom, acceptor molecule, acceptor atom, score
      L1  H     9    29       P1  7948  1.00
      P1  H  7989  7998       L1     4  0.95
      L1  C     3    23       P1  8028  1.00

> <Gold.PLP.Chemscore.Internal.Correction>
0.0238

> <Gold.Rescore>
     Score         DG    S(hbond)    S(metal)    S(lipo)     H(rot)  DE(clash)    DE(int)     intcor
     11.77     -12.53       1.06        0.00      69.59       1.80       0.34       0.41       ----

> <Gold.Chemscore.Fitness>
11.7744

> <Gold.Chemscore.DG>
-12.5321

> <Gold.Chemscore.ZeroCoef>
-5.4800

> <Gold.Chemscore.Hbond>
1.0556

> <Gold.Chemscore.Metal>
0.0000

> <Gold.Chemscore.Lipo>
69.5888

> <Gold.Chemscore.Internal_Hbond>
0.0000

> <Gold.Chemscore.DEClash>
0.3438

> <Gold.Chemscore.DEInternal>
0.4139

> <Gold.Chemscore.Rot>
1.8029

> <Gold.Chemscore.Internal.Correction>
   9.000000E+99

> <Gold.Chemscore.Hbonds>
donor molecule, donor type, donor heavy atom, donor atom, acceptor molecule, acceptor atom, score
      L1  H     9    29       P1  7948  1.00
      P1  H  7989  7998       L1     4  0.07

> <Gold.Chemscore.Hbond.Weighted>
-3.5258

> <Gold.Chemscore.Metal.Weighted>
-0.0000

> <Gold.Chemscore.Lipo.Weighted>
-8.1419

> <Gold.Chemscore.Internal_Hbond.Weighted>
0.0000

> <Gold.Chemscore.DEClash.Weighted>
0.3438

> <Gold.Chemscore.DEInternal.Weighted>
0.4139

> <Gold.Chemscore.Rot.Weighted>
4.6155

> <Gold.Chemscore.Internal.Correction.Weighted>
   9.000000E+99

> <Gold.Protein.RotatedTorsions>
[ 6907 6896 6895 6894 ] final   79.46 input  -60.11 | X-H torsion
[ 7974 7965 7964 7962 ] final  163.42 input  175.53 | X-H torsion
[ 8008 7997 7996 7995 ] final -126.41 input   59.86 | X-H torsion
[ 10167 10162 10161 10158 ] final  122.41 input  -65.29 | X-H torsion
[ 10718 10713 10712 10709 ] final   57.04 input   66.30 | X-H torsion
[ 10763 10752 10751 10750 ] final -125.03 input  -60.55 | X-H torsion
[ 11005 11000 10999 10996 ] final   39.21 input  -57.11 | X-H torsion

> <Gold.Protein.ActiveResidues>
 VAL166  LYS551  ARG553  GLY616  TRP617  ASP618  TYR619  PRO620  LYS621  CYS622 
 ASP623  PHE694  ASN695  SER759  ASP760  ASP761  ALA762  ILE779  LEU786  VAL792 
 PHE793  MET794  SER795  GLU796  ALA797  LYS798  CYS799  TRP800  GLU811  SER814 

> <Gold.Protein.RotatedAtoms>
  152.5199  134.3507  159.9249 H   0  0  0  0  0  0  0  0  0  0  0  0  # atno 6907 bound_to 6896
  151.3458  133.3938  159.2683 H   0  0  0  0  0  0  0  0  0  0  0  0  # atno 6908 bound_to 6896
  150.9766  134.9148  159.7878 H   0  0  0  0  0  0  0  0  0  0  0  0  # atno 6909 bound_to 6896
  144.7590  139.8181  143.6339 H   0  0  0  0  0  0  0  0  0  0  0  0  # atno 7974 bound_to 7965
  155.2292  140.0424  157.2960 H   0  0  0  0  0  0  0  0  0  0  0  0  # atno 8008 bound_to 7997
  154.5899  140.2424  155.7905 H   0  0  0  0  0  0  0  0  0  0  0  0  # atno 8009 bound_to 7997
  156.2252  140.2957  156.0058 H   0  0  0  0  0  0  0  0  0  0  0  0  # atno 8010 bound_to 7997
  139.5860  144.7006  151.3407 H   0  0  0  0  0  0  0  0  0  0  0  0  # atno 10167 bound_to 10162
  157.5481  130.8746  149.8922 H   0  0  0  0  0  0  0  0  0  0  0  0  # atno 10718 bound_to 10713
  154.8731  135.4043  154.3202 H   0  0  0  0  0  0  0  0  0  0  0  0  # atno 10763 bound_to 10752
  153.4032  135.7018  153.6417 H   0  0  0  0  0  0  0  0  0  0  0  0  # atno 10764 bound_to 10752
  153.5151  135.3699  155.2576 H   0  0  0  0  0  0  0  0  0  0  0  0  # atno 10765 bound_to 10752
  140.2050  134.3824  155.8077 H   0  0  0  0  0  0  0  0  0  0  0  0  # atno 11005 bound_to 11000
  146.1633  139.4756  142.9974 LP  0  0  0  0  0  0  0  0  0  0  0  0  # atno 17320 bound_to 7965
  145.6681  141.0223  143.1672 LP  0  0  0  0  0  0  0  0  0  0  0  0  # atno 17321 bound_to 7965
  140.7132  143.7336  150.7605 LP  0  0  0  0  0  0  0  0  0  0  0  0  # atno 17342 bound_to 10162
  140.0880  143.4904  152.2494 LP  0  0  0  0  0  0  0  0  0  0  0  0  # atno 17343 bound_to 10162
  156.0553  130.3709  150.1105 LP  0  0  0  0  0  0  0  0  0  0  0  0  # atno 17370 bound_to 10713
  156.9280  130.9704  151.3537 LP  0  0  0  0  0  0  0  0  0  0  0  0  # atno 17371 bound_to 10713
  141.2227  133.7113  156.8322 LP  0  0  0  0  0  0  0  0  0  0  0  0  # atno 17394 bound_to 11000
  140.2012  134.8895  157.3171 LP  0  0  0  0  0  0  0  0  0  0  0  0  # atno 17395 bound_to 11000

$$$$
