#       Name:                AV-unprocessed.smi:229
#       Creating user name   scv26
#       Creation time:       Thu Mar 26 20:27:54 2020


#       File generated by GOLD software.
#

@<TRIPOS>MOLECULE
AV-unprocessed.smi:229
    70    74     1
SMALL
NO_CHARGES


@<TRIPOS>ATOM
      1 ****        -5.9681  -1.0989   3.2904 C.3            1 S1                 0.0000
      2 ****        -4.4469  -1.0093   3.1147 C.3            1 S1                 0.0000
      3 ****        -4.0355  -0.2180   1.8644 C.3            1 S1                 0.0000
      4 ****        -2.5120  -0.0291   1.7812 C.3            1 S1                 0.0000
      5 ****        -2.1708   0.6365   0.5326 N.3            1 S1                 0.0000
      6 ****        -0.8937   1.0594   0.4270 C.ar           1 S1                 0.0000
      7 ****        -0.7052   2.3576   0.0859 N.ar           1 S1                 0.0000
      8 ****         0.5341   2.8421  -0.0398 C.ar           1 S1                 0.0000
      9 ****         1.6985   2.2100   0.1222 N.ar           1 S1                 0.0000
     10 ****         1.5104   0.9000   0.4534 C.ar           1 S1                 0.0000
     11 ****         0.2580   0.2454   0.6244 C.ar           1 S1                 0.0000
     12 ****         0.4634  -1.0906   0.9494 N.2            1 S1                 0.0000
     13 ****         1.7622  -1.2164   0.9760 C.2            1 S1                 0.0000
     14 ****         2.4680  -0.0709   0.6882 N.pl3          1 S1                 0.0000
     15 ****         3.9129   0.0683   0.6402 C.3            1 S1                 0.0000
     16 ****         4.5084  -0.4497  -0.6837 C.3            1 S1                 0.0000
     17 ****         3.9414   0.2269  -1.7906 O.3            1 S1                 0.0000
     18 ****         6.0480  -0.3592  -0.7290 C.3            1 S1                 0.0000
     19 ****         6.7007  -0.7851  -2.0555 C.3            1 S1                 0.0000
     20 ****         7.3870   0.4790  -2.5369 C.3            1 S1                 0.0000
     21 ****         7.6557   1.2202  -1.2342 C.3            1 S1                 0.0000
     22 ****         6.4828   0.9746  -0.4752 O.3            1 S1                 0.0000
     23 ****        -2.6339  -0.0965  -0.6359 C.3            1 S1                 0.0000
     24 ****        -4.1562  -0.3423  -0.5534 C.3            1 S1                 0.0000
     25 ****        -5.0092   0.8875  -0.8482 C.3            1 S1                 0.0000
     26 ****        -6.3259   0.2628  -1.2833 C.3            1 S1                 0.0000
     27 ****        -5.9307  -0.8521  -2.0677 O.3            1 S1                 0.0000
     28 ****        -4.6520  -1.3139  -1.6363 C.3            1 S1                 0.0000
     29 ****        -4.4807  -0.9358   0.7109 O.3            1 S1                 0.0000
     30 ****        -6.2214  -1.6498   4.1964 H              1 S1                 0.0000
     31 ****        -6.4350  -1.6117   2.4489 H              1 S1                 0.0000
     32 ****        -6.4150  -0.1075   3.3685 H              1 S1                 0.0000
     33 ****        -4.0203  -0.5339   3.9987 H              1 S1                 0.0000
     34 ****        -4.0240  -2.0136   3.0716 H              1 S1                 0.0000
     35 ****        -4.5141   0.7598   1.9082 H              1 S1                 0.0000
     36 ****        -2.1566   0.5619   2.6265 H              1 S1                 0.0000
     37 ****        -2.0210  -1.0008   1.8338 H              1 S1                 0.0000
     38 ****         0.6028   3.8858  -0.3089 H              1 S1                 0.0000
     39 ****         2.2453  -2.1557   1.2032 H              1 S1                 0.0000
     40 ****         4.1670   1.1179   0.7926 H              1 S1                 0.0000
     41 ****         4.3365  -0.4790   1.4830 H              1 S1                 0.0000
     42 ****         4.2352  -1.4999  -0.7936 H              1 S1                 0.0000
     43 ****         4.3202  -0.1227  -2.5824 H              1 S1                 0.0000
     44 ****         6.4555  -0.9830   0.0683 H              1 S1                 0.0000
     45 ****         7.4418  -1.5632  -1.8683 H              1 S1                 0.0000
     46 ****         5.9948  -1.1762  -2.7886 H              1 S1                 0.0000
     47 ****         8.2918   0.2831  -3.1127 H              1 S1                 0.0000
     48 ****         6.7043   1.0594  -3.1588 H              1 S1                 0.0000
     49 ****         8.5202   0.8002  -0.7176 H              1 S1                 0.0000
     50 ****         7.8236   2.2872  -1.3815 H              1 S1                 0.0000
     51 ****        -2.3833   0.4466  -1.5484 H              1 S1                 0.0000
     52 ****        -2.1083  -1.0517  -0.6813 H              1 S1                 0.0000
     53 ****        -5.1221   1.5810  -0.0169 H              1 S1                 0.0000
     54 ****        -4.5835   1.4473  -1.6822 H              1 S1                 0.0000
     55 ****        -6.8909  -0.0873  -0.4182 H              1 S1                 0.0000
     56 ****        -6.9543   0.9502  -1.8493 H              1 S1                 0.0000
     57 ****        -3.9913  -1.3067  -2.5041 H              1 S1                 0.0000
     58 ****        -4.7075  -2.3418  -1.2758 H              1 S1                 0.0000
     59 ****        -2.6900   1.4906   0.5635 LP             1 S1                 0.0000
     60 ****        -1.4932   2.9528  -0.0717 LP             1 S1                 0.0000
     61 ****         2.5942   2.6415   0.0145 LP             1 S1                 0.0000
     62 ****        -0.2259  -1.7939   1.1230 LP             1 S1                 0.0000
     63 ****         4.1393   1.2050  -1.7255 LP             1 S1                 0.0000
     64 ****         2.9513   0.0871  -1.8002 LP             1 S1                 0.0000
     65 ****         6.6824   1.0844   0.4985 LP             1 S1                 0.0000
     66 ****         5.7668   1.6192  -0.7434 LP             1 S1                 0.0000
     67 ****        -5.8794  -0.5809  -3.0289 LP             1 S1                 0.0000
     68 ****        -6.6017  -1.5862  -1.9639 LP             1 S1                 0.0000
     69 ****        -5.4758  -1.0183   0.7653 LP             1 S1                 0.0000
     70 ****        -4.0687  -1.8466   0.7377 LP             1 S1                 0.0000
@<TRIPOS>BOND
    1    1    2 1     
    2    1   30 1     
    3    1   31 1     
    4    1   32 1     
    5    2    3 1     
    6    2   33 1     
    7    2   34 1     
    8    3   29 1     
    9    3    4 1     
   10    3   35 1     
   11    4    5 1     
   12    4   36 1     
   13    4   37 1     
   14    5    6 1     
   15    5   23 1     
   16    6   11 ar    
   17    6    7 ar    
   18    7    8 ar    
   19    8    9 ar    
   20    8   38 1     
   21    9   10 ar    
   22   10   14 1     
   23   10   11 ar    
   24   11   12 1     
   25   12   13 2     
   26   13   14 1     
   27   13   39 1     
   28   14   15 1     
   29   15   16 1     
   30   15   40 1     
   31   15   41 1     
   32   16   17 1     
   33   16   18 1     
   34   16   42 1     
   35   17   43 1     
   36   18   22 1     
   37   18   19 1     
   38   18   44 1     
   39   19   20 1     
   40   19   45 1     
   41   19   46 1     
   42   20   21 1     
   43   20   47 1     
   44   20   48 1     
   45   21   22 1     
   46   21   49 1     
   47   21   50 1     
   48   23   24 1     
   49   23   51 1     
   50   23   52 1     
   51   24   28 1     
   52   24   25 1     
   53   24   29 1     
   54   25   26 1     
   55   25   53 1     
   56   25   54 1     
   57   26   27 1     
   58   26   55 1     
   59   26   56 1     
   60   27   28 1     
   61   28   57 1     
   62   28   58 1     
   63    5   59 1     
   64    7   60 1     
   65    9   61 1     
   66   12   62 1     
   67   17   63 1     
   68   17   64 1     
   69   22   65 1     
   70   22   66 1     
   71   27   67 1     
   72   27   68 1     
   73   29   69 1     
   74   29   70 1     
@<TRIPOS>SUBSTRUCTURE
      1 S1             1
@<TRIPOS>SET
LONE_PAIRS      STATIC     ATOMS    <user>   **** ""
12 59 60 61 62 63 64 65 66 67 68 69 70
DONOR_HYDROGENS      STATIC     ATOMS    <user>   **** ""
1 43
ATOM$BLUE        STATIC     ATOMS    COLORGROUP SYSTEM
12 59 60 61 62 63 64 65 66 67 68 69 70
ATOM$RED        STATIC     ATOMS    COLORGROUP SYSTEM
1 43
