AV-unprocessed.smi:1107|AV-procd|sdf|4784|dock8
  -GOLD-   22720 3323D 1   1.00000     0.00000
 Structure written by MMmdl.
 49 50  0  0  0  0  0  0  0  0  2 V2000
  150.5983  142.9672  158.1342 C   0  0  0  0  0  0  0  0  0  0  0  0
  150.7483  141.8114  157.1698 C   0  0  0  0  0  0  0  0  0  0  0  0
  149.7779  141.7815  156.1825 N   0  0  0  0  0  0  0  0  0  0  0  0
  149.8227  140.7509  155.2604 C   0  0  0  0  0  0  0  0  0  0  0  0
  148.7113  140.7858  154.2266 C   0  0  0  0  0  0  0  0  0  0  0  0
  150.7904  139.8005  155.3160 C   0  0  0  0  0  0  0  0  0  0  0  0
  150.8650  138.6291  154.3388 C   0  0  0  0  0  0  0  0  0  0  0  0
  150.6847  137.2601  154.9913 C   0  0  0  0  0  0  0  0  0  0  0  0
  151.6395  136.7000  155.5276 O   0  0  0  0  0  0  0  0  0  0  0  0
  149.4620  136.7162  154.8870 N   0  0  0  0  0  0  0  0  0  0  0  0
  149.1010  135.3442  155.2413 C   0  0  1  0  0  0  0  0  0  0  0  0
  149.5363  135.0484  156.6828 C   0  0  0  0  0  0  0  0  0  0  0  0
  147.5855  135.1163  155.0369 C   0  0  0  0  0  0  0  0  0  0  0  0
  147.2301  134.6564  153.6674 N   0  3  0  0  0  0  0  0  0  0  0  0
  145.8708  135.0958  153.2584 C   0  0  0  0  0  0  0  0  0  0  0  0
  145.5926  134.7491  151.7859 C   0  0  0  0  0  0  0  0  0  0  0  0
  145.7968  133.2524  151.5178 C   0  0  0  0  0  0  0  0  0  0  0  0
  147.1899  132.8168  151.9897 C   0  0  0  0  0  0  0  0  0  0  0  0
  147.4157  133.1953  153.4624 C   0  0  0  0  0  0  0  0  0  0  0  0
  151.8000  139.8847  156.3981 C   0  0  0  0  0  0  0  0  0  0  0  0
  152.6869  139.0402  156.5171 O   0  0  0  0  0  0  0  0  0  0  0  0
  151.7108  140.9509  157.3066 N   0  0  0  0  0  0  0  0  0  0  0  0
  149.0412  142.4683  156.1044 H   0  0  0  0  0  0  0  0  0  0  0  0
  151.4064  142.9728  158.8667 H   0  0  0  0  0  0  0  0  0  0  0  0
  149.6523  142.8916  158.6716 H   0  0  0  0  0  0  0  0  0  0  0  0
  150.6184  143.9164  157.5978 H   0  0  0  0  0  0  0  0  0  0  0  0
  148.1147  139.8750  154.2755 H   0  0  0  0  0  0  0  0  0  0  0  0
  149.1262  140.8749  153.2225 H   0  0  0  0  0  0  0  0  0  0  0  0
  148.0408  141.6313  154.3859 H   0  0  0  0  0  0  0  0  0  0  0  0
  151.8069  138.6492  153.7888 H   0  0  0  0  0  0  0  0  0  0  0  0
  150.0976  138.7466  153.5737 H   0  0  0  0  0  0  0  0  0  0  0  0
  148.7406  137.2745  154.4529 H   0  0  0  0  0  0  0  0  0  0  0  0
  149.6362  134.6422  154.6002 H   0  0  0  0  0  0  0  0  0  0  0  0
  149.2916  134.0235  156.9629 H   0  0  0  0  0  0  0  0  0  0  0  0
  149.0447  135.7142  157.3930 H   0  0  0  0  0  0  0  0  0  0  0  0
  150.6133  135.1729  156.8006 H   0  0  0  0  0  0  0  0  0  0  0  0
  147.1993  134.4144  155.7776 H   0  0  0  0  0  0  0  0  0  0  0  0
  147.0762  136.0640  155.2193 H   0  0  0  0  0  0  0  0  0  0  0  0
  145.1266  134.6267  153.9040 H   0  0  0  0  0  0  0  0  0  0  0  0
  145.7744  136.1740  153.3931 H   0  0  0  0  0  0  0  0  0  0  0  0
  144.5760  135.0401  151.5196 H   0  0  0  0  0  0  0  0  0  0  0  0
  146.2548  135.3288  151.1443 H   0  0  0  0  0  0  0  0  0  0  0  0
  145.0334  132.6768  152.0427 H   0  0  0  0  0  0  0  0  0  0  0  0
  145.6749  133.0399  150.4551 H   0  0  0  0  0  0  0  0  0  0  0  0
  147.3092  131.7412  151.8579 H   0  0  0  0  0  0  0  0  0  0  0  0
  147.9524  133.2902  151.3706 H   0  0  0  0  0  0  0  0  0  0  0  0
  148.4222  132.8938  153.7493 H   0  0  0  0  0  0  0  0  0  0  0  0
  146.7268  132.6441  154.1047 H   0  0  0  0  0  0  0  0  0  0  0  0
  147.8738  135.1198  153.0420 H   0  0  0  0  0  0  0  0  0  0  0  0
  1 24  1  0  0  0  0
  1 25  1  0  0  0  0
  1 26  1  0  0  0  0
  1  2  1  0  0  0  0
  2  3  1  0  0  0  0
  2 22  2  0  0  0  0
  3  4  1  0  0  0  0
  3 23  1  0  0  0  0
  4  6  2  0  0  0  0
  4  5  1  0  0  0  0
  5 27  1  0  0  0  0
  5 28  1  0  0  0  0
  5 29  1  0  0  0  0
  6 20  1  0  0  0  0
  6  7  1  0  0  0  0
  7  8  1  0  0  0  0
  7 30  1  0  0  0  0
  7 31  1  0  0  0  0
  8  9  2  0  0  0  0
  8 10  1  0  0  0  0
 10 11  1  0  0  0  0
 10 32  1  0  0  0  0
 11 12  1  0  0  0  0
 11 13  1  0  0  0  0
 11 33  1  0  0  0  0
 12 34  1  0  0  0  0
 12 35  1  0  0  0  0
 12 36  1  0  0  0  0
 13 14  1  0  0  0  0
 13 37  1  0  0  0  0
 13 38  1  0  0  0  0
 14 19  1  0  0  0  0
 14 15  1  0  0  0  0
 14 49  1  0  0  0  0
 15 16  1  0  0  0  0
 15 39  1  0  0  0  0
 15 40  1  0  0  0  0
 16 17  1  0  0  0  0
 16 41  1  0  0  0  0
 16 42  1  0  0  0  0
 17 18  1  0  0  0  0
 17 43  1  0  0  0  0
 17 44  1  0  0  0  0
 18 19  1  0  0  0  0
 18 45  1  0  0  0  0
 18 46  1  0  0  0  0
 19 47  1  0  0  0  0
 19 48  1  0  0  0  0
 20 21  2  0  0  0  0
 20 22  1  0  0  0  0
M  CHG  1  14   1
M  END
> <s_m_source_file>
AV-unprocessed.smi

> <i_m_source_file_index>
1107

> <i_lp_mmshare_version>
43012

> <i_f3d_flags>
0

> <s_epik_input>
W0NIM11jMW5jKFtDSDNdKWMoYyg9TylbbkhdMSlbQ0gyXUMoPU8pW05IXVtDQEhdKFtDSDNdKVtDSDJdTjJbQ0gyXVtDSDJdW0NIMl1bQ0gyXVtDSDJdMg==

> <s_epik_cmdline>
J2VwaWtfcHl0aG9uJywgJy1waCcsICc3LjAnLCAnLXRuJywgJzgnLCAnLW1hJywgJzIwMCcsICctbWV0YWxfYmluZGluZycsICctaW1hZScsICc8aW5maWxlLm1hZT4nLCAnLW9tYWUnLCAnPG91dGZpbGUubWFlPic=

> <r_lp_tautomer_probability>
0.156392

> <r_epik_Ionization_Penalty>
0.0190033

> <r_epik_Ionization_Penalty_Charging>
0.0189172

> <r_epik_Ionization_Penalty_Neutral>
8.60838e-05

> <r_epik_State_Penalty>
1.15342

> <r_epik_Charging_Adjusted_Penalty>
1.17233

> <i_epik_Tot_Q>
1

> <i_epik_Tot_abs_Q>
1

> <r_epik_Metal_State_Penalty>
1.34593

> <b_epik_Metal_Only>
0

> <s_lp_Force_Field>
OPLS_2005

> <r_lp_Energy>
24.7354

> <b_lp_Chiralities_Consistent>
1

> <s_lp_Variant>
AV-unprocessed.smi:1107-4

> <Gold.Version>
5.8.1

> <Gold.Id.Protein>
6NUR|6NUR_protein|mol2

> <Gold.PLP.Fitness>
49.5939

> <Gold.PLP.PLP>
-36.9273

> <Gold.PLP.part.hbond>
-5.0000

> <Gold.PLP.part.metal>
0.0000

> <Gold.PLP.part.buried>
-0.1556

> <Gold.PLP.part.nonpolar>
-29.5892

> <Gold.PLP.part.repulsive>
0.1818

> <Gold.PLP.ligand.clash>
0.0000

> <Gold.PLP.ligand.torsion>
1.0128

> <Gold.PLP.Chemscore.Hbond>
4.8744

> <Gold.PLP.Chemscore.CHOScore>
0.0000

> <Gold.PLP.Chemscore.Metal>
0.0000

> <Gold.Chemscore.Hbonds>
donor molecule, donor type, donor heavy atom, donor atom, acceptor molecule, acceptor atom, score
      L1  H     3    23       P1  8028  0.24
      L1  H    14    49       P1  7948  2.00
      P1  H  7997  8010       L1    21  1.00
      P1  H 10752 10763       L1     9  1.00

> <Gold.PLP.Chemscore.Internal.Correction>
0.0690

> <Gold.Rescore>
     Score         DG    S(hbond)    S(metal)    S(lipo)     H(rot)  DE(clash)    DE(int)     intcor
     15.94     -19.77       3.28        0.00      71.91       1.98       0.20       3.64       ----

> <Gold.Chemscore.Fitness>
15.9351

> <Gold.Chemscore.DG>
-19.7723

> <Gold.Chemscore.ZeroCoef>
-5.4800

> <Gold.Chemscore.Hbond>
3.2805

> <Gold.Chemscore.Metal>
0.0000

> <Gold.Chemscore.Lipo>
71.9112

> <Gold.Chemscore.Internal_Hbond>
0.0000

> <Gold.Chemscore.DEClash>
0.1993

> <Gold.Chemscore.DEInternal>
3.6380

> <Gold.Chemscore.Rot>
1.9837

> <Gold.Chemscore.Internal.Correction>
   9.000000E+99

> <Gold.Chemscore.Hbonds>
donor molecule, donor type, donor heavy atom, donor atom, acceptor molecule, acceptor atom, score
      L1  H     3    23       P1  8028  0.24
      L1  H    14    49       P1  7948  0.99
      P1  H  7997  8010       L1    21  0.55
      P1  H 10752 10763       L1     9  0.99

> <Gold.Chemscore.Hbond.Weighted>
-10.9570

> <Gold.Chemscore.Metal.Weighted>
-0.0000

> <Gold.Chemscore.Lipo.Weighted>
-8.4136

> <Gold.Chemscore.Internal_Hbond.Weighted>
0.0000

> <Gold.Chemscore.DEClash.Weighted>
0.1993

> <Gold.Chemscore.DEInternal.Weighted>
3.6380

> <Gold.Chemscore.Rot.Weighted>
5.0783

> <Gold.Chemscore.Internal.Correction.Weighted>
   9.000000E+99

> <Gold.Protein.RotatedTorsions>
[ 6907 6896 6895 6894 ] final -143.56 input  -60.11 | X-H torsion
[ 7974 7965 7964 7962 ] final -172.68 input  175.53 | X-H torsion
[ 8008 7997 7996 7995 ] final   51.14 input   59.86 | X-H torsion
[ 10167 10162 10161 10158 ] final   54.00 input  -65.29 | X-H torsion
[ 10718 10713 10712 10709 ] final -131.66 input   66.30 | X-H torsion
[ 10763 10752 10751 10750 ] final   77.38 input  -60.55 | X-H torsion
[ 11005 11000 10999 10996 ] final   67.00 input  -57.11 | X-H torsion

> <Gold.Protein.ActiveResidues>
 VAL166  LYS551  ARG553  GLY616  TRP617  ASP618  TYR619  PRO620  LYS621  CYS622 
 ASP623  PHE694  ASN695  SER759  ASP760  ASP761  ALA762  ILE779  LEU786  VAL792 
 PHE793  MET794  SER795  GLU796  ALA797  LYS798  CYS799  TRP800  GLU811  SER814 

> <Gold.Protein.RotatedAtoms>
  151.1021  133.5236  159.2609 H   0  0  0  0  0  0  0  0  0  0  0  0  # atno 6907 bound_to 6896
  151.2063  135.0462  159.8903 H   0  0  0  0  0  0  0  0  0  0  0  0  # atno 6908 bound_to 6896
  152.5444  134.0842  159.8302 H   0  0  0  0  0  0  0  0  0  0  0  0  # atno 6909 bound_to 6896
  144.7144  140.1736  143.6365 H   0  0  0  0  0  0  0  0  0  0  0  0  # atno 7974 bound_to 7965
  155.4303  140.3450  155.4279 H   0  0  0  0  0  0  0  0  0  0  0  0  # atno 8008 bound_to 7997
  156.1340  140.1522  156.9053 H   0  0  0  0  0  0  0  0  0  0  0  0  # atno 8009 bound_to 7997
  154.4917  140.0839  156.7589 H   0  0  0  0  0  0  0  0  0  0  0  0  # atno 8010 bound_to 7997
  140.2348  144.3648  150.6401 H   0  0  0  0  0  0  0  0  0  0  0  0  # atno 10167 bound_to 10162
  156.2266  130.7012  151.0814 H   0  0  0  0  0  0  0  0  0  0  0  0  # atno 10718 bound_to 10713
  153.0794  135.4916  154.8472 H   0  0  0  0  0  0  0  0  0  0  0  0  # atno 10763 bound_to 10752
  154.7131  135.3024  154.9168 H   0  0  0  0  0  0  0  0  0  0  0  0  # atno 10764 bound_to 10752
  153.9856  135.6784  153.4805 H   0  0  0  0  0  0  0  0  0  0  0  0  # atno 10765 bound_to 10752
  139.9797  134.6763  156.0285 H   0  0  0  0  0  0  0  0  0  0  0  0  # atno 11005 bound_to 11000
  145.8921  139.2381  143.1543 LP  0  0  0  0  0  0  0  0  0  0  0  0  # atno 17320 bound_to 7965
  145.9893  140.8616  143.0074 LP  0  0  0  0  0  0  0  0  0  0  0  0  # atno 17321 bound_to 7965
  140.6158  143.2172  151.6795 LP  0  0  0  0  0  0  0  0  0  0  0  0  # atno 17342 bound_to 10162
  139.5097  144.3567  152.0601 LP  0  0  0  0  0  0  0  0  0  0  0  0  # atno 17343 bound_to 10162
  157.7113  131.0732  150.6489 LP  0  0  0  0  0  0  0  0  0  0  0  0  # atno 17370 bound_to 10713
  156.6554  130.4497  149.5705 LP  0  0  0  0  0  0  0  0  0  0  0  0  # atno 17371 bound_to 10713
  141.1471  133.6554  156.3900 LP  0  0  0  0  0  0  0  0  0  0  0  0  # atno 17394 bound_to 11000
  140.5121  134.6385  157.5288 LP  0  0  0  0  0  0  0  0  0  0  0  0  # atno 17395 bound_to 11000

$$$$
