AV-unprocessed.smi:780|AV-procd|sdf|3706|dock9
  -GOLD-   22720 1133D 1   1.00000     0.00000
 Structure written by MMmdl.
 48 49  0  0  0  0  0  0  0  0  1 V2000
  152.5137  143.5023  161.8038 C   0  0  0  0  0  0  0  0  0  0  0  0
  152.1763  143.1175  160.3783 C   0  0  0  0  0  0  0  0  0  0  0  0
  151.3423  143.9725  159.5600 C   0  0  0  0  0  0  0  0  0  0  0  0
  151.0559  143.5970  158.3038 C   0  0  0  0  0  0  0  0  0  0  0  0
  151.5415  142.3950  157.7569 N   0  0  0  0  0  0  0  0  0  0  0  0
  151.1083  142.0623  156.3860 C   0  0  0  0  0  0  0  0  0  0  0  0
  150.6577  140.6016  156.1987 C   0  0  0  0  0  0  0  0  0  0  0  0
  151.1249  139.9367  155.2753 O   0  0  0  0  0  0  0  0  0  0  0  0
  149.7487  140.1164  157.0570 N   0  0  0  0  0  0  0  0  0  0  0  0
  149.1509  138.7907  157.0221 C   0  0  0  0  0  0  0  0  0  0  0  0
  150.0646  137.7771  157.7309 C   0  0  0  0  0  0  0  0  0  0  0  0
  149.3133  136.5558  158.2855 C   0  0  0  0  0  0  0  0  0  0  0  0
  148.4384  136.9799  159.3197 O   0  0  0  0  0  0  0  0  0  0  0  0
  148.3026  136.0513  160.3887 C   0  0  0  0  0  0  0  0  0  0  0  0
  147.7049  134.7167  159.8908 C   0  0  0  0  0  0  0  0  0  0  0  0
  147.4295  133.7542  161.0574 C   0  0  0  0  0  0  0  0  0  0  0  0
  146.5240  134.4025  162.1163 C   0  0  0  0  0  0  0  0  0  0  0  0
  147.1138  135.7320  162.6127 C   0  0  0  0  0  0  0  0  0  0  0  0
  147.3818  136.6918  161.4423 C   0  0  0  0  0  0  0  0  0  0  0  0
  152.3380  141.5463  158.4746 C   0  0  0  0  0  0  0  0  0  0  0  0
  152.7564  140.4875  158.0064 O   0  0  0  0  0  0  0  0  0  0  0  0
  152.6461  141.9677  159.8462 C   0  0  0  0  0  0  0  0  0  0  0  0
  151.8828  144.3219  162.1487 H   0  0  0  0  0  0  0  0  0  0  0  0
  153.5548  143.8185  161.8738 H   0  0  0  0  0  0  0  0  0  0  0  0
  152.3636  142.6559  162.4749 H   0  0  0  0  0  0  0  0  0  0  0  0
  150.9499  144.8988  159.9533 H   0  0  0  0  0  0  0  0  0  0  0  0
  150.4321  144.1825  157.6438 H   0  0  0  0  0  0  0  0  0  0  0  0
  150.2819  142.7117  156.0928 H   0  0  0  0  0  0  0  0  0  0  0  0
  151.9011  142.2754  155.6670 H   0  0  0  0  0  0  0  0  0  0  0  0
  149.4230  140.7336  157.7866 H   0  0  0  0  0  0  0  0  0  0  0  0
  148.1737  138.8216  157.5061 H   0  0  0  0  0  0  0  0  0  0  0  0
  148.9903  138.4871  155.9866 H   0  0  0  0  0  0  0  0  0  0  0  0
  150.8377  137.4420  157.0390 H   0  0  0  0  0  0  0  0  0  0  0  0
  150.5848  138.2782  158.5484 H   0  0  0  0  0  0  0  0  0  0  0  0
  148.7453  136.0725  157.4913 H   0  0  0  0  0  0  0  0  0  0  0  0
  150.0220  135.8220  158.6719 H   0  0  0  0  0  0  0  0  0  0  0  0
  149.2761  135.8717  160.8489 H   0  0  0  0  0  0  0  0  0  0  0  0
  146.7767  134.9092  159.3511 H   0  0  0  0  0  0  0  0  0  0  0  0
  148.3757  134.2301  159.1842 H   0  0  0  0  0  0  0  0  0  0  0  0
  146.9676  132.8402  160.6834 H   0  0  0  0  0  0  0  0  0  0  0  0
  148.3740  133.4579  161.5157 H   0  0  0  0  0  0  0  0  0  0  0  0
  145.5343  134.5776  161.6926 H   0  0  0  0  0  0  0  0  0  0  0  0
  146.3851  133.7204  162.9555 H   0  0  0  0  0  0  0  0  0  0  0  0
  146.4330  136.1965  163.3264 H   0  0  0  0  0  0  0  0  0  0  0  0
  148.0439  135.5423  163.1502 H   0  0  0  0  0  0  0  0  0  0  0  0
  147.8294  137.6134  161.8154 H   0  0  0  0  0  0  0  0  0  0  0  0
  146.4346  136.9737  160.9801 H   0  0  0  0  0  0  0  0  0  0  0  0
  153.2692  141.3254  160.4518 H   0  0  0  0  0  0  0  0  0  0  0  0
  1  2  1  0  0  0  0
  1 23  1  0  0  0  0
  1 24  1  0  0  0  0
  1 25  1  0  0  0  0
  2 22  2  0  0  0  0
  2  3  1  0  0  0  0
  3  4  2  0  0  0  0
  3 26  1  0  0  0  0
  4  5  1  0  0  0  0
  4 27  1  0  0  0  0
  5  6  1  0  0  0  0
  5 20  1  0  0  0  0
  6  7  1  0  0  0  0
  6 28  1  0  0  0  0
  6 29  1  0  0  0  0
  7  8  2  0  0  0  0
  7  9  1  0  0  0  0
  9 10  1  0  0  0  0
  9 30  1  0  0  0  0
 10 11  1  0  0  0  0
 10 31  1  0  0  0  0
 10 32  1  0  0  0  0
 11 12  1  0  0  0  0
 11 33  1  0  0  0  0
 11 34  1  0  0  0  0
 12 13  1  0  0  0  0
 12 35  1  0  0  0  0
 12 36  1  0  0  0  0
 13 14  1  0  0  0  0
 14 19  1  0  0  0  0
 14 15  1  0  0  0  0
 14 37  1  0  0  0  0
 15 16  1  0  0  0  0
 15 38  1  0  0  0  0
 15 39  1  0  0  0  0
 16 17  1  0  0  0  0
 16 40  1  0  0  0  0
 16 41  1  0  0  0  0
 17 18  1  0  0  0  0
 17 42  1  0  0  0  0
 17 43  1  0  0  0  0
 18 19  1  0  0  0  0
 18 44  1  0  0  0  0
 18 45  1  0  0  0  0
 19 46  1  0  0  0  0
 19 47  1  0  0  0  0
 20 21  2  0  0  0  0
 20 22  1  0  0  0  0
 22 48  1  0  0  0  0
M  END
> <s_m_source_file>
AV-unprocessed.smi

> <i_m_source_file_index>
780

> <i_lp_mmshare_version>
43012

> <i_f3d_flags>
0

> <s_epik_input>
W0NIM11jMVtjSF1bY0hdbihjKD1PKVtjSF0xKVtDSDJdQyg9TylbTkhdW0NIMl1bQ0gyXVtDSDJdT1tDSF0yW0NIMl1bQ0gyXVtDSDJdW0NIMl1bQ0gyXTI=

> <s_epik_cmdline>
J2VwaWtfcHl0aG9uJywgJy1waCcsICc3LjAnLCAnLXRuJywgJzgnLCAnLW1hJywgJzIwMCcsICctbWV0YWxfYmluZGluZycsICctaW1hZScsICc8aW5maWxlLm1hZT4nLCAnLW9tYWUnLCAnPG91dGZpbGUubWFlPic=

> <r_lp_tautomer_probability>
1

> <r_epik_Ionization_Penalty>
5.32667e-07

> <r_epik_Ionization_Penalty_Charging>
5.13386e-07

> <r_epik_Ionization_Penalty_Neutral>
1.92812e-08

> <r_epik_State_Penalty>
-0

> <r_epik_Charging_Adjusted_Penalty>
5.13386e-07

> <i_epik_Tot_Q>
0

> <i_epik_Tot_abs_Q>
0

> <r_epik_Metal_State_Penalty>
-0

> <b_epik_Metal_Only>
0

> <s_lp_Force_Field>
OPLS_2005

> <r_lp_Energy>
20.4059

> <b_lp_Chiralities_Consistent>
1

> <s_lp_Variant>
AV-unprocessed.smi:780-1

> <Gold.Version>
5.8.1

> <Gold.Id.Protein>
6NUR|6NUR_protein|mol2

> <Gold.PLP.Fitness>
52.2700

> <Gold.PLP.PLP>
-46.2730

> <Gold.PLP.part.hbond>
-1.8114

> <Gold.PLP.part.metal>
0.0000

> <Gold.PLP.part.buried>
-4.6738

> <Gold.PLP.part.nonpolar>
-38.2497

> <Gold.PLP.part.repulsive>
0.0616

> <Gold.PLP.ligand.clash>
0.0000

> <Gold.PLP.ligand.torsion>
0.8444

> <Gold.PLP.Chemscore.Hbond>
1.5399

> <Gold.PLP.Chemscore.CHOScore>
1.0000

> <Gold.PLP.Chemscore.Metal>
0.0000

> <Gold.Chemscore.Hbonds>
donor molecule, donor type, donor heavy atom, donor atom, acceptor molecule, acceptor atom, score
      P1  H  7989  7998       L1     8  0.91
      P1  H  7997  8010       L1    21  0.70
      L1  C     4    27       P1  8028  0.97

> <Gold.PLP.Chemscore.Internal.Correction>
0.0661

> <Gold.Rescore>
     Score         DG    S(hbond)    S(metal)    S(lipo)     H(rot)  DE(clash)    DE(int)     intcor
     17.26     -19.64       1.77        0.00     113.50       1.97       0.12       2.26       ----

> <Gold.Chemscore.Fitness>
17.2632

> <Gold.Chemscore.DG>
-19.6428

> <Gold.Chemscore.ZeroCoef>
-5.4800

> <Gold.Chemscore.Hbond>
1.7721

> <Gold.Chemscore.Metal>
0.0000

> <Gold.Chemscore.Lipo>
113.5044

> <Gold.Chemscore.Internal_Hbond>
0.0000

> <Gold.Chemscore.DEClash>
0.1219

> <Gold.Chemscore.DEInternal>
2.2577

> <Gold.Chemscore.Rot>
1.9671

> <Gold.Chemscore.Internal.Correction>
   9.000000E+99

> <Gold.Chemscore.Hbonds>
donor molecule, donor type, donor heavy atom, donor atom, acceptor molecule, acceptor atom, score
      P1  H  7989  7998       L1     8  0.85
      P1  H  7997  8010       L1    21  0.68

> <Gold.Chemscore.Hbond.Weighted>
-5.9187

> <Gold.Chemscore.Metal.Weighted>
-0.0000

> <Gold.Chemscore.Lipo.Weighted>
-13.2800

> <Gold.Chemscore.Internal_Hbond.Weighted>
0.0000

> <Gold.Chemscore.DEClash.Weighted>
0.1219

> <Gold.Chemscore.DEInternal.Weighted>
2.2577

> <Gold.Chemscore.Rot.Weighted>
5.0359

> <Gold.Chemscore.Internal.Correction.Weighted>
   9.000000E+99

> <Gold.Protein.RotatedTorsions>
[ 6907 6896 6895 6894 ] final -120.48 input  -60.11 | X-H torsion
[ 7974 7965 7964 7962 ] final -174.33 input  175.53 | X-H torsion
[ 8008 7997 7996 7995 ] final   45.16 input   59.86 | X-H torsion
[ 10167 10162 10161 10158 ] final  124.38 input  -65.29 | X-H torsion
[ 10718 10713 10712 10709 ] final -139.58 input   66.30 | X-H torsion
[ 10763 10752 10751 10750 ] final   -9.41 input  -60.55 | X-H torsion
[ 11005 11000 10999 10996 ] final  -29.35 input  -57.11 | X-H torsion

> <Gold.Protein.ActiveResidues>
 VAL166  LYS551  ARG553  GLY616  TRP617  ASP618  TYR619  PRO620  LYS621  CYS622 
 ASP623  PHE694  ASN695  SER759  ASP760  ASP761  ALA762  ILE779  LEU786  VAL792 
 PHE793  MET794  SER795  GLU796  ALA797  LYS798  CYS799  TRP800  GLU811  SER814 

> <Gold.Protein.RotatedAtoms>
  150.8397  133.7956  159.3065 H   0  0  0  0  0  0  0  0  0  0  0  0  # atno 6907 bound_to 6896
  151.5661  135.1062  159.9993 H   0  0  0  0  0  0  0  0  0  0  0  0  # atno 6908 bound_to 6896
  152.4463  133.7500  159.6745 H   0  0  0  0  0  0  0  0  0  0  0  0  # atno 6909 bound_to 6896
  144.7132  140.1487  143.6386 H   0  0  0  0  0  0  0  0  0  0  0  0  # atno 7974 bound_to 7965
  155.3313  140.3402  155.4239 H   0  0  0  0  0  0  0  0  0  0  0  0  # atno 8008 bound_to 7997
  156.1860  140.1680  156.8221 H   0  0  0  0  0  0  0  0  0  0  0  0  # atno 8009 bound_to 7997
  154.5387  140.0729  156.8455 H   0  0  0  0  0  0  0  0  0  0  0  0  # atno 8010 bound_to 7997
  139.5745  144.6956  151.3690 H   0  0  0  0  0  0  0  0  0  0  0  0  # atno 10167 bound_to 10162
  156.3124  130.7489  151.1568 H   0  0  0  0  0  0  0  0  0  0  0  0  # atno 10718 bound_to 10713
  153.4544  135.7015  153.6089 H   0  0  0  0  0  0  0  0  0  0  0  0  # atno 10763 bound_to 10752
  153.4410  135.3780  155.2228 H   0  0  0  0  0  0  0  0  0  0  0  0  # atno 10764 bound_to 10752
  154.8728  135.3974  154.3961 H   0  0  0  0  0  0  0  0  0  0  0  0  # atno 10765 bound_to 10752
  140.9288  133.7351  156.0906 H   0  0  0  0  0  0  0  0  0  0  0  0  # atno 11005 bound_to 11000
  145.9136  139.2502  143.1423 LP  0  0  0  0  0  0  0  0  0  0  0  0  # atno 17320 bound_to 7965
  145.9691  140.8774  143.0171 LP  0  0  0  0  0  0  0  0  0  0  0  0  # atno 17321 bound_to 7965
  140.7028  143.7588  150.7432 LP  0  0  0  0  0  0  0  0  0  0  0  0  # atno 17342 bound_to 10162
  140.1104  143.4704  152.2373 LP  0  0  0  0  0  0  0  0  0  0  0  0  # atno 17343 bound_to 10162
  157.7394  131.0530  150.5234 LP  0  0  0  0  0  0  0  0  0  0  0  0  # atno 17370 bound_to 10713
  156.5376  130.4200  149.6170 LP  0  0  0  0  0  0  0  0  0  0  0  0  # atno 17371 bound_to 10713
  140.7890  134.3639  157.5469 LP  0  0  0  0  0  0  0  0  0  0  0  0  # atno 17394 bound_to 11000
  139.8791  134.9128  156.3070 LP  0  0  0  0  0  0  0  0  0  0  0  0  # atno 17395 bound_to 11000

$$$$
