AV-unprocessed.smi:2394|AV-procd|sdf|9490|dock10
  -GOLD-   2272013123D 1   1.00000     0.00000
 Structure written by MMmdl.
 43 44  0  0  0  0  0  0  0  0  1 V2000
  147.0230  137.9165  155.6913 C   0  0  0  0  0  0  0  0  0  0  0  0
  148.5439  137.9538  155.9192 C   0  0  0  0  0  0  0  0  0  0  0  0
  149.3600  138.7781  154.8884 C   0  0  0  0  0  0  0  0  0  0  0  0
  149.1169  138.2333  153.6045 O   0  0  0  0  0  0  0  0  0  0  0  0
  148.8919  140.2594  154.8484 C   0  0  0  0  0  0  0  0  0  0  0  0
  147.4974  140.5106  154.2492 C   0  0  0  0  0  0  0  0  0  0  0  0
  150.8854  138.6754  155.1761 C   0  0  0  0  0  0  0  0  0  0  0  0
  151.2900  139.1519  156.4907 N   0  0  0  0  0  0  0  0  0  0  0  0
  151.8370  138.4012  157.5079 C   0  0  0  0  0  0  0  0  0  0  0  0
  152.1202  139.0606  158.5985 N   0  0  0  0  0  0  0  0  0  0  0  0
  151.7524  140.3674  158.3048 C   0  0  0  0  0  0  0  0  0  0  0  0
  151.7932  141.5870  159.0293 C   0  0  0  0  0  0  0  0  0  0  0  0
  152.2649  141.6287  160.2956 N   0  0  0  0  0  0  0  0  0  0  0  0
  152.8828  142.8351  160.8393 C   0  0  0  0  0  0  0  0  0  0  0  0
  153.3660  142.6133  162.2826 C   0  0  0  0  0  0  0  0  0  0  0  0
  151.8944  144.0061  160.7666 C   0  0  0  0  0  0  0  0  0  0  0  0
  151.3398  142.7070  158.4072 N   0  0  0  0  0  0  0  0  0  0  0  0
  150.8814  142.6382  157.1534 C   0  0  0  0  0  0  0  0  0  0  0  0
  150.7870  141.5716  156.3563 N   0  0  0  0  0  0  0  0  0  0  0  0
  151.2344  140.4449  156.9817 C   0  0  0  0  0  0  0  0  0  0  0  0
  146.5270  137.3996  156.5127 H   0  0  0  0  0  0  0  0  0  0  0  0
  146.7622  137.3855  154.7762 H   0  0  0  0  0  0  0  0  0  0  0  0
  146.6011  138.9200  155.6330 H   0  0  0  0  0  0  0  0  0  0  0  0
  148.7102  138.3492  156.9214 H   0  0  0  0  0  0  0  0  0  0  0  0
  148.9164  136.9290  155.9361 H   0  0  0  0  0  0  0  0  0  0  0  0
  149.0358  137.2955  153.6860 H   0  0  0  0  0  0  0  0  0  0  0  0
  148.9101  140.6679  155.8594 H   0  0  0  0  0  0  0  0  0  0  0  0
  149.6022  140.8549  154.2744 H   0  0  0  0  0  0  0  0  0  0  0  0
  147.3011  141.5807  154.1790 H   0  0  0  0  0  0  0  0  0  0  0  0
  146.7074  140.0816  154.8650 H   0  0  0  0  0  0  0  0  0  0  0  0
  147.4097  140.0961  153.2449 H   0  0  0  0  0  0  0  0  0  0  0  0
  151.2074  137.6371  155.0853 H   0  0  0  0  0  0  0  0  0  0  0  0
  151.4592  139.2360  154.4379 H   0  0  0  0  0  0  0  0  0  0  0  0
  152.0124  137.3390  157.4166 H   0  0  0  0  0  0  0  0  0  0  0  0
  152.2802  140.8190  160.8988 H   0  0  0  0  0  0  0  0  0  0  0  0
  153.7411  143.1014  160.2211 H   0  0  0  0  0  0  0  0  0  0  0  0
  153.8285  143.5159  162.6826 H   0  0  0  0  0  0  0  0  0  0  0  0
  154.1069  141.8160  162.3405 H   0  0  0  0  0  0  0  0  0  0  0  0
  152.5384  142.3451  162.9400 H   0  0  0  0  0  0  0  0  0  0  0  0
  152.3487  144.9261  161.1353 H   0  0  0  0  0  0  0  0  0  0  0  0
  151.0030  143.8123  161.3645 H   0  0  0  0  0  0  0  0  0  0  0  0
  151.5752  144.1862  159.7395 H   0  0  0  0  0  0  0  0  0  0  0  0
  150.5431  143.5712  156.7276 H   0  0  0  0  0  0  0  0  0  0  0  0
  1  2  1  0  0  0  0
  1 21  1  0  0  0  0
  1 22  1  0  0  0  0
  1 23  1  0  0  0  0
  2  3  1  0  0  0  0
  2 24  1  0  0  0  0
  2 25  1  0  0  0  0
  3  4  1  0  0  0  0
  3  5  1  0  0  0  0
  3  7  1  0  0  0  0
  4 26  1  0  0  0  0
  5  6  1  0  0  0  0
  5 27  1  0  0  0  0
  5 28  1  0  0  0  0
  6 29  1  0  0  0  0
  6 30  1  0  0  0  0
  6 31  1  0  0  0  0
  7  8  1  0  0  0  0
  7 32  1  0  0  0  0
  7 33  1  0  0  0  0
  8 20  1  0  0  0  0
  8  9  1  0  0  0  0
  9 10  2  0  0  0  0
  9 34  1  0  0  0  0
 10 11  1  0  0  0  0
 11 20  2  0  0  0  0
 11 12  1  0  0  0  0
 12 13  1  0  0  0  0
 12 17  2  0  0  0  0
 13 14  1  0  0  0  0
 13 35  1  0  0  0  0
 14 15  1  0  0  0  0
 14 16  1  0  0  0  0
 14 36  1  0  0  0  0
 15 37  1  0  0  0  0
 15 38  1  0  0  0  0
 15 39  1  0  0  0  0
 16 40  1  0  0  0  0
 16 41  1  0  0  0  0
 16 42  1  0  0  0  0
 17 18  1  0  0  0  0
 18 19  2  0  0  0  0
 18 43  1  0  0  0  0
 19 20  1  0  0  0  0
M  END
> <s_m_source_file>
AV-unprocessed.smi

> <i_m_source_file_index>
2394

> <i_lp_mmshare_version>
43012

> <i_f3d_flags>
0

> <s_epik_input>
W0NIM11bQ0gyXUMoW09IXSkoW0NIMl1bQ0gzXSlbQ0gyXW4oW2NIXW4xKWMoYzEyKW5bY0hdbmMyW05IXVtDSF0oW0NIM10pW0NIM10=

> <s_epik_cmdline>
J2VwaWtfcHl0aG9uJywgJy1waCcsICc3LjAnLCAnLXRuJywgJzgnLCAnLW1hJywgJzIwMCcsICctbWV0YWxfYmluZGluZycsICctaW1hZScsICc8aW5maWxlLm1hZT4nLCAnLW9tYWUnLCAnPG91dGZpbGUubWFlPic=

> <r_lp_tautomer_probability>
1

> <r_epik_Ionization_Penalty>
0.0022327

> <r_epik_Ionization_Penalty_Charging>
0

> <r_epik_Ionization_Penalty_Neutral>
0.0022327

> <r_epik_State_Penalty>
-0

> <r_epik_Charging_Adjusted_Penalty>
0

> <i_epik_Tot_Q>
0

> <i_epik_Tot_abs_Q>
0

> <r_epik_Metal_State_Penalty>
-0

> <b_epik_Metal_Only>
0

> <s_lp_Force_Field>
OPLS_2005

> <r_lp_Energy>
13.0667

> <b_lp_Chiralities_Consistent>
1

> <s_lp_Variant>
AV-unprocessed.smi:2394-1

> <Gold.Version>
5.8.1

> <Gold.Id.Protein>
6NUR|6NUR_protein|mol2

> <Gold.PLP.Fitness>
42.9357

> <Gold.PLP.PLP>
-38.2917

> <Gold.PLP.part.hbond>
-1.5485

> <Gold.PLP.part.metal>
0.0000

> <Gold.PLP.part.buried>
-4.1420

> <Gold.PLP.part.nonpolar>
-32.3181

> <Gold.PLP.part.repulsive>
0.2629

> <Gold.PLP.ligand.clash>
0.0016

> <Gold.PLP.ligand.torsion>
0.3209

> <Gold.PLP.Chemscore.Hbond>
0.7296

> <Gold.PLP.Chemscore.CHOScore>
1.0000

> <Gold.PLP.Chemscore.Metal>
0.0000

> <Gold.Chemscore.Hbonds>
donor molecule, donor type, donor heavy atom, donor atom, acceptor molecule, acceptor atom, score
      L1  H     4    26       P1  7948  0.25
      L1  C    18    43       P1  8028  1.00

> <Gold.PLP.Chemscore.Internal.Correction>
0.0987

> <Gold.Rescore>
     Score         DG    S(hbond)    S(metal)    S(lipo)     H(rot)  DE(clash)    DE(int)     intcor
      7.93     -10.05       0.99        0.00      66.38       2.54       0.06       2.05       ----

> <Gold.Chemscore.Fitness>
7.9338

> <Gold.Chemscore.DG>
-10.0474

> <Gold.Chemscore.ZeroCoef>
-5.4800

> <Gold.Chemscore.Hbond>
0.9888

> <Gold.Chemscore.Metal>
0.0000

> <Gold.Chemscore.Lipo>
66.3836

> <Gold.Chemscore.Internal_Hbond>
0.0000

> <Gold.Chemscore.DEClash>
0.0614

> <Gold.Chemscore.DEInternal>
2.0522

> <Gold.Chemscore.Rot>
2.5398

> <Gold.Chemscore.Internal.Correction>
   9.000000E+99

> <Gold.Chemscore.Hbonds>
donor molecule, donor type, donor heavy atom, donor atom, acceptor molecule, acceptor atom, score
      L1  H     4    26       P1  7948  0.25

> <Gold.Chemscore.Hbond.Weighted>
-3.3025

> <Gold.Chemscore.Metal.Weighted>
-0.0000

> <Gold.Chemscore.Lipo.Weighted>
-7.7669

> <Gold.Chemscore.Internal_Hbond.Weighted>
0.0000

> <Gold.Chemscore.DEClash.Weighted>
0.0614

> <Gold.Chemscore.DEInternal.Weighted>
2.0522

> <Gold.Chemscore.Rot.Weighted>
6.5020

> <Gold.Chemscore.Internal.Correction.Weighted>
   9.000000E+99

> <Gold.Protein.RotatedTorsions>
[ 6907 6896 6895 6894 ] final   56.60 input  -60.11 | X-H torsion
[ 7974 7965 7964 7962 ] final -109.17 input  175.53 | X-H torsion
[ 8008 7997 7996 7995 ] final  -44.24 input   59.86 | X-H torsion
[ 10167 10162 10161 10158 ] final  161.69 input  -65.29 | X-H torsion
[ 10718 10713 10712 10709 ] final -110.70 input   66.30 | X-H torsion
[ 10763 10752 10751 10750 ] final  -24.57 input  -60.55 | X-H torsion
[ 11005 11000 10999 10996 ] final -134.36 input  -57.11 | X-H torsion

> <Gold.Protein.ActiveResidues>
 VAL166  LYS551  ARG553  GLY616  TRP617  ASP618  TYR619  PRO620  LYS621  CYS622 
 ASP623  PHE694  ASN695  SER759  ASP760  ASP761  ALA762  ILE779  LEU786  VAL792 
 PHE793  MET794  SER795  GLU796  ALA797  LYS798  CYS799  TRP800  GLU811  SER814 

> <Gold.Protein.RotatedAtoms>
  152.3652  134.6815  160.0194 H   0  0  0  0  0  0  0  0  0  0  0  0  # atno 6907 bound_to 6896
  151.7125  133.3307  159.3302 H   0  0  0  0  0  0  0  0  0  0  0  0  # atno 6908 bound_to 6896
  150.7633  134.6454  159.6304 H   0  0  0  0  0  0  0  0  0  0  0  0  # atno 6909 bound_to 6896
  145.1839  140.8984  143.3464 H   0  0  0  0  0  0  0  0  0  0  0  0  # atno 7974 bound_to 7965
  154.3997  140.1427  156.3650 H   0  0  0  0  0  0  0  0  0  0  0  0  # atno 8008 bound_to 7997
  155.8145  140.3471  155.5457 H   0  0  0  0  0  0  0  0  0  0  0  0  # atno 8009 bound_to 7997
  155.8352  140.0918  157.1759 H   0  0  0  0  0  0  0  0  0  0  0  0  # atno 8010 bound_to 7997
  139.4852  144.4511  151.8828 H   0  0  0  0  0  0  0  0  0  0  0  0  # atno 10167 bound_to 10162
  156.0605  130.5829  150.8273 H   0  0  0  0  0  0  0  0  0  0  0  0  # atno 10718 bound_to 10713
  153.6859  135.6964  153.5104 H   0  0  0  0  0  0  0  0  0  0  0  0  # atno 10763 bound_to 10752
  153.2449  135.4294  155.0736 H   0  0  0  0  0  0  0  0  0  0  0  0  # atno 10764 bound_to 10752
  154.8386  135.3517  154.6402 H   0  0  0  0  0  0  0  0  0  0  0  0  # atno 10765 bound_to 10752
  140.8997  134.1706  157.4469 H   0  0  0  0  0  0  0  0  0  0  0  0  # atno 11005 bound_to 11000
  145.0109  139.3511  143.6120 LP  0  0  0  0  0  0  0  0  0  0  0  0  # atno 17320 bound_to 7965
  146.3448  139.9371  142.8746 LP  0  0  0  0  0  0  0  0  0  0  0  0  # atno 17321 bound_to 7965
  140.3968  144.2544  150.5895 LP  0  0  0  0  0  0  0  0  0  0  0  0  # atno 17342 bound_to 10162
  140.5094  143.2295  151.8558 LP  0  0  0  0  0  0  0  0  0  0  0  0  # atno 17343 bound_to 10162
  157.5610  131.0946  150.9558 LP  0  0  0  0  0  0  0  0  0  0  0  0  # atno 17370 bound_to 10713
  156.9796  130.5522  149.5295 LP  0  0  0  0  0  0  0  0  0  0  0  0  # atno 17371 bound_to 10713
  139.8740  134.9893  156.5450 LP  0  0  0  0  0  0  0  0  0  0  0  0  # atno 17394 bound_to 11000
  140.8245  133.8327  155.8926 LP  0  0  0  0  0  0  0  0  0  0  0  0  # atno 17395 bound_to 11000

$$$$
