#       Name:                AV-unprocessed.smi:536
#       Creating user name   scv26
#       Creation time:       Thu Mar 26 23:35:28 2020


#       File generated by GOLD software.
#

@<TRIPOS>MOLECULE
AV-unprocessed.smi:536
    53    55     1
SMALL
NO_CHARGES


@<TRIPOS>ATOM
      1 ****        -3.5480   1.2404  -2.2131 C.3            1 S1                 0.0000
      2 ****        -2.1345   1.1888  -2.1446 O.3            1 S1                 0.0000
      3 ****        -1.6444  -0.1260  -1.9427 C.3            1 S1                 0.0000
      4 ****        -0.1093  -0.1189  -1.8635 C.3            1 S1                 0.0000
      5 ****         0.3780   0.6871  -0.7492 N.pl3          1 S1                 0.0000
      6 ****         0.6620   0.2769   0.5135 C.2            1 S1                 0.0000
      7 ****         0.5607  -1.0629   0.8775 N.pl3          1 S1                 0.0000
      8 ****         1.7278  -1.9406   0.8853 C.3            1 S1                 0.0000
      9 ****         1.5001  -3.3330   0.2675 C.3            1 S1                 0.0000
     10 ****         0.7310  -4.2813   1.1999 C.3            1 S1                 0.0000
     11 ****        -0.7987  -4.1258   1.1654 C.3            1 S1                 0.0000
     12 ****        -1.3220  -2.7019   0.9140 C.3            1 S1                 0.0000
     13 ****        -0.5603  -1.5883   1.6524 C.3            1 S1                 0.0000
     14 ****         1.0645   1.2425   1.3434 N.2            1 S1                 0.0000
     15 ****         1.0500   2.3671   0.5314 C.2            1 S1                 0.0000
     16 ****         0.6539   2.0548  -0.7286 C.2            1 S1                 0.0000
     17 ****         0.5670   3.0585  -1.7972 C.2            1 S1                 0.0000
     18 ****         0.2288   2.7973  -2.9495 O.2            1 S1                 0.0000
     19 ****         0.9052   4.3039  -1.3832 N.am           1 S1                 0.0000
     20 ****         1.3062   4.6860  -0.1319 C.2            1 S1                 0.0000
     21 ****         1.5815   5.8656   0.0857 O.2            1 S1                 0.0000
     22 ****         1.3850   3.7154   0.8360 N.am           1 S1                 0.0000
     23 ****         1.8115   4.0167   2.2040 C.3            1 S1                 0.0000
     24 ****         0.8601   5.0335  -2.0796 H              1 S1                 0.0000
     25 ****        -3.8682   2.2695  -2.3753 H              1 S1                 0.0000
     26 ****        -4.0011   0.8890  -1.2852 H              1 S1                 0.0000
     27 ****        -3.9255   0.6361  -3.0389 H              1 S1                 0.0000
     28 ****        -2.0650  -0.5285  -1.0211 H              1 S1                 0.0000
     29 ****        -1.9673  -0.7731  -2.7595 H              1 S1                 0.0000
     30 ****         0.2602  -1.1381  -1.7563 H              1 S1                 0.0000
     31 ****         0.3216   0.2516  -2.7927 H              1 S1                 0.0000
     32 ****         2.5187  -1.4429   0.3224 H              1 S1                 0.0000
     33 ****         2.1028  -2.0319   1.9054 H              1 S1                 0.0000
     34 ****         1.0255  -3.2650  -0.7121 H              1 S1                 0.0000
     35 ****         2.4822  -3.7723   0.0894 H              1 S1                 0.0000
     36 ****         0.9753  -5.3135   0.9462 H              1 S1                 0.0000
     37 ****         1.0877  -4.1428   2.2213 H              1 S1                 0.0000
     38 ****        -1.2060  -4.7766   0.3909 H              1 S1                 0.0000
     39 ****        -1.2039  -4.5007   2.1060 H              1 S1                 0.0000
     40 ****        -1.3245  -2.5018  -0.1572 H              1 S1                 0.0000
     41 ****        -2.3695  -2.6718   1.2156 H              1 S1                 0.0000
     42 ****        -0.2251  -1.9266   2.6335 H              1 S1                 0.0000
     43 ****        -1.2477  -0.7620   1.8386 H              1 S1                 0.0000
     44 ****         2.0400   5.0687   2.3772 H              1 S1                 0.0000
     45 ****         2.7060   3.4430   2.4488 H              1 S1                 0.0000
     46 ****         1.0287   3.7339   2.9086 H              1 S1                 0.0000
     47 ****        -1.8298   1.7640  -1.3854 LP             1 S1                 0.0000
     48 ****        -1.7595   1.5419  -3.0017 LP             1 S1                 0.0000
     49 ****         1.3141   1.1724   2.3092 LP             1 S1                 0.0000
     50 ****        -0.0056   1.8583  -3.2011 LP             1 S1                 0.0000
     51 ****         0.1879   3.5238  -3.6354 LP             1 S1                 0.0000
     52 ****         1.5116   6.5393  -0.6500 LP             1 S1                 0.0000
     53 ****         1.8750   6.1504   0.9983 LP             1 S1                 0.0000
@<TRIPOS>BOND
    1    1    2 1     
    2    1   25 1     
    3    1   26 1     
    4    1   27 1     
    5    2    3 1     
    6    3    4 1     
    7    3   28 1     
    8    3   29 1     
    9    4    5 1     
   10    4   30 1     
   11    4   31 1     
   12    5   16 1     
   13    5    6 1     
   14    6    7 1     
   15    6   14 2     
   16    7   13 1     
   17    7    8 1     
   18    8    9 1     
   19    8   32 1     
   20    8   33 1     
   21    9   10 1     
   22    9   34 1     
   23    9   35 1     
   24   10   11 1     
   25   10   36 1     
   26   10   37 1     
   27   11   12 1     
   28   11   38 1     
   29   11   39 1     
   30   12   13 1     
   31   12   40 1     
   32   12   41 1     
   33   13   42 1     
   34   13   43 1     
   35   14   15 1     
   36   15   22 1     
   37   15   16 2     
   38   16   17 1     
   39   17   18 2     
   40   17   19 1     
   41   19   24 1     
   42   19   20 1     
   43   20   21 2     
   44   20   22 1     
   45   22   23 1     
   46   23   44 1     
   47   23   45 1     
   48   23   46 1     
   49    2   47 1     
   50    2   48 1     
   51   14   49 1     
   52   18   50 1     
   53   18   51 1     
   54   21   52 1     
   55   21   53 1     
@<TRIPOS>SUBSTRUCTURE
      1 S1             1
@<TRIPOS>SET
LONE_PAIRS      STATIC     ATOMS    <user>   **** ""
7 47 48 49 50 51 52 53
DONOR_HYDROGENS      STATIC     ATOMS    <user>   **** ""
1 24
ATOM$BLUE        STATIC     ATOMS    COLORGROUP SYSTEM
7 47 48 49 50 51 52 53
ATOM$RED        STATIC     ATOMS    COLORGROUP SYSTEM
1 24
