AV-unprocessed.smi:2976|AV-procd|sdf|11366|dock10
  -GOLD-   2272016283D 1   1.00000     0.00000
 Structure written by MMmdl.
 40 41  0  0  0  0  0  0  0  0  1 V2000
  152.9351  141.6738  160.2534 C   0  0  0  0  0  0  0  0  0  0  0  0
  151.9258  141.3673  159.1327 C   0  0  1  0  0  0  0  0  0  0  0  0
  151.8602  142.5572  158.1525 C   0  0  0  0  0  0  0  0  0  0  0  0
  150.8612  142.3158  157.0134 C   0  0  0  0  0  0  0  0  0  0  0  0
  151.1932  141.0204  156.2590 C   0  0  0  0  0  0  0  0  0  0  0  0
  151.2502  139.8072  157.2077 C   0  0  2  0  0  0  0  0  0  0  0  0
  149.9192  139.4942  157.7219 N   0  0  0  0  0  0  0  0  0  0  0  0
  149.3027  138.3018  157.6792 C   0  0  0  0  0  0  0  0  0  0  0  0
  149.8121  137.3024  157.1743 O   0  0  0  0  0  0  0  0  0  0  0  0
  147.8942  138.2029  158.2921 C   0  0  0  0  0  0  0  0  0  0  0  0
  147.7404  137.1406  159.3013 N   0  0  0  0  0  0  0  0  0  0  0  0
  147.4164  137.6064  160.5639 N   0  0  0  0  0  0  0  0  0  0  0  0
  147.3045  136.7715  161.5387 C   0  0  0  0  0  0  0  0  0  0  0  0
  147.5023  135.3500  161.3617 C   0  0  0  0  0  0  0  0  0  0  0  0
  147.3413  134.2782  162.7079 Cl  0  0  0  0  0  0  0  0  0  0  0  0
  147.8123  134.9028  160.1190 C   0  0  0  0  0  0  0  0  0  0  0  0
  148.0672  133.2162  159.8295 Cl  0  0  0  0  0  0  0  0  0  0  0  0
  147.9502  135.8256  158.9839 C   0  0  0  0  0  0  0  0  0  0  0  0
  148.2456  135.4611  157.8453 O   0  0  0  0  0  0  0  0  0  0  0  0
  152.2426  140.0460  158.3756 C   0  0  2  0  0  0  0  0  0  0  0  0
  152.3093  138.8192  159.3090 C   0  0  0  0  0  0  0  0  0  0  0  0
  153.9536  141.7228  159.8673 H   0  0  0  0  0  0  0  0  0  0  0  0
  152.9089  140.9203  161.0401 H   0  0  0  0  0  0  0  0  0  0  0  0
  152.7145  142.6312  160.7263 H   0  0  0  0  0  0  0  0  0  0  0  0
  150.9447  141.2685  159.6001 H   0  0  0  0  0  0  0  0  0  0  0  0
  151.5821  143.4660  158.6875 H   0  0  0  0  0  0  0  0  0  0  0  0
  152.8495  142.7412  157.7312 H   0  0  0  0  0  0  0  0  0  0  0  0
  149.8487  142.2646  157.4159 H   0  0  0  0  0  0  0  0  0  0  0  0
  150.8747  143.1596  156.3233 H   0  0  0  0  0  0  0  0  0  0  0  0
  150.4630  140.8519  155.4668 H   0  0  0  0  0  0  0  0  0  0  0  0
  152.1573  141.1321  155.7613 H   0  0  0  0  0  0  0  0  0  0  0  0
  151.6061  138.9473  156.6369 H   0  0  0  0  0  0  0  0  0  0  0  0
  149.4197  140.2573  158.1548 H   0  0  0  0  0  0  0  0  0  0  0  0
  147.6543  139.1705  158.7363 H   0  0  0  0  0  0  0  0  0  0  0  0
  147.1699  138.0706  157.4864 H   0  0  0  0  0  0  0  0  0  0  0  0
  147.0547  137.0924  162.5500 H   0  0  0  0  0  0  0  0  0  0  0  0
  153.2326  140.1550  157.9296 H   0  0  0  0  0  0  0  0  0  0  0  0
  151.3999  138.7118  159.9016 H   0  0  0  0  0  0  0  0  0  0  0  0
  153.1495  138.8846  159.9998 H   0  0  0  0  0  0  0  0  0  0  0  0
  152.4424  137.9003  158.7374 H   0  0  0  0  0  0  0  0  0  0  0  0
  1  2  1  0  0  0  0
  1 22  1  0  0  0  0
  1 23  1  0  0  0  0
  1 24  1  0  0  0  0
  2 20  1  0  0  0  0
  2  3  1  0  0  0  0
  2 25  1  0  0  0  0
  3  4  1  0  0  0  0
  3 26  1  0  0  0  0
  3 27  1  0  0  0  0
  4  5  1  0  0  0  0
  4 28  1  0  0  0  0
  4 29  1  0  0  0  0
  5  6  1  0  0  0  0
  5 30  1  0  0  0  0
  5 31  1  0  0  0  0
  6  7  1  0  0  0  0
  6 20  1  0  0  0  0
  6 32  1  0  0  0  0
  7  8  1  0  0  0  0
  7 33  1  0  0  0  0
  8  9  2  0  0  0  0
  8 10  1  0  0  0  0
 10 11  1  0  0  0  0
 10 34  1  0  0  0  0
 10 35  1  0  0  0  0
 11 18  1  0  0  0  0
 11 12  1  0  0  0  0
 12 13  2  0  0  0  0
 13 14  1  0  0  0  0
 13 36  1  0  0  0  0
 14 15  1  0  0  0  0
 14 16  2  0  0  0  0
 16 17  1  0  0  0  0
 16 18  1  0  0  0  0
 18 19  2  0  0  0  0
 20 21  1  0  0  0  0
 20 37  1  0  0  0  0
 21 38  1  0  0  0  0
 21 39  1  0  0  0  0
 21 40  1  0  0  0  0
M  END
> <s_m_source_file>
AV-unprocessed.smi

> <i_m_source_file_index>
2976

> <i_lp_mmshare_version>
43012

> <i_f3d_flags>
0

> <s_epik_input>
W0NIM11bQ0BASF0xW0NIMl1bQ0gyXVtDSDJdW0NASF0oW0NASF0xW0NIM10pW05IXUMoPU8pW0NIMl1uMm5bY0hdYyhDbCljKENsKWMyPU8=

> <s_epik_cmdline>
J2VwaWtfcHl0aG9uJywgJy1waCcsICc3LjAnLCAnLXRuJywgJzgnLCAnLW1hJywgJzIwMCcsICctbWV0YWxfYmluZGluZycsICctaW1hZScsICc8aW5maWxlLm1hZT4nLCAnLW9tYWUnLCAnPG91dGZpbGUubWFlPic=

> <r_lp_tautomer_probability>
1

> <r_epik_Ionization_Penalty>
1.90777e-08

> <r_epik_Ionization_Penalty_Charging>
3.07942e-11

> <r_epik_Ionization_Penalty_Neutral>
1.90469e-08

> <r_epik_State_Penalty>
-0

> <r_epik_Charging_Adjusted_Penalty>
3.07942e-11

> <i_epik_Tot_Q>
0

> <i_epik_Tot_abs_Q>
0

> <r_epik_Metal_State_Penalty>
-0

> <b_epik_Metal_Only>
0

> <s_lp_Force_Field>
OPLS_2005

> <r_lp_Energy>
24.1651

> <b_lp_Chiralities_Consistent>
1

> <s_lp_Variant>
AV-unprocessed.smi:2976-8

> <Gold.Version>
5.8.1

> <Gold.Id.Protein>
6NUR|6NUR_protein|mol2

> <Gold.PLP.Fitness>
36.2300

> <Gold.PLP.PLP>
-33.4539

> <Gold.PLP.part.hbond>
-1.9190

> <Gold.PLP.part.metal>
0.0000

> <Gold.PLP.part.buried>
-4.2428

> <Gold.PLP.part.nonpolar>
-27.5688

> <Gold.PLP.part.repulsive>
0.0904

> <Gold.PLP.ligand.clash>
0.0000

> <Gold.PLP.ligand.torsion>
0.1172

> <Gold.PLP.Chemscore.Hbond>
1.0000

> <Gold.PLP.Chemscore.CHOScore>
0.0000

> <Gold.PLP.Chemscore.Metal>
0.0000

> <Gold.Chemscore.Hbonds>
donor molecule, donor type, donor heavy atom, donor atom, acceptor molecule, acceptor atom, score
      P1  H  6934  6947       L1    12  0.88

> <Gold.PLP.Chemscore.Internal.Correction>
0.0105

> <Gold.Rescore>
     Score         DG    S(hbond)    S(metal)    S(lipo)     H(rot)  DE(clash)    DE(int)     intcor
     13.65     -15.31       0.90        0.00      90.90       1.49       0.04       1.62       ----

> <Gold.Chemscore.Fitness>
13.6530

> <Gold.Chemscore.DG>
-15.3104

> <Gold.Chemscore.ZeroCoef>
-5.4800

> <Gold.Chemscore.Hbond>
0.8983

> <Gold.Chemscore.Metal>
0.0000

> <Gold.Chemscore.Lipo>
90.9044

> <Gold.Chemscore.Internal_Hbond>
0.0000

> <Gold.Chemscore.DEClash>
0.0365

> <Gold.Chemscore.DEInternal>
1.6209

> <Gold.Chemscore.Rot>
1.4866

> <Gold.Chemscore.Internal.Correction>
   9.000000E+99

> <Gold.Chemscore.Hbonds>
donor molecule, donor type, donor heavy atom, donor atom, acceptor molecule, acceptor atom, score
      P1  H  6934  6947       L1    12  0.73

> <Gold.Chemscore.Hbond.Weighted>
-3.0002

> <Gold.Chemscore.Metal.Weighted>
-0.0000

> <Gold.Chemscore.Lipo.Weighted>
-10.6358

> <Gold.Chemscore.Internal_Hbond.Weighted>
0.0000

> <Gold.Chemscore.DEClash.Weighted>
0.0365

> <Gold.Chemscore.DEInternal.Weighted>
1.6209

> <Gold.Chemscore.Rot.Weighted>
3.8057

> <Gold.Chemscore.Internal.Correction.Weighted>
   9.000000E+99

> <Gold.Protein.RotatedTorsions>
[ 6907 6896 6895 6894 ] final -160.01 input  -60.11 | X-H torsion
[ 7974 7965 7964 7962 ] final  -22.20 input  175.53 | X-H torsion
[ 8008 7997 7996 7995 ] final  -54.43 input   59.86 | X-H torsion
[ 10167 10162 10161 10158 ] final  166.05 input  -65.29 | X-H torsion
[ 10718 10713 10712 10709 ] final  -78.24 input   66.30 | X-H torsion
[ 10763 10752 10751 10750 ] final   96.81 input  -60.55 | X-H torsion
[ 11005 11000 10999 10996 ] final  -71.89 input  -57.11 | X-H torsion

> <Gold.Protein.ActiveResidues>
 VAL166  LYS551  ARG553  GLY616  TRP617  ASP618  TYR619  PRO620  LYS621  CYS622 
 ASP623  PHE694  ASN695  SER759  ASP760  ASP761  ALA762  ILE779  LEU786  VAL792 
 PHE793  MET794  SER795  GLU796  ALA797  LYS798  CYS799  TRP800  GLU811  SER814 

> <Gold.Protein.RotatedAtoms>
  151.3424  133.3957  159.2672 H   0  0  0  0  0  0  0  0  0  0  0  0  # atno 6907 bound_to 6896
  150.9867  134.9211  159.7886 H   0  0  0  0  0  0  0  0  0  0  0  0  # atno 6908 bound_to 6896
  152.5234  134.3389  159.9262 H   0  0  0  0  0  0  0  0  0  0  0  0  # atno 6909 bound_to 6896
  146.1689  140.4446  142.8540 H   0  0  0  0  0  0  0  0  0  0  0  0  # atno 7974 bound_to 7965
  154.4162  140.1176  156.5314 H   0  0  0  0  0  0  0  0  0  0  0  0  # atno 8008 bound_to 7997
  155.6601  140.3496  155.4760 H   0  0  0  0  0  0  0  0  0  0  0  0  # atno 8009 bound_to 7997
  155.9720  140.1143  157.0794 H   0  0  0  0  0  0  0  0  0  0  0  0  # atno 8010 bound_to 7997
  139.4917  144.4068  151.9346 H   0  0  0  0  0  0  0  0  0  0  0  0  # atno 10167 bound_to 10162
  156.0123  130.4512  150.3466 H   0  0  0  0  0  0  0  0  0  0  0  0  # atno 10718 bound_to 10713
  153.2694  135.4205  155.0973 H   0  0  0  0  0  0  0  0  0  0  0  0  # atno 10763 bound_to 10752
  154.8450  135.3468  154.6265 H   0  0  0  0  0  0  0  0  0  0  0  0  # atno 10764 bound_to 10752
  153.6685  135.7045  153.5212 H   0  0  0  0  0  0  0  0  0  0  0  0  # atno 10765 bound_to 10752
  141.1600  133.6830  156.6975 H   0  0  0  0  0  0  0  0  0  0  0  0  # atno 11005 bound_to 11000
  144.8134  140.6425  143.6400 LP  0  0  0  0  0  0  0  0  0  0  0  0  # atno 17320 bound_to 7965
  145.4393  139.1538  143.3979 LP  0  0  0  0  0  0  0  0  0  0  0  0  # atno 17321 bound_to 7965
  140.3508  144.3091  150.5949 LP  0  0  0  0  0  0  0  0  0  0  0  0  # atno 17342 bound_to 10162
  140.5487  143.2210  151.7964 LP  0  0  0  0  0  0  0  0  0  0  0  0  # atno 17343 bound_to 10162
  157.1560  131.0333  151.2863 LP  0  0  0  0  0  0  0  0  0  0  0  0  # atno 17370 bound_to 10713
  157.4352  130.7513  149.7023 LP  0  0  0  0  0  0  0  0  0  0  0  0  # atno 17371 bound_to 10713
  140.2983  134.8184  157.4076 LP  0  0  0  0  0  0  0  0  0  0  0  0  # atno 17394 bound_to 11000
  140.1284  134.5127  155.8125 LP  0  0  0  0  0  0  0  0  0  0  0  0  # atno 17395 bound_to 11000

$$$$
