AV-unprocessed.smi:1867|AV-procd|sdf|7575|dock2
  -GOLD-   22720 9283D 1   1.00000     0.00000
 Structure written by MMmdl.
 53 56  0  0  0  0  0  0  0  0  3 V2000
  151.0306  135.5247  154.6945 O   0  0  0  0  0  0  0  0  0  0  0  0
  149.8328  135.7464  154.8497 C   0  0  0  0  0  0  0  0  0  0  0  0
  149.3200  136.8351  155.4580 N   0  0  0  0  0  0  0  0  0  0  0  0
  149.9930  137.9251  156.0769 C   0  0  0  0  0  0  0  0  0  0  0  0
  151.1603  138.4087  155.4466 C   0  0  0  0  0  0  0  0  0  0  0  0
  151.8696  139.4879  156.0121 C   0  0  0  0  0  0  0  0  0  0  0  0
  151.4008  140.0730  157.2108 C   0  0  0  0  0  0  0  0  0  0  0  0
  152.0274  141.1508  157.8523 N   0  0  0  0  0  0  0  0  0  0  0  0
  152.5752  140.8521  159.1651 C   0  0  0  0  0  0  0  0  0  0  0  0
  152.8152  142.2107  159.8282 C   0  0  0  0  0  0  0  0  0  0  0  0
  151.8966  143.1830  159.0783 C   0  0  0  0  0  0  0  0  0  0  0  0
  151.1890  142.3249  158.0261 C   0  0  0  0  0  0  0  0  0  0  0  0
  150.2865  139.5769  157.7900 N   0  3  0  0  0  0  0  0  0  0  0  0
  149.5780  138.5451  157.2819 C   0  0  0  0  0  0  0  0  0  0  0  0
  148.9080  134.8804  154.3991 N   0  0  0  0  0  0  0  0  0  0  0  0
  149.1194  133.6124  153.7002 C   0  0  1  0  0  0  0  0  0  0  0  0
  149.7994  132.5281  154.5590 C   0  0  0  0  0  0  0  0  0  0  0  0
  149.0982  131.2073  154.1811 C   0  0  0  0  0  0  0  0  0  0  0  0
  148.1665  131.5576  153.0921 N   0  3  1  0  0  0  0  0  0  0  0  0
  146.9960  130.6754  152.8923 C   0  0  0  0  0  0  0  0  0  0  0  0
  146.1958  131.1630  151.6671 C   0  0  0  0  0  0  0  0  0  0  0  0
  145.8306  132.6580  151.7774 C   0  0  0  0  0  0  0  0  0  0  0  0
  147.0753  133.5147  152.0800 C   0  0  0  0  0  0  0  0  0  0  0  0
  147.7900  132.9601  153.3228 C   0  0  2  0  0  0  0  0  0  0  0  0
  148.3129  136.8659  155.5170 H   0  0  0  0  0  0  0  0  0  0  0  0
  151.5132  137.9588  154.5298 H   0  0  0  0  0  0  0  0  0  0  0  0
  152.7617  139.8577  155.5276 H   0  0  0  0  0  0  0  0  0  0  0  0
  151.8684  140.2678  159.7556 H   0  0  0  0  0  0  0  0  0  0  0  0
  153.4988  140.2782  159.0830 H   0  0  0  0  0  0  0  0  0  0  0  0
  152.6024  142.1786  160.8973 H   0  0  0  0  0  0  0  0  0  0  0  0
  153.8555  142.5143  159.7056 H   0  0  0  0  0  0  0  0  0  0  0  0
  151.1831  143.6747  159.7403 H   0  0  0  0  0  0  0  0  0  0  0  0
  152.4927  143.9594  158.5971 H   0  0  0  0  0  0  0  0  0  0  0  0
  151.0684  142.8635  157.0857 H   0  0  0  0  0  0  0  0  0  0  0  0
  150.1974  142.0387  158.3795 H   0  0  0  0  0  0  0  0  0  0  0  0
  148.7167  138.2671  157.8688 H   0  0  0  0  0  0  0  0  0  0  0  0
  147.9439  135.1475  154.5395 H   0  0  0  0  0  0  0  0  0  0  0  0
  149.6982  133.7696  152.7876 H   0  0  0  0  0  0  0  0  0  0  0  0
  150.8718  132.4880  154.3645 H   0  0  0  0  0  0  0  0  0  0  0  0
  149.6675  132.7231  155.6246 H   0  0  0  0  0  0  0  0  0  0  0  0
  149.8012  130.4396  153.8565 H   0  0  0  0  0  0  0  0  0  0  0  0
  148.5444  130.8198  155.0377 H   0  0  0  0  0  0  0  0  0  0  0  0
  147.3322  129.6494  152.7387 H   0  0  0  0  0  0  0  0  0  0  0  0
  146.3688  130.6804  153.7852 H   0  0  0  0  0  0  0  0  0  0  0  0
  146.7880  131.0048  150.7647 H   0  0  0  0  0  0  0  0  0  0  0  0
  145.2913  130.5654  151.5496 H   0  0  0  0  0  0  0  0  0  0  0  0
  145.3557  132.9977  150.8566 H   0  0  0  0  0  0  0  0  0  0  0  0
  145.0955  132.7931  152.5720 H   0  0  0  0  0  0  0  0  0  0  0  0
  147.7489  133.5058  151.2219 H   0  0  0  0  0  0  0  0  0  0  0  0
  146.7859  134.5537  152.2413 H   0  0  0  0  0  0  0  0  0  0  0  0
  147.1136  133.0003  154.1801 H   0  0  0  0  0  0  0  0  0  0  0  0
  148.7043  131.5422  152.2374 H   0  0  0  0  0  0  0  0  0  0  0  0
  149.9612  140.0044  158.6574 H   0  0  0  0  0  0  0  0  0  0  0  0
  1  2  2  0  0  0  0
  2  3  1  0  0  0  0
  2 15  1  0  0  0  0
  3  4  1  0  0  0  0
  3 25  1  0  0  0  0
  4 14  1  0  0  0  0
  4  5  2  0  0  0  0
  5  6  1  0  0  0  0
  5 26  1  0  0  0  0
  6  7  2  0  0  0  0
  6 27  1  0  0  0  0
  7  8  1  0  0  0  0
  7 13  1  0  0  0  0
  8 12  1  0  0  0  0
  8  9  1  0  0  0  0
  9 10  1  0  0  0  0
  9 28  1  0  0  0  0
  9 29  1  0  0  0  0
 10 11  1  0  0  0  0
 10 30  1  0  0  0  0
 10 31  1  0  0  0  0
 11 12  1  0  0  0  0
 11 32  1  0  0  0  0
 11 33  1  0  0  0  0
 12 34  1  0  0  0  0
 12 35  1  0  0  0  0
 13 14  2  0  0  0  0
 13 53  1  0  0  0  0
 14 36  1  0  0  0  0
 15 16  1  0  0  0  0
 15 37  1  0  0  0  0
 16 24  1  0  0  0  0
 16 17  1  0  0  0  0
 16 38  1  0  0  0  0
 17 18  1  0  0  0  0
 17 39  1  0  0  0  0
 17 40  1  0  0  0  0
 18 19  1  0  0  0  0
 18 41  1  0  0  0  0
 18 42  1  0  0  0  0
 19 24  1  0  0  0  0
 19 20  1  0  0  0  0
 19 52  1  0  0  0  0
 20 21  1  0  0  0  0
 20 43  1  0  0  0  0
 20 44  1  0  0  0  0
 21 22  1  0  0  0  0
 21 45  1  0  0  0  0
 21 46  1  0  0  0  0
 22 23  1  0  0  0  0
 22 47  1  0  0  0  0
 22 48  1  0  0  0  0
 23 24  1  0  0  0  0
 23 49  1  0  0  0  0
 23 50  1  0  0  0  0
 24 51  1  0  0  0  0
M  CHG  1  13   1
M  CHG  1  19   1
M  END
> <s_m_source_file>
AV-unprocessed.smi

> <i_m_source_file_index>
1867

> <i_lp_mmshare_version>
43012

> <i_f3d_flags>
0

> <s_epik_input>
W0NIMl0xW0NIMl1bQ0gyXVtDSDJdW0NASF0oTjEyKVtDQEBIXShbQ0gyXVtDSDJdMilbTkhdQyg9TylbTkhdYzNbY0hdW2NIXWMobltjSF0zKU40W0NIMl1bQ0gyXVtDSDJdW0NIMl00

> <s_epik_cmdline>
J2VwaWtfcHl0aG9uJywgJy1waCcsICc3LjAnLCAnLXRuJywgJzgnLCAnLW1hJywgJzIwMCcsICctbWV0YWxfYmluZGluZycsICctaW1hZScsICc8aW5maWxlLm1hZT4nLCAnLW9tYWUnLCAnPG91dGZpbGUubWFlPic=

> <r_lp_tautomer_probability>
0.999994

> <r_epik_Ionization_Penalty>
1.27347

> <r_epik_Ionization_Penalty_Charging>
1.27345

> <r_epik_Ionization_Penalty_Neutral>
1.96458e-05

> <r_epik_State_Penalty>
1.34393

> <r_epik_Charging_Adjusted_Penalty>
2.61738

> <i_epik_Tot_Q>
2

> <i_epik_Tot_abs_Q>
2

> <r_epik_Metal_State_Penalty>
1.41094

> <b_epik_Metal_Only>
0

> <s_lp_Force_Field>
OPLS_2005

> <r_lp_Energy>
83.8069

> <b_lp_Chiralities_Consistent>
1

> <s_lp_Variant>
AV-unprocessed.smi:1867-16

> <Gold.Version>
5.8.1

> <Gold.Id.Protein>
6NUR|6NUR_protein|mol2

> <Gold.PLP.Fitness>
43.2815

> <Gold.PLP.PLP>
-38.2764

> <Gold.PLP.part.hbond>
-3.0000

> <Gold.PLP.part.metal>
0.0000

> <Gold.PLP.part.buried>
-0.7576

> <Gold.PLP.part.nonpolar>
-33.3524

> <Gold.PLP.part.repulsive>
0.2699

> <Gold.PLP.ligand.clash>
0.0000

> <Gold.PLP.ligand.torsion>
0.3493

> <Gold.PLP.Chemscore.Hbond>
1.8938

> <Gold.PLP.Chemscore.CHOScore>
0.0000

> <Gold.PLP.Chemscore.Metal>
0.0000

> <Gold.Chemscore.Hbonds>
donor molecule, donor type, donor heavy atom, donor atom, acceptor molecule, acceptor atom, score
      L1  H    19    52       P1 10747  0.89
      P1  H 10752 10763       L1     1  1.00

> <Gold.PLP.Chemscore.Internal.Correction>
0.0224

> <Gold.Rescore>
     Score         DG    S(hbond)    S(metal)    S(lipo)     H(rot)  DE(clash)    DE(int)     intcor
     18.87     -20.95       1.90        0.00     104.11       1.20       0.61       1.47       ----

> <Gold.Chemscore.Fitness>
18.8709

> <Gold.Chemscore.DG>
-20.9547

> <Gold.Chemscore.ZeroCoef>
-5.4800

> <Gold.Chemscore.Hbond>
1.9023

> <Gold.Chemscore.Metal>
0.0000

> <Gold.Chemscore.Lipo>
104.1064

> <Gold.Chemscore.Internal_Hbond>
0.0000

> <Gold.Chemscore.DEClash>
0.6109

> <Gold.Chemscore.DEInternal>
1.4729

> <Gold.Chemscore.Rot>
1.1950

> <Gold.Chemscore.Internal.Correction>
   9.000000E+99

> <Gold.Chemscore.Hbonds>
donor molecule, donor type, donor heavy atom, donor atom, acceptor molecule, acceptor atom, score
      L1  H    19    52       P1 10747  0.77
      P1  H 10752 10763       L1     1  0.97

> <Gold.Chemscore.Hbond.Weighted>
-6.3535

> <Gold.Chemscore.Metal.Weighted>
-0.0000

> <Gold.Chemscore.Lipo.Weighted>
-12.1804

> <Gold.Chemscore.Internal_Hbond.Weighted>
0.0000

> <Gold.Chemscore.DEClash.Weighted>
0.6109

> <Gold.Chemscore.DEInternal.Weighted>
1.4729

> <Gold.Chemscore.Rot.Weighted>
3.0593

> <Gold.Chemscore.Internal.Correction.Weighted>
   9.000000E+99

> <Gold.Protein.RotatedTorsions>
[ 6907 6896 6895 6894 ] final  -41.75 input  -60.11 | X-H torsion
[ 7974 7965 7964 7962 ] final  162.78 input  175.53 | X-H torsion
[ 8008 7997 7996 7995 ] final  -98.98 input   59.86 | X-H torsion
[ 10167 10162 10161 10158 ] final  -34.01 input  -65.29 | X-H torsion
[ 10718 10713 10712 10709 ] final  164.65 input   66.30 | X-H torsion
[ 10763 10752 10751 10750 ] final   57.43 input  -60.55 | X-H torsion
[ 11005 11000 10999 10996 ] final -108.24 input  -57.11 | X-H torsion

> <Gold.Protein.ActiveResidues>
 VAL166  LYS551  ARG553  GLY616  TRP617  ASP618  TYR619  PRO620  LYS621  CYS622 
 ASP623  PHE694  ASN695  SER759  ASP760  ASP761  ALA762  ILE779  LEU786  VAL792 
 PHE793  MET794  SER795  GLU796  ALA797  LYS798  CYS799  TRP800  GLU811  SER814 

> <Gold.Protein.RotatedAtoms>
  150.9631  134.9016  159.7742 H   0  0  0  0  0  0  0  0  0  0  0  0  # atno 6907 bound_to 6896
  152.5163  134.3645  159.9306 H   0  0  0  0  0  0  0  0  0  0  0  0  # atno 6908 bound_to 6896
  151.3656  133.3833  159.2729 H   0  0  0  0  0  0  0  0  0  0  0  0  # atno 6909 bound_to 6896
  144.7620  139.8088  143.6329 H   0  0  0  0  0  0  0  0  0  0  0  0  # atno 7974 bound_to 7965
  154.8086  140.0451  157.1326 H   0  0  0  0  0  0  0  0  0  0  0  0  # atno 8008 bound_to 7997
  154.9394  140.3050  155.5108 H   0  0  0  0  0  0  0  0  0  0  0  0  # atno 8009 bound_to 7997
  156.2969  140.2308  156.4462 H   0  0  0  0  0  0  0  0  0  0  0  0  # atno 8010 bound_to 7997
  140.7194  143.3578  151.2023 H   0  0  0  0  0  0  0  0  0  0  0  0  # atno 10167 bound_to 10162
  157.0914  131.0418  151.2535 H   0  0  0  0  0  0  0  0  0  0  0  0  # atno 10718 bound_to 10713
  152.9850  135.5642  154.5389 H   0  0  0  0  0  0  0  0  0  0  0  0  # atno 10763 bound_to 10752
  154.4847  135.2790  155.1545 H   0  0  0  0  0  0  0  0  0  0  0  0  # atno 10764 bound_to 10752
  154.3039  135.6302  153.5490 H   0  0  0  0  0  0  0  0  0  0  0  0  # atno 10765 bound_to 10752
  141.0912  133.9051  157.2071 H   0  0  0  0  0  0  0  0  0  0  0  0  # atno 11005 bound_to 11000
  146.1693  139.4837  142.9938 LP  0  0  0  0  0  0  0  0  0  0  0  0  # atno 17320 bound_to 7965
  145.6588  141.0245  143.1720 LP  0  0  0  0  0  0  0  0  0  0  0  0  # atno 17321 bound_to 7965
  139.7124  143.9355  152.2953 LP  0  0  0  0  0  0  0  0  0  0  0  0  # atno 17342 bound_to 10162
  139.9085  144.6870  150.8588 LP  0  0  0  0  0  0  0  0  0  0  0  0  # atno 17343 bound_to 10162
  157.4718  130.7713  149.7330 LP  0  0  0  0  0  0  0  0  0  0  0  0  # atno 17370 bound_to 10713
  155.9897  130.3950  150.3061 LP  0  0  0  0  0  0  0  0  0  0  0  0  # atno 17371 bound_to 10713
  139.9738  135.0120  156.9580 LP  0  0  0  0  0  0  0  0  0  0  0  0  # atno 17394 bound_to 11000
  140.5247  134.0872  155.7300 LP  0  0  0  0  0  0  0  0  0  0  0  0  # atno 17395 bound_to 11000

$$$$
