#       Name:                AV-unprocessed.smi:315
#       Creating user name   scv26
#       Creation time:       Thu Mar 26 22:22:11 2020


#       File generated by GOLD software.
#

@<TRIPOS>MOLECULE
AV-unprocessed.smi:315
    52    54     1
SMALL
NO_CHARGES


@<TRIPOS>ATOM
      1 ****        -1.8269   3.6453   0.6161 C.3            1 S1                 0.0000
      2 ****        -0.3490   4.0421   0.6527 C.3            1 S1                 0.0000
      3 ****         0.4369   2.8572   0.5851 O.3            1 S1                 0.0000
      4 ****         1.8141   2.9681   0.6201 C.ar           1 S1                 0.0000
      5 ****         2.3626   4.2043   0.7215 N.ar           1 S1                 0.0000
      6 ****         3.7073   4.3080   0.7539 C.ar           1 S1                 0.0000
      7 ****         4.5680   3.1970   0.6809 C.ar           1 S1                 0.0000
      8 ****         4.0006   1.9134   0.5749 C.ar           1 S1                 0.0000
      9 ****         2.5905   1.7882   0.5535 C.ar           1 S1                 0.0000
     10 ****         1.9000   0.5518   0.4364 N.am           1 S1                 0.0000
     11 ****         2.3274  -0.6961   0.7067 C.2            1 S1                 0.0000
     12 ****         3.4704  -0.9918   1.0462 O.2            1 S1                 0.0000
     13 ****         1.3719  -1.6351   0.5852 N.am           1 S1                 0.0000
     14 ****         1.4987  -3.0776   0.8042 C.3            1 S1                 0.0000
     15 ****         2.2725  -3.8200  -0.2995 C.3            1 S1                 0.0000
     16 ****         1.5301  -5.1567  -0.4945 C.3            1 S1                 0.0000
     17 ****         0.4521  -5.1968   0.5200 N.4            1 S1                 1.0000
     18 ****         0.8440  -5.9835   1.7217 C.3            1 S1                 0.0000
     19 ****        -0.1682  -5.8344   2.8648 C.3            1 S1                 0.0000
     20 ****        -0.3194  -4.3600   3.2467 C.3            1 S1                 0.0000
     21 ****        -0.7700  -3.5573   2.0214 C.3            1 S1                 0.0000
     22 ****         0.1338  -3.7728   0.7864 C.3            1 S1                 0.0000
     23 ****        -2.4677   4.5257   0.6703 H              1 S1                 0.0000
     24 ****        -2.0785   2.9958   1.4548 H              1 S1                 0.0000
     25 ****        -2.0664   3.1128  -0.3045 H              1 S1                 0.0000
     26 ****        -0.1232   4.6973  -0.1901 H              1 S1                 0.0000
     27 ****        -0.1395   4.5884   1.5736 H              1 S1                 0.0000
     28 ****         4.1091   5.3070   0.8347 H              1 S1                 0.0000
     29 ****         5.6399   3.3271   0.7016 H              1 S1                 0.0000
     30 ****         4.6564   1.0605   0.5000 H              1 S1                 0.0000
     31 ****         0.9198   0.6360   0.2110 H              1 S1                 0.0000
     32 ****         0.4552  -1.3083   0.3148 H              1 S1                 0.0000
     33 ****         1.9790  -3.2600   1.7671 H              1 S1                 0.0000
     34 ****         2.2740  -3.2581  -1.2348 H              1 S1                 0.0000
     35 ****         3.3126  -3.9761  -0.0109 H              1 S1                 0.0000
     36 ****         1.0703  -5.1786  -1.4832 H              1 S1                 0.0000
     37 ****         2.1976  -6.0175  -0.4306 H              1 S1                 0.0000
     38 ****         0.9350  -7.0341   1.4436 H              1 S1                 0.0000
     39 ****         1.8295  -5.6677   2.0682 H              1 S1                 0.0000
     40 ****        -1.1333  -6.2454   2.5656 H              1 S1                 0.0000
     41 ****         0.1610  -6.4107   3.7301 H              1 S1                 0.0000
     42 ****        -1.0459  -4.2523   4.0525 H              1 S1                 0.0000
     43 ****         0.6262  -3.9717   3.6266 H              1 S1                 0.0000
     44 ****        -1.7865  -3.8599   1.7659 H              1 S1                 0.0000
     45 ****        -0.8271  -2.4965   2.2674 H              1 S1                 0.0000
     46 ****        -0.4128  -3.4093  -0.0865 H              1 S1                 0.0000
     47 ****        -0.3637  -5.6422   0.1244 H              1 S1                 0.0000
     48 ****         0.2009   2.3966  -0.2705 LP             1 S1                 0.0000
     49 ****         0.1687   2.2823   1.3581 LP             1 S1                 0.0000
     50 ****         1.7845   5.0188   0.7710 LP             1 S1                 0.0000
     51 ****         4.1646  -0.2781   1.1398 LP             1 S1                 0.0000
     52 ****         3.7066  -1.9461   1.2289 LP             1 S1                 0.0000
@<TRIPOS>BOND
    1    1    2 1     
    2    1   23 1     
    3    1   24 1     
    4    1   25 1     
    5    2    3 1     
    6    2   26 1     
    7    2   27 1     
    8    3    4 1     
    9    4    9 ar    
   10    4    5 ar    
   11    5    6 ar    
   12    6    7 ar    
   13    6   28 1     
   14    7    8 ar    
   15    7   29 1     
   16    8    9 ar    
   17    8   30 1     
   18    9   10 1     
   19   10   11 am    
   20   10   31 1     
   21   11   12 2     
   22   11   13 am    
   23   13   14 1     
   24   13   32 1     
   25   14   22 1     
   26   14   15 1     
   27   14   33 1     
   28   15   16 1     
   29   15   34 1     
   30   15   35 1     
   31   16   17 1     
   32   16   36 1     
   33   16   37 1     
   34   17   22 1     
   35   17   18 1     
   36   17   47 1     
   37   18   19 1     
   38   18   38 1     
   39   18   39 1     
   40   19   20 1     
   41   19   40 1     
   42   19   41 1     
   43   20   21 1     
   44   20   42 1     
   45   20   43 1     
   46   21   22 1     
   47   21   44 1     
   48   21   45 1     
   49   22   46 1     
   50    3   48 1     
   51    3   49 1     
   52    5   50 1     
   53   12   51 1     
   54   12   52 1     
@<TRIPOS>SUBSTRUCTURE
      1 S1             1
@<TRIPOS>SET
LONE_PAIRS      STATIC     ATOMS    <user>   **** ""
5 48 49 50 51 52
DONOR_HYDROGENS      STATIC     ATOMS    <user>   **** ""
3 31 32 47
ATOM$BLUE        STATIC     ATOMS    COLORGROUP SYSTEM
5 48 49 50 51 52
ATOM$RED        STATIC     ATOMS    COLORGROUP SYSTEM
3 31 32 47
