AV-unprocessed.smi:438|AV-procd|sdf|2563|dock2
  -GOLD-   2262022533D 1   1.00000     0.00000
 Structure written by MMmdl.
 48 49  0  0  0  0  0  0  0  0  1 V2000
  153.4145  137.3058  157.2955 C   0  0  0  0  0  0  0  0  0  0  0  0
  152.3811  137.2824  156.1833 C   0  0  0  0  0  0  0  0  0  0  0  0
  151.8386  136.0258  155.8871 N   0  0  0  0  0  0  0  0  0  0  0  0
  150.9467  135.9060  154.9563 C   0  0  0  0  0  0  0  0  0  0  0  0
  150.0869  134.4163  154.3753 S   0  0  0  0  0  0  0  0  0  0  0  0
  148.4740  134.6035  155.1857 C   0  0  0  0  0  0  0  0  0  0  0  0
  147.3699  133.8331  154.4664 C   0  0  0  0  0  0  0  0  0  0  0  0
  146.6629  133.0432  155.0917 O   0  0  0  0  0  0  0  0  0  0  0  0
  147.2346  134.0683  153.1522 N   0  0  0  0  0  0  0  0  0  0  0  0
  146.2436  133.4472  152.2760 C   0  0  2  0  0  0  0  0  0  0  0  0
  146.5874  131.9555  152.0768 C   0  0  0  0  0  0  0  0  0  0  0  0
  145.6153  131.2726  151.1042 C   0  0  0  0  0  0  0  0  0  0  0  0
  145.5772  132.0083  149.7584 C   0  0  0  0  0  0  0  0  0  0  0  0
  145.2124  133.4877  149.9511 C   0  0  0  0  0  0  0  0  0  0  0  0
  146.1794  134.1964  150.9210 C   0  0  1  0  0  0  0  0  0  0  0  0
  145.7907  135.6772  151.0832 C   0  0  0  0  0  0  0  0  0  0  0  0
  150.5186  137.0236  154.2384 N   0  0  0  0  0  0  0  0  0  0  0  0
  150.9854  138.2758  154.4415 C   0  0  0  0  0  0  0  0  0  0  0  0
  150.5700  139.2139  153.7630 O   0  0  0  0  0  0  0  0  0  0  0  0
  151.9971  138.3993  155.5041 C   0  0  0  0  0  0  0  0  0  0  0  0
  152.5495  139.7904  155.8022 C   0  0  0  0  0  0  0  0  0  0  0  0
  151.4359  140.7994  156.1177 C   0  0  0  0  0  0  0  0  0  0  0  0
  150.8234  140.4676  157.3447 O   0  0  0  0  0  0  0  0  0  0  0  0
  154.3214  137.8157  156.9696 H   0  0  0  0  0  0  0  0  0  0  0  0
  153.6923  136.2960  157.5999 H   0  0  0  0  0  0  0  0  0  0  0  0
  153.0191  137.8235  158.1697 H   0  0  0  0  0  0  0  0  0  0  0  0
  148.2215  135.6637  155.2377 H   0  0  0  0  0  0  0  0  0  0  0  0
  148.5453  134.2402  156.2114 H   0  0  0  0  0  0  0  0  0  0  0  0
  147.8627  134.7332  152.7248 H   0  0  0  0  0  0  0  0  0  0  0  0
  145.2603  133.5168  152.7457 H   0  0  0  0  0  0  0  0  0  0  0  0
  147.6047  131.8588  151.6953 H   0  0  0  0  0  0  0  0  0  0  0  0
  146.5676  131.4332  153.0341 H   0  0  0  0  0  0  0  0  0  0  0  0
  145.9095  130.2336  150.9524 H   0  0  0  0  0  0  0  0  0  0  0  0
  144.6154  131.2515  151.5396 H   0  0  0  0  0  0  0  0  0  0  0  0
  146.5490  131.9303  149.2694 H   0  0  0  0  0  0  0  0  0  0  0  0
  144.8566  131.5306  149.0940 H   0  0  0  0  0  0  0  0  0  0  0  0
  145.2196  133.9913  148.9837 H   0  0  0  0  0  0  0  0  0  0  0  0
  144.1915  133.5626  150.3285 H   0  0  0  0  0  0  0  0  0  0  0  0
  147.1736  134.1674  150.4719 H   0  0  0  0  0  0  0  0  0  0  0  0
  144.8128  135.7795  151.5546 H   0  0  0  0  0  0  0  0  0  0  0  0
  145.7463  136.1777  150.1156 H   0  0  0  0  0  0  0  0  0  0  0  0
  146.5123  136.2205  151.6937 H   0  0  0  0  0  0  0  0  0  0  0  0
  149.8228  136.8954  153.5180 H   0  0  0  0  0  0  0  0  0  0  0  0
  153.1395  140.1488  154.9590 H   0  0  0  0  0  0  0  0  0  0  0  0
  153.2507  139.7332  156.6363 H   0  0  0  0  0  0  0  0  0  0  0  0
  151.8384  141.8105  156.1842 H   0  0  0  0  0  0  0  0  0  0  0  0
  150.6788  140.7997  155.3327 H   0  0  0  0  0  0  0  0  0  0  0  0
  150.7056  141.2600  157.8458 H   0  0  0  0  0  0  0  0  0  0  0  0
  1 24  1  0  0  0  0
  1 25  1  0  0  0  0
  1 26  1  0  0  0  0
  1  2  1  0  0  0  0
  2 20  2  0  0  0  0
  2  3  1  0  0  0  0
  3  4  2  0  0  0  0
  4  5  1  0  0  0  0
  4 17  1  0  0  0  0
  5  6  1  0  0  0  0
  6  7  1  0  0  0  0
  6 27  1  0  0  0  0
  6 28  1  0  0  0  0
  7  8  2  0  0  0  0
  7  9  1  0  0  0  0
  9 10  1  0  0  0  0
  9 29  1  0  0  0  0
 10 15  1  0  0  0  0
 10 11  1  0  0  0  0
 10 30  1  0  0  0  0
 11 12  1  0  0  0  0
 11 31  1  0  0  0  0
 11 32  1  0  0  0  0
 12 13  1  0  0  0  0
 12 33  1  0  0  0  0
 12 34  1  0  0  0  0
 13 14  1  0  0  0  0
 13 35  1  0  0  0  0
 13 36  1  0  0  0  0
 14 15  1  0  0  0  0
 14 37  1  0  0  0  0
 14 38  1  0  0  0  0
 15 16  1  0  0  0  0
 15 39  1  0  0  0  0
 16 40  1  0  0  0  0
 16 41  1  0  0  0  0
 16 42  1  0  0  0  0
 17 43  1  0  0  0  0
 17 18  1  0  0  0  0
 18 19  2  0  0  0  0
 18 20  1  0  0  0  0
 20 21  1  0  0  0  0
 21 22  1  0  0  0  0
 21 44  1  0  0  0  0
 21 45  1  0  0  0  0
 22 23  1  0  0  0  0
 22 46  1  0  0  0  0
 22 47  1  0  0  0  0
 23 48  1  0  0  0  0
M  END
> <s_m_source_file>
AV-unprocessed.smi

> <i_m_source_file_index>
438

> <i_lp_mmshare_version>
43012

> <i_f3d_flags>
0

> <s_epik_input>
W09IXVtDSDJdW0NIMl1jMWMoW09IXSluYyhuYzFbQ0gzXSlTW0NIMl1DKD1PKVtOSF1bQ0BASF0yW0NIMl1bQ0gyXVtDSDJdW0NIMl1bQ0BIXTJbQ0gzXQ==

> <s_epik_cmdline>
J2VwaWtfcHl0aG9uJywgJy1waCcsICc3LjAnLCAnLXRuJywgJzgnLCAnLW1hJywgJzIwMCcsICctbWV0YWxfYmluZGluZycsICctaW1hZScsICc8aW5maWxlLm1hZT4nLCAnLW9tYWUnLCAnPG91dGZpbGUubWFlPic=

> <r_lp_tautomer_probability>
0.660323

> <r_epik_Ionization_Penalty>
0.00860626

> <r_epik_Ionization_Penalty_Charging>
0.00860522

> <r_epik_Ionization_Penalty_Neutral>
1.04215e-06

> <r_epik_State_Penalty>
0.156825

> <r_epik_Charging_Adjusted_Penalty>
0.16543

> <i_epik_Tot_Q>
0

> <i_epik_Tot_abs_Q>
0

> <r_epik_Metal_State_Penalty>
0.752038

> <b_epik_Metal_Only>
0

> <s_lp_Force_Field>
OPLS_2005

> <r_lp_Energy>
14.035

> <b_lp_Chiralities_Consistent>
1

> <s_lp_Variant>
AV-unprocessed.smi:438-1

> <Gold.Version>
5.8.1

> <Gold.Id.Protein>
6NUR|6NUR_protein|mol2

> <Gold.PLP.Fitness>
44.9598

> <Gold.PLP.PLP>
-34.1246

> <Gold.PLP.part.hbond>
-4.2408

> <Gold.PLP.part.metal>
0.0000

> <Gold.PLP.part.buried>
-2.2812

> <Gold.PLP.part.nonpolar>
-29.0869

> <Gold.PLP.part.repulsive>
2.1174

> <Gold.PLP.ligand.clash>
0.0000

> <Gold.PLP.ligand.torsion>
0.5717

> <Gold.PLP.Chemscore.Hbond>
3.9513

> <Gold.PLP.Chemscore.CHOScore>
0.0000

> <Gold.PLP.Chemscore.Metal>
0.0000

> <Gold.Chemscore.Hbonds>
donor molecule, donor type, donor heavy atom, donor atom, acceptor molecule, acceptor atom, score
      L1  H     9    29       P1  7948  1.00
      L1  H    17    43       P1  7948  1.00
      P1  H  7989  7998       L1    19  0.99
      P1  H 10752 10763       L1     3  0.72

> <Gold.PLP.Chemscore.Internal.Correction>
0.1249

> <Gold.Rescore>
     Score         DG    S(hbond)    S(metal)    S(lipo)     H(rot)  DE(clash)    DE(int)     intcor
     14.69     -16.63       2.47        0.00      87.50       2.86       1.25       0.69       ----

> <Gold.Chemscore.Fitness>
14.6932

> <Gold.Chemscore.DG>
-16.6290

> <Gold.Chemscore.ZeroCoef>
-5.4800

> <Gold.Chemscore.Hbond>
2.4684

> <Gold.Chemscore.Metal>
0.0000

> <Gold.Chemscore.Lipo>
87.5021

> <Gold.Chemscore.Internal_Hbond>
0.0000

> <Gold.Chemscore.DEClash>
1.2471

> <Gold.Chemscore.DEInternal>
0.6887

> <Gold.Chemscore.Rot>
2.8645

> <Gold.Chemscore.Internal.Correction>
   9.000000E+99

> <Gold.Chemscore.Hbonds>
donor molecule, donor type, donor heavy atom, donor atom, acceptor molecule, acceptor atom, score
      L1  H     9    29       P1  7948  0.81
      L1  H    17    43       P1  7948  0.44
      P1  H  7989  7998       L1    19  0.92
      P1  H 10752 10763       L1     3  0.02

> <Gold.Chemscore.Hbond.Weighted>
-8.2443

> <Gold.Chemscore.Metal.Weighted>
-0.0000

> <Gold.Chemscore.Lipo.Weighted>
-10.2378

> <Gold.Chemscore.Internal_Hbond.Weighted>
0.0000

> <Gold.Chemscore.DEClash.Weighted>
1.2471

> <Gold.Chemscore.DEInternal.Weighted>
0.6887

> <Gold.Chemscore.Rot.Weighted>
7.3331

> <Gold.Chemscore.Internal.Correction.Weighted>
   9.000000E+99

> <Gold.Protein.RotatedTorsions>
[ 6907 6896 6895 6894 ] final   57.46 input  -60.11 | X-H torsion
[ 7974 7965 7964 7962 ] final -176.90 input  175.53 | X-H torsion
[ 8008 7997 7996 7995 ] final  -64.08 input   59.86 | X-H torsion
[ 10167 10162 10161 10158 ] final   89.64 input  -65.29 | X-H torsion
[ 10718 10713 10712 10709 ] final -147.81 input   66.30 | X-H torsion
[ 10763 10752 10751 10750 ] final   88.57 input  -60.55 | X-H torsion
[ 11005 11000 10999 10996 ] final   -1.57 input  -57.11 | X-H torsion

> <Gold.Protein.ActiveResidues>
 VAL166  LYS551  ARG553  GLY616  TRP617  ASP618  TYR619  PRO620  LYS621  CYS622 
 ASP623  PHE694  ASN695  SER759  ASP760  ASP761  ALA762  ILE779  LEU786  VAL792 
 PHE793  MET794  SER795  GLU796  ALA797  LYS798  CYS799  TRP800  GLU811  SER814 

> <Gold.Protein.RotatedAtoms>
  152.3733  134.6701  160.0168 H   0  0  0  0  0  0  0  0  0  0  0  0  # atno 6907 bound_to 6896
  151.6987  133.3305  159.3269 H   0  0  0  0  0  0  0  0  0  0  0  0  # atno 6908 bound_to 6896
  150.7690  134.6570  159.6363 H   0  0  0  0  0  0  0  0  0  0  0  0  # atno 6909 bound_to 6896
  144.7127  140.1100  143.6411 H   0  0  0  0  0  0  0  0  0  0  0  0  # atno 7974 bound_to 7965
  154.4591  140.0961  156.6842 H   0  0  0  0  0  0  0  0  0  0  0  0  # atno 8008 bound_to 7997
  155.5048  140.3474  155.4359 H   0  0  0  0  0  0  0  0  0  0  0  0  # atno 8009 bound_to 7997
  156.0836  140.1379  156.9670 H   0  0  0  0  0  0  0  0  0  0  0  0  # atno 8010 bound_to 7997
  139.8552  144.6573  150.9122 H   0  0  0  0  0  0  0  0  0  0  0  0  # atno 10167 bound_to 10162
  156.4122  130.7987  151.2205 H   0  0  0  0  0  0  0  0  0  0  0  0  # atno 10718 bound_to 10713
  153.1782  135.4502  154.9993 H   0  0  0  0  0  0  0  0  0  0  0  0  # atno 10763 bound_to 10752
  154.8012  135.3256  154.7547 H   0  0  0  0  0  0  0  0  0  0  0  0  # atno 10764 bound_to 10752
  153.8015  135.6962  153.4910 H   0  0  0  0  0  0  0  0  0  0  0  0  # atno 10765 bound_to 10752
  140.6488  133.9423  155.8368 H   0  0  0  0  0  0  0  0  0  0  0  0  # atno 11005 bound_to 11000
  145.9463  139.2703  143.1239 LP  0  0  0  0  0  0  0  0  0  0  0  0  # atno 17320 bound_to 7965
  145.9371  140.9007  143.0327 LP  0  0  0  0  0  0  0  0  0  0  0  0  # atno 17321 bound_to 7965
  140.7782  143.3792  151.1508 LP  0  0  0  0  0  0  0  0  0  0  0  0  # atno 17342 bound_to 10162
  139.7426  143.8900  152.3054 LP  0  0  0  0  0  0  0  0  0  0  0  0  # atno 17343 bound_to 10162
  157.7507  131.0254  150.3917 LP  0  0  0  0  0  0  0  0  0  0  0  0  # atno 17370 bound_to 10713
  156.4217  130.3954  149.6820 LP  0  0  0  0  0  0  0  0  0  0  0  0  # atno 17371 bound_to 10713
  141.0552  134.0426  157.3731 LP  0  0  0  0  0  0  0  0  0  0  0  0  # atno 17394 bound_to 11000
  139.9053  135.0177  156.7458 LP  0  0  0  0  0  0  0  0  0  0  0  0  # atno 17395 bound_to 11000

$$$$
