#       Name:                AV-unprocessed.smi:438
#       Creating user name   scv26
#       Creation time:       Thu Mar 26 22:53:29 2020


#       File generated by GOLD software.
#

@<TRIPOS>MOLECULE
AV-unprocessed.smi:438
    55    56     1
SMALL
NO_CHARGES


@<TRIPOS>ATOM
      1 ****        -4.3743  -1.2355   2.1184 C.3            1 S1                 0.0000
      2 ****        -3.7758   0.1536   1.9855 C.2            1 S1                 0.0000
      3 ****        -2.4393   0.1999   1.5699 N.2            1 S1                 0.0000
      4 ****        -1.8433   1.3400   1.4238 C.2            1 S1                 0.0000
      5 ****        -0.1391   1.6857   0.9019 S.3            1 S1                 0.0000
      6 ****         0.5093   0.0046   0.6852 C.3            1 S1                 0.0000
      7 ****         1.9624  -0.0014   0.2179 C.2            1 S1                 0.0000
      8 ****         2.8481   0.4288   0.9564 O.2            1 S1                 0.0000
      9 ****         2.1938  -0.4878  -1.0112 N.am           1 S1                 0.0000
     10 ****         3.5038  -0.5918  -1.6505 C.3            1 S1                 0.0000
     11 ****         3.8650   0.7524  -2.3183 C.3            1 S1                 0.0000
     12 ****         5.2029   0.6742  -3.0673 C.3            1 S1                 0.0000
     13 ****         5.1895  -0.4615  -4.0988 C.3            1 S1                 0.0000
     14 ****         4.8534  -1.8042  -3.4334 C.3            1 S1                 0.0000
     15 ****         3.5096  -1.7512  -2.6787 C.3            1 S1                 0.0000
     16 ****         3.2000  -3.1141  -2.0331 C.3            1 S1                 0.0000
     17 ****        -2.5228   2.5317   1.6800 N.am           1 S1                 0.0000
     18 ****        -3.8085   2.5942   2.0926 C.2            1 S1                 0.0000
     19 ****        -4.3416   3.6811   2.3101 O.2            1 S1                 0.0000
     20 ****        -4.4759   1.2915   2.2525 C.2            1 S1                 0.0000
     21 ****        -5.9371   1.2901   2.6931 C.3            1 S1                 0.0000
     22 ****        -6.0810   1.3823   4.2191 C.3            1 S1                 0.0000
     23 ****        -7.4468   1.3666   4.5725 O.3            1 S1                 0.0000
     24 ****        -4.8414  -1.3631   3.0952 H              1 S1                 0.0000
     25 ****        -3.6115  -2.0077   2.0115 H              1 S1                 0.0000
     26 ****        -5.1282  -1.3988   1.3480 H              1 S1                 0.0000
     27 ****        -0.1185  -0.5309  -0.0287 H              1 S1                 0.0000
     28 ****         0.4428  -0.5289   1.6339 H              1 S1                 0.0000
     29 ****         1.4027  -0.8173  -1.5449 H              1 S1                 0.0000
     30 ****         4.2545  -0.8136  -0.8892 H              1 S1                 0.0000
     31 ****         3.0783   1.0408  -3.0168 H              1 S1                 0.0000
     32 ****         3.9156   1.5436  -1.5692 H              1 S1                 0.0000
     33 ****         5.4085   1.6240  -3.5618 H              1 S1                 0.0000
     34 ****         6.0131   0.5135  -2.3548 H              1 S1                 0.0000
     35 ****         4.4563  -0.2431  -4.8762 H              1 S1                 0.0000
     36 ****         6.1583  -0.5241  -4.5952 H              1 S1                 0.0000
     37 ****         4.8237  -2.5870  -4.1923 H              1 S1                 0.0000
     38 ****         5.6531  -2.0763  -2.7430 H              1 S1                 0.0000
     39 ****         2.7282  -1.5537  -3.4145 H              1 S1                 0.0000
     40 ****         3.9319  -3.3620  -1.2637 H              1 S1                 0.0000
     41 ****         3.2174  -3.9115  -2.7765 H              1 S1                 0.0000
     42 ****         2.2133  -3.1276  -1.5698 H              1 S1                 0.0000
     43 ****        -2.0284   3.4036   1.5578 H              1 S1                 0.0000
     44 ****        -6.4373   0.3916   2.3323 H              1 S1                 0.0000
     45 ****        -6.4625   2.1191   2.2164 H              1 S1                 0.0000
     46 ****        -5.5791   0.5454   4.7055 H              1 S1                 0.0000
     47 ****        -5.6280   2.2996   4.5968 H              1 S1                 0.0000
     48 ****        -7.5148   1.4340   5.5126 H              1 S1                 0.0000
     49 ****        -1.9443  -0.6492   1.3856 LP             1 S1                 0.0000
     50 ****         2.6157   0.7823   1.8625 LP             1 S1                 0.0000
     51 ****         3.8001   0.4249   0.6503 LP             1 S1                 0.0000
     52 ****        -3.8234   4.5267   2.1819 LP             1 S1                 0.0000
     53 ****        -5.2932   3.7192   2.6151 LP             1 S1                 0.0000
     54 ****        -7.8649   0.5120   4.2646 LP             1 S1                 0.0000
     55 ****        -7.9147   2.1398   4.1443 LP             1 S1                 0.0000
@<TRIPOS>BOND
    1    1   24 1     
    2    1   25 1     
    3    1   26 1     
    4    1    2 1     
    5    2   20 2     
    6    2    3 1     
    7    3    4 2     
    8    4    5 1     
    9    4   17 1     
   10    5    6 1     
   11    6    7 1     
   12    6   27 1     
   13    6   28 1     
   14    7    8 2     
   15    7    9 am    
   16    9   10 1     
   17    9   29 1     
   18   10   15 1     
   19   10   11 1     
   20   10   30 1     
   21   11   12 1     
   22   11   31 1     
   23   11   32 1     
   24   12   13 1     
   25   12   33 1     
   26   12   34 1     
   27   13   14 1     
   28   13   35 1     
   29   13   36 1     
   30   14   15 1     
   31   14   37 1     
   32   14   38 1     
   33   15   16 1     
   34   15   39 1     
   35   16   40 1     
   36   16   41 1     
   37   16   42 1     
   38   17   43 1     
   39   17   18 am    
   40   18   19 2     
   41   18   20 1     
   42   20   21 1     
   43   21   22 1     
   44   21   44 1     
   45   21   45 1     
   46   22   23 1     
   47   22   46 1     
   48   22   47 1     
   49   23   48 1     
   50    3   49 1     
   51    8   50 1     
   52    8   51 1     
   53   19   52 1     
   54   19   53 1     
   55   23   54 1     
   56   23   55 1     
@<TRIPOS>SUBSTRUCTURE
      1 S1             1
@<TRIPOS>SET
LONE_PAIRS      STATIC     ATOMS    <user>   **** ""
7 49 50 51 52 53 54 55
DONOR_HYDROGENS      STATIC     ATOMS    <user>   **** ""
3 29 43 48
ATOM$BLUE        STATIC     ATOMS    COLORGROUP SYSTEM
7 49 50 51 52 53 54 55
ATOM$RED        STATIC     ATOMS    COLORGROUP SYSTEM
3 29 43 48
