AV-unprocessed.smi:886|AV-procd|sdf|4051|dock4
  -GOLD-   22720 1533D 1   1.00000     0.00000
 Structure written by MMmdl.
 35 37  0  0  0  0  0  0  0  0  1 V2000
  151.9619  145.1450  158.9849 C   0  0  0  0  0  0  0  0  0  0  0  0
  152.5371  143.9042  159.4803 N   0  0  0  0  0  0  0  0  0  0  0  0
  152.2956  142.6954  158.9500 C   0  0  0  0  0  0  0  0  0  0  0  0
  151.5415  142.5169  157.9925 O   0  0  0  0  0  0  0  0  0  0  0  0
  152.9889  141.5440  159.6331 C   0  0  0  0  0  0  0  0  0  0  0  0
  153.6865  141.7705  160.8431 C   0  0  0  0  0  0  0  0  0  0  0  0
  154.3569  140.7050  161.4697 C   0  0  0  0  0  0  0  0  0  0  0  0
  154.3125  139.4407  160.8581 C   0  0  0  0  0  0  0  0  0  0  0  0
  153.6599  139.2047  159.7026 N   0  0  0  0  0  0  0  0  0  0  0  0
  153.0121  140.2261  159.0904 C   0  0  0  0  0  0  0  0  0  0  0  0
  152.3299  139.9243  157.8983 N   0  0  0  0  0  0  0  0  0  0  0  0
  152.1392  138.5374  157.4840 C   0  0  1  0  0  0  0  0  0  0  0  0
  150.6813  138.2134  157.1485 C   0  0  0  0  0  0  0  0  0  0  0  0
  150.8025  137.6424  155.7289 C   0  0  1  0  0  0  0  0  0  0  0  0
  151.0693  138.7475  154.6985 C   0  0  0  0  0  0  0  0  0  0  0  0
  152.5252  139.1013  154.9939 C   0  0  0  0  0  0  0  0  0  0  0  0
  152.8498  138.1608  156.1673 C   0  0  2  0  0  0  0  0  0  0  0  0
  152.0801  137.0307  155.7931 O   0  0  0  0  0  0  0  0  0  0  0  0
  152.3263  145.9857  159.5751 H   0  0  0  0  0  0  0  0  0  0  0  0
  150.8737  145.1242  159.0570 H   0  0  0  0  0  0  0  0  0  0  0  0
  152.2394  145.3136  157.9435 H   0  0  0  0  0  0  0  0  0  0  0  0
  153.1554  143.9661  160.2763 H   0  0  0  0  0  0  0  0  0  0  0  0
  153.7185  142.7528  161.2919 H   0  0  0  0  0  0  0  0  0  0  0  0
  154.8943  140.8543  162.3942 H   0  0  0  0  0  0  0  0  0  0  0  0
  154.8142  138.5969  161.3078 H   0  0  0  0  0  0  0  0  0  0  0  0
  152.3714  140.6145  157.1619 H   0  0  0  0  0  0  0  0  0  0  0  0
  152.4665  137.8692  158.2820 H   0  0  0  0  0  0  0  0  0  0  0  0
  150.2940  137.4621  157.8374 H   0  0  0  0  0  0  0  0  0  0  0  0
  150.0173  139.0782  157.1851 H   0  0  0  0  0  0  0  0  0  0  0  0
  149.9926  136.9671  155.4525 H   0  0  0  0  0  0  0  0  0  0  0  0
  150.9663  138.3674  153.6815 H   0  0  0  0  0  0  0  0  0  0  0  0
  150.3953  139.5967  154.8167 H   0  0  0  0  0  0  0  0  0  0  0  0
  153.1527  138.8668  154.1334 H   0  0  0  0  0  0  0  0  0  0  0  0
  152.6692  140.1547  155.2340 H   0  0  0  0  0  0  0  0  0  0  0  0
  153.9141  137.9536  156.2822 H   0  0  0  0  0  0  0  0  0  0  0  0
  1  2  1  0  0  0  0
  1 19  1  0  0  0  0
  1 20  1  0  0  0  0
  1 21  1  0  0  0  0
  2  3  1  0  0  0  0
  2 22  1  0  0  0  0
  3  4  2  0  0  0  0
  3  5  1  0  0  0  0
  5 10  1  0  0  0  0
  5  6  2  0  0  0  0
  6  7  1  0  0  0  0
  6 23  1  0  0  0  0
  7  8  2  0  0  0  0
  7 24  1  0  0  0  0
  8  9  1  0  0  0  0
  8 25  1  0  0  0  0
  9 10  2  0  0  0  0
 10 11  1  0  0  0  0
 11 12  1  0  0  0  0
 11 26  1  0  0  0  0
 12 17  1  0  0  0  0
 12 13  1  0  0  0  0
 12 27  1  0  0  0  0
 13 14  1  0  0  0  0
 13 28  1  0  0  0  0
 13 29  1  0  0  0  0
 14 18  1  0  0  0  0
 14 15  1  0  0  0  0
 14 30  1  0  0  0  0
 15 16  1  0  0  0  0
 15 31  1  0  0  0  0
 15 32  1  0  0  0  0
 16 17  1  0  0  0  0
 16 33  1  0  0  0  0
 16 34  1  0  0  0  0
 17 18  1  0  0  0  0
 17 35  1  0  0  0  0
M  END
> <s_m_source_file>
AV-unprocessed.smi

> <i_m_source_file_index>
886

> <i_lp_mmshare_version>
43012

> <i_f3d_flags>
0

> <s_epik_input>
W0NIM11bTkhdQyg9TyljMVtjSF1bY0hdW2NIXW5jMVtOSF1bQ0BIXShbQ0gyXVtDQEhdMjMpW0NASF0oTzMpW0NIMl1bQ0gyXTI=

> <s_epik_cmdline>
J2VwaWtfcHl0aG9uJywgJy1waCcsICc3LjAnLCAnLXRuJywgJzgnLCAnLW1hJywgJzIwMCcsICctbWV0YWxfYmluZGluZycsICctaW1hZScsICc8aW5maWxlLm1hZT4nLCAnLW9tYWUnLCAnPG91dGZpbGUubWFlPic=

> <r_lp_tautomer_probability>
1

> <r_epik_Ionization_Penalty>
0.0065447

> <r_epik_Ionization_Penalty_Charging>
0

> <r_epik_Ionization_Penalty_Neutral>
0.0065447

> <r_epik_State_Penalty>
0.00484214

> <r_epik_Charging_Adjusted_Penalty>
0.00484214

> <i_epik_Tot_Q>
0

> <i_epik_Tot_abs_Q>
0

> <r_epik_Metal_State_Penalty>
-0

> <b_epik_Metal_Only>
0

> <s_lp_Force_Field>
OPLS_2005

> <r_lp_Energy>
46.6605

> <b_lp_Chiralities_Consistent>
1

> <s_lp_Variant>
AV-unprocessed.smi:886-4

> <Gold.Version>
5.8.1

> <Gold.Id.Protein>
6NUR|6NUR_protein|mol2

> <Gold.PLP.Fitness>
36.5740

> <Gold.PLP.PLP>
-33.8116

> <Gold.PLP.part.hbond>
-1.0000

> <Gold.PLP.part.metal>
0.0000

> <Gold.PLP.part.buried>
-5.6657

> <Gold.PLP.part.nonpolar>
-28.6099

> <Gold.PLP.part.repulsive>
0.1630

> <Gold.PLP.ligand.clash>
0.0000

> <Gold.PLP.ligand.torsion>
0.1141

> <Gold.PLP.Chemscore.Hbond>
0.9920

> <Gold.PLP.Chemscore.CHOScore>
0.0000

> <Gold.PLP.Chemscore.Metal>
0.0000

> <Gold.Chemscore.Hbonds>
donor molecule, donor type, donor heavy atom, donor atom, acceptor molecule, acceptor atom, score
      P1  H 10752 10765       L1    18  0.99

> <Gold.PLP.Chemscore.Internal.Correction>
0.0146

> <Gold.Rescore>
     Score         DG    S(hbond)    S(metal)    S(lipo)     H(rot)  DE(clash)    DE(int)     intcor
     16.09     -16.19       0.87        0.00      88.56       1.00       0.00       0.09       ----

> <Gold.Chemscore.Fitness>
16.0946

> <Gold.Chemscore.DG>
-16.1909

> <Gold.Chemscore.ZeroCoef>
-5.4800

> <Gold.Chemscore.Hbond>
0.8711

> <Gold.Chemscore.Metal>
0.0000

> <Gold.Chemscore.Lipo>
88.5585

> <Gold.Chemscore.Internal_Hbond>
0.0000

> <Gold.Chemscore.DEClash>
0.0025

> <Gold.Chemscore.DEInternal>
0.0938

> <Gold.Chemscore.Rot>
1.0000

> <Gold.Chemscore.Internal.Correction>
   9.000000E+99

> <Gold.Chemscore.Hbonds>
donor molecule, donor type, donor heavy atom, donor atom, acceptor molecule, acceptor atom, score
      P1  H 10752 10765       L1    18  0.85

> <Gold.Chemscore.Hbond.Weighted>
-2.9096

> <Gold.Chemscore.Metal.Weighted>
-0.0000

> <Gold.Chemscore.Lipo.Weighted>
-10.3613

> <Gold.Chemscore.Internal_Hbond.Weighted>
0.0000

> <Gold.Chemscore.DEClash.Weighted>
0.0025

> <Gold.Chemscore.DEInternal.Weighted>
0.0938

> <Gold.Chemscore.Rot.Weighted>
2.5600

> <Gold.Chemscore.Internal.Correction.Weighted>
   9.000000E+99

> <Gold.Protein.RotatedTorsions>
[ 6907 6896 6895 6894 ] final   12.89 input  -60.11 | X-H torsion
[ 7974 7965 7964 7962 ] final   61.64 input  175.53 | X-H torsion
[ 8008 7997 7996 7995 ] final   66.91 input   59.86 | X-H torsion
[ 10167 10162 10161 10158 ] final -127.70 input  -65.29 | X-H torsion
[ 10718 10713 10712 10709 ] final -132.86 input   66.30 | X-H torsion
[ 10763 10752 10751 10750 ] final -166.63 input  -60.55 | X-H torsion
[ 11005 11000 10999 10996 ] final -156.82 input  -57.11 | X-H torsion

> <Gold.Protein.ActiveResidues>
 VAL166  LYS551  ARG553  GLY616  TRP617  ASP618  TYR619  PRO620  LYS621  CYS622 
 ASP623  PHE694  ASN695  SER759  ASP760  ASP761  ALA762  ILE779  LEU786  VAL792 
 PHE793  MET794  SER795  GLU796  ALA797  LYS798  CYS799  TRP800  GLU811  SER814 

> <Gold.Protein.RotatedAtoms>
  151.7775  135.0770  160.0368 H   0  0  0  0  0  0  0  0  0  0  0  0  # atno 6907 bound_to 6896
  152.3246  133.5886  159.5776 H   0  0  0  0  0  0  0  0  0  0  0  0  # atno 6908 bound_to 6896
  150.7388  133.9876  159.3638 H   0  0  0  0  0  0  0  0  0  0  0  0  # atno 6909 bound_to 6896
  145.8824  139.3453  143.0698 H   0  0  0  0  0  0  0  0  0  0  0  0  # atno 7974 bound_to 7965
  155.6847  140.3496  155.4869 H   0  0  0  0  0  0  0  0  0  0  0  0  # atno 8008 bound_to 7997
  155.9576  140.1131  157.0946 H   0  0  0  0  0  0  0  0  0  0  0  0  # atno 8009 bound_to 7997
  154.4136  140.1182  156.5122 H   0  0  0  0  0  0  0  0  0  0  0  0  # atno 8010 bound_to 7997
  139.9581  143.5980  152.2454 H   0  0  0  0  0  0  0  0  0  0  0  0  # atno 10167 bound_to 10162
  156.2389  130.7083  151.0936 H   0  0  0  0  0  0  0  0  0  0  0  0  # atno 10718 bound_to 10713
  154.6813  135.2955  154.9609 H   0  0  0  0  0  0  0  0  0  0  0  0  # atno 10763 bound_to 10752
  154.0603  135.6632  153.4815 H   0  0  0  0  0  0  0  0  0  0  0  0  # atno 10764 bound_to 10752
  153.0549  135.5150  154.7858 H   0  0  0  0  0  0  0  0  0  0  0  0  # atno 10765 bound_to 10752
  140.6714  134.4243  157.5231 H   0  0  0  0  0  0  0  0  0  0  0  0  # atno 11005 bound_to 11000
  145.9007  140.9245  143.0504 LP  0  0  0  0  0  0  0  0  0  0  0  0  # atno 17320 bound_to 7965
  144.6727  140.1029  143.7459 LP  0  0  0  0  0  0  0  0  0  0  0  0  # atno 17321 bound_to 7965
  139.6575  144.7662  151.2026 LP  0  0  0  0  0  0  0  0  0  0  0  0  # atno 17342 bound_to 10162
  140.7562  143.6062  150.8650 LP  0  0  0  0  0  0  0  0  0  0  0  0  # atno 17343 bound_to 10162
  157.7166  131.0706  150.6301 LP  0  0  0  0  0  0  0  0  0  0  0  0  # atno 17370 bound_to 10713
  156.6373  130.4448  149.5765 LP  0  0  0  0  0  0  0  0  0  0  0  0  # atno 17371 bound_to 10713
  139.8980  134.8623  156.2019 LP  0  0  0  0  0  0  0  0  0  0  0  0  # atno 17394 bound_to 11000
  141.0389  133.6948  156.1562 LP  0  0  0  0  0  0  0  0  0  0  0  0  # atno 17395 bound_to 11000

$$$$
