AV-unprocessed.smi:203|AV-procd|sdf|1590|dock10
  -GOLD-   2262019493D 1   1.00000     0.00000
 Structure written by MMmdl.
 57 61  0  0  0  0  0  0  0  0  1 V2000
  143.9668  132.5487  148.8102 O   0  0  0  0  0  0  0  0  0  0  0  0
  144.6411  132.9747  149.7449 C   0  0  0  0  0  0  0  0  0  0  0  0
  144.4171  132.5716  151.1919 C   0  0  0  0  0  0  0  0  0  0  0  0
  145.6248  133.1824  151.9312 C   0  0  1  0  0  0  0  0  0  0  0  0
  146.6342  132.1353  152.5034 C   0  0  2  0  0  0  0  0  0  0  0  0
  146.3123  130.6827  152.0640 C   0  0  0  0  0  0  0  0  0  0  0  0
  147.3314  129.6827  152.6269 C   0  0  0  0  0  0  0  0  0  0  0  0
  147.3997  129.8078  154.1532 C   0  0  0  0  0  0  0  0  0  0  0  0
  147.7175  131.2536  154.5582 C   0  0  0  0  0  0  0  0  0  0  0  0
  146.7607  132.1907  153.9716 N   0  0  0  0  0  0  0  0  0  0  0  0
  146.9086  133.4224  154.5065 C   0  0  0  0  0  0  0  0  0  0  0  0
  145.8400  134.2544  154.4507 N   0  0  0  0  0  0  0  0  0  0  0  0
  145.9469  135.5067  154.9047 C   0  0  0  0  0  0  0  0  0  0  0  0
  147.0111  136.1153  155.4333 N   0  0  0  0  0  0  0  0  0  0  0  0
  148.0816  135.2724  155.5023 C   0  0  0  0  0  0  0  0  0  0  0  0
  148.1147  133.9159  155.0777 C   0  0  0  0  0  0  0  0  0  0  0  0
  149.3756  133.3764  155.3042 N   0  0  0  0  0  0  0  0  0  0  0  0
  150.0590  134.3681  155.8067 C   0  0  0  0  0  0  0  0  0  0  0  0
  149.3649  135.5489  155.9381 N   0  0  0  0  0  0  0  0  0  0  0  0
  149.8938  136.8196  156.3958 C   0  0  0  0  0  0  0  0  0  0  0  0
  150.4201  137.6936  155.2354 C   0  0  2  0  0  0  0  0  0  0  0  0
  151.6608  137.1520  154.8291 O   0  0  0  0  0  0  0  0  0  0  0  0
  150.6055  139.1878  155.5911 C   0  0  1  0  0  0  0  0  0  0  0  0
  149.3061  139.9854  155.7265 C   0  0  0  0  0  0  0  0  0  0  0  0
  149.6816  141.1406  156.6438 C   0  0  0  0  0  0  0  0  0  0  0  0
  151.0166  140.7104  157.2552 C   0  0  0  0  0  0  0  0  0  0  0  0
  151.1500  139.3452  156.8944 O   0  0  0  0  0  0  0  0  0  0  0  0
  146.2614  134.1600  150.9202 C   0  0  0  0  0  0  0  0  0  0  0  0
  145.6491  133.8386  149.6461 N   0  0  0  0  0  0  0  0  0  0  0  0
  143.4811  133.0050  151.5459 H   0  0  0  0  0  0  0  0  0  0  0  0
  144.3474  131.4889  151.2970 H   0  0  0  0  0  0  0  0  0  0  0  0
  145.2492  133.7978  152.7492 H   0  0  0  0  0  0  0  0  0  0  0  0
  147.6153  132.3784  152.0938 H   0  0  0  0  0  0  0  0  0  0  0  0
  145.3168  130.3961  152.4038 H   0  0  0  0  0  0  0  0  0  0  0  0
  146.2986  130.5975  150.9782 H   0  0  0  0  0  0  0  0  0  0  0  0
  147.0576  128.6658  152.3444 H   0  0  0  0  0  0  0  0  0  0  0  0
  148.3144  129.8748  152.1952 H   0  0  0  0  0  0  0  0  0  0  0  0
  146.4475  129.5049  154.5908 H   0  0  0  0  0  0  0  0  0  0  0  0
  148.1564  129.1324  154.5530 H   0  0  0  0  0  0  0  0  0  0  0  0
  147.7031  131.3386  155.6460 H   0  0  0  0  0  0  0  0  0  0  0  0
  148.7258  131.5136  154.2323 H   0  0  0  0  0  0  0  0  0  0  0  0
  145.0558  136.1112  154.8215 H   0  0  0  0  0  0  0  0  0  0  0  0
  151.1020  134.2731  156.0715 H   0  0  0  0  0  0  0  0  0  0  0  0
  149.1054  137.3442  156.9375 H   0  0  0  0  0  0  0  0  0  0  0  0
  150.6884  136.6224  157.1164 H   0  0  0  0  0  0  0  0  0  0  0  0
  149.7371  137.6151  154.3885 H   0  0  0  0  0  0  0  0  0  0  0  0
  151.6950  137.1535  153.8848 H   0  0  0  0  0  0  0  0  0  0  0  0
  151.2615  139.6725  154.8652 H   0  0  0  0  0  0  0  0  0  0  0  0
  148.9170  140.3199  154.7645 H   0  0  0  0  0  0  0  0  0  0  0  0
  148.5386  139.3756  156.2052 H   0  0  0  0  0  0  0  0  0  0  0  0
  149.7948  142.0734  156.0906 H   0  0  0  0  0  0  0  0  0  0  0  0
  148.9186  141.2927  157.4078 H   0  0  0  0  0  0  0  0  0  0  0  0
  151.8426  141.2774  156.8232 H   0  0  0  0  0  0  0  0  0  0  0  0
  151.0458  140.8363  158.3374 H   0  0  0  0  0  0  0  0  0  0  0  0
  146.0181  135.1925  151.1736 H   0  0  0  0  0  0  0  0  0  0  0  0
  147.3475  134.0836  150.8696 H   0  0  0  0  0  0  0  0  0  0  0  0
  145.9672  134.2370  148.7743 H   0  0  0  0  0  0  0  0  0  0  0  0
  1  2  2  0  0  0  0
  2 29  1  0  0  0  0
  2  3  1  0  0  0  0
  3  4  1  0  0  0  0
  3 30  1  0  0  0  0
  3 31  1  0  0  0  0
  4  5  1  0  0  0  0
  4 28  1  0  0  0  0
  4 32  1  0  0  0  0
  5 10  1  0  0  0  0
  5  6  1  0  0  0  0
  5 33  1  0  0  0  0
  6  7  1  0  0  0  0
  6 34  1  0  0  0  0
  6 35  1  0  0  0  0
  7  8  1  0  0  0  0
  7 36  1  0  0  0  0
  7 37  1  0  0  0  0
  8  9  1  0  0  0  0
  8 38  1  0  0  0  0
  8 39  1  0  0  0  0
  9 10  1  0  0  0  0
  9 40  1  0  0  0  0
  9 41  1  0  0  0  0
 10 11  1  0  0  0  0
 11 16  1  0  0  0  0
 11 12  2  0  0  0  0
 12 13  1  0  0  0  0
 13 14  2  0  0  0  0
 13 42  1  0  0  0  0
 14 15  1  0  0  0  0
 15 19  1  0  0  0  0
 15 16  2  0  0  0  0
 16 17  1  0  0  0  0
 17 18  2  0  0  0  0
 18 19  1  0  0  0  0
 18 43  1  0  0  0  0
 19 20  1  0  0  0  0
 20 21  1  0  0  0  0
 20 44  1  0  0  0  0
 20 45  1  0  0  0  0
 21 22  1  0  0  0  0
 21 23  1  0  0  0  0
 21 46  1  0  0  0  0
 22 47  1  0  0  0  0
 23 27  1  0  0  0  0
 23 24  1  0  0  0  0
 23 48  1  0  0  0  0
 24 25  1  0  0  0  0
 24 49  1  0  0  0  0
 24 50  1  0  0  0  0
 25 26  1  0  0  0  0
 25 51  1  0  0  0  0
 25 52  1  0  0  0  0
 26 27  1  0  0  0  0
 26 53  1  0  0  0  0
 26 54  1  0  0  0  0
 28 29  1  0  0  0  0
 28 55  1  0  0  0  0
 28 56  1  0  0  0  0
 29 57  1  0  0  0  0
M  END
> <s_m_source_file>
AV-unprocessed.smi

> <i_m_source_file_index>
203

> <i_lp_mmshare_version>
43012

> <i_f3d_flags>
0

> <s_epik_input>
Tz1DMVtDSDJdW0NASF0oW0NIMl1bTkhdMSlbQ0BASF0yW0NIMl1bQ0gyXVtDSDJdW0NIMl1OMmMobltjSF1uMyljKGMzNCluW2NIXW40W0NIMl1bQ0BIXShbT0hdKVtDQEBIXTVbQ0gyXVtDSDJdW0NIMl1PNQ==

> <s_epik_cmdline>
J2VwaWtfcHl0aG9uJywgJy1waCcsICc3LjAnLCAnLXRuJywgJzgnLCAnLW1hJywgJzIwMCcsICctbWV0YWxfYmluZGluZycsICctaW1hZScsICc8aW5maWxlLm1hZT4nLCAnLW9tYWUnLCAnPG91dGZpbGUubWFlPic=

> <r_lp_tautomer_probability>
1

> <r_epik_Ionization_Penalty>
0.00175146

> <r_epik_Ionization_Penalty_Charging>
0

> <r_epik_Ionization_Penalty_Neutral>
0.00175146

> <r_epik_State_Penalty>
0.00109045

> <r_epik_Charging_Adjusted_Penalty>
0.00109045

> <i_epik_Tot_Q>
0

> <i_epik_Tot_abs_Q>
0

> <r_epik_Metal_State_Penalty>
-0

> <b_epik_Metal_Only>
0

> <s_lp_Force_Field>
OPLS_2005

> <r_lp_Energy>
55.9411

> <b_lp_Chiralities_Consistent>
1

> <s_lp_Variant>
AV-unprocessed.smi:203-9

> <Gold.Version>
5.8.1

> <Gold.Id.Protein>
6NUR|6NUR_protein|mol2

> <Gold.PLP.Fitness>
50.2828

> <Gold.PLP.PLP>
-44.0920

> <Gold.PLP.part.hbond>
-4.0000

> <Gold.PLP.part.metal>
0.0000

> <Gold.PLP.part.buried>
-8.3704

> <Gold.PLP.part.nonpolar>
-33.6557

> <Gold.PLP.part.repulsive>
0.7346

> <Gold.PLP.ligand.clash>
0.4402

> <Gold.PLP.ligand.torsion>
2.6957

> <Gold.PLP.Chemscore.Hbond>
3.8960

> <Gold.PLP.Chemscore.CHOScore>
0.0000

> <Gold.PLP.Chemscore.Metal>
0.0000

> <Gold.Chemscore.Hbonds>
donor molecule, donor type, donor heavy atom, donor atom, acceptor molecule, acceptor atom, score
      L1  H    29    57       P1  7921  0.37

> <Gold.PLP.Chemscore.Internal.Correction>
0.3343

> <Gold.Rescore>
     Score         DG    S(hbond)    S(metal)    S(lipo)     H(rot)  DE(clash)    DE(int)     intcor
     11.91     -17.50       2.71        0.00      84.91       2.72       0.22       5.37       ----

> <Gold.Chemscore.Fitness>
11.9079

> <Gold.Chemscore.DG>
-17.5016

> <Gold.Chemscore.ZeroCoef>
-5.4800

> <Gold.Chemscore.Hbond>
2.7074

> <Gold.Chemscore.Metal>
0.0000

> <Gold.Chemscore.Lipo>
84.9113

> <Gold.Chemscore.Internal_Hbond>
0.0000

> <Gold.Chemscore.DEClash>
0.2235

> <Gold.Chemscore.DEInternal>
5.3702

> <Gold.Chemscore.Rot>
2.7171

> <Gold.Chemscore.Internal.Correction>
   9.000000E+99

> <Gold.Chemscore.Hbonds>
donor molecule, donor type, donor heavy atom, donor atom, acceptor molecule, acceptor atom, score
      L1  H    29    57       P1  7921  0.10
      P1  H 10785 10796       L1     1  0.01

> <Gold.Chemscore.Hbond.Weighted>
-9.0426

> <Gold.Chemscore.Metal.Weighted>
-0.0000

> <Gold.Chemscore.Lipo.Weighted>
-9.9346

> <Gold.Chemscore.Internal_Hbond.Weighted>
0.0000

> <Gold.Chemscore.DEClash.Weighted>
0.2235

> <Gold.Chemscore.DEInternal.Weighted>
5.3702

> <Gold.Chemscore.Rot.Weighted>
6.9557

> <Gold.Chemscore.Internal.Correction.Weighted>
   9.000000E+99

> <Gold.Protein.RotatedTorsions>
[ 6907 6896 6895 6894 ] final  -26.27 input  -60.11 | X-H torsion
[ 7974 7965 7964 7962 ] final   67.98 input  175.53 | X-H torsion
[ 8008 7997 7996 7995 ] final  -47.93 input   59.86 | X-H torsion
[ 10167 10162 10161 10158 ] final  -89.79 input  -65.29 | X-H torsion
[ 10718 10713 10712 10709 ] final  -91.63 input   66.30 | X-H torsion
[ 10763 10752 10751 10750 ] final  -78.33 input  -60.55 | X-H torsion
[ 11005 11000 10999 10996 ] final  -14.76 input  -57.11 | X-H torsion

> <Gold.Protein.ActiveResidues>
 VAL166  LYS551  ARG553  GLY616  TRP617  ASP618  TYR619  PRO620  LYS621  CYS622 
 ASP623  PHE694  ASN695  SER759  ASP760  ASP761  ALA762  ILE779  LEU786  VAL792 
 PHE793  MET794  SER795  GLU796  ALA797  LYS798  CYS799  TRP800  GLU811  SER814 

> <Gold.Protein.RotatedAtoms>
  151.1634  135.0284  159.8719 H   0  0  0  0  0  0  0  0  0  0  0  0  # atno 6907 bound_to 6896
  152.5451  134.1253  159.8426 H   0  0  0  0  0  0  0  0  0  0  0  0  # atno 6908 bound_to 6896
  151.1351  133.4963  159.2630 H   0  0  0  0  0  0  0  0  0  0  0  0  # atno 6909 bound_to 6896
  145.8081  139.3018  143.1115 H   0  0  0  0  0  0  0  0  0  0  0  0  # atno 7974 bound_to 7965
  154.4022  140.1334  156.4256 H   0  0  0  0  0  0  0  0  0  0  0  0  # atno 8008 bound_to 7997
  155.7600  140.3486  155.5173 H   0  0  0  0  0  0  0  0  0  0  0  0  # atno 8009 bound_to 7997
  155.8868  140.0996  157.1437 H   0  0  0  0  0  0  0  0  0  0  0  0  # atno 8010 bound_to 7997
  140.3613  143.2840  151.9611 H   0  0  0  0  0  0  0  0  0  0  0  0  # atno 10167 bound_to 10162
  155.9995  130.4955  150.5503 H   0  0  0  0  0  0  0  0  0  0  0  0  # atno 10718 bound_to 10713
  154.5245  135.5733  153.6708 H   0  0  0  0  0  0  0  0  0  0  0  0  # atno 10763 bound_to 10752
  152.9925  135.6190  154.2711 H   0  0  0  0  0  0  0  0  0  0  0  0  # atno 10764 bound_to 10752
  154.2633  135.2855  155.2748 H   0  0  0  0  0  0  0  0  0  0  0  0  # atno 10765 bound_to 10752
  140.7897  133.8298  155.9368 H   0  0  0  0  0  0  0  0  0  0  0  0  # atno 11005 bound_to 11000
  145.9806  140.8686  143.0116 LP  0  0  0  0  0  0  0  0  0  0  0  0  # atno 17320 bound_to 7965
  144.6760  140.2075  143.7380 LP  0  0  0  0  0  0  0  0  0  0  0  0  # atno 17321 bound_to 7965
  139.4814  144.5990  151.7639 LP  0  0  0  0  0  0  0  0  0  0  0  0  # atno 17342 bound_to 10162
  140.5124  144.1004  150.5999 LP  0  0  0  0  0  0  0  0  0  0  0  0  # atno 17343 bound_to 10162
  157.3427  131.0719  151.1775 LP  0  0  0  0  0  0  0  0  0  0  0  0  # atno 17370 bound_to 10713
  157.2618  130.6662  149.5978 LP  0  0  0  0  0  0  0  0  0  0  0  0  # atno 17371 bound_to 10713
  140.9402  134.1910  157.4803 LP  0  0  0  0  0  0  0  0  0  0  0  0  # atno 17394 bound_to 11000
  139.8732  134.9868  156.5343 LP  0  0  0  0  0  0  0  0  0  0  0  0  # atno 17395 bound_to 11000

$$$$
