#       Name:                AV-unprocessed.smi:2433
#       Creating user name   scv26
#       Creation time:       Fri Mar 27 13:22:18 2020


#       File generated by GOLD software.
#

@<TRIPOS>MOLECULE
AV-unprocessed.smi:2433
    43    45     1
SMALL
NO_CHARGES


@<TRIPOS>ATOM
      1 ****         0.0665   0.0398  -2.3816 O.2            1 S1                 0.0000
      2 ****        -0.3922   0.5814  -1.3754 C.2            1 S1                 0.0000
      3 ****        -0.9412   1.9376  -1.3907 C.2            1 S1                 0.0000
      4 ****        -1.4406   2.4987  -0.2642 C.2            1 S1                 0.0000
      5 ****        -2.0091   3.9155  -0.2791 C.3            1 S1                 0.0000
      6 ****        -1.6998   4.7809   0.9549 C.3            1 S1                 0.0000
      7 ****        -3.1162   4.5121   1.4755 C.3            1 S1                 0.0000
      8 ****        -3.5004   4.0039   0.0812 C.3            1 S1                 0.0000
      9 ****        -1.4186   1.7955   0.9477 N.2            1 S1                 0.0000
     10 ****        -0.9372   0.5943   0.9888 C.2            1 S1                 0.0000
     11 ****        -0.4295  -0.0398  -0.1607 N.am           1 S1                 0.0000
     12 ****         0.0630  -1.4162   0.0144 C.3            1 S1                 0.0000
     13 ****         1.6033  -1.4875   0.1026 C.3            1 S1                 0.0000
     14 ****         2.0083  -1.0266   1.3769 O.3            1 S1                 0.0000
     15 ****         2.0927  -2.9041  -0.1602 C.ar           1 S1                 0.0000
     16 ****         2.6137  -3.2426  -1.4278 C.ar           1 S1                 0.0000
     17 ****         3.0567  -4.5543  -1.6871 C.ar           1 S1                 0.0000
     18 ****         2.9780  -5.5366  -0.6813 C.ar           1 S1                 0.0000
     19 ****         3.4028  -6.7977  -0.9309 F              1 S1                 0.0000
     20 ****         2.4548  -5.2070   0.5835 C.ar           1 S1                 0.0000
     21 ****         2.0116  -3.8956   0.8432 C.ar           1 S1                 0.0000
     22 ****        -0.9513   2.4891  -2.3197 H              1 S1                 0.0000
     23 ****        -1.7782   4.4344  -1.2107 H              1 S1                 0.0000
     24 ****        -0.9019   4.4122   1.6004 H              1 S1                 0.0000
     25 ****        -1.5455   5.8299   0.6985 H              1 S1                 0.0000
     26 ****        -3.1469   3.7290   2.2343 H              1 S1                 0.0000
     27 ****        -3.6564   5.4036   1.7952 H              1 S1                 0.0000
     28 ****        -4.0291   4.7554  -0.5067 H              1 S1                 0.0000
     29 ****        -4.0322   3.0516   0.0814 H              1 S1                 0.0000
     30 ****        -0.8935   0.0068   1.9075 H              1 S1                 0.0000
     31 ****        -0.3919  -1.9143   0.8733 H              1 S1                 0.0000
     32 ****        -0.2724  -2.0010  -0.8445 H              1 S1                 0.0000
     33 ****         2.0552  -0.8300  -0.6413 H              1 S1                 0.0000
     34 ****         2.9528  -0.9988   1.3981 H              1 S1                 0.0000
     35 ****         2.6723  -2.4978  -2.2080 H              1 S1                 0.0000
     36 ****         3.4548  -4.8071  -2.6587 H              1 S1                 0.0000
     37 ****         2.3909  -5.9606   1.3544 H              1 S1                 0.0000
     38 ****         1.6060  -3.6556   1.8151 H              1 S1                 0.0000
     39 ****         0.4302  -0.8901  -2.3271 LP             1 S1                 0.0000
     40 ****         0.0753   0.5299  -3.2532 LP             1 S1                 0.0000
     41 ****        -1.7743   2.2210   1.7799 LP             1 S1                 0.0000
     42 ****         1.6729  -1.6495   2.0836 LP             1 S1                 0.0000
     43 ****         1.6399  -0.1109   1.5376 LP             1 S1                 0.0000
@<TRIPOS>BOND
    1    1    2 2     
    2    2   11 am    
    3    2    3 1     
    4    3    4 2     
    5    3   22 1     
    6    4    5 1     
    7    4    9 1     
    8    5    8 1     
    9    5    6 1     
   10    5   23 1     
   11    6    7 1     
   12    6   24 1     
   13    6   25 1     
   14    7    8 1     
   15    7   26 1     
   16    7   27 1     
   17    8   28 1     
   18    8   29 1     
   19    9   10 2     
   20   10   11 1     
   21   10   30 1     
   22   11   12 1     
   23   12   13 1     
   24   12   31 1     
   25   12   32 1     
   26   13   14 1     
   27   13   15 1     
   28   13   33 1     
   29   14   34 1     
   30   15   21 ar    
   31   15   16 ar    
   32   16   17 ar    
   33   16   35 1     
   34   17   18 ar    
   35   17   36 1     
   36   18   19 1     
   37   18   20 ar    
   38   20   21 ar    
   39   20   37 1     
   40   21   38 1     
   41    1   39 1     
   42    1   40 1     
   43    9   41 1     
   44   14   42 1     
   45   14   43 1     
@<TRIPOS>SUBSTRUCTURE
      1 S1             1
@<TRIPOS>SET
LONE_PAIRS      STATIC     ATOMS    <user>   **** ""
5 39 40 41 42 43
DONOR_HYDROGENS      STATIC     ATOMS    <user>   **** ""
1 34
ATOM$BLUE        STATIC     ATOMS    COLORGROUP SYSTEM
5 39 40 41 42 43
ATOM$RED        STATIC     ATOMS    COLORGROUP SYSTEM
1 34
