AV-unprocessed.smi:99|AV-procd|sdf|890|dock6
  -GOLD-   2262017373D 1   1.00000     0.00000
 Structure written by MMmdl.
 52 55  0  0  0  0  0  0  0  0  2 V2000
  153.1991  138.6479  157.0413 O   0  0  0  0  0  0  0  0  0  0  0  0
  152.3000  139.2212  157.6594 C   0  0  0  0  0  0  0  0  0  0  0  0
  152.2447  139.2919  159.0008 O   0  0  0  0  0  0  0  0  0  0  0  0
  153.0817  138.4740  159.8029 C   0  0  0  0  0  0  0  0  0  0  0  0
  153.9310  139.3552  160.7291 C   0  0  1  0  0  0  0  0  0  0  0  0
  154.6599  138.5581  161.6481 O   0  0  0  0  0  0  0  0  0  0  0  0
  155.8113  139.2373  162.0485 C   0  0  1  0  0  0  0  0  0  0  0  0
  156.9697  138.2615  162.0215 N   0  0  0  0  0  0  0  0  0  0  0  0
  157.2573  137.5510  160.8689 C   0  0  0  0  0  0  0  0  0  0  0  0
  158.2881  136.6833  160.8164 C   0  0  0  0  0  0  0  0  0  0  0  0
  159.1202  136.4888  162.0005 C   0  0  0  0  0  0  0  0  0  0  0  0
  160.0510  135.6874  161.9492 O   0  0  0  0  0  0  0  0  0  0  0  0
  158.8257  137.2126  163.1195 N   0  5  0  0  0  0  0  0  0  0  0  0
  157.7886  138.0987  163.1715 C   0  0  0  0  0  0  0  0  0  0  0  0
  157.5334  138.7790  164.1656 O   0  0  0  0  0  0  0  0  0  0  0  0
  156.0198  140.4473  161.1060 C   0  0  1  0  0  0  0  0  0  0  0  0
  157.3097  140.5346  160.5286 O   0  0  0  0  0  0  0  0  0  0  0  0
  154.9760  140.2188  160.0216 C   0  0  2  0  0  0  0  0  0  0  0  0
  154.3807  141.4468  159.6223 O   0  0  0  0  0  0  0  0  0  0  0  0
  153.8086  142.2653  160.5306 C   0  0  0  0  0  0  0  0  0  0  0  0
  153.9275  142.1282  161.7497 O   0  0  0  0  0  0  0  0  0  0  0  0
  153.0165  143.3616  159.9019 C   0  0  0  0  0  0  0  0  0  0  0  0
  152.7749  143.3306  158.5085 C   0  0  0  0  0  0  0  0  0  0  0  0
  152.0299  144.3514  157.8867 C   0  0  0  0  0  0  0  0  0  0  0  0
  151.5184  145.4166  158.6504 C   0  0  0  0  0  0  0  0  0  0  0  0
  151.7526  145.4596  160.0372 C   0  0  0  0  0  0  0  0  0  0  0  0
  152.4965  144.4390  160.6611 C   0  0  0  0  0  0  0  0  0  0  0  0
  151.1588  139.9193  157.0003 C   0  0  0  0  0  0  0  0  0  0  0  0
  150.6608  139.4270  155.7716 C   0  0  0  0  0  0  0  0  0  0  0  0
  149.5880  140.0698  155.1237 C   0  0  0  0  0  0  0  0  0  0  0  0
  148.9998  141.2124  155.6970 C   0  0  0  0  0  0  0  0  0  0  0  0
  149.4839  141.7101  156.9208 C   0  0  0  0  0  0  0  0  0  0  0  0
  150.5551  141.0675  157.5710 C   0  0  0  0  0  0  0  0  0  0  0  0
  152.4620  137.7988  160.3943 H   0  0  0  0  0  0  0  0  0  0  0  0
  153.7301  137.8610  159.1756 H   0  0  0  0  0  0  0  0  0  0  0  0
  153.2748  139.9930  161.3239 H   0  0  0  0  0  0  0  0  0  0  0  0
  155.6755  139.5320  163.0896 H   0  0  0  0  0  0  0  0  0  0  0  0
  156.6515  137.6917  159.9877 H   0  0  0  0  0  0  0  0  0  0  0  0
  158.4979  136.1394  159.9071 H   0  0  0  0  0  0  0  0  0  0  0  0
  155.8035  141.3530  161.6746 H   0  0  0  0  0  0  0  0  0  0  0  0
  157.5788  141.4411  160.5384 H   0  0  0  0  0  0  0  0  0  0  0  0
  155.4125  139.6642  159.1897 H   0  0  0  0  0  0  0  0  0  0  0  0
  153.1576  142.5232  157.9010 H   0  0  0  0  0  0  0  0  0  0  0  0
  151.8511  144.3164  156.8220 H   0  0  0  0  0  0  0  0  0  0  0  0
  150.9475  146.1994  158.1732 H   0  0  0  0  0  0  0  0  0  0  0  0
  151.3608  146.2771  160.6244 H   0  0  0  0  0  0  0  0  0  0  0  0
  152.6579  144.5032  161.7273 H   0  0  0  0  0  0  0  0  0  0  0  0
  151.0980  138.5528  155.3111 H   0  0  0  0  0  0  0  0  0  0  0  0
  149.2171  139.6857  154.1848 H   0  0  0  0  0  0  0  0  0  0  0  0
  148.1779  141.7057  155.1996 H   0  0  0  0  0  0  0  0  0  0  0  0
  149.0327  142.5858  157.3634 H   0  0  0  0  0  0  0  0  0  0  0  0
  150.8966  141.4731  158.5119 H   0  0  0  0  0  0  0  0  0  0  0  0
  1  2  2  0  0  0  0
  2  3  1  0  0  0  0
  2 28  1  0  0  0  0
  3  4  1  0  0  0  0
  4  5  1  0  0  0  0
  4 34  1  0  0  0  0
  4 35  1  0  0  0  0
  5 18  1  0  0  0  0
  5  6  1  0  0  0  0
  5 36  1  0  0  0  0
  6  7  1  0  0  0  0
  7  8  1  0  0  0  0
  7 16  1  0  0  0  0
  7 37  1  0  0  0  0
  8 14  1  0  0  0  0
  8  9  1  0  0  0  0
  9 10  2  0  0  0  0
  9 38  1  0  0  0  0
 10 11  1  0  0  0  0
 10 39  1  0  0  0  0
 11 12  2  0  0  0  0
 11 13  1  0  0  0  0
 13 14  1  0  0  0  0
 14 15  2  0  0  0  0
 16 17  1  0  0  0  0
 16 18  1  0  0  0  0
 16 40  1  0  0  0  0
 17 41  1  0  0  0  0
 18 19  1  0  0  0  0
 18 42  1  0  0  0  0
 19 20  1  0  0  0  0
 20 21  2  0  0  0  0
 20 22  1  0  0  0  0
 22 27  1  0  0  0  0
 22 23  2  0  0  0  0
 23 24  1  0  0  0  0
 23 43  1  0  0  0  0
 24 25  2  0  0  0  0
 24 44  1  0  0  0  0
 25 26  1  0  0  0  0
 25 45  1  0  0  0  0
 26 27  2  0  0  0  0
 26 46  1  0  0  0  0
 27 47  1  0  0  0  0
 28 33  1  0  0  0  0
 28 29  2  0  0  0  0
 29 30  1  0  0  0  0
 29 48  1  0  0  0  0
 30 31  2  0  0  0  0
 30 49  1  0  0  0  0
 31 32  1  0  0  0  0
 31 50  1  0  0  0  0
 32 33  2  0  0  0  0
 32 51  1  0  0  0  0
 33 52  1  0  0  0  0
M  CHG  1  13  -1
M  END
> <s_m_source_file>
AV-unprocessed.smi

> <i_m_source_file_index>
99

> <i_lp_mmshare_version>
43012

> <i_f3d_flags>
0

> <s_epik_input>
W2NIXTFbY0hdW2NIXVtjSF1bY0hdYzFDKD1PKU9bQ0gyXVtDQEBIXTJPW0NAQEhdKG4zW2NIXVtjSF1jKD1PKVtuSF1jMz1PKVtDQEBIXShbT0hdKVtDQEhdMk9DKD1PKWM0W2NIXVtjSF1bY0hdW2NIXVtjSF00

> <s_epik_cmdline>
J2VwaWtfcHl0aG9uJywgJy1waCcsICc3LjAnLCAnLXRuJywgJzgnLCAnLW1hJywgJzIwMCcsICctbWV0YWxfYmluZGluZycsICctaW1hZScsICc8aW5maWxlLm1hZT4nLCAnLW9tYWUnLCAnPG91dGZpbGUubWFlPic=

> <r_lp_tautomer_probability>
1

> <r_epik_Ionization_Penalty>
2.89159

> <r_epik_Ionization_Penalty_Charging>
2.1077e-08

> <r_epik_Ionization_Penalty_Neutral>
2.89159

> <r_epik_State_Penalty>
2.88671

> <r_epik_Charging_Adjusted_Penalty>
2.88671

> <i_epik_Tot_Q>
-1

> <i_epik_Tot_abs_Q>
1

> <r_epik_Metal_State_Penalty>
0.0727308

> <b_epik_Metal_Only>
1

> <s_epik_Chemistry_Notes>
This compound has an ester and may undergo hydrolysis at high or low pH. This compound contains an acetal/aminal-like group ( X-CH(R)-Y where X, Y are N, S, or O) that may be acid/base labile, releasing an aldehyde.

> <s_lp_Force_Field>
OPLS_2005

> <r_lp_Energy>
45.1404

> <b_lp_Chiralities_Consistent>
1

> <s_lp_Variant>
AV-unprocessed.smi:99-26

> <Gold.Version>
5.8.1

> <Gold.Id.Protein>
6NUR|6NUR_protein|mol2

> <Gold.PLP.Fitness>
54.4161

> <Gold.PLP.PLP>
-53.3356

> <Gold.PLP.part.hbond>
-2.0000

> <Gold.PLP.part.metal>
0.0000

> <Gold.PLP.part.buried>
-3.5344

> <Gold.PLP.part.nonpolar>
-46.9519

> <Gold.PLP.part.repulsive>
0.0450

> <Gold.PLP.ligand.clash>
0.0000

> <Gold.PLP.ligand.torsion>
1.2049

> <Gold.PLP.Chemscore.Hbond>
1.0000

> <Gold.PLP.Chemscore.CHOScore>
0.0000

> <Gold.PLP.Chemscore.Metal>
0.0000

> <Gold.Chemscore.Hbonds>
donor molecule, donor type, donor heavy atom, donor atom, acceptor molecule, acceptor atom, score
      P1  H  7997  8008       L1     1  1.00

> <Gold.PLP.Chemscore.Internal.Correction>
0.4903

> <Gold.Rescore>
     Score         DG    S(hbond)    S(metal)    S(lipo)     H(rot)  DE(clash)    DE(int)     intcor
     11.85     -16.55       0.95        0.00     136.12       3.13       0.53       4.18       ----

> <Gold.Chemscore.Fitness>
11.8477

> <Gold.Chemscore.DG>
-16.5515

> <Gold.Chemscore.ZeroCoef>
-5.4800

> <Gold.Chemscore.Hbond>
0.9492

> <Gold.Chemscore.Metal>
0.0000

> <Gold.Chemscore.Lipo>
136.1168

> <Gold.Chemscore.Internal_Hbond>
0.0000

> <Gold.Chemscore.DEClash>
0.5269

> <Gold.Chemscore.DEInternal>
4.1769

> <Gold.Chemscore.Rot>
3.1346

> <Gold.Chemscore.Internal.Correction>
   9.000000E+99

> <Gold.Chemscore.Hbonds>
donor molecule, donor type, donor heavy atom, donor atom, acceptor molecule, acceptor atom, score
      P1  H  7997  8008       L1     1  0.34

> <Gold.Chemscore.Hbond.Weighted>
-3.1704

> <Gold.Chemscore.Metal.Weighted>
-0.0000

> <Gold.Chemscore.Lipo.Weighted>
-15.9257

> <Gold.Chemscore.Internal_Hbond.Weighted>
0.0000

> <Gold.Chemscore.DEClash.Weighted>
0.5269

> <Gold.Chemscore.DEInternal.Weighted>
4.1769

> <Gold.Chemscore.Rot.Weighted>
8.0246

> <Gold.Chemscore.Internal.Correction.Weighted>
   9.000000E+99

> <Gold.Protein.RotatedTorsions>
[ 6907 6896 6895 6894 ] final -121.28 input  -60.11 | X-H torsion
[ 7974 7965 7964 7962 ] final -105.41 input  175.53 | X-H torsion
[ 8008 7997 7996 7995 ] final  -70.15 input   59.86 | X-H torsion
[ 10167 10162 10161 10158 ] final   21.81 input  -65.29 | X-H torsion
[ 10718 10713 10712 10709 ] final  -57.02 input   66.30 | X-H torsion
[ 10763 10752 10751 10750 ] final   53.83 input  -60.55 | X-H torsion
[ 11005 11000 10999 10996 ] final  -29.77 input  -57.11 | X-H torsion

> <Gold.Protein.ActiveResidues>
 VAL166  LYS551  ARG553  GLY616  TRP617  ASP618  TYR619  PRO620  LYS621  CYS622 
 ASP623  PHE694  ASN695  SER759  ASP760  ASP761  ALA762  ILE779  LEU786  VAL792 
 PHE793  MET794  SER795  GLU796  ALA797  LYS798  CYS799  TRP800  GLU811  SER814 

> <Gold.Protein.RotatedAtoms>
  150.8469  133.7848  159.3039 H   0  0  0  0  0  0  0  0  0  0  0  0  # atno 6907 bound_to 6896
  151.5532  135.1065  159.9964 H   0  0  0  0  0  0  0  0  0  0  0  0  # atno 6908 bound_to 6896
  152.4521  133.7606  159.6801 H   0  0  0  0  0  0  0  0  0  0  0  0  # atno 6909 bound_to 6896
  145.2308  140.9170  143.3205 H   0  0  0  0  0  0  0  0  0  0  0  0  # atno 7974 bound_to 7965
  154.4990  140.0840  156.7758 H   0  0  0  0  0  0  0  0  0  0  0  0  # atno 8008 bound_to 7997
  155.4047  140.3438  155.4241 H   0  0  0  0  0  0  0  0  0  0  0  0  # atno 8009 bound_to 7997
  156.1432  140.1536  156.8875 H   0  0  0  0  0  0  0  0  0  0  0  0  # atno 8010 bound_to 7997
  140.5398  143.9697  150.6512 H   0  0  0  0  0  0  0  0  0  0  0  0  # atno 10167 bound_to 10162
  156.1243  130.4164  150.0384 H   0  0  0  0  0  0  0  0  0  0  0  0  # atno 10718 bound_to 10713
  152.9799  135.5765  154.4805 H   0  0  0  0  0  0  0  0  0  0  0  0  # atno 10763 bound_to 10752
  154.4354  135.2774  155.1886 H   0  0  0  0  0  0  0  0  0  0  0  0  # atno 10764 bound_to 10752
  154.3576  135.6195  153.5728 H   0  0  0  0  0  0  0  0  0  0  0  0  # atno 10765 bound_to 10752
  140.9325  133.7329  156.0957 H   0  0  0  0  0  0  0  0  0  0  0  0  # atno 11005 bound_to 11000
  144.9678  139.3912  143.6324 LP  0  0  0  0  0  0  0  0  0  0  0  0  # atno 17320 bound_to 7965
  146.3353  139.8761  142.8832 LP  0  0  0  0  0  0  0  0  0  0  0  0  # atno 17321 bound_to 7965
  140.3095  143.3207  152.0893 LP  0  0  0  0  0  0  0  0  0  0  0  0  # atno 17342 bound_to 10162
  139.4984  144.6645  151.6387 LP  0  0  0  0  0  0  0  0  0  0  0  0  # atno 17343 bound_to 10162
  156.8313  130.9393  151.3637 LP  0  0  0  0  0  0  0  0  0  0  0  0  # atno 17370 bound_to 10713
  157.6425  130.8817  149.9476 LP  0  0  0  0  0  0  0  0  0  0  0  0  # atno 17371 bound_to 10713
  140.7843  134.3690  157.5480 LP  0  0  0  0  0  0  0  0  0  0  0  0  # atno 17394 bound_to 11000
  139.8800  134.9101  156.3006 LP  0  0  0  0  0  0  0  0  0  0  0  0  # atno 17395 bound_to 11000

$$$$
