AV-unprocessed.smi:3105|AV-procd|sdf|11820|dock7
  -GOLD-   2272017193D 1   1.00000     0.00000
 Structure written by MMmdl.
 34 34  0  0  0  0  0  0  0  0  2 V2000
  145.3442  137.2134  152.4198 C   0  0  0  0  0  0  0  0  0  0  0  0
  145.6186  135.9648  151.5545 C   0  0  1  0  0  0  0  0  0  0  0  0
  146.7095  135.1581  152.1499 N   0  3  0  0  0  0  0  0  0  0  0  0
  146.4764  134.6980  153.5352 C   0  0  0  0  0  0  0  0  0  0  0  0
  147.7773  134.1649  154.1611 C   0  0  0  0  0  0  0  0  0  0  0  0
  148.4216  133.0345  153.3515 C   0  0  0  0  0  0  0  0  0  0  0  0
  147.8162  132.6933  152.2116 N   0  0  0  0  0  0  0  0  0  0  0  0
  149.4468  132.4768  153.7383 O   0  0  0  0  0  0  0  0  0  0  0  0
  144.3588  135.0781  151.3607 C   0  0  2  0  0  0  0  0  0  0  0  0
  143.6020  134.8294  152.6801 C   0  0  0  0  0  0  0  0  0  0  0  0
  144.6696  133.8060  150.7199 N   0  0  0  0  0  0  0  0  0  0  0  0
  143.7977  132.8100  150.3298 C   0  0  0  0  0  0  0  0  0  0  0  0
  144.5429  131.8069  149.7799 C   0  0  0  0  0  0  0  0  0  0  0  0
  145.8795  132.2829  149.8824 C   0  0  0  0  0  0  0  0  0  0  0  0
  145.9528  133.4777  150.4461 N   0  0  0  0  0  0  0  0  0  0  0  0
  144.5887  137.8588  151.9722 H   0  0  0  0  0  0  0  0  0  0  0  0
  146.2367  137.8261  152.5431 H   0  0  0  0  0  0  0  0  0  0  0  0
  144.9937  136.9346  153.4139 H   0  0  0  0  0  0  0  0  0  0  0  0
  145.9451  136.2998  150.5684 H   0  0  0  0  0  0  0  0  0  0  0  0
  146.8903  134.3615  151.5562 H   0  0  0  0  0  0  0  0  0  0  0  0
  146.0914  135.5317  154.1245 H   0  0  0  0  0  0  0  0  0  0  0  0
  145.7154  133.9173  153.5414 H   0  0  0  0  0  0  0  0  0  0  0  0
  148.4971  134.9794  154.2570 H   0  0  0  0  0  0  0  0  0  0  0  0
  147.5818  133.7968  155.1691 H   0  0  0  0  0  0  0  0  0  0  0  0
  148.1931  131.9539  151.6364 H   0  0  0  0  0  0  0  0  0  0  0  0
  146.9765  133.1775  151.9273 H   0  0  0  0  0  0  0  0  0  0  0  0
  143.6799  135.6050  150.6879 H   0  0  0  0  0  0  0  0  0  0  0  0
  143.2405  135.7594  153.1185 H   0  0  0  0  0  0  0  0  0  0  0  0
  144.2363  134.3399  153.4199 H   0  0  0  0  0  0  0  0  0  0  0  0
  142.7326  134.1916  152.5165 H   0  0  0  0  0  0  0  0  0  0  0  0
  142.7305  132.8959  150.4731 H   0  0  0  0  0  0  0  0  0  0  0  0
  144.1875  130.8736  149.3686 H   0  0  0  0  0  0  0  0  0  0  0  0
  146.7922  131.7990  149.5668 H   0  0  0  0  0  0  0  0  0  0  0  0
  147.5363  135.7379  152.1676 H   0  0  0  0  0  0  0  0  0  0  0  0
  1  2  1  0  0  0  0
  1 16  1  0  0  0  0
  1 17  1  0  0  0  0
  1 18  1  0  0  0  0
  2  3  1  0  0  0  0
  2  9  1  0  0  0  0
  2 19  1  0  0  0  0
  3  4  1  0  0  0  0
  3 20  1  0  0  0  0
  3 34  1  0  0  0  0
  4  5  1  0  0  0  0
  4 21  1  0  0  0  0
  4 22  1  0  0  0  0
  5  6  1  0  0  0  0
  5 23  1  0  0  0  0
  5 24  1  0  0  0  0
  6  7  1  0  0  0  0
  6  8  2  0  0  0  0
  7 25  1  0  0  0  0
  7 26  1  0  0  0  0
  9 10  1  0  0  0  0
  9 11  1  0  0  0  0
  9 27  1  0  0  0  0
 10 28  1  0  0  0  0
 10 29  1  0  0  0  0
 10 30  1  0  0  0  0
 11 15  1  0  0  0  0
 11 12  1  0  0  0  0
 12 13  2  0  0  0  0
 12 31  1  0  0  0  0
 13 14  1  0  0  0  0
 13 32  1  0  0  0  0
 14 15  2  0  0  0  0
 14 33  1  0  0  0  0
M  CHG  1   3   1
M  END
> <s_m_source_file>
AV-unprocessed.smi

> <i_m_source_file_index>
3105

> <i_lp_mmshare_version>
43012

> <i_f3d_flags>
0

> <s_epik_input>
W05IMl1DKD1PKVtDSDJdW0NIMl1bTkhdW0NAQEhdKFtDSDNdKVtDQEhdKFtDSDNdKW4xW2NIXVtjSF1bY0hdbjE=

> <s_epik_cmdline>
J2VwaWtfcHl0aG9uJywgJy1waCcsICc3LjAnLCAnLXRuJywgJzgnLCAnLW1hJywgJzIwMCcsICctbWV0YWxfYmluZGluZycsICctaW1hZScsICc8aW5maWxlLm1hZT4nLCAnLW9tYWUnLCAnPG91dGZpbGUubWFlPic=

> <r_lp_tautomer_probability>
1

> <r_epik_Ionization_Penalty>
0.00475669

> <r_epik_Ionization_Penalty_Charging>
0.00474654

> <r_epik_Ionization_Penalty_Neutral>
1.01546e-05

> <r_epik_State_Penalty>
-0

> <r_epik_Charging_Adjusted_Penalty>
0.00474654

> <i_epik_Tot_Q>
1

> <i_epik_Tot_abs_Q>
1

> <r_epik_Metal_State_Penalty>
-0

> <b_epik_Metal_Only>
0

> <s_lp_Force_Field>
OPLS_2005

> <r_lp_Energy>
9.05092

> <b_lp_Chiralities_Consistent>
1

> <s_lp_Variant>
AV-unprocessed.smi:3105-2

> <Gold.Version>
5.8.1

> <Gold.Id.Protein>
6NUR|6NUR_protein|mol2

> <Gold.PLP.Fitness>
41.9626

> <Gold.PLP.PLP>
-27.3302

> <Gold.PLP.part.hbond>
-1.8712

> <Gold.PLP.part.metal>
0.0000

> <Gold.PLP.part.buried>
-4.2525

> <Gold.PLP.part.nonpolar>
-22.6975

> <Gold.PLP.part.repulsive>
0.3591

> <Gold.PLP.ligand.clash>
0.0000

> <Gold.PLP.ligand.torsion>
0.2519

> <Gold.PLP.Chemscore.Hbond>
3.0000

> <Gold.PLP.Chemscore.CHOScore>
2.0000

> <Gold.PLP.Chemscore.Metal>
0.0000

> <Gold.Chemscore.Hbonds>
donor molecule, donor type, donor heavy atom, donor atom, acceptor molecule, acceptor atom, score
      L1  H     3    34       P1  7948  1.89
      L1  H     7    25       P1 10747  1.00
      L1  C    12    31       P1 10186  1.00
      L1  C    14    33       P1 10747  1.00

> <Gold.PLP.Chemscore.Internal.Correction>
0.1363

> <Gold.Rescore>
     Score         DG    S(hbond)    S(metal)    S(lipo)     H(rot)  DE(clash)    DE(int)     intcor
      5.60     -11.78       1.96        0.00      60.24       2.85       0.42       5.77       ----

> <Gold.Chemscore.Fitness>
5.5978

> <Gold.Chemscore.DG>
-11.7836

> <Gold.Chemscore.ZeroCoef>
-5.4800

> <Gold.Chemscore.Hbond>
1.9596

> <Gold.Chemscore.Metal>
0.0000

> <Gold.Chemscore.Lipo>
60.2376

> <Gold.Chemscore.Internal_Hbond>
0.0000

> <Gold.Chemscore.DEClash>
0.4162

> <Gold.Chemscore.DEInternal>
5.7696

> <Gold.Chemscore.Rot>
2.8473

> <Gold.Chemscore.Internal.Correction>
   9.000000E+99

> <Gold.Chemscore.Hbonds>
donor molecule, donor type, donor heavy atom, donor atom, acceptor molecule, acceptor atom, score
      L1  H     3    34       P1  7948  0.89
      L1  H     7    25       P1 10747  1.00

> <Gold.Chemscore.Hbond.Weighted>
-6.5450

> <Gold.Chemscore.Metal.Weighted>
-0.0000

> <Gold.Chemscore.Lipo.Weighted>
-7.0478

> <Gold.Chemscore.Internal_Hbond.Weighted>
0.0000

> <Gold.Chemscore.DEClash.Weighted>
0.4162

> <Gold.Chemscore.DEInternal.Weighted>
5.7696

> <Gold.Chemscore.Rot.Weighted>
7.2892

> <Gold.Chemscore.Internal.Correction.Weighted>
   9.000000E+99

> <Gold.Protein.RotatedTorsions>
[ 6907 6896 6895 6894 ] final  124.63 input  -60.11 | X-H torsion
[ 7974 7965 7964 7962 ] final   34.44 input  175.53 | X-H torsion
[ 8008 7997 7996 7995 ] final  119.70 input   59.86 | X-H torsion
[ 10167 10162 10161 10158 ] final   58.39 input  -65.29 | X-H torsion
[ 10718 10713 10712 10709 ] final  -32.77 input   66.30 | X-H torsion
[ 10763 10752 10751 10750 ] final  105.58 input  -60.55 | X-H torsion
[ 11005 11000 10999 10996 ] final  154.92 input  -57.11 | X-H torsion

> <Gold.Protein.ActiveResidues>
 VAL166  LYS551  ARG553  GLY616  TRP617  ASP618  TYR619  PRO620  LYS621  CYS622 
 ASP623  PHE694  ASN695  SER759  ASP760  ASP761  ALA762  ILE779  LEU786  VAL792 
 PHE793  MET794  SER795  GLU796  ALA797  LYS798  CYS799  TRP800  GLU811  SER814 

> <Gold.Protein.RotatedAtoms>
  152.4061  133.6892  159.6357 H   0  0  0  0  0  0  0  0  0  0  0  0  # atno 6907 bound_to 6896
  150.7946  133.8706  159.3266 H   0  0  0  0  0  0  0  0  0  0  0  0  # atno 6908 bound_to 6896
  151.6459  135.1009  160.0202 H   0  0  0  0  0  0  0  0  0  0  0  0  # atno 6909 bound_to 6896
  146.1352  139.6268  142.9200 H   0  0  0  0  0  0  0  0  0  0  0  0  # atno 7974 bound_to 7965
  156.2608  140.2847  156.1033 H   0  0  0  0  0  0  0  0  0  0  0  0  # atno 8008 bound_to 7997
  155.1336  140.0394  157.2798 H   0  0  0  0  0  0  0  0  0  0  0  0  # atno 8009 bound_to 7997
  154.6581  140.2560  155.7145 H   0  0  0  0  0  0  0  0  0  0  0  0  # atno 8010 bound_to 7997
  140.1877  144.4118  150.6585 H   0  0  0  0  0  0  0  0  0  0  0  0  # atno 10167 bound_to 10162
  156.3708  130.4339  149.7547 H   0  0  0  0  0  0  0  0  0  0  0  0  # atno 10718 bound_to 10713
  153.3813  135.3905  155.1859 H   0  0  0  0  0  0  0  0  0  0  0  0  # atno 10763 bound_to 10752
  154.8708  135.3726  154.4853 H   0  0  0  0  0  0  0  0  0  0  0  0  # atno 10764 bound_to 10752
  153.5331  135.7085  153.5735 H   0  0  0  0  0  0  0  0  0  0  0  0  # atno 10765 bound_to 10752
  140.1533  134.8659  157.2483 H   0  0  0  0  0  0  0  0  0  0  0  0  # atno 11005 bound_to 11000
  145.5171  141.0433  143.2456 LP  0  0  0  0  0  0  0  0  0  0  0  0  # atno 17320 bound_to 7965
  144.7732  139.6687  143.7186 LP  0  0  0  0  0  0  0  0  0  0  0  0  # atno 17321 bound_to 7965
  140.6477  143.2217  151.6148 LP  0  0  0  0  0  0  0  0  0  0  0  0  # atno 17342 bound_to 10162
  139.5269  144.3032  152.1056 LP  0  0  0  0  0  0  0  0  0  0  0  0  # atno 17343 bound_to 10162
  156.4675  130.7981  151.2999 LP  0  0  0  0  0  0  0  0  0  0  0  0  # atno 17370 bound_to 10713
  157.7483  131.0046  150.3083 LP  0  0  0  0  0  0  0  0  0  0  0  0  # atno 17371 bound_to 10713
  140.2577  134.3607  155.7418 LP  0  0  0  0  0  0  0  0  0  0  0  0  # atno 17394 bound_to 11000
  141.2201  133.7352  156.9033 LP  0  0  0  0  0  0  0  0  0  0  0  0  # atno 17395 bound_to 11000

$$$$
