AV-unprocessed.smi:2252|AV-procd|sdf|9113|dock2
  -GOLD-   2272012313D 1   1.00000     0.00000
 Structure written by MMmdl.
 44 46  0  0  0  0  0  0  0  0  1 V2000
  151.7477  145.4168  160.7287 C   0  0  0  0  0  0  0  0  0  0  0  0
  152.2935  144.0773  160.8348 N   0  0  0  0  0  0  0  0  0  0  0  0
  152.3820  143.3219  161.9967 C   0  0  0  0  0  0  0  0  0  0  0  0
  152.9502  142.1217  161.6438 C   0  0  0  0  0  0  0  0  0  0  0  0
  153.2181  142.1214  160.2790 N   0  0  0  0  0  0  0  0  0  0  0  0
  152.8133  143.3144  159.8537 C   0  0  0  0  0  0  0  0  0  0  0  0
  152.8915  143.7590  158.4266 C   0  0  0  0  0  0  0  0  0  0  0  0
  151.5628  144.3434  157.9197 C   0  0  0  0  0  0  0  0  0  0  0  0
  150.8148  143.3669  157.1376 N   0  0  0  0  0  0  0  0  0  0  0  0
  150.5232  142.1210  157.5432 C   0  0  0  0  0  0  0  0  0  0  0  0
  150.8837  141.6642  158.6288 O   0  0  0  0  0  0  0  0  0  0  0  0
  149.7058  141.2516  156.5711 C   0  0  2  0  0  0  0  0  0  0  0  0
  148.2889  141.0324  157.1450 C   0  0  0  0  0  0  0  0  0  0  0  0
  147.1255  140.6907  156.2378 C   0  0  0  0  0  0  0  0  0  0  0  0
  147.1874  142.0435  156.8934 C   0  0  0  0  0  0  0  0  0  0  0  0
  150.3616  139.9551  156.2697 N   0  0  0  0  0  0  0  0  0  0  0  0
  151.8210  140.0035  156.1929 C   0  0  0  0  0  0  0  0  0  0  0  0
  152.2015  138.6791  155.5286 C   0  0  0  0  0  0  0  0  0  0  0  0
  150.9543  138.2567  154.7580 C   0  0  0  0  0  0  0  0  0  0  0  0
  149.9575  139.3926  154.9847 C   0  0  0  0  0  0  0  0  0  0  0  0
  151.2606  145.6990  161.6624 H   0  0  0  0  0  0  0  0  0  0  0  0
  151.0139  145.4582  159.9233 H   0  0  0  0  0  0  0  0  0  0  0  0
  152.5496  146.1252  160.5203 H   0  0  0  0  0  0  0  0  0  0  0  0
  152.0400  143.6895  162.9530 H   0  0  0  0  0  0  0  0  0  0  0  0
  153.1846  141.2666  162.2602 H   0  0  0  0  0  0  0  0  0  0  0  0
  153.6982  144.4847  158.3189 H   0  0  0  0  0  0  0  0  0  0  0  0
  153.1744  142.9023  157.8136 H   0  0  0  0  0  0  0  0  0  0  0  0
  150.9454  144.6505  158.7644 H   0  0  0  0  0  0  0  0  0  0  0  0
  151.7397  145.2401  157.3228 H   0  0  0  0  0  0  0  0  0  0  0  0
  150.4867  143.6611  156.2289 H   0  0  0  0  0  0  0  0  0  0  0  0
  149.6148  141.8119  155.6381 H   0  0  0  0  0  0  0  0  0  0  0  0
  148.2793  140.5806  158.1359 H   0  0  0  0  0  0  0  0  0  0  0  0
  147.3132  140.6431  155.1670 H   0  0  0  0  0  0  0  0  0  0  0  0
  146.3907  139.9814  156.6131 H   0  0  0  0  0  0  0  0  0  0  0  0
  146.4945  142.2415  157.7087 H   0  0  0  0  0  0  0  0  0  0  0  0
  147.4115  142.8965  156.2557 H   0  0  0  0  0  0  0  0  0  0  0  0
  152.1350  140.8394  155.5649 H   0  0  0  0  0  0  0  0  0  0  0  0
  152.2901  140.1163  157.1710 H   0  0  0  0  0  0  0  0  0  0  0  0
  153.0682  138.7951  154.8772 H   0  0  0  0  0  0  0  0  0  0  0  0
  152.4493  137.9291  156.2808 H   0  0  0  0  0  0  0  0  0  0  0  0
  151.1537  138.1000  153.6975 H   0  0  0  0  0  0  0  0  0  0  0  0
  150.5635  137.3228  155.1644 H   0  0  0  0  0  0  0  0  0  0  0  0
  148.9267  139.0369  154.9913 H   0  0  0  0  0  0  0  0  0  0  0  0
  150.0562  140.1402  154.1952 H   0  0  0  0  0  0  0  0  0  0  0  0
  1  2  1  0  0  0  0
  1 21  1  0  0  0  0
  1 22  1  0  0  0  0
  1 23  1  0  0  0  0
  2  6  1  0  0  0  0
  2  3  1  0  0  0  0
  3  4  2  0  0  0  0
  3 24  1  0  0  0  0
  4  5  1  0  0  0  0
  4 25  1  0  0  0  0
  5  6  2  0  0  0  0
  6  7  1  0  0  0  0
  7  8  1  0  0  0  0
  7 26  1  0  0  0  0
  7 27  1  0  0  0  0
  8  9  1  0  0  0  0
  8 28  1  0  0  0  0
  8 29  1  0  0  0  0
  9 10  1  0  0  0  0
  9 30  1  0  0  0  0
 10 11  2  0  0  0  0
 10 12  1  0  0  0  0
 12 13  1  0  0  0  0
 12 16  1  0  0  0  0
 12 31  1  0  0  0  0
 13 15  1  0  0  0  0
 13 14  1  0  0  0  0
 13 32  1  0  0  0  0
 14 15  1  0  0  0  0
 14 33  1  0  0  0  0
 14 34  1  0  0  0  0
 15 35  1  0  0  0  0
 15 36  1  0  0  0  0
 16 20  1  0  0  0  0
 16 17  1  0  0  0  0
 17 18  1  0  0  0  0
 17 37  1  0  0  0  0
 17 38  1  0  0  0  0
 18 19  1  0  0  0  0
 18 39  1  0  0  0  0
 18 40  1  0  0  0  0
 19 20  1  0  0  0  0
 19 41  1  0  0  0  0
 19 42  1  0  0  0  0
 20 43  1  0  0  0  0
 20 44  1  0  0  0  0
M  END
> <s_m_source_file>
AV-unprocessed.smi

> <i_m_source_file_index>
2252

> <i_lp_mmshare_version>
43012

> <i_f3d_flags>
0

> <s_epik_input>
W0NIM11uMVtjSF1bY0hdbmMxW0NIMl1bQ0gyXVtOSF1DKD1PKVtDQEhdKFtDSF0yW0NIMl1bQ0gyXTIpTjNbQ0gyXVtDSDJdW0NIMl1bQ0gyXTM=

> <s_epik_cmdline>
J2VwaWtfcHl0aG9uJywgJy1waCcsICc3LjAnLCAnLXRuJywgJzgnLCAnLW1hJywgJzIwMCcsICctbWV0YWxfYmluZGluZycsICctaW1hZScsICc8aW5maWxlLm1hZT4nLCAnLW9tYWUnLCAnPG91dGZpbGUubWFlPic=

> <r_epik_Ionization_Penalty>
3.7689

> <r_epik_Ionization_Penalty_Charging>
1.29411

> <r_epik_Ionization_Penalty_Neutral>
2.4748

> <r_epik_State_Penalty>
3.85943

> <r_epik_Charging_Adjusted_Penalty>
5.15353

> <i_epik_Tot_Q>
0

> <i_epik_Tot_abs_Q>
0

> <r_epik_Metal_State_Penalty>
2.88358

> <b_epik_Metal_Only>
1

> <s_lp_Force_Field>
OPLS_2005

> <r_lp_Energy>
30.6984

> <b_lp_Chiralities_Consistent>
1

> <s_lp_Variant>
AV-unprocessed.smi:2252-11

> <Gold.Version>
5.8.1

> <Gold.Id.Protein>
6NUR|6NUR_protein|mol2

> <Gold.PLP.Fitness>
46.6947

> <Gold.PLP.PLP>
-46.0095

> <Gold.PLP.part.hbond>
-1.0000

> <Gold.PLP.part.metal>
0.0000

> <Gold.PLP.part.buried>
-5.7403

> <Gold.PLP.part.nonpolar>
-40.5060

> <Gold.PLP.part.repulsive>
0.0139

> <Gold.PLP.ligand.clash>
0.0000

> <Gold.PLP.ligand.torsion>
1.5846

> <Gold.PLP.Chemscore.Hbond>
0.8800

> <Gold.PLP.Chemscore.CHOScore>
0.0000

> <Gold.PLP.Chemscore.Metal>
0.0000

> <Gold.Chemscore.Hbonds>
donor molecule, donor type, donor heavy atom, donor atom, acceptor molecule, acceptor atom, score
      L1  H     9    30       P1  8028  0.64

> <Gold.PLP.Chemscore.Internal.Correction>
1.2143

> <Gold.Rescore>
     Score         DG    S(hbond)    S(metal)    S(lipo)     H(rot)  DE(clash)    DE(int)     intcor
      9.71     -15.15       0.95        0.00      96.20       1.86       0.21       5.23       ----

> <Gold.Chemscore.Fitness>
9.7125

> <Gold.Chemscore.DG>
-15.1545

> <Gold.Chemscore.ZeroCoef>
-5.4800

> <Gold.Chemscore.Hbond>
0.9537

> <Gold.Chemscore.Metal>
0.0000

> <Gold.Chemscore.Lipo>
96.2020

> <Gold.Chemscore.Internal_Hbond>
0.0000

> <Gold.Chemscore.DEClash>
0.2090

> <Gold.Chemscore.DEInternal>
5.2330

> <Gold.Chemscore.Rot>
1.8619

> <Gold.Chemscore.Internal.Correction>
   9.000000E+99

> <Gold.Chemscore.Hbonds>
donor molecule, donor type, donor heavy atom, donor atom, acceptor molecule, acceptor atom, score
      L1  H     9    30       P1  8028  0.62

> <Gold.Chemscore.Hbond.Weighted>
-3.1854

> <Gold.Chemscore.Metal.Weighted>
-0.0000

> <Gold.Chemscore.Lipo.Weighted>
-11.2556

> <Gold.Chemscore.Internal_Hbond.Weighted>
0.0000

> <Gold.Chemscore.DEClash.Weighted>
0.2090

> <Gold.Chemscore.DEInternal.Weighted>
5.2330

> <Gold.Chemscore.Rot.Weighted>
4.7665

> <Gold.Chemscore.Internal.Correction.Weighted>
   9.000000E+99

> <Gold.Protein.RotatedTorsions>
[ 6907 6896 6895 6894 ] final  -51.08 input  -60.11 | X-H torsion
[ 7974 7965 7964 7962 ] final  134.75 input  175.53 | X-H torsion
[ 8008 7997 7996 7995 ] final   -4.15 input   59.86 | X-H torsion
[ 10167 10162 10161 10158 ] final  122.85 input  -65.29 | X-H torsion
[ 10718 10713 10712 10709 ] final   22.31 input   66.30 | X-H torsion
[ 10763 10752 10751 10750 ] final -132.11 input  -60.55 | X-H torsion
[ 11005 11000 10999 10996 ] final  -51.25 input  -57.11 | X-H torsion

> <Gold.Protein.ActiveResidues>
 VAL166  LYS551  ARG553  GLY616  TRP617  ASP618  TYR619  PRO620  LYS621  CYS622 
 ASP623  PHE694  ASN695  SER759  ASP760  ASP761  ALA762  ILE779  LEU786  VAL792 
 PHE793  MET794  SER795  GLU796  ALA797  LYS798  CYS799  TRP800  GLU811  SER814 

> <Gold.Protein.RotatedAtoms>
  150.8645  134.8005  159.7107 H   0  0  0  0  0  0  0  0  0  0  0  0  # atno 6907 bound_to 6896
  152.4671  134.5046  159.9745 H   0  0  0  0  0  0  0  0  0  0  0  0  # atno 6908 bound_to 6896
  151.5144  133.3440  159.2926 H   0  0  0  0  0  0  0  0  0  0  0  0  # atno 6909 bound_to 6896
  144.9732  139.4583  143.5423 H   0  0  0  0  0  0  0  0  0  0  0  0  # atno 7974 bound_to 7965
  154.6173  140.2491  155.7593 H   0  0  0  0  0  0  0  0  0  0  0  0  # atno 8008 bound_to 7997
  156.2406  140.2934  156.0383 H   0  0  0  0  0  0  0  0  0  0  0  0  # atno 8009 bound_to 7997
  155.1954  140.0393  157.2898 H   0  0  0  0  0  0  0  0  0  0  0  0  # atno 8010 bound_to 7997
  139.5834  144.6996  151.3471 H   0  0  0  0  0  0  0  0  0  0  0  0  # atno 10167 bound_to 10162
  157.1506  130.6672  149.6010 H   0  0  0  0  0  0  0  0  0  0  0  0  # atno 10718 bound_to 10713
  154.8746  135.3808  154.4356 H   0  0  0  0  0  0  0  0  0  0  0  0  # atno 10763 bound_to 10752
  153.5046  135.7030  153.5818 H   0  0  0  0  0  0  0  0  0  0  0  0  # atno 10764 bound_to 10752
  153.4135  135.3919  155.2032 H   0  0  0  0  0  0  0  0  0  0  0  0  # atno 10765 bound_to 10752
  141.0861  133.6642  156.3850 H   0  0  0  0  0  0  0  0  0  0  0  0  # atno 11005 bound_to 11000
  146.3388  139.8957  142.8802 LP  0  0  0  0  0  0  0  0  0  0  0  0  # atno 17320 bound_to 7965
  145.2529  141.0050  143.3871 LP  0  0  0  0  0  0  0  0  0  0  0  0  # atno 17321 bound_to 7965
  140.7109  143.7393  150.7565 LP  0  0  0  0  0  0  0  0  0  0  0  0  # atno 17342 bound_to 10162
  140.0931  143.4859  152.2467 LP  0  0  0  0  0  0  0  0  0  0  0  0  # atno 17343 bound_to 10162
  155.9771  130.4746  150.6573 LP  0  0  0  0  0  0  0  0  0  0  0  0  # atno 17370 bound_to 10713
  157.4224  131.0838  151.1118 LP  0  0  0  0  0  0  0  0  0  0  0  0  # atno 17371 bound_to 10713
  140.5360  134.6166  157.5365 LP  0  0  0  0  0  0  0  0  0  0  0  0  # atno 17394 bound_to 11000
  139.9679  134.7342  156.0100 LP  0  0  0  0  0  0  0  0  0  0  0  0  # atno 17395 bound_to 11000

$$$$
