#       Name:                AV-unprocessed.smi:2277
#       Creating user name   scv26
#       Creation time:       Fri Mar 27 12:39:25 2020


#       File generated by GOLD software.
#

@<TRIPOS>MOLECULE
AV-unprocessed.smi:2277
    42    43     1
SMALL
NO_CHARGES


@<TRIPOS>ATOM
      1 ****        -4.8951   3.5320   1.0959 C.3            1 S1                 0.0000
      2 ****        -3.7337   2.5857   1.3167 C.ar           1 S1                 0.0000
      3 ****        -3.9319   1.2966   1.8470 C.ar           1 S1                 0.0000
      4 ****        -2.8144   0.4594   2.0306 C.ar           1 S1                 0.0000
      5 ****        -1.5282   0.9288   1.6810 C.ar           1 S1                 0.0000
      6 ****        -0.4707   0.0070   1.9032 N.am           1 S1                 0.0000
      7 ****         0.8428   0.1782   1.6716 C.2            1 S1                 0.0000
      8 ****         1.3621   1.2040   1.2312 O.2            1 S1                 0.0000
      9 ****         1.5384  -0.9281   1.9762 N.am           1 S1                 0.0000
     10 ****         2.9877  -1.0798   1.8375 C.3            1 S1                 0.0000
     11 ****         3.4732  -1.4293   0.4209 C.2            1 S1                 0.0000
     12 ****         4.6811  -1.5382   0.2139 O.2            1 S1                 0.0000
     13 ****         2.5549  -1.6048  -0.5429 N.am           1 S1                 0.0000
     14 ****         2.8569  -1.9187  -1.9307 C.3            1 S1                 0.0000
     15 ****         1.6323  -2.0185  -2.8152 C.3            1 S1                 0.0000
     16 ****         1.7599  -1.9230  -4.3173 C.3            1 S1                 0.0000
     17 ****         1.0983  -0.8073  -3.5432 C.3            1 S1                 0.0000
     18 ****        -1.3480   2.1723   1.1701 N.ar           1 S1                 0.0000
     19 ****        -2.4192   2.9742   0.9946 C.ar           1 S1                 0.0000
     20 ****        -5.8357   3.0899   1.4256 H              1 S1                 0.0000
     21 ****        -4.9857   3.7780   0.0377 H              1 S1                 0.0000
     22 ****        -4.7398   4.4570   1.6519 H              1 S1                 0.0000
     23 ****        -4.9210   0.9508   2.1097 H              1 S1                 0.0000
     24 ****        -2.9485  -0.5328   2.4365 H              1 S1                 0.0000
     25 ****        -0.7481  -0.8893   2.2746 H              1 S1                 0.0000
     26 ****         1.0325  -1.7261   2.3314 H              1 S1                 0.0000
     27 ****         3.4917  -0.1714   2.1717 H              1 S1                 0.0000
     28 ****         3.3079  -1.8738   2.5124 H              1 S1                 0.0000
     29 ****         1.5817  -1.4919  -0.2992 H              1 S1                 0.0000
     30 ****         3.5319  -1.1620  -2.3345 H              1 S1                 0.0000
     31 ****         3.3872  -2.8712  -1.9710 H              1 S1                 0.0000
     32 ****         0.8889  -2.7265  -2.4535 H              1 S1                 0.0000
     33 ****         2.7471  -1.7285  -4.7321 H              1 S1                 0.0000
     34 ****         1.1200  -2.5661  -4.9181 H              1 S1                 0.0000
     35 ****         0.0180  -0.7083  -3.6256 H              1 S1                 0.0000
     36 ****         1.6460   0.1278  -3.4418 H              1 S1                 0.0000
     37 ****        -2.2199   3.9536   0.5850 H              1 S1                 0.0000
     38 ****         0.7947   1.9986   1.0150 LP             1 S1                 0.0000
     39 ****         2.3513   1.2426   1.0896 LP             1 S1                 0.0000
     40 ****         5.3309  -1.3999   0.9612 LP             1 S1                 0.0000
     41 ****         5.0130  -1.7650  -0.7018 LP             1 S1                 0.0000
     42 ****        -0.4321   2.4912   0.9263 LP             1 S1                 0.0000
@<TRIPOS>BOND
    1    1    2 1     
    2    1   20 1     
    3    1   21 1     
    4    1   22 1     
    5    2   19 ar    
    6    2    3 ar    
    7    3    4 ar    
    8    3   23 1     
    9    4    5 ar    
   10    4   24 1     
   11    5    6 1     
   12    5   18 ar    
   13    6    7 am    
   14    6   25 1     
   15    7    8 2     
   16    7    9 am    
   17    9   10 1     
   18    9   26 1     
   19   10   11 1     
   20   10   27 1     
   21   10   28 1     
   22   11   12 2     
   23   11   13 am    
   24   13   14 1     
   25   13   29 1     
   26   14   15 1     
   27   14   30 1     
   28   14   31 1     
   29   15   17 1     
   30   15   16 1     
   31   15   32 1     
   32   16   17 1     
   33   16   33 1     
   34   16   34 1     
   35   17   35 1     
   36   17   36 1     
   37   18   19 ar    
   38   19   37 1     
   39    8   38 1     
   40    8   39 1     
   41   12   40 1     
   42   12   41 1     
   43   18   42 1     
@<TRIPOS>SUBSTRUCTURE
      1 S1             1
@<TRIPOS>SET
LONE_PAIRS      STATIC     ATOMS    <user>   **** ""
5 38 39 40 41 42
DONOR_HYDROGENS      STATIC     ATOMS    <user>   **** ""
3 25 26 29
ATOM$BLUE        STATIC     ATOMS    COLORGROUP SYSTEM
5 38 39 40 41 42
ATOM$RED        STATIC     ATOMS    COLORGROUP SYSTEM
3 25 26 29
