AV-unprocessed.smi:3090|AV-procd|sdf|11776|dock9
  -GOLD-   2272017153D 1   1.00000     0.00000
 Structure written by MMmdl.
 21 21  0  0  0  0  0  0  0  0  1 V2000
  143.9863  132.5158  149.5917 C   0  0  0  0  0  0  0  0  0  0  0  0
  144.6456  133.5053  150.4165 N   0  0  0  0  0  0  0  0  0  0  0  0
  144.1310  134.6728  150.9370 C   0  0  0  0  0  0  0  0  0  0  0  0
  145.1255  135.2787  151.6541 C   0  0  0  0  0  0  0  0  0  0  0  0
  145.0904  136.5755  152.4236 C   0  0  2  0  0  0  0  0  0  0  0  0
  143.9007  137.2951  152.1768 O   0  0  0  0  0  0  0  0  0  0  0  0
  146.2729  137.4927  152.0651 C   0  0  0  0  0  0  0  0  0  0  0  0
  146.4382  137.6837  150.6155 N   0  0  0  0  0  0  0  0  0  0  0  0
  146.2268  134.3878  151.5012 C   0  0  0  0  0  0  0  0  0  0  0  0
  145.9367  133.3285  150.7633 N   0  0  0  0  0  0  0  0  0  0  0  0
  142.9409  132.7882  149.4433 H   0  0  0  0  0  0  0  0  0  0  0  0
  144.0325  131.5407  150.0772 H   0  0  0  0  0  0  0  0  0  0  0  0
  144.4788  132.4571  148.6207 H   0  0  0  0  0  0  0  0  0  0  0  0
  143.1094  134.9747  150.7586 H   0  0  0  0  0  0  0  0  0  0  0  0
  145.1170  136.3768  153.4958 H   0  0  0  0  0  0  0  0  0  0  0  0
  143.9311  137.6287  151.2931 H   0  0  0  0  0  0  0  0  0  0  0  0
  146.1461  138.4616  152.5495 H   0  0  0  0  0  0  0  0  0  0  0  0
  147.1908  137.0682  152.4734 H   0  0  0  0  0  0  0  0  0  0  0  0
  146.2225  136.8214  150.1170 H   0  0  0  0  0  0  0  0  0  0  0  0
  145.7919  138.3937  150.2744 H   0  0  0  0  0  0  0  0  0  0  0  0
  147.2244  134.4812  151.9042 H   0  0  0  0  0  0  0  0  0  0  0  0
  1  2  1  0  0  0  0
  1 11  1  0  0  0  0
  1 12  1  0  0  0  0
  1 13  1  0  0  0  0
  2 10  1  0  0  0  0
  2  3  1  0  0  0  0
  3  4  2  0  0  0  0
  3 14  1  0  0  0  0
  4  5  1  0  0  0  0
  4  9  1  0  0  0  0
  5  6  1  0  0  0  0
  5  7  1  0  0  0  0
  5 15  1  0  0  0  0
  6 16  1  0  0  0  0
  7  8  1  0  0  0  0
  7 17  1  0  0  0  0
  7 18  1  0  0  0  0
  8 19  1  0  0  0  0
  8 20  1  0  0  0  0
  9 10  2  0  0  0  0
  9 21  1  0  0  0  0
M  END
> <s_m_source_file>
AV-unprocessed.smi

> <i_m_source_file_index>
3090

> <i_lp_mmshare_version>
43012

> <i_f3d_flags>
0

> <s_epik_input>
W0NIM11uMVtjSF1jKFtjSF1uMSlbQ0BIXShbT0hdKVtDSDJdW05IMl0=

> <s_epik_cmdline>
J2VwaWtfcHl0aG9uJywgJy1waCcsICc3LjAnLCAnLXRuJywgJzgnLCAnLW1hJywgJzIwMCcsICctbWV0YWxfYmluZGluZycsICctaW1hZScsICc8aW5maWxlLm1hZT4nLCAnLW9tYWUnLCAnPG91dGZpbGUubWFlPic=

> <r_lp_tautomer_probability>
1

> <r_epik_Ionization_Penalty>
2.22426

> <r_epik_Ionization_Penalty_Charging>
0

> <r_epik_Ionization_Penalty_Neutral>
2.22426

> <r_epik_State_Penalty>
2.36938

> <r_epik_Charging_Adjusted_Penalty>
2.36938

> <i_epik_Tot_Q>
0

> <i_epik_Tot_abs_Q>
0

> <r_epik_Metal_State_Penalty>
2.36934

> <b_epik_Metal_Only>
0

> <s_lp_Force_Field>
OPLS_2005

> <r_lp_Energy>
2.27674

> <b_lp_Chiralities_Consistent>
1

> <s_lp_Variant>
AV-unprocessed.smi:3090-3

> <Gold.Version>
5.8.1

> <Gold.Id.Protein>
6NUR|6NUR_protein|mol2

> <Gold.PLP.Fitness>
34.8703

> <Gold.PLP.PLP>
-21.2955

> <Gold.PLP.part.hbond>
-4.0623

> <Gold.PLP.part.metal>
0.0000

> <Gold.PLP.part.buried>
-2.9368

> <Gold.PLP.part.nonpolar>
-15.4949

> <Gold.PLP.part.repulsive>
0.1658

> <Gold.PLP.ligand.clash>
0.0000

> <Gold.PLP.ligand.torsion>
0.2440

> <Gold.PLP.Chemscore.Hbond>
2.7288

> <Gold.PLP.Chemscore.CHOScore>
1.9577

> <Gold.PLP.Chemscore.Metal>
0.0000

> <Gold.Chemscore.Hbonds>
donor molecule, donor type, donor heavy atom, donor atom, acceptor molecule, acceptor atom, score
      L1  H     6    16       P1 10171  1.00
      L1  H     8    20       P1 10171  0.82
      P1  H  7954  7966       L1     8  0.74
      L1  C     3    14       P1 10186  0.76
      L1  C     9    21       P1  7948  1.00

> <Gold.PLP.Chemscore.Internal.Correction>
0.0034

> <Gold.Rescore>
     Score         DG    S(hbond)    S(metal)    S(lipo)     H(rot)  DE(clash)    DE(int)     intcor
     11.64     -11.96       2.06        0.00      38.38       1.90       0.13       0.19       ----

> <Gold.Chemscore.Fitness>
11.6370

> <Gold.Chemscore.DG>
-11.9612

> <Gold.Chemscore.ZeroCoef>
-5.4800

> <Gold.Chemscore.Hbond>
2.0552

> <Gold.Chemscore.Metal>
0.0000

> <Gold.Chemscore.Lipo>
38.3822

> <Gold.Chemscore.Internal_Hbond>
0.0000

> <Gold.Chemscore.DEClash>
0.1320

> <Gold.Chemscore.DEInternal>
0.1921

> <Gold.Chemscore.Rot>
1.9039

> <Gold.Chemscore.Internal.Correction>
   9.000000E+99

> <Gold.Chemscore.Hbonds>
donor molecule, donor type, donor heavy atom, donor atom, acceptor molecule, acceptor atom, score
      L1  H     6    16       P1 10171  1.00
      L1  H     8    20       P1 10171  0.80
      P1  H  7954  7966       L1     8  0.07

> <Gold.Chemscore.Hbond.Weighted>
-6.8644

> <Gold.Chemscore.Metal.Weighted>
-0.0000

> <Gold.Chemscore.Lipo.Weighted>
-4.4907

> <Gold.Chemscore.Internal_Hbond.Weighted>
0.0000

> <Gold.Chemscore.DEClash.Weighted>
0.1320

> <Gold.Chemscore.DEInternal.Weighted>
0.1921

> <Gold.Chemscore.Rot.Weighted>
4.8739

> <Gold.Chemscore.Internal.Correction.Weighted>
   9.000000E+99

> <Gold.Protein.RotatedTorsions>
[ 6907 6896 6895 6894 ] final -138.16 input  -60.11 | X-H torsion
[ 7974 7965 7964 7962 ] final  133.57 input  175.53 | X-H torsion
[ 8008 7997 7996 7995 ] final  -23.55 input   59.86 | X-H torsion
[ 10167 10162 10161 10158 ] final -116.66 input  -65.29 | X-H torsion
[ 10718 10713 10712 10709 ] final    7.26 input   66.30 | X-H torsion
[ 10763 10752 10751 10750 ] final  -34.68 input  -60.55 | X-H torsion
[ 11005 11000 10999 10996 ] final   81.47 input  -57.11 | X-H torsion

> <Gold.Protein.ActiveResidues>
 VAL166  LYS551  ARG553  GLY616  TRP617  ASP618  TYR619  PRO620  LYS621  CYS622 
 ASP623  PHE694  ASN695  SER759  ASP760  ASP761  ALA762  ILE779  LEU786  VAL792 
 PHE793  MET794  SER795  GLU796  ALA797  LYS798  CYS799  TRP800  GLU811  SER814 

> <Gold.Protein.RotatedAtoms>
  151.0316  133.5786  159.2660 H   0  0  0  0  0  0  0  0  0  0  0  0  # atno 6907 bound_to 6896
  151.2865  135.0728  159.9198 H   0  0  0  0  0  0  0  0  0  0  0  0  # atno 6908 bound_to 6896
  152.5346  134.0021  159.7953 H   0  0  0  0  0  0  0  0  0  0  0  0  # atno 6909 bound_to 6896
  144.9851  139.4464  143.5367 H   0  0  0  0  0  0  0  0  0  0  0  0  # atno 7974 bound_to 7965
  154.4579  140.1977  156.0328 H   0  0  0  0  0  0  0  0  0  0  0  0  # atno 8008 bound_to 7997
  156.0782  140.3275  155.7632 H   0  0  0  0  0  0  0  0  0  0  0  0  # atno 8009 bound_to 7997
  155.5155  140.0565  157.2907 H   0  0  0  0  0  0  0  0  0  0  0  0  # atno 8010 bound_to 7997
  140.0768  143.4825  152.1948 H   0  0  0  0  0  0  0  0  0  0  0  0  # atno 10167 bound_to 10162
  156.9342  130.5837  149.5650 H   0  0  0  0  0  0  0  0  0  0  0  0  # atno 10718 bound_to 10713
  153.8508  135.6849  153.4792 H   0  0  0  0  0  0  0  0  0  0  0  0  # atno 10763 bound_to 10752
  153.1398  135.4662  154.9477 H   0  0  0  0  0  0  0  0  0  0  0  0  # atno 10764 bound_to 10752
  154.7803  135.3266  154.7952 H   0  0  0  0  0  0  0  0  0  0  0  0  # atno 10765 bound_to 10752
  139.9097  134.7999  156.2045 H   0  0  0  0  0  0  0  0  0  0  0  0  # atno 11005 bound_to 11000
  146.3418  139.9148  142.8775 LP  0  0  0  0  0  0  0  0  0  0  0  0  # atno 17320 bound_to 7965
  145.2365  140.9993  143.3960 LP  0  0  0  0  0  0  0  0  0  0  0  0  # atno 17321 bound_to 7965
  139.5803  144.7507  151.3658 LP  0  0  0  0  0  0  0  0  0  0  0  0  # atno 17342 bound_to 10162
  140.7098  143.7421  150.7546 LP  0  0  0  0  0  0  0  0  0  0  0  0  # atno 17343 bound_to 10162
  156.0433  130.5513  150.8822 LP  0  0  0  0  0  0  0  0  0  0  0  0  # atno 17370 bound_to 10713
  157.5827  131.0946  150.9246 LP  0  0  0  0  0  0  0  0  0  0  0  0  # atno 17371 bound_to 10713
  141.0504  133.6892  156.1761 LP  0  0  0  0  0  0  0  0  0  0  0  0  # atno 17394 bound_to 11000
  140.6819  134.4758  157.5589 LP  0  0  0  0  0  0  0  0  0  0  0  0  # atno 17395 bound_to 11000

$$$$
