#       Name:                AV-unprocessed.smi:2831
#       Creating user name   scv26
#       Creation time:       Fri Mar 27 15:35:52 2020


#       File generated by GOLD software.
#

@<TRIPOS>MOLECULE
AV-unprocessed.smi:2831
    36    37     1
SMALL
NO_CHARGES


@<TRIPOS>ATOM
      1 ****        -5.6243   2.3104  -0.3912 C.3            1 S1                 0.0000
      2 ****        -4.2417   2.1059   0.1260 C.2            1 S1                 0.0000
      3 ****        -3.9706   1.9529   1.4244 N.2            1 S1                 0.0000
      4 ****        -2.6143   1.7755   1.6575 N.2            1 S1                 0.0000
      5 ****        -1.8819   1.7853   0.5346 C.2            1 S1                 0.0000
      6 ****        -0.5475   1.6306   0.5423 N.pl3          1 S1                -1.0000
      7 ****        -0.0054   0.4204   0.2771 C.2            1 S1                 0.0000
      8 ****        -0.6273  -0.6129   0.0219 O.2            1 S1                 0.0000
      9 ****         1.3381   0.4186   0.3087 N.am           1 S1                 0.0000
     10 ****         2.2769  -0.6891   0.0789 C.3            1 S1                 0.0000
     11 ****         3.7007  -0.1052   0.1412 C.3            1 S1                 0.0000
     12 ****         2.0514  -1.4071  -1.2637 C.3            1 S1                 0.0000
     13 ****         1.6829  -2.8363  -0.8695 C.3            1 S1                 0.0000
     14 ****         2.3294  -3.0115   0.3791 O.3            1 S1                 0.0000
     15 ****         2.1147  -1.8193   1.1180 C.3            1 S1                 0.0000
     16 ****        -2.8370   2.0444  -0.9250 S.3            1 S1                 0.0000
     17 ****        -6.1412   1.3531  -0.4596 H              1 S1                 0.0000
     18 ****        -5.5936   2.7640  -1.3819 H              1 S1                 0.0000
     19 ****        -6.1844   2.9670   0.2750 H              1 S1                 0.0000
     20 ****         1.7663   1.3070   0.5247 H              1 S1                 0.0000
     21 ****         4.4554  -0.8812   0.0072 H              1 S1                 0.0000
     22 ****         3.8915   0.3737   1.1024 H              1 S1                 0.0000
     23 ****         3.8550   0.6440  -0.6363 H              1 S1                 0.0000
     24 ****         1.2869  -0.9498  -1.8929 H              1 S1                 0.0000
     25 ****         2.9697  -1.4248  -1.8521 H              1 S1                 0.0000
     26 ****         0.6050  -2.9431  -0.7407 H              1 S1                 0.0000
     27 ****         2.0141  -3.5732  -1.6013 H              1 S1                 0.0000
     28 ****         2.8174  -1.7413   1.9482 H              1 S1                 0.0000
     29 ****         1.1126  -1.8569   1.5465 H              1 S1                 0.0000
     30 ****        -4.6640   1.9647   2.1448 LP             1 S1                 0.0000
     31 ****        -2.2231   1.6529   2.5697 LP             1 S1                 0.0000
     32 ****         0.0451   2.4104   0.7442 LP             1 S1                 0.0000
     33 ****        -1.6269  -0.6019  -0.0020 LP             1 S1                 0.0000
     34 ****        -0.1321  -1.4622  -0.1612 LP             1 S1                 0.0000
     35 ****         3.3087  -3.1611   0.2426 LP             1 S1                 0.0000
     36 ****         1.9373  -3.7933   0.8640 LP             1 S1                 0.0000
@<TRIPOS>BOND
    1    1    2 1     
    2    1   17 1     
    3    1   18 1     
    4    1   19 1     
    5    2   16 1     
    6    2    3 2     
    7    3    4 1     
    8    4    5 2     
    9    5    6 1     
   10    5   16 1     
   11    6    7 1     
   12    7    8 2     
   13    7    9 am    
   14    9   10 1     
   15    9   20 1     
   16   10   15 1     
   17   10   11 1     
   18   10   12 1     
   19   11   21 1     
   20   11   22 1     
   21   11   23 1     
   22   12   13 1     
   23   12   24 1     
   24   12   25 1     
   25   13   14 1     
   26   13   26 1     
   27   13   27 1     
   28   14   15 1     
   29   15   28 1     
   30   15   29 1     
   31    3   30 1     
   32    4   31 1     
   33    6   32 1     
   34    8   33 1     
   35    8   34 1     
   36   14   35 1     
   37   14   36 1     
@<TRIPOS>SUBSTRUCTURE
      1 S1             1
@<TRIPOS>SET
LONE_PAIRS      STATIC     ATOMS    <user>   **** ""
7 30 31 32 33 34 35 36
DONOR_HYDROGENS      STATIC     ATOMS    <user>   **** ""
1 20
ATOM$BLUE        STATIC     ATOMS    COLORGROUP SYSTEM
7 30 31 32 33 34 35 36
ATOM$RED        STATIC     ATOMS    COLORGROUP SYSTEM
1 20
