AV-unprocessed.smi:703|AV-procd|sdf|3439|dock6
  -GOLD-   22720 0423D 1   1.00000     0.00000
 Structure written by MMmdl.
 37 38  0  0  0  0  0  0  0  0  3 V2000
  146.0027  134.2495  151.3158 C   0  0  0  0  0  0  0  0  0  0  0  0
  147.0599  133.2787  151.8591 C   0  0  0  0  0  0  0  0  0  0  0  0
  147.8962  133.8950  152.9167 N   0  3  2  0  0  0  0  0  0  0  0  0
  149.0508  133.0678  153.3433 C   0  0  0  0  0  0  0  0  0  0  0  0
  149.0414  133.0426  154.8809 C   0  0  1  0  0  0  0  0  0  0  0  0
  150.4523  132.9829  155.4991 C   0  0  0  0  0  0  0  0  0  0  0  0
  148.2030  134.2735  155.2569 C   0  0  2  0  0  0  0  0  0  0  0  0
  147.5881  134.1187  156.5657 N   0  5  0  0  0  0  0  0  0  0  0  0
  148.3318  134.7062  157.8825 S   0  0  0  0  0  0  0  0  0  0  0  0
  149.2042  133.7041  158.5152 O   0  0  0  0  0  0  0  0  0  0  0  0
  148.9012  136.0460  157.6612 O   0  0  0  0  0  0  0  0  0  0  0  0
  146.8971  134.9217  159.0262 C   0  0  0  0  0  0  0  0  0  0  0  0
  147.3601  135.4016  160.3741 C   0  0  0  0  0  0  0  0  0  0  0  0
  147.1463  134.8018  161.6464 C   0  0  0  0  0  0  0  0  0  0  0  0
  147.7771  135.6505  162.5094 C   0  0  0  0  0  0  0  0  0  0  0  0
  148.3277  136.6913  161.8354 O   0  0  0  0  0  0  0  0  0  0  0  0
  148.0519  136.5264  160.4734 N   0  0  0  0  0  0  0  0  0  0  0  0
  147.1637  134.3049  154.1342 C   0  0  0  0  0  0  0  0  0  0  0  0
  145.4390  133.7896  150.5041 H   0  0  0  0  0  0  0  0  0  0  0  0
  146.4643  135.1573  150.9261 H   0  0  0  0  0  0  0  0  0  0  0  0
  145.2881  134.5389  152.0868 H   0  0  0  0  0  0  0  0  0  0  0  0
  146.5851  132.3734  152.2409 H   0  0  0  0  0  0  0  0  0  0  0  0
  147.7077  132.9719  151.0369 H   0  0  0  0  0  0  0  0  0  0  0  0
  149.0029  132.0533  152.9440 H   0  0  0  0  0  0  0  0  0  0  0  0
  149.9614  133.5250  152.9512 H   0  0  0  0  0  0  0  0  0  0  0  0
  148.4966  132.1465  155.1862 H   0  0  0  0  0  0  0  0  0  0  0  0
  151.0648  133.8414  155.2177 H   0  0  0  0  0  0  0  0  0  0  0  0
  150.9770  132.0884  155.1630 H   0  0  0  0  0  0  0  0  0  0  0  0
  150.4160  132.9415  156.5893 H   0  0  0  0  0  0  0  0  0  0  0  0
  148.8297  135.1641  155.1889 H   0  0  0  0  0  0  0  0  0  0  0  0
  146.1797  135.6040  158.5696 H   0  0  0  0  0  0  0  0  0  0  0  0
  146.4079  133.9530  159.1241 H   0  0  0  0  0  0  0  0  0  0  0  0
  146.6198  133.8900  161.8856 H   0  0  0  0  0  0  0  0  0  0  0  0
  147.9145  135.6526  163.5806 H   0  0  0  0  0  0  0  0  0  0  0  0
  146.7143  135.2908  154.0110 H   0  0  0  0  0  0  0  0  0  0  0  0
  146.3621  133.5915  154.3373 H   0  0  0  0  0  0  0  0  0  0  0  0
  148.2945  134.7390  152.5310 H   0  0  0  0  0  0  0  0  0  0  0  0
  1  2  1  0  0  0  0
  1 19  1  0  0  0  0
  1 20  1  0  0  0  0
  1 21  1  0  0  0  0
  2  3  1  0  0  0  0
  2 22  1  0  0  0  0
  2 23  1  0  0  0  0
  3 18  1  0  0  0  0
  3  4  1  0  0  0  0
  3 37  1  0  0  0  0
  4  5  1  0  0  0  0
  4 24  1  0  0  0  0
  4 25  1  0  0  0  0
  5  6  1  0  0  0  0
  5  7  1  0  0  0  0
  5 26  1  0  0  0  0
  6 27  1  0  0  0  0
  6 28  1  0  0  0  0
  6 29  1  0  0  0  0
  7  8  1  0  0  0  0
  7 18  1  0  0  0  0
  7 30  1  0  0  0  0
  8  9  1  0  0  0  0
  9 10  2  0  0  0  0
  9 11  2  0  0  0  0
  9 12  1  0  0  0  0
 12 13  1  0  0  0  0
 12 31  1  0  0  0  0
 12 32  1  0  0  0  0
 13 17  2  0  0  0  0
 13 14  1  0  0  0  0
 14 15  2  0  0  0  0
 14 33  1  0  0  0  0
 15 16  1  0  0  0  0
 15 34  1  0  0  0  0
 16 17  1  0  0  0  0
 18 35  1  0  0  0  0
 18 36  1  0  0  0  0
M  CHG  1   3   1
M  CHG  1   8  -1
M  END
> <s_m_source_file>
AV-unprocessed.smi

> <i_m_source_file_index>
703

> <i_lp_mmshare_version>
43012

> <i_f3d_flags>
0

> <s_epik_input>
W0NIM11bQ0gyXU4xW0NIMl1bQ0BASF0oW0NIM10pW0NASF0oW0NIMl0xKVtOSF1TKD1PKSg9TylbQ0gyXWMyW2NIXVtjSF1vbjI=

> <s_epik_cmdline>
J2VwaWtfcHl0aG9uJywgJy1waCcsICc3LjAnLCAnLXRuJywgJzgnLCAnLW1hJywgJzIwMCcsICctbWV0YWxfYmluZGluZycsICctaW1hZScsICc8aW5maWxlLm1hZT4nLCAnLW9tYWUnLCAnPG91dGZpbGUubWFlPic=

> <r_epik_Ionization_Penalty>
3.62494

> <r_epik_Ionization_Penalty_Charging>
3.62494

> <r_epik_Ionization_Penalty_Neutral>
2.0321e-10

> <r_epik_State_Penalty>
3.62558

> <r_epik_Charging_Adjusted_Penalty>
7.25052

> <i_epik_Tot_Q>
0

> <i_epik_Tot_abs_Q>
2

> <r_epik_Metal_State_Penalty>
0.530836

> <b_epik_Metal_Only>
1

> <s_lp_Force_Field>
OPLS_2005

> <r_lp_Energy>
15.0444

> <b_lp_Chiralities_Consistent>
1

> <s_lp_Variant>
AV-unprocessed.smi:703-14

> <Gold.Version>
5.8.1

> <Gold.Id.Protein>
6NUR|6NUR_protein|mol2

> <Gold.PLP.Fitness>
38.7984

> <Gold.PLP.PLP>
-27.7968

> <Gold.PLP.part.hbond>
-3.8293

> <Gold.PLP.part.metal>
0.0000

> <Gold.PLP.part.buried>
-4.0851

> <Gold.PLP.part.nonpolar>
-20.1904

> <Gold.PLP.part.repulsive>
0.0000

> <Gold.PLP.ligand.clash>
0.0000

> <Gold.PLP.ligand.torsion>
1.0194

> <Gold.PLP.Chemscore.Hbond>
4.0000

> <Gold.PLP.Chemscore.CHOScore>
0.0000

> <Gold.PLP.Chemscore.Metal>
0.0000

> <Gold.Chemscore.Hbonds>
donor molecule, donor type, donor heavy atom, donor atom, acceptor molecule, acceptor atom, score
      L1  H     3    37       P1  7948  2.00
      P1  H  6896  6909       L1    10  1.00
      P1  H  6931  6943       L1    16  1.00

> <Gold.PLP.Chemscore.Internal.Correction>
1.0404

> <Gold.Rescore>
     Score         DG    S(hbond)    S(metal)    S(lipo)     H(rot)  DE(clash)    DE(int)     intcor
     15.50     -17.59       2.87        0.00      57.31       1.63       0.01       2.08       ----

> <Gold.Chemscore.Fitness>
15.4979

> <Gold.Chemscore.DG>
-17.5880

> <Gold.Chemscore.ZeroCoef>
-5.4800

> <Gold.Chemscore.Hbond>
2.8698

> <Gold.Chemscore.Metal>
0.0000

> <Gold.Chemscore.Lipo>
57.3094

> <Gold.Chemscore.Internal_Hbond>
0.0000

> <Gold.Chemscore.DEClash>
0.0060

> <Gold.Chemscore.DEInternal>
2.0841

> <Gold.Chemscore.Rot>
1.6338

> <Gold.Chemscore.Internal.Correction>
   9.000000E+99

> <Gold.Chemscore.Hbonds>
donor molecule, donor type, donor heavy atom, donor atom, acceptor molecule, acceptor atom, score
      L1  H     3    37       P1  7948  0.35
      P1  H  6896  6909       L1    10  1.00
      P1  H  6931  6943       L1    16  0.45

> <Gold.Chemscore.Hbond.Weighted>
-9.5853

> <Gold.Chemscore.Metal.Weighted>
-0.0000

> <Gold.Chemscore.Lipo.Weighted>
-6.7052

> <Gold.Chemscore.Internal_Hbond.Weighted>
0.0000

> <Gold.Chemscore.DEClash.Weighted>
0.0060

> <Gold.Chemscore.DEInternal.Weighted>
2.0841

> <Gold.Chemscore.Rot.Weighted>
4.1825

> <Gold.Chemscore.Internal.Correction.Weighted>
   9.000000E+99

> <Gold.Protein.RotatedTorsions>
[ 6907 6896 6895 6894 ] final   15.16 input  -60.11 | X-H torsion
[ 7974 7965 7964 7962 ] final  -53.38 input  175.53 | X-H torsion
[ 8008 7997 7996 7995 ] final -152.31 input   59.86 | X-H torsion
[ 10167 10162 10161 10158 ] final  163.75 input  -65.29 | X-H torsion
[ 10718 10713 10712 10709 ] final  153.67 input   66.30 | X-H torsion
[ 10763 10752 10751 10750 ] final  -82.88 input  -60.55 | X-H torsion
[ 11005 11000 10999 10996 ] final  112.83 input  -57.11 | X-H torsion

> <Gold.Protein.ActiveResidues>
 VAL166  LYS551  ARG553  GLY616  TRP617  ASP618  TYR619  PRO620  LYS621  CYS622 
 ASP623  PHE694  ASN695  SER759  ASP760  ASP761  ALA762  ILE779  LEU786  VAL792 
 PHE793  MET794  SER795  GLU796  ALA797  LYS798  CYS799  TRP800  GLU811  SER814 

> <Gold.Protein.RotatedAtoms>
  151.8137  135.0673  160.0415 H   0  0  0  0  0  0  0  0  0  0  0  0  # atno 6907 bound_to 6896
  152.3002  133.5643  159.5622 H   0  0  0  0  0  0  0  0  0  0  0  0  # atno 6908 bound_to 6896
  150.7270  134.0218  159.3746 H   0  0  0  0  0  0  0  0  0  0  0  0  # atno 6909 bound_to 6896
  145.8975  140.8021  142.9760 H   0  0  0  0  0  0  0  0  0  0  0  0  # atno 7974 bound_to 7965
  155.6531  140.0714  157.2580 H   0  0  0  0  0  0  0  0  0  0  0  0  # atno 8008 bound_to 7997
  154.4158  140.1729  156.1746 H   0  0  0  0  0  0  0  0  0  0  0  0  # atno 8009 bound_to 7997
  155.9760  140.3358  155.6622 H   0  0  0  0  0  0  0  0  0  0  0  0  # atno 8010 bound_to 7997
  139.4878  144.4305  151.9076 H   0  0  0  0  0  0  0  0  0  0  0  0  # atno 10167 bound_to 10162
  157.2417  131.0760  151.1788 H   0  0  0  0  0  0  0  0  0  0  0  0  # atno 10718 bound_to 10713
  154.5811  135.5575  153.7186 H   0  0  0  0  0  0  0  0  0  0  0  0  # atno 10763 bound_to 10752
  153.0082  135.6320  154.1981 H   0  0  0  0  0  0  0  0  0  0  0  0  # atno 10764 bound_to 10752
  154.1922  135.2882  155.2998 H   0  0  0  0  0  0  0  0  0  0  0  0  # atno 10765 bound_to 10752
  139.8937  134.9538  156.6646 H   0  0  0  0  0  0  0  0  0  0  0  0  # atno 11005 bound_to 11000
  144.6734  140.1625  143.7421 LP  0  0  0  0  0  0  0  0  0  0  0  0  # atno 17320 bound_to 7965
  145.8832  139.2334  143.1593 LP  0  0  0  0  0  0  0  0  0  0  0  0  # atno 17321 bound_to 7965
  140.3752  144.2805  150.5915 LP  0  0  0  0  0  0  0  0  0  0  0  0  # atno 17342 bound_to 10162
  140.5283  143.2249  151.8280 LP  0  0  0  0  0  0  0  0  0  0  0  0  # atno 17343 bound_to 10162
  157.3371  130.7014  149.6359 LP  0  0  0  0  0  0  0  0  0  0  0  0  # atno 17370 bound_to 10713
  155.9670  130.4290  150.4815 LP  0  0  0  0  0  0  0  0  0  0  0  0  # atno 17371 bound_to 10713
  140.7420  133.8970  155.8285 LP  0  0  0  0  0  0  0  0  0  0  0  0  # atno 17394 bound_to 11000
  141.0070  134.1073  157.4260 LP  0  0  0  0  0  0  0  0  0  0  0  0  # atno 17395 bound_to 11000

$$$$
