AV-unprocessed.smi:99|AV-procd|sdf|895|dock2
  -GOLD-   2262017393D 1   1.00000     0.00000
 Structure written by MMmdl.
 52 55  0  0  0  0  0  0  0  0  2 V2000
  146.9539  133.1280  158.7751 O   0  0  0  0  0  0  0  0  0  0  0  0
  147.0536  134.3049  159.1284 C   0  0  0  0  0  0  0  0  0  0  0  0
  147.3494  135.3137  158.2867 O   0  0  0  0  0  0  0  0  0  0  0  0
  147.6008  135.0438  156.9180 C   0  0  0  0  0  0  0  0  0  0  0  0
  148.7906  134.0737  156.8073 C   0  0  2  0  0  0  0  0  0  0  0  0
  149.9089  134.6005  157.5222 O   0  0  0  0  0  0  0  0  0  0  0  0
  150.8261  135.2232  156.6611 C   0  0  2  0  0  0  0  0  0  0  0  0
  151.0355  136.6623  157.0904 N   0  0  0  0  0  0  0  0  0  0  0  0
  149.9792  137.4616  157.4965 C   0  0  0  0  0  0  0  0  0  0  0  0
  150.1734  138.7404  157.8791 C   0  0  0  0  0  0  0  0  0  0  0  0
  151.5241  139.2950  157.8694 C   0  0  0  0  0  0  0  0  0  0  0  0
  151.6915  140.4616  158.2195 O   0  0  0  0  0  0  0  0  0  0  0  0
  152.5479  138.4862  157.4705 N   0  5  0  0  0  0  0  0  0  0  0  0
  152.3542  137.1921  157.0814 C   0  0  0  0  0  0  0  0  0  0  0  0
  153.2693  136.4524  156.7175 O   0  0  0  0  0  0  0  0  0  0  0  0
  150.2845  135.0857  155.2213 C   0  0  2  0  0  0  0  0  0  0  0  0
  149.6040  136.2455  154.7673 O   0  0  0  0  0  0  0  0  0  0  0  0
  149.3438  133.9018  155.3928 C   0  0  2  0  0  0  0  0  0  0  0  0
  148.3533  133.7822  154.3765 O   0  0  0  0  0  0  0  0  0  0  0  0
  147.5346  132.7100  154.3273 C   0  0  0  0  0  0  0  0  0  0  0  0
  147.4649  131.8611  155.2182 O   0  0  0  0  0  0  0  0  0  0  0  0
  146.7259  132.6579  153.0753 C   0  0  0  0  0  0  0  0  0  0  0  0
  145.9732  131.4962  152.7841 C   0  0  0  0  0  0  0  0  0  0  0  0
  145.2008  131.4177  151.6090 C   0  0  0  0  0  0  0  0  0  0  0  0
  145.1723  132.5001  150.7101 C   0  0  0  0  0  0  0  0  0  0  0  0
  145.9168  133.6611  150.9881 C   0  0  0  0  0  0  0  0  0  0  0  0
  146.6899  133.7415  152.1629 C   0  0  0  0  0  0  0  0  0  0  0  0
  146.8608  134.7608  160.5351 C   0  0  0  0  0  0  0  0  0  0  0  0
  147.1307  136.1083  160.8703 C   0  0  0  0  0  0  0  0  0  0  0  0
  146.9601  136.5673  162.1910 C   0  0  0  0  0  0  0  0  0  0  0  0
  146.5185  135.6839  163.1930 C   0  0  0  0  0  0  0  0  0  0  0  0
  146.2476  134.3408  162.8728 C   0  0  0  0  0  0  0  0  0  0  0  0
  146.4171  133.8799  161.5525 C   0  0  0  0  0  0  0  0  0  0  0  0
  146.7083  134.5948  156.4805 H   0  0  0  0  0  0  0  0  0  0  0  0
  147.7957  135.9722  156.3817 H   0  0  0  0  0  0  0  0  0  0  0  0
  148.5060  133.1045  157.2180 H   0  0  0  0  0  0  0  0  0  0  0  0
  151.7905  134.7321  156.8025 H   0  0  0  0  0  0  0  0  0  0  0  0
  148.9736  137.0721  157.5160 H   0  0  0  0  0  0  0  0  0  0  0  0
  149.3380  139.3490  158.1925 H   0  0  0  0  0  0  0  0  0  0  0  0
  151.1035  134.8655  154.5359 H   0  0  0  0  0  0  0  0  0  0  0  0
  149.4093  136.1390  153.8490 H   0  0  0  0  0  0  0  0  0  0  0  0
  149.9483  132.9931  155.4074 H   0  0  0  0  0  0  0  0  0  0  0  0
  145.9801  130.6523  153.4590 H   0  0  0  0  0  0  0  0  0  0  0  0
  144.6303  130.5255  151.3972 H   0  0  0  0  0  0  0  0  0  0  0  0
  144.5804  132.4398  149.8087 H   0  0  0  0  0  0  0  0  0  0  0  0
  145.8965  134.4923  150.2985 H   0  0  0  0  0  0  0  0  0  0  0  0
  147.2504  134.6470  152.3444 H   0  0  0  0  0  0  0  0  0  0  0  0
  147.4714  136.8051  160.1180 H   0  0  0  0  0  0  0  0  0  0  0  0
  147.1687  137.5986  162.4346 H   0  0  0  0  0  0  0  0  0  0  0  0
  146.3883  136.0357  164.2058 H   0  0  0  0  0  0  0  0  0  0  0  0
  145.9093  133.6616  163.6415 H   0  0  0  0  0  0  0  0  0  0  0  0
  146.2029  132.8425  161.3415 H   0  0  0  0  0  0  0  0  0  0  0  0
  1  2  2  0  0  0  0
  2  3  1  0  0  0  0
  2 28  1  0  0  0  0
  3  4  1  0  0  0  0
  4  5  1  0  0  0  0
  4 34  1  0  0  0  0
  4 35  1  0  0  0  0
  5 18  1  0  0  0  0
  5  6  1  0  0  0  0
  5 36  1  0  0  0  0
  6  7  1  0  0  0  0
  7  8  1  0  0  0  0
  7 16  1  0  0  0  0
  7 37  1  0  0  0  0
  8 14  1  0  0  0  0
  8  9  1  0  0  0  0
  9 10  2  0  0  0  0
  9 38  1  0  0  0  0
 10 11  1  0  0  0  0
 10 39  1  0  0  0  0
 11 12  2  0  0  0  0
 11 13  1  0  0  0  0
 13 14  1  0  0  0  0
 14 15  2  0  0  0  0
 16 17  1  0  0  0  0
 16 18  1  0  0  0  0
 16 40  1  0  0  0  0
 17 41  1  0  0  0  0
 18 19  1  0  0  0  0
 18 42  1  0  0  0  0
 19 20  1  0  0  0  0
 20 21  2  0  0  0  0
 20 22  1  0  0  0  0
 22 27  1  0  0  0  0
 22 23  2  0  0  0  0
 23 24  1  0  0  0  0
 23 43  1  0  0  0  0
 24 25  2  0  0  0  0
 24 44  1  0  0  0  0
 25 26  1  0  0  0  0
 25 45  1  0  0  0  0
 26 27  2  0  0  0  0
 26 46  1  0  0  0  0
 27 47  1  0  0  0  0
 28 33  1  0  0  0  0
 28 29  2  0  0  0  0
 29 30  1  0  0  0  0
 29 48  1  0  0  0  0
 30 31  2  0  0  0  0
 30 49  1  0  0  0  0
 31 32  1  0  0  0  0
 31 50  1  0  0  0  0
 32 33  2  0  0  0  0
 32 51  1  0  0  0  0
 33 52  1  0  0  0  0
M  CHG  1  13  -1
M  END
> <s_m_source_file>
AV-unprocessed.smi

> <i_m_source_file_index>
99

> <i_lp_mmshare_version>
43012

> <i_f3d_flags>
0

> <s_epik_input>
W2NIXTFbY0hdW2NIXVtjSF1bY0hdYzFDKD1PKU9bQ0gyXVtDQEBIXTJPW0NAQEhdKG4zW2NIXVtjSF1jKD1PKVtuSF1jMz1PKVtDQEBIXShbT0hdKVtDQEhdMk9DKD1PKWM0W2NIXVtjSF1bY0hdW2NIXVtjSF00

> <s_epik_cmdline>
J2VwaWtfcHl0aG9uJywgJy1waCcsICc3LjAnLCAnLXRuJywgJzgnLCAnLW1hJywgJzIwMCcsICctbWV0YWxfYmluZGluZycsICctaW1hZScsICc8aW5maWxlLm1hZT4nLCAnLW9tYWUnLCAnPG91dGZpbGUubWFlPic=

> <r_lp_tautomer_probability>
1

> <r_epik_Ionization_Penalty>
2.89159

> <r_epik_Ionization_Penalty_Charging>
2.1077e-08

> <r_epik_Ionization_Penalty_Neutral>
2.89159

> <r_epik_State_Penalty>
2.88671

> <r_epik_Charging_Adjusted_Penalty>
2.88671

> <i_epik_Tot_Q>
-1

> <i_epik_Tot_abs_Q>
1

> <r_epik_Metal_State_Penalty>
0.0727308

> <b_epik_Metal_Only>
1

> <s_epik_Chemistry_Notes>
This compound has an ester and may undergo hydrolysis at high or low pH. This compound contains an acetal/aminal-like group ( X-CH(R)-Y where X, Y are N, S, or O) that may be acid/base labile, releasing an aldehyde.

> <s_lp_Force_Field>
OPLS_2005

> <r_lp_Energy>
56.6396

> <b_lp_Chiralities_Consistent>
1

> <s_lp_Variant>
AV-unprocessed.smi:99-31

> <Gold.Version>
5.8.1

> <Gold.Id.Protein>
6NUR|6NUR_protein|mol2

> <Gold.PLP.Fitness>
58.9602

> <Gold.PLP.PLP>
-48.7104

> <Gold.PLP.part.hbond>
-4.1065

> <Gold.PLP.part.metal>
0.0000

> <Gold.PLP.part.buried>
-5.3576

> <Gold.PLP.part.nonpolar>
-39.8737

> <Gold.PLP.part.repulsive>
0.1414

> <Gold.PLP.ligand.clash>
0.0000

> <Gold.PLP.ligand.torsion>
0.7108

> <Gold.PLP.Chemscore.Hbond>
3.7768

> <Gold.PLP.Chemscore.CHOScore>
0.0000

> <Gold.PLP.Chemscore.Metal>
0.0000

> <Gold.Chemscore.Hbonds>
donor molecule, donor type, donor heavy atom, donor atom, acceptor molecule, acceptor atom, score
      L1  H    17    41       P1  7948  1.00
      P1  H  6896  6907       L1     6  0.90
      P1  H 10752 10765       L1    15  1.00

> <Gold.PLP.Chemscore.Internal.Correction>
0.3409

> <Gold.Rescore>
     Score         DG    S(hbond)    S(metal)    S(lipo)     H(rot)  DE(clash)    DE(int)     intcor
     16.41     -18.30       2.52        0.00     106.11       3.13       0.00       1.88       ----

> <Gold.Chemscore.Fitness>
16.4130

> <Gold.Chemscore.DG>
-18.2962

> <Gold.Chemscore.ZeroCoef>
-5.4800

> <Gold.Chemscore.Hbond>
2.5227

> <Gold.Chemscore.Metal>
0.0000

> <Gold.Chemscore.Lipo>
106.1099

> <Gold.Chemscore.Internal_Hbond>
0.0000

> <Gold.Chemscore.DEClash>
0.0038

> <Gold.Chemscore.DEInternal>
1.8794

> <Gold.Chemscore.Rot>
3.1346

> <Gold.Chemscore.Internal.Correction>
   9.000000E+99

> <Gold.Chemscore.Hbonds>
donor molecule, donor type, donor heavy atom, donor atom, acceptor molecule, acceptor atom, score
      L1  H    17    41       P1  7948  0.71
      P1  H  6896  6907       L1     6  0.73
      P1  H 10752 10765       L1    15  0.95

> <Gold.Chemscore.Hbond.Weighted>
-8.4259

> <Gold.Chemscore.Metal.Weighted>
-0.0000

> <Gold.Chemscore.Lipo.Weighted>
-12.4149

> <Gold.Chemscore.Internal_Hbond.Weighted>
0.0000

> <Gold.Chemscore.DEClash.Weighted>
0.0038

> <Gold.Chemscore.DEInternal.Weighted>
1.8794

> <Gold.Chemscore.Rot.Weighted>
8.0246

> <Gold.Chemscore.Internal.Correction.Weighted>
   9.000000E+99

> <Gold.Protein.RotatedTorsions>
[ 6907 6896 6895 6894 ] final  -98.37 input  -60.11 | X-H torsion
[ 7974 7965 7964 7962 ] final  122.92 input  175.53 | X-H torsion
[ 8008 7997 7996 7995 ] final  -64.22 input   59.86 | X-H torsion
[ 10167 10162 10161 10158 ] final -139.81 input  -65.29 | X-H torsion
[ 10718 10713 10712 10709 ] final   47.65 input   66.30 | X-H torsion
[ 10763 10752 10751 10750 ] final -110.96 input  -60.55 | X-H torsion
[ 11005 11000 10999 10996 ] final   55.82 input  -57.11 | X-H torsion

> <Gold.Protein.ActiveResidues>
 VAL166  LYS551  ARG553  GLY616  TRP617  ASP618  TYR619  PRO620  LYS621  CYS622 
 ASP623  PHE694  ASN695  SER759  ASP760  ASP761  ALA762  ILE779  LEU786  VAL792 
 PHE793  MET794  SER795  GLU796  ALA797  LYS798  CYS799  TRP800  GLU811  SER814 

> <Gold.Protein.RotatedAtoms>
  150.7045  134.1205  159.4032 H   0  0  0  0  0  0  0  0  0  0  0  0  # atno 6907 bound_to 6896
  151.9191  135.0304  160.0530 H   0  0  0  0  0  0  0  0  0  0  0  0  # atno 6908 bound_to 6896
  152.2271  133.4993  159.5231 H   0  0  0  0  0  0  0  0  0  0  0  0  # atno 6909 bound_to 6896
  145.1019  139.3512  143.4807 H   0  0  0  0  0  0  0  0  0  0  0  0  # atno 7974 bound_to 7965
  154.4599  140.0958  156.6864 H   0  0  0  0  0  0  0  0  0  0  0  0  # atno 8008 bound_to 7997
  155.5025  140.3474  155.4355 H   0  0  0  0  0  0  0  0  0  0  0  0  # atno 8009 bound_to 7997
  156.0851  140.1383  156.9653 H   0  0  0  0  0  0  0  0  0  0  0  0  # atno 8010 bound_to 7997
  139.8343  143.7406  152.2665 H   0  0  0  0  0  0  0  0  0  0  0  0  # atno 10167 bound_to 10162
  157.4606  130.8194  149.7883 H   0  0  0  0  0  0  0  0  0  0  0  0  # atno 10718 bound_to 10713
  154.8275  135.4545  154.0966 H   0  0  0  0  0  0  0  0  0  0  0  0  # atno 10763 bound_to 10752
  153.2267  135.6900  153.7943 H   0  0  0  0  0  0  0  0  0  0  0  0  # atno 10764 bound_to 10752
  153.7341  135.3322  155.3268 H   0  0  0  0  0  0  0  0  0  0  0  0  # atno 10765 bound_to 10752
  140.0577  134.5646  155.9188 H   0  0  0  0  0  0  0  0  0  0  0  0  # atno 11005 bound_to 11000
  146.3529  140.0900  142.8613 LP  0  0  0  0  0  0  0  0  0  0  0  0  # atno 17320 bound_to 7965
  145.0945  140.9306  143.4749 LP  0  0  0  0  0  0  0  0  0  0  0  0  # atno 17321 bound_to 7965
  139.7623  144.7503  151.0346 LP  0  0  0  0  0  0  0  0  0  0  0  0  # atno 17342 bound_to 10162
  140.7804  143.4737  151.0111 LP  0  0  0  0  0  0  0  0  0  0  0  0  # atno 17343 bound_to 10162
  156.0027  130.3871  150.2545 LP  0  0  0  0  0  0  0  0  0  0  0  0  # atno 17370 bound_to 10713
  157.0722  131.0120  151.3186 LP  0  0  0  0  0  0  0  0  0  0  0  0  # atno 17371 bound_to 10713
  141.1959  133.6589  156.5667 LP  0  0  0  0  0  0  0  0  0  0  0  0  # atno 17394 bound_to 11000
  140.3818  134.7517  157.4666 LP  0  0  0  0  0  0  0  0  0  0  0  0  # atno 17395 bound_to 11000

$$$$
