AV-unprocessed.smi:2237|AV-procd|sdf|9052|dock7
  -GOLD-   2272012253D 1   1.00000     0.00000
 Structure written by MMmdl.
 54 56  0  0  0  0  0  0  0  0  2 V2000
  153.3513  141.3973  160.2988 C   0  0  0  0  0  0  0  0  0  0  0  0
  152.5955  142.5271  159.6314 C   0  0  0  0  0  0  0  0  0  0  0  0
  152.7552  143.8590  160.0615 C   0  0  0  0  0  0  0  0  0  0  0  0
  152.0248  144.8615  159.3988 C   0  0  0  0  0  0  0  0  0  0  0  0
  151.1703  144.4936  158.3416 C   0  0  0  0  0  0  0  0  0  0  0  0
  151.0658  143.1331  157.9735 C   0  0  0  0  0  0  0  0  0  0  0  0
  150.1804  142.8670  156.8954 N   0  0  0  0  0  0  0  0  0  0  0  0
  149.8850  141.6800  156.3367 C   0  0  0  0  0  0  0  0  0  0  0  0
  150.3331  140.5904  156.6950 O   0  0  0  0  0  0  0  0  0  0  0  0
  149.0207  141.8232  155.3210 N   0  0  0  0  0  0  0  0  0  0  0  0
  148.5034  140.7328  154.4992 C   0  0  2  0  0  0  0  0  0  0  0  0
  147.7029  141.3016  153.3209 C   0  0  0  0  0  0  0  0  0  0  0  0
  147.0652  140.1841  152.4773 C   0  0  0  0  0  0  0  0  0  0  0  0
  146.1983  139.2921  153.3020 N   0  3  1  0  0  0  0  0  0  0  0  0
  145.4477  138.2426  152.5376 C   0  0  0  0  0  0  0  0  0  0  0  0
  144.5068  137.3726  153.4065 C   0  0  0  0  0  0  0  0  0  0  0  0
  143.8452  136.2501  152.5883 C   0  0  0  0  0  0  0  0  0  0  0  0
  144.8673  135.3912  151.9953 N   0  0  0  0  0  0  0  0  0  0  0  0
  144.2236  134.2981  151.2803 C   0  0  0  0  0  0  0  0  0  0  0  0
  145.6800  136.1678  151.0623 C   0  0  0  0  0  0  0  0  0  0  0  0
  146.4228  137.2861  151.8133 C   0  0  0  0  0  0  0  0  0  0  0  0
  146.9732  138.7150  154.4383 C   0  0  0  0  0  0  0  0  0  0  0  0
  147.5940  139.8081  155.3226 C   0  0  0  0  0  0  0  0  0  0  0  0
  151.7746  142.1737  158.6189 N   0  0  0  0  0  0  0  0  0  0  0  0
  154.1444  141.7794  160.9420 H   0  0  0  0  0  0  0  0  0  0  0  0
  153.8060  140.7464  159.5512 H   0  0  0  0  0  0  0  0  0  0  0  0
  152.6736  140.7995  160.9088 H   0  0  0  0  0  0  0  0  0  0  0  0
  153.4185  144.1084  160.8766 H   0  0  0  0  0  0  0  0  0  0  0  0
  152.1173  145.8958  159.6954 H   0  0  0  0  0  0  0  0  0  0  0  0
  150.6030  145.2522  157.8221 H   0  0  0  0  0  0  0  0  0  0  0  0
  149.7250  143.6762  156.4999 H   0  0  0  0  0  0  0  0  0  0  0  0
  148.7022  142.7547  155.0967 H   0  0  0  0  0  0  0  0  0  0  0  0
  149.3394  140.1540  154.1007 H   0  0  0  0  0  0  0  0  0  0  0  0
  146.9190  141.9644  153.6910 H   0  0  0  0  0  0  0  0  0  0  0  0
  148.3506  141.9125  152.6906 H   0  0  0  0  0  0  0  0  0  0  0  0
  146.4873  140.6760  151.6962 H   0  0  0  0  0  0  0  0  0  0  0  0
  147.8379  139.5914  151.9849 H   0  0  0  0  0  0  0  0  0  0  0  0
  144.8279  138.7460  151.7934 H   0  0  0  0  0  0  0  0  0  0  0  0
  145.0594  136.9343  154.2391 H   0  0  0  0  0  0  0  0  0  0  0  0
  143.7089  137.9781  153.8369 H   0  0  0  0  0  0  0  0  0  0  0  0
  143.2050  135.6553  153.2414 H   0  0  0  0  0  0  0  0  0  0  0  0
  143.2058  136.6718  151.8107 H   0  0  0  0  0  0  0  0  0  0  0  0
  144.9705  133.6381  150.8378 H   0  0  0  0  0  0  0  0  0  0  0  0
  143.5786  134.6676  150.4816 H   0  0  0  0  0  0  0  0  0  0  0  0
  143.6163  133.7005  151.9611 H   0  0  0  0  0  0  0  0  0  0  0  0
  146.4059  135.5116  150.5801 H   0  0  0  0  0  0  0  0  0  0  0  0
  145.0550  136.5895  150.2732 H   0  0  0  0  0  0  0  0  0  0  0  0
  147.0399  137.8193  151.0922 H   0  0  0  0  0  0  0  0  0  0  0  0
  147.1106  136.8427  152.5353 H   0  0  0  0  0  0  0  0  0  0  0  0
  146.3409  138.0925  155.0680 H   0  0  0  0  0  0  0  0  0  0  0  0
  147.7582  138.0647  154.0484 H   0  0  0  0  0  0  0  0  0  0  0  0
  148.1618  139.3438  156.1301 H   0  0  0  0  0  0  0  0  0  0  0  0
  146.8004  140.3880  155.7964 H   0  0  0  0  0  0  0  0  0  0  0  0
  145.4953  139.8951  153.7052 H   0  0  0  0  0  0  0  0  0  0  0  0
  1  2  1  0  0  0  0
  1 25  1  0  0  0  0
  1 26  1  0  0  0  0
  1 27  1  0  0  0  0
  2 24  1  0  0  0  0
  2  3  2  0  0  0  0
  3  4  1  0  0  0  0
  3 28  1  0  0  0  0
  4  5  2  0  0  0  0
  4 29  1  0  0  0  0
  5  6  1  0  0  0  0
  5 30  1  0  0  0  0
  6  7  1  0  0  0  0
  6 24  2  0  0  0  0
  7  8  1  0  0  0  0
  7 31  1  0  0  0  0
  8  9  2  0  0  0  0
  8 10  1  0  0  0  0
 10 11  1  0  0  0  0
 10 32  1  0  0  0  0
 11 23  1  0  0  0  0
 11 12  1  0  0  0  0
 11 33  1  0  0  0  0
 12 13  1  0  0  0  0
 12 34  1  0  0  0  0
 12 35  1  0  0  0  0
 13 14  1  0  0  0  0
 13 36  1  0  0  0  0
 13 37  1  0  0  0  0
 14 15  1  0  0  0  0
 14 22  1  0  0  0  0
 14 54  1  0  0  0  0
 15 21  1  0  0  0  0
 15 16  1  0  0  0  0
 15 38  1  0  0  0  0
 16 17  1  0  0  0  0
 16 39  1  0  0  0  0
 16 40  1  0  0  0  0
 17 18  1  0  0  0  0
 17 41  1  0  0  0  0
 17 42  1  0  0  0  0
 18 19  1  0  0  0  0
 18 20  1  0  0  0  0
 19 43  1  0  0  0  0
 19 44  1  0  0  0  0
 19 45  1  0  0  0  0
 20 21  1  0  0  0  0
 20 46  1  0  0  0  0
 20 47  1  0  0  0  0
 21 48  1  0  0  0  0
 21 49  1  0  0  0  0
 22 23  1  0  0  0  0
 22 50  1  0  0  0  0
 22 51  1  0  0  0  0
 23 52  1  0  0  0  0
 23 53  1  0  0  0  0
M  CHG  1  14   1
M  END
> <s_m_source_file>
AV-unprocessed.smi

> <i_m_source_file_index>
2237

> <i_lp_mmshare_version>
43012

> <i_f3d_flags>
0

> <s_epik_input>
W0NIM11jMVtjSF1bY0hdW2NIXWMobjEpW05IXUMoPU8pW05IXVtDSF0yW0NIMl1bQ0gyXU4oW0NIMl1bQ0gyXTIpW0NIXTNbQ0gyXVtDSDJdTihbQ0gzXSlbQ0gyXVtDSDJdMw==

> <s_epik_cmdline>
J2VwaWtfcHl0aG9uJywgJy1waCcsICc3LjAnLCAnLXRuJywgJzgnLCAnLW1hJywgJzIwMCcsICctbWV0YWxfYmluZGluZycsICctaW1hZScsICc8aW5maWxlLm1hZT4nLCAnLW9tYWUnLCAnPG91dGZpbGUubWFlPic=

> <r_epik_Ionization_Penalty>
1.37251

> <r_epik_Ionization_Penalty_Charging>
0.00081195

> <r_epik_Ionization_Penalty_Neutral>
1.3717

> <r_epik_State_Penalty>
1.55149

> <r_epik_Charging_Adjusted_Penalty>
1.5523

> <i_epik_Tot_Q>
1

> <i_epik_Tot_abs_Q>
1

> <r_epik_Metal_State_Penalty>
1.55149

> <b_epik_Metal_Only>
0

> <s_lp_Force_Field>
OPLS_2005

> <r_lp_Energy>
32.6589

> <b_lp_Chiralities_Consistent>
1

> <s_lp_Variant>
AV-unprocessed.smi:2237-7

> <Gold.Version>
5.8.1

> <Gold.Id.Protein>
6NUR|6NUR_protein|mol2

> <Gold.PLP.Fitness>
46.9687

> <Gold.PLP.PLP>
-40.6175

> <Gold.PLP.part.hbond>
-3.0000

> <Gold.PLP.part.metal>
0.0000

> <Gold.PLP.part.buried>
1.9856

> <Gold.PLP.part.nonpolar>
-40.1681

> <Gold.PLP.part.repulsive>
0.3253

> <Gold.PLP.ligand.clash>
0.0000

> <Gold.PLP.ligand.torsion>
0.0778

> <Gold.PLP.Chemscore.Hbond>
2.1583

> <Gold.PLP.Chemscore.CHOScore>
0.0000

> <Gold.PLP.Chemscore.Metal>
0.0000

> <Gold.Chemscore.Hbonds>
donor molecule, donor type, donor heavy atom, donor atom, acceptor molecule, acceptor atom, score
      L1  H     7    31       P1  8028  1.00
      L1  H    10    32       P1  8028  0.86
      L1  H    14    54       P1 10175  0.33

> <Gold.PLP.Chemscore.Internal.Correction>
0.0320

> <Gold.Rescore>
     Score         DG    S(hbond)    S(metal)    S(lipo)     H(rot)  DE(clash)    DE(int)     intcor
     18.49     -22.31       1.94        0.00     114.96       1.21       2.48       1.34       ----

> <Gold.Chemscore.Fitness>
18.4930

> <Gold.Chemscore.DG>
-22.3138

> <Gold.Chemscore.ZeroCoef>
-5.4800

> <Gold.Chemscore.Hbond>
1.9413

> <Gold.Chemscore.Metal>
0.0000

> <Gold.Chemscore.Lipo>
114.9630

> <Gold.Chemscore.Internal_Hbond>
0.0000

> <Gold.Chemscore.DEClash>
2.4771

> <Gold.Chemscore.DEInternal>
1.3437

> <Gold.Chemscore.Rot>
1.2113

> <Gold.Chemscore.Internal.Correction>
   9.000000E+99

> <Gold.Chemscore.Hbonds>
donor molecule, donor type, donor heavy atom, donor atom, acceptor molecule, acceptor atom, score
      L1  H     7    31       P1  8028  0.97
      L1  H    10    32       P1  8028  0.80
      L1  H    14    54       P1 10175  0.17

> <Gold.Chemscore.Hbond.Weighted>
-6.4840

> <Gold.Chemscore.Metal.Weighted>
-0.0000

> <Gold.Chemscore.Lipo.Weighted>
-13.4507

> <Gold.Chemscore.Internal_Hbond.Weighted>
0.0000

> <Gold.Chemscore.DEClash.Weighted>
2.4771

> <Gold.Chemscore.DEInternal.Weighted>
1.3437

> <Gold.Chemscore.Rot.Weighted>
3.1009

> <Gold.Chemscore.Internal.Correction.Weighted>
   9.000000E+99

> <Gold.Protein.RotatedTorsions>
[ 6907 6896 6895 6894 ] final  -88.50 input  -60.11 | X-H torsion
[ 7974 7965 7964 7962 ] final   50.77 input  175.53 | X-H torsion
[ 8008 7997 7996 7995 ] final -179.85 input   59.86 | X-H torsion
[ 10167 10162 10161 10158 ] final    7.74 input  -65.29 | X-H torsion
[ 10718 10713 10712 10709 ] final  -43.02 input   66.30 | X-H torsion
[ 10763 10752 10751 10750 ] final  144.53 input  -60.55 | X-H torsion
[ 11005 11000 10999 10996 ] final -142.40 input  -57.11 | X-H torsion

> <Gold.Protein.ActiveResidues>
 VAL166  LYS551  ARG553  GLY616  TRP617  ASP618  TYR619  PRO620  LYS621  CYS622 
 ASP623  PHE694  ASN695  SER759  ASP760  ASP761  ALA762  ILE779  LEU786  VAL792 
 PHE793  MET794  SER795  GLU796  ALA797  LYS798  CYS799  TRP800  GLU811  SER814 

> <Gold.Protein.RotatedAtoms>
  150.6869  134.2732  159.4596 H   0  0  0  0  0  0  0  0  0  0  0  0  # atno 6907 bound_to 6896
  152.0652  134.9566  160.0584 H   0  0  0  0  0  0  0  0  0  0  0  0  # atno 6908 bound_to 6896
  152.0977  133.4199  159.4610 H   0  0  0  0  0  0  0  0  0  0  0  0  # atno 6909 bound_to 6896
  145.9979  139.4408  143.0033 H   0  0  0  0  0  0  0  0  0  0  0  0  # atno 7974 bound_to 7965
  156.0353  140.1291  157.0215 H   0  0  0  0  0  0  0  0  0  0  0  0  # atno 8008 bound_to 7997
  154.4367  140.1041  156.6228 H   0  0  0  0  0  0  0  0  0  0  0  0  # atno 8009 bound_to 7997
  155.5747  140.3467  155.4526 H   0  0  0  0  0  0  0  0  0  0  0  0  # atno 8010 bound_to 7997
  140.6354  143.7897  150.7353 H   0  0  0  0  0  0  0  0  0  0  0  0  # atno 10167 bound_to 10162
  156.2534  130.4190  149.8623 H   0  0  0  0  0  0  0  0  0  0  0  0  # atno 10718 bound_to 10713
  153.9904  135.2932  155.3412 H   0  0  0  0  0  0  0  0  0  0  0  0  # atno 10763 bound_to 10752
  154.7218  135.5106  153.8827 H   0  0  0  0  0  0  0  0  0  0  0  0  # atno 10764 bound_to 10752
  153.0812  135.6679  154.0157 H   0  0  0  0  0  0  0  0  0  0  0  0  # atno 10765 bound_to 10752
  140.8229  134.2610  157.4892 H   0  0  0  0  0  0  0  0  0  0  0  0  # atno 11005 bound_to 11000
  145.7532  140.9964  143.1239 LP  0  0  0  0  0  0  0  0  0  0  0  0  # atno 17320 bound_to 7965
  144.6909  139.9240  143.7469 LP  0  0  0  0  0  0  0  0  0  0  0  0  # atno 17321 bound_to 7965
  140.1517  143.4352  152.2126 LP  0  0  0  0  0  0  0  0  0  0  0  0  # atno 17342 bound_to 10162
  139.5565  144.7376  151.4278 LP  0  0  0  0  0  0  0  0  0  0  0  0  # atno 17343 bound_to 10162
  156.6164  130.8608  151.3466 LP  0  0  0  0  0  0  0  0  0  0  0  0  # atno 17370 bound_to 10713
  157.7223  130.9575  150.1490 LP  0  0  0  0  0  0  0  0  0  0  0  0  # atno 17371 bound_to 10713
  139.8708  134.9545  156.4177 LP  0  0  0  0  0  0  0  0  0  0  0  0  # atno 17394 bound_to 11000
  140.9080  133.7732  155.9758 LP  0  0  0  0  0  0  0  0  0  0  0  0  # atno 17395 bound_to 11000

$$$$
