#       Name:                AV-unprocessed.smi:1562
#       Creating user name   scv26
#       Creation time:       Fri Mar 27 06:48:35 2020


#       File generated by GOLD software.
#

@<TRIPOS>MOLECULE
AV-unprocessed.smi:1562
    45    46     1
SMALL
NO_CHARGES


@<TRIPOS>ATOM
      1 ****        -6.3708  -0.3710   0.4303 N.am           1 S1                 0.0000
      2 ****        -5.0887  -0.4085   0.8021 C.2            1 S1                 0.0000
      3 ****        -4.6955  -1.1302   1.7168 O.2            1 S1                 0.0000
      4 ****        -4.1109   0.4931   0.0363 C.3            1 S1                 0.0000
      5 ****        -3.0025  -0.3420  -0.6488 C.3            1 S1                 0.0000
      6 ****        -1.9443   0.5673  -1.2995 C.3            1 S1                 0.0000
      7 ****        -1.3882   1.4579  -0.2667 N.am           1 S1                 0.0000
      8 ****        -0.1720   1.3402   0.3246 C.2            1 S1                 0.0000
      9 ****         0.1652   1.9961   1.3114 O.2            1 S1                 0.0000
     10 ****         0.6612   0.4704  -0.2693 N.am           1 S1                 0.0000
     11 ****         2.0189   0.1895   0.1769 C.3            1 S1                 0.0000
     12 ****         2.7476  -0.7092  -0.8320 C.3            1 S1                 0.0000
     13 ****         4.1668  -1.0260  -0.3978 C.ar           1 S1                 0.0000
     14 ****         4.4804  -2.2689   0.1930 C.ar           1 S1                 0.0000
     15 ****         5.8117  -2.5079   0.5863 C.ar           1 S1                 0.0000
     16 ****         6.7729  -1.5003   0.3755 C.ar           1 S1                 0.0000
     17 ****         6.3581  -0.2934  -0.2221 C.ar           1 S1                 0.0000
     18 ****         5.0847  -0.0545  -0.6035 N.ar           1 S1                 0.0000
     19 ****        -2.4120   2.3787   0.2427 C.3            1 S1                 0.0000
     20 ****        -3.4973   1.5634   0.9697 C.3            1 S1                 0.0000
     21 ****        -7.0475  -0.9468   0.9100 H              1 S1                 0.0000
     22 ****        -6.6604   0.2328  -0.3253 H              1 S1                 0.0000
     23 ****        -4.6633   1.0150  -0.7473 H              1 S1                 0.0000
     24 ****        -2.5135  -0.9948   0.0764 H              1 S1                 0.0000
     25 ****        -3.4399  -0.9944  -1.4056 H              1 S1                 0.0000
     26 ****        -1.1972  -0.0414  -1.8088 H              1 S1                 0.0000
     27 ****        -2.4047   1.1711  -2.0828 H              1 S1                 0.0000
     28 ****         0.3293  -0.0295  -1.0813 H              1 S1                 0.0000
     29 ****         2.5630   1.1274   0.3018 H              1 S1                 0.0000
     30 ****         1.9811  -0.2953   1.1535 H              1 S1                 0.0000
     31 ****         2.1969  -1.6410  -0.9677 H              1 S1                 0.0000
     32 ****         2.7773  -0.2258  -1.8098 H              1 S1                 0.0000
     33 ****         3.7204  -3.0212   0.3444 H              1 S1                 0.0000
     34 ****         6.0902  -3.4467   1.0423 H              1 S1                 0.0000
     35 ****         7.8029  -1.6479   0.6652 H              1 S1                 0.0000
     36 ****         7.0678   0.5014  -0.3977 H              1 S1                 0.0000
     37 ****        -2.0013   3.1353   0.9129 H              1 S1                 0.0000
     38 ****        -2.8505   2.9309  -0.5897 H              1 S1                 0.0000
     39 ****        -4.2769   2.2340   1.3333 H              1 S1                 0.0000
     40 ****        -3.0591   1.0934   1.8520 H              1 S1                 0.0000
     41 ****        -5.3432  -1.7131   2.2074 LP             1 S1                 0.0000
     42 ****        -3.7281  -1.1342   1.9699 LP             1 S1                 0.0000
     43 ****        -0.4702   2.6541   1.7153 LP             1 S1                 0.0000
     44 ****         1.0744   1.8704   1.7084 LP             1 S1                 0.0000
     45 ****         4.8282   0.8150  -1.0256 LP             1 S1                 0.0000
@<TRIPOS>BOND
    1    1    2 am    
    2    1   21 1     
    3    1   22 1     
    4    2    3 2     
    5    2    4 1     
    6    4   20 1     
    7    4    5 1     
    8    4   23 1     
    9    5    6 1     
   10    5   24 1     
   11    5   25 1     
   12    6    7 1     
   13    6   26 1     
   14    6   27 1     
   15    7    8 am    
   16    7   19 1     
   17    8    9 2     
   18    8   10 am    
   19   10   11 1     
   20   10   28 1     
   21   11   12 1     
   22   11   29 1     
   23   11   30 1     
   24   12   13 1     
   25   12   31 1     
   26   12   32 1     
   27   13   18 ar    
   28   13   14 ar    
   29   14   15 ar    
   30   14   33 1     
   31   15   16 ar    
   32   15   34 1     
   33   16   17 ar    
   34   16   35 1     
   35   17   18 ar    
   36   17   36 1     
   37   19   20 1     
   38   19   37 1     
   39   19   38 1     
   40   20   39 1     
   41   20   40 1     
   42    3   41 1     
   43    3   42 1     
   44    9   43 1     
   45    9   44 1     
   46   18   45 1     
@<TRIPOS>SUBSTRUCTURE
      1 S1             1
@<TRIPOS>SET
LONE_PAIRS      STATIC     ATOMS    <user>   **** ""
5 41 42 43 44 45
DONOR_HYDROGENS      STATIC     ATOMS    <user>   **** ""
3 21 22 28
ATOM$BLUE        STATIC     ATOMS    COLORGROUP SYSTEM
5 41 42 43 44 45
ATOM$RED        STATIC     ATOMS    COLORGROUP SYSTEM
3 21 22 28
