AV-unprocessed.smi:2358|AV-procd|sdf|9405|dock6
  -GOLD-   2272013 43D 1   1.00000     0.00000
 Structure written by MMmdl.
 46 48  0  0  0  0  0  0  0  0  2 V2000
  152.1494  144.8561  158.2660 C   0  0  0  0  0  0  0  0  0  0  0  0
  152.0352  143.3455  158.2677 C   0  0  0  0  0  0  0  0  0  0  0  0
  152.8719  142.5696  159.0942 C   0  0  0  0  0  0  0  0  0  0  0  0
  152.7579  141.1660  159.0957 C   0  0  0  0  0  0  0  0  0  0  0  0
  153.6608  140.3379  159.9864 C   0  0  0  0  0  0  0  0  0  0  0  0
  151.8041  140.5408  158.2667 C   0  0  0  0  0  0  0  0  0  0  0  0
  150.9595  141.3022  157.4332 C   0  0  0  0  0  0  0  0  0  0  0  0
  150.0564  140.6073  156.6574 O   0  0  0  0  0  0  0  0  0  0  0  0
  149.2489  141.3384  155.7443 C   0  0  0  0  0  0  0  0  0  0  0  0
  148.8923  140.4287  154.5569 C   0  0  2  0  0  0  0  0  0  0  0  0
  149.7167  140.8110  153.4724 O   0  0  0  0  0  0  0  0  0  0  0  0
  147.4220  140.6056  154.1170 C   0  0  0  0  0  0  0  0  0  0  0  0
  146.6206  139.4073  154.3929 N   0  0  0  0  0  0  0  0  0  0  0  0
  146.3000  138.6751  153.2637 N   0  0  0  0  0  0  0  0  0  0  0  0
  145.6140  137.5813  153.3540 C   0  0  0  0  0  0  0  0  0  0  0  0
  145.2633  136.7684  152.2016 N   0  0  0  0  0  0  0  0  0  0  0  0
  144.4907  135.6346  152.1190 C   0  0  0  0  0  0  0  0  0  0  0  0
  144.4890  135.2685  150.7971 C   0  0  0  0  0  0  0  0  0  0  0  0
  145.2562  136.1895  150.1331 N   0  3  0  0  0  0  0  0  0  0  0  0
  145.7285  137.1037  150.9875 C   0  0  0  0  0  0  0  0  0  0  0  0
  145.1609  137.1170  154.6562 C   0  0  0  0  0  0  0  0  0  0  0  0
  145.4812  137.8374  155.7528 C   0  0  0  0  0  0  0  0  0  0  0  0
  146.2669  139.0672  155.6675 C   0  0  0  0  0  0  0  0  0  0  0  0
  146.5861  139.7327  156.6520 O   0  0  0  0  0  0  0  0  0  0  0  0
  151.0833  142.7146  157.4411 C   0  0  0  0  0  0  0  0  0  0  0  0
  153.0332  145.1889  158.8113 H   0  0  0  0  0  0  0  0  0  0  0  0
  151.2709  145.2994  158.7351 H   0  0  0  0  0  0  0  0  0  0  0  0
  152.2198  145.2313  157.2447 H   0  0  0  0  0  0  0  0  0  0  0  0
  153.6024  143.0495  159.7294 H   0  0  0  0  0  0  0  0  0  0  0  0
  153.3854  139.2830  159.9631 H   0  0  0  0  0  0  0  0  0  0  0  0
  153.5946  140.6829  161.0185 H   0  0  0  0  0  0  0  0  0  0  0  0
  154.6970  140.4274  159.6596 H   0  0  0  0  0  0  0  0  0  0  0  0
  151.7154  139.4640  158.2666 H   0  0  0  0  0  0  0  0  0  0  0  0
  148.3339  141.6333  156.2609 H   0  0  0  0  0  0  0  0  0  0  0  0
  149.7477  142.2478  155.4034 H   0  0  0  0  0  0  0  0  0  0  0  0
  149.0865  139.3892  154.8253 H   0  0  0  0  0  0  0  0  0  0  0  0
  149.6078  140.1808  152.7767 H   0  0  0  0  0  0  0  0  0  0  0  0
  146.9747  141.4511  154.6428 H   0  0  0  0  0  0  0  0  0  0  0  0
  147.3667  140.8774  153.0609 H   0  0  0  0  0  0  0  0  0  0  0  0
  144.0082  135.1737  152.9678 H   0  0  0  0  0  0  0  0  0  0  0  0
  144.0112  134.4414  150.2923 H   0  0  0  0  0  0  0  0  0  0  0  0
  146.3594  137.9374  150.7325 H   0  0  0  0  0  0  0  0  0  0  0  0
  144.5808  136.2142  154.7637 H   0  0  0  0  0  0  0  0  0  0  0  0
  145.1499  137.4958  156.7224 H   0  0  0  0  0  0  0  0  0  0  0  0
  150.4558  143.3366  156.8210 H   0  0  0  0  0  0  0  0  0  0  0  0
  145.4418  136.1813  149.1378 H   0  0  0  0  0  0  0  0  0  0  0  0
  1  2  1  0  0  0  0
  1 26  1  0  0  0  0
  1 27  1  0  0  0  0
  1 28  1  0  0  0  0
  2 25  1  0  0  0  0
  2  3  2  0  0  0  0
  3  4  1  0  0  0  0
  3 29  1  0  0  0  0
  4  5  1  0  0  0  0
  4  6  2  0  0  0  0
  5 30  1  0  0  0  0
  5 31  1  0  0  0  0
  5 32  1  0  0  0  0
  6  7  1  0  0  0  0
  6 33  1  0  0  0  0
  7  8  1  0  0  0  0
  7 25  2  0  0  0  0
  8  9  1  0  0  0  0
  9 10  1  0  0  0  0
  9 34  1  0  0  0  0
  9 35  1  0  0  0  0
 10 11  1  0  0  0  0
 10 12  1  0  0  0  0
 10 36  1  0  0  0  0
 11 37  1  0  0  0  0
 12 13  1  0  0  0  0
 12 38  1  0  0  0  0
 12 39  1  0  0  0  0
 13 23  1  0  0  0  0
 13 14  1  0  0  0  0
 14 15  2  0  0  0  0
 15 16  1  0  0  0  0
 15 21  1  0  0  0  0
 16 20  1  0  0  0  0
 16 17  1  0  0  0  0
 17 18  2  0  0  0  0
 17 40  1  0  0  0  0
 18 19  1  0  0  0  0
 18 41  1  0  0  0  0
 19 20  2  0  0  0  0
 19 46  1  0  0  0  0
 20 42  1  0  0  0  0
 21 22  2  0  0  0  0
 21 43  1  0  0  0  0
 22 23  1  0  0  0  0
 22 44  1  0  0  0  0
 23 24  2  0  0  0  0
 25 45  1  0  0  0  0
M  CHG  1  19   1
M  END
> <s_m_source_file>
AV-unprocessed.smi

> <i_m_source_file_index>
2358

> <i_lp_mmshare_version>
43012

> <i_f3d_flags>
0

> <s_epik_input>
W0NIM11jMVtjSF1jKFtDSDNdKVtjSF1jKFtjSF0xKU9bQ0gyXVtDQEhdKFtPSF0pW0NIMl1uMm5jKFtjSF1bY0hdYzI9TyktbjNbY0hdW2NIXW5bY0hdMw==

> <s_epik_cmdline>
J2VwaWtfcHl0aG9uJywgJy1waCcsICc3LjAnLCAnLXRuJywgJzgnLCAnLW1hJywgJzIwMCcsICctbWV0YWxfYmluZGluZycsICctaW1hZScsICc8aW5maWxlLm1hZT4nLCAnLW9tYWUnLCAnPG91dGZpbGUubWFlPic=

> <r_lp_tautomer_probability>
1

> <r_epik_Ionization_Penalty>
1.66053

> <r_epik_Ionization_Penalty_Charging>
2.42216e-09

> <r_epik_Ionization_Penalty_Neutral>
1.66053

> <r_epik_State_Penalty>
1.76336

> <r_epik_Charging_Adjusted_Penalty>
1.76336

> <i_epik_Tot_Q>
1

> <i_epik_Tot_abs_Q>
1

> <r_epik_Metal_State_Penalty>
1.79856

> <b_epik_Metal_Only>
0

> <s_lp_Force_Field>
OPLS_2005

> <r_lp_Energy>
37.8442

> <b_lp_Chiralities_Consistent>
1

> <s_lp_Variant>
AV-unprocessed.smi:2358-3

> <Gold.Version>
5.8.1

> <Gold.Id.Protein>
6NUR|6NUR_protein|mol2

> <Gold.PLP.Fitness>
49.4654

> <Gold.PLP.PLP>
-44.2521

> <Gold.PLP.part.hbond>
-4.1585

> <Gold.PLP.part.metal>
0.0000

> <Gold.PLP.part.buried>
-2.7507

> <Gold.PLP.part.nonpolar>
-38.1981

> <Gold.PLP.part.repulsive>
0.4223

> <Gold.PLP.ligand.clash>
0.0000

> <Gold.PLP.ligand.torsion>
1.6482

> <Gold.PLP.Chemscore.Hbond>
2.8200

> <Gold.PLP.Chemscore.CHOScore>
0.0000

> <Gold.PLP.Chemscore.Metal>
0.0000

> <Gold.Chemscore.Hbonds>
donor molecule, donor type, donor heavy atom, donor atom, acceptor molecule, acceptor atom, score
      L1  H    11    37       P1  7957  0.83
      L1  H    19    46       P1  7921  0.61
      P1  H  7989  7998       L1    11  0.30
      P1  H  8011  8017       L1    11  0.85

> <Gold.PLP.Chemscore.Internal.Correction>
0.0497

> <Gold.Rescore>
     Score         DG    S(hbond)    S(metal)    S(lipo)     H(rot)  DE(clash)    DE(int)     intcor
     15.86     -17.84       2.10        0.00     103.73       2.65       0.20       1.78       ----

> <Gold.Chemscore.Fitness>
15.8591

> <Gold.Chemscore.DG>
-17.8448

> <Gold.Chemscore.ZeroCoef>
-5.4800

> <Gold.Chemscore.Hbond>
2.1025

> <Gold.Chemscore.Metal>
0.0000

> <Gold.Chemscore.Lipo>
103.7252

> <Gold.Chemscore.Internal_Hbond>
0.0000

> <Gold.Chemscore.DEClash>
0.2040

> <Gold.Chemscore.DEInternal>
1.7817

> <Gold.Chemscore.Rot>
2.6537

> <Gold.Chemscore.Internal.Correction>
   9.000000E+99

> <Gold.Chemscore.Hbonds>
donor molecule, donor type, donor heavy atom, donor atom, acceptor molecule, acceptor atom, score
      L1  H    11    37       P1  7957  0.82
      L1  H    19    46       P1  7921  0.61
      P1  H  7989  7998       L1    11  0.06
      P1  H  8011  8017       L1    11  0.14

> <Gold.Chemscore.Hbond.Weighted>
-7.0225

> <Gold.Chemscore.Metal.Weighted>
-0.0000

> <Gold.Chemscore.Lipo.Weighted>
-12.1359

> <Gold.Chemscore.Internal_Hbond.Weighted>
0.0000

> <Gold.Chemscore.DEClash.Weighted>
0.2040

> <Gold.Chemscore.DEInternal.Weighted>
1.7817

> <Gold.Chemscore.Rot.Weighted>
6.7935

> <Gold.Chemscore.Internal.Correction.Weighted>
   9.000000E+99

> <Gold.Protein.RotatedTorsions>
[ 6907 6896 6895 6894 ] final   -4.23 input  -60.11 | X-H torsion
[ 7974 7965 7964 7962 ] final  -91.59 input  175.53 | X-H torsion
[ 8008 7997 7996 7995 ] final  166.03 input   59.86 | X-H torsion
[ 10167 10162 10161 10158 ] final  -71.64 input  -65.29 | X-H torsion
[ 10718 10713 10712 10709 ] final   36.59 input   66.30 | X-H torsion
[ 10763 10752 10751 10750 ] final -167.79 input  -60.55 | X-H torsion
[ 11005 11000 10999 10996 ] final -147.94 input  -57.11 | X-H torsion

> <Gold.Protein.ActiveResidues>
 VAL166  LYS551  ARG553  GLY616  TRP617  ASP618  TYR619  PRO620  LYS621  CYS622 
 ASP623  PHE694  ASN695  SER759  ASP760  ASP761  ALA762  ILE779  LEU786  VAL792 
 PHE793  MET794  SER795  GLU796  ALA797  LYS798  CYS799  TRP800  GLU811  SER814 

> <Gold.Protein.RotatedAtoms>
  151.5010  135.1061  159.9828 H   0  0  0  0  0  0  0  0  0  0  0  0  # atno 6907 bound_to 6896
  152.4702  133.8008  159.6962 H   0  0  0  0  0  0  0  0  0  0  0  0  # atno 6908 bound_to 6896
  150.8707  133.7447  159.2988 H   0  0  0  0  0  0  0  0  0  0  0  0  # atno 6909 bound_to 6896
  145.4111  140.9545  143.2234 H   0  0  0  0  0  0  0  0  0  0  0  0  # atno 7974 bound_to 7965
  156.1752  140.1654  156.8375 H   0  0  0  0  0  0  0  0  0  0  0  0  # atno 8008 bound_to 7997
  154.5299  140.0759  156.8360 H   0  0  0  0  0  0  0  0  0  0  0  0  # atno 8009 bound_to 7997
  155.3428  140.3385  155.4241 H   0  0  0  0  0  0  0  0  0  0  0  0  # atno 8010 bound_to 7997
  140.5256  143.2326  151.7353 H   0  0  0  0  0  0  0  0  0  0  0  0  # atno 10167 bound_to 10162
  157.3368  130.7526  149.6884 H   0  0  0  0  0  0  0  0  0  0  0  0  # atno 10718 bound_to 10713
  154.6696  135.2937  154.9760 H   0  0  0  0  0  0  0  0  0  0  0  0  # atno 10763 bound_to 10752
  154.0792  135.6607  153.4839 H   0  0  0  0  0  0  0  0  0  0  0  0  # atno 10764 bound_to 10752
  153.0478  135.5193  154.7685 H   0  0  0  0  0  0  0  0  0  0  0  0  # atno 10765 bound_to 10752
  140.7664  134.3239  157.5087 H   0  0  0  0  0  0  0  0  0  0  0  0  # atno 11005 bound_to 11000
  144.8309  139.5631  143.6944 LP  0  0  0  0  0  0  0  0  0  0  0  0  # atno 17320 bound_to 7965
  146.2704  139.6622  142.9300 LP  0  0  0  0  0  0  0  0  0  0  0  0  # atno 17321 bound_to 7965
  139.4937  144.4190  151.9998 LP  0  0  0  0  0  0  0  0  0  0  0  0  # atno 17342 bound_to 10162
  140.3289  144.3340  150.5992 LP  0  0  0  0  0  0  0  0  0  0  0  0  # atno 17343 bound_to 10162
  155.9702  130.4179  150.4303 LP  0  0  0  0  0  0  0  0  0  0  0  0  # atno 17370 bound_to 10713
  157.2344  131.0511  151.2473 LP  0  0  0  0  0  0  0  0  0  0  0  0  # atno 17371 bound_to 10713
  139.8762  134.9234  156.3323 LP  0  0  0  0  0  0  0  0  0  0  0  0  # atno 17394 bound_to 11000
  140.9615  133.7385  156.0408 LP  0  0  0  0  0  0  0  0  0  0  0  0  # atno 17395 bound_to 11000

$$$$
