AV-unprocessed.smi:92|AV-procd|sdf|845|dock3
  -GOLD-   2262017283D 1   1.00000     0.00000
 Structure written by MMmdl.
 61 64  0  0  0  0  0  0  0  0  2 V2000
  151.4356  144.3472  158.0151 C   0  0  0  0  0  0  0  0  0  0  0  0
  150.3609  143.4358  158.6255 C   0  0  0  0  0  0  0  0  0  0  0  0
  149.5423  142.7474  157.5950 N   0  3  2  0  0  0  0  0  0  0  0  0
  148.2758  142.2126  158.1545 C   0  0  0  0  0  0  0  0  0  0  0  0
  147.3813  141.6476  157.0428 C   0  0  0  0  0  0  0  0  0  0  0  0
  148.1141  140.5546  156.2412 C   0  0  1  0  0  0  0  0  0  0  0  0
  147.2558  139.9939  155.1901 N   0  0  0  0  0  0  0  0  0  0  0  0
  145.9960  140.6407  154.8333 C   0  0  0  0  0  0  0  0  0  0  0  0
  147.3183  138.6473  155.0446 C   0  0  0  0  0  0  0  0  0  0  0  0
  148.0351  137.9507  155.9637 N   0  0  0  0  0  0  0  0  0  0  0  0
  148.1292  136.6210  155.8783 C   0  0  0  0  0  0  0  0  0  0  0  0
  147.5920  135.8040  154.9710 N   0  0  0  0  0  0  0  0  0  0  0  0
  146.8667  136.4966  154.0468 C   0  0  0  0  0  0  0  0  0  0  0  0
  146.6734  137.9070  154.0109 C   0  0  0  0  0  0  0  0  0  0  0  0
  145.8459  138.2397  152.9440 N   0  0  0  0  0  0  0  0  0  0  0  0
  145.5732  137.0953  152.3794 C   0  0  0  0  0  0  0  0  0  0  0  0
  146.1692  135.9993  152.9600 N   0  0  0  0  0  0  0  0  0  0  0  0
  146.0077  134.6287  152.5735 C   0  0  0  0  0  0  0  0  0  0  0  0
  146.3590  134.1605  151.1600 C   0  0  0  0  0  0  0  0  0  0  0  0
  145.2325  133.1056  151.2381 C   0  0  0  0  0  0  0  0  0  0  0  0
  144.3941  132.9382  149.9604 C   0  0  0  0  0  0  0  0  0  0  0  0
  144.0834  134.1909  149.3847 O   0  0  0  0  0  0  0  0  0  0  0  0
  145.6674  131.7156  151.7451 C   0  0  0  0  0  0  0  0  0  0  0  0
  146.4125  131.0194  150.7667 O   0  0  0  0  0  0  0  0  0  0  0  0
  144.6216  134.0348  152.3106 C   0  0  0  0  0  0  0  0  0  0  0  0
  149.4562  141.1030  155.7000 C   0  0  2  0  0  0  0  0  0  0  0  0
  150.2658  140.0224  154.9621 C   0  0  0  0  0  0  0  0  0  0  0  0
  150.2915  141.6983  156.8536 C   0  0  0  0  0  0  0  0  0  0  0  0
  151.9514  144.9061  158.7964 H   0  0  0  0  0  0  0  0  0  0  0  0
  150.9950  145.0715  157.3296 H   0  0  0  0  0  0  0  0  0  0  0  0
  152.1925  143.7838  157.4707 H   0  0  0  0  0  0  0  0  0  0  0  0
  150.8115  142.7040  159.2976 H   0  0  0  0  0  0  0  0  0  0  0  0
  149.7116  144.0603  159.2406 H   0  0  0  0  0  0  0  0  0  0  0  0
  148.4970  141.4393  158.8922 H   0  0  0  0  0  0  0  0  0  0  0  0
  147.7368  143.0046  158.6759 H   0  0  0  0  0  0  0  0  0  0  0  0
  146.4681  141.2430  157.4809 H   0  0  0  0  0  0  0  0  0  0  0  0
  147.0745  142.4610  156.3844 H   0  0  0  0  0  0  0  0  0  0  0  0
  148.3653  139.7582  156.9436 H   0  0  0  0  0  0  0  0  0  0  0  0
  145.5224  140.1349  153.9908 H   0  0  0  0  0  0  0  0  0  0  0  0
  146.1633  141.6746  154.5334 H   0  0  0  0  0  0  0  0  0  0  0  0
  145.2978  140.6370  155.6701 H   0  0  0  0  0  0  0  0  0  0  0  0
  148.7191  136.1429  156.6465 H   0  0  0  0  0  0  0  0  0  0  0  0
  144.9278  137.0212  151.5161 H   0  0  0  0  0  0  0  0  0  0  0  0
  146.5463  134.0412  153.3187 H   0  0  0  0  0  0  0  0  0  0  0  0
  146.1722  134.9313  150.4097 H   0  0  0  0  0  0  0  0  0  0  0  0
  147.3670  133.7576  151.0581 H   0  0  0  0  0  0  0  0  0  0  0  0
  144.9371  132.3559  149.2153 H   0  0  0  0  0  0  0  0  0  0  0  0
  143.4684  132.3963  150.1545 H   0  0  0  0  0  0  0  0  0  0  0  0
  144.8819  134.5772  149.0585 H   0  0  0  0  0  0  0  0  0  0  0  0
  146.2876  131.7981  152.6376 H   0  0  0  0  0  0  0  0  0  0  0  0
  144.8086  131.1076  152.0307 H   0  0  0  0  0  0  0  0  0  0  0  0
  147.3028  131.3356  150.7855 H   0  0  0  0  0  0  0  0  0  0  0  0
  144.1797  133.5210  153.1647 H   0  0  0  0  0  0  0  0  0  0  0  0
  143.9265  134.7653  151.8921 H   0  0  0  0  0  0  0  0  0  0  0  0
  149.2531  141.9109  154.9959 H   0  0  0  0  0  0  0  0  0  0  0  0
  150.4844  139.1767  155.6150 H   0  0  0  0  0  0  0  0  0  0  0  0
  151.2155  140.4194  154.6028 H   0  0  0  0  0  0  0  0  0  0  0  0
  149.7278  139.6401  154.0943 H   0  0  0  0  0  0  0  0  0  0  0  0
  151.2082  142.1187  156.4417 H   0  0  0  0  0  0  0  0  0  0  0  0
  150.5920  140.9111  157.5473 H   0  0  0  0  0  0  0  0  0  0  0  0
  149.2773  143.4531  156.9227 H   0  0  0  0  0  0  0  0  0  0  0  0
  1  2  1  0  0  0  0
  1 29  1  0  0  0  0
  1 30  1  0  0  0  0
  1 31  1  0  0  0  0
  2  3  1  0  0  0  0
  2 32  1  0  0  0  0
  2 33  1  0  0  0  0
  3 28  1  0  0  0  0
  3  4  1  0  0  0  0
  3 61  1  0  0  0  0
  4  5  1  0  0  0  0
  4 34  1  0  0  0  0
  4 35  1  0  0  0  0
  5  6  1  0  0  0  0
  5 36  1  0  0  0  0
  5 37  1  0  0  0  0
  6  7  1  0  0  0  0
  6 26  1  0  0  0  0
  6 38  1  0  0  0  0
  7  8  1  0  0  0  0
  7  9  1  0  0  0  0
  8 39  1  0  0  0  0
  8 40  1  0  0  0  0
  8 41  1  0  0  0  0
  9 14  1  0  0  0  0
  9 10  2  0  0  0  0
 10 11  1  0  0  0  0
 11 12  2  0  0  0  0
 11 42  1  0  0  0  0
 12 13  1  0  0  0  0
 13 17  1  0  0  0  0
 13 14  2  0  0  0  0
 14 15  1  0  0  0  0
 15 16  2  0  0  0  0
 16 17  1  0  0  0  0
 16 43  1  0  0  0  0
 17 18  1  0  0  0  0
 18 25  1  0  0  0  0
 18 19  1  0  0  0  0
 18 44  1  0  0  0  0
 19 20  1  0  0  0  0
 19 45  1  0  0  0  0
 19 46  1  0  0  0  0
 20 21  1  0  0  0  0
 20 23  1  0  0  0  0
 20 25  1  0  0  0  0
 21 22  1  0  0  0  0
 21 47  1  0  0  0  0
 21 48  1  0  0  0  0
 22 49  1  0  0  0  0
 23 24  1  0  0  0  0
 23 50  1  0  0  0  0
 23 51  1  0  0  0  0
 24 52  1  0  0  0  0
 25 53  1  0  0  0  0
 25 54  1  0  0  0  0
 26 27  1  0  0  0  0
 26 28  1  0  0  0  0
 26 55  1  0  0  0  0
 27 56  1  0  0  0  0
 27 57  1  0  0  0  0
 27 58  1  0  0  0  0
 28 59  1  0  0  0  0
 28 60  1  0  0  0  0
M  CHG  1   3   1
M  END
> <s_m_source_file>
AV-unprocessed.smi

> <i_m_source_file_index>
92

> <i_lp_mmshare_version>
43012

> <i_f3d_flags>
0

> <s_epik_input>
W0NIM11bQ0gyXU4xW0NIMl1bQ0gyXVtDQEhdKFtDQEBIXShbQ0gzXSlbQ0gyXTEpTihbQ0gzXSljKG5bY0hdbjIpYyhjMjMpbltjSF1uM1tDSF0oW0NIMl00KVtDSDJdQzQoW0NIMl1bT0hdKVtDSDJdW09IXQ==

> <s_epik_cmdline>
J2VwaWtfcHl0aG9uJywgJy1waCcsICc3LjAnLCAnLXRuJywgJzgnLCAnLW1hJywgJzIwMCcsICctbWV0YWxfYmluZGluZycsICctaW1hZScsICc8aW5maWxlLm1hZT4nLCAnLW9tYWUnLCAnPG91dGZpbGUubWFlPic=

> <r_lp_tautomer_probability>
1

> <r_epik_Ionization_Penalty>
0.00235514

> <r_epik_Ionization_Penalty_Charging>
0.00137877

> <r_epik_Ionization_Penalty_Neutral>
0.000976366

> <r_epik_State_Penalty>
-0

> <r_epik_Charging_Adjusted_Penalty>
0.00137877

> <i_epik_Tot_Q>
1

> <i_epik_Tot_abs_Q>
1

> <r_epik_Metal_State_Penalty>
-0

> <b_epik_Metal_Only>
0

> <s_lp_Force_Field>
OPLS_2005

> <r_lp_Energy>
48.9236

> <b_lp_Chiralities_Consistent>
1

> <s_lp_Variant>
AV-unprocessed.smi:92-5

> <Gold.Version>
5.8.1

> <Gold.Id.Protein>
6NUR|6NUR_protein|mol2

> <Gold.PLP.Fitness>
50.6262

> <Gold.PLP.PLP>
-36.3258

> <Gold.PLP.part.hbond>
-3.7663

> <Gold.PLP.part.metal>
0.0000

> <Gold.PLP.part.buried>
-2.2749

> <Gold.PLP.part.nonpolar>
-30.8804

> <Gold.PLP.part.repulsive>
0.4062

> <Gold.PLP.ligand.clash>
0.0000

> <Gold.PLP.ligand.torsion>
1.0250

> <Gold.PLP.Chemscore.Hbond>
3.9516

> <Gold.PLP.Chemscore.CHOScore>
1.0000

> <Gold.PLP.Chemscore.Metal>
0.0000

> <Gold.Chemscore.Hbonds>
donor molecule, donor type, donor heavy atom, donor atom, acceptor molecule, acceptor atom, score
      L1  H     3    61       P1  8028  2.00
      L1  H    22    49       P1  7921  0.99
      L1  H    24    52       P1 10747  0.80
      L1  C    16    43       P1 10171  0.96

> <Gold.PLP.Chemscore.Internal.Correction>
1.4957

> <Gold.Rescore>
     Score         DG    S(hbond)    S(metal)    S(lipo)     H(rot)  DE(clash)    DE(int)     intcor
     14.40     -17.87       2.89        0.00      93.82       3.22       1.61       1.86       ----

> <Gold.Chemscore.Fitness>
14.4036

> <Gold.Chemscore.DG>
-17.8691

> <Gold.Chemscore.ZeroCoef>
-5.4800

> <Gold.Chemscore.Hbond>
2.8923

> <Gold.Chemscore.Metal>
0.0000

> <Gold.Chemscore.Lipo>
93.8209

> <Gold.Chemscore.Internal_Hbond>
0.0000

> <Gold.Chemscore.DEClash>
1.6101

> <Gold.Chemscore.DEInternal>
1.8553

> <Gold.Chemscore.Rot>
3.2219

> <Gold.Chemscore.Internal.Correction>
   9.000000E+99

> <Gold.Chemscore.Hbonds>
donor molecule, donor type, donor heavy atom, donor atom, acceptor molecule, acceptor atom, score
      L1  H     3    61       P1  8028  0.91
      L1  H    22    49       P1  7921  0.93
      L1  H    24    52       P1 10747  0.80

> <Gold.Chemscore.Hbond.Weighted>
-9.6602

> <Gold.Chemscore.Metal.Weighted>
-0.0000

> <Gold.Chemscore.Lipo.Weighted>
-10.9770

> <Gold.Chemscore.Internal_Hbond.Weighted>
0.0000

> <Gold.Chemscore.DEClash.Weighted>
1.6101

> <Gold.Chemscore.DEInternal.Weighted>
1.8553

> <Gold.Chemscore.Rot.Weighted>
8.2482

> <Gold.Chemscore.Internal.Correction.Weighted>
   9.000000E+99

> <Gold.Protein.RotatedTorsions>
[ 6907 6896 6895 6894 ] final  -80.57 input  -60.11 | X-H torsion
[ 7974 7965 7964 7962 ] final  161.26 input  175.53 | X-H torsion
[ 8008 7997 7996 7995 ] final -172.05 input   59.86 | X-H torsion
[ 10167 10162 10161 10158 ] final  -48.31 input  -65.29 | X-H torsion
[ 10718 10713 10712 10709 ] final   21.83 input   66.30 | X-H torsion
[ 10763 10752 10751 10750 ] final   32.54 input  -60.55 | X-H torsion
[ 11005 11000 10999 10996 ] final   90.08 input  -57.11 | X-H torsion

> <Gold.Protein.ActiveResidues>
 VAL166  LYS551  ARG553  GLY616  TRP617  ASP618  TYR619  PRO620  LYS621  CYS622 
 ASP623  PHE694  ASN695  SER759  ASP760  ASP761  ALA762  ILE779  LEU786  VAL792 
 PHE793  MET794  SER795  GLU796  ALA797  LYS798  CYS799  TRP800  GLU811  SER814 

> <Gold.Protein.RotatedAtoms>
  150.6927  134.3949  159.5092 H   0  0  0  0  0  0  0  0  0  0  0  0  # atno 6907 bound_to 6896
  152.1731  134.8814  160.0542 H   0  0  0  0  0  0  0  0  0  0  0  0  # atno 6908 bound_to 6896
  151.9833  133.3730  159.4153 H   0  0  0  0  0  0  0  0  0  0  0  0  # atno 6909 bound_to 6896
  144.7695  139.7873  143.6302 H   0  0  0  0  0  0  0  0  0  0  0  0  # atno 7974 bound_to 7965
  155.9395  140.1106  157.1067 H   0  0  0  0  0  0  0  0  0  0  0  0  # atno 8008 bound_to 7997
  154.4086  140.1222  156.4974 H   0  0  0  0  0  0  0  0  0  0  0  0  # atno 8009 bound_to 7997
  155.6980  140.3472  155.4923 H   0  0  0  0  0  0  0  0  0  0  0  0  # atno 8010 bound_to 7997
  140.6737  143.2746  151.4052 H   0  0  0  0  0  0  0  0  0  0  0  0  # atno 10167 bound_to 10162
  157.1439  130.6645  149.5990 H   0  0  0  0  0  0  0  0  0  0  0  0  # atno 10718 bound_to 10713
  153.0257  135.6410  154.1371 H   0  0  0  0  0  0  0  0  0  0  0  0  # atno 10763 bound_to 10752
  154.1100  135.2853  155.3234 H   0  0  0  0  0  0  0  0  0  0  0  0  # atno 10764 bound_to 10752
  154.6338  135.5483  153.7773 H   0  0  0  0  0  0  0  0  0  0  0  0  # atno 10765 bound_to 10752
  139.8863  134.8591  156.3233 H   0  0  0  0  0  0  0  0  0  0  0  0  # atno 11005 bound_to 11000
  146.1829  139.5031  142.9854 LP  0  0  0  0  0  0  0  0  0  0  0  0  # atno 17320 bound_to 7965
  145.6368  141.0293  143.1833 LP  0  0  0  0  0  0  0  0  0  0  0  0  # atno 17321 bound_to 7965
  139.6017  144.1281  152.2205 LP  0  0  0  0  0  0  0  0  0  0  0  0  # atno 17342 bound_to 10162
  140.0667  144.5812  150.7222 LP  0  0  0  0  0  0  0  0  0  0  0  0  # atno 17343 bound_to 10162
  155.9783  130.4768  150.6648 LP  0  0  0  0  0  0  0  0  0  0  0  0  # atno 17370 bound_to 10713
  157.4282  131.0846  151.1065 LP  0  0  0  0  0  0  0  0  0  0  0  0  # atno 17371 bound_to 10713
  140.9772  133.7290  156.0619 LP  0  0  0  0  0  0  0  0  0  0  0  0  # atno 17394 bound_to 11000
  140.7796  134.3740  157.5490 LP  0  0  0  0  0  0  0  0  0  0  0  0  # atno 17395 bound_to 11000

$$$$
