AV-unprocessed.smi:72|AV-procd|sdf|729|dock4
  -GOLD-   2262017 53D 1   1.00000     0.00000
 Structure written by MMmdl.
 28 29  0  0  0  0  0  0  0  0  2 V2000
  154.0381  138.0339  155.0574 N   0  0  0  0  0  0  0  0  0  0  0  0
  152.8196  138.3557  155.0939 C   0  0  0  0  0  0  0  0  0  0  0  0
  151.8150  137.4429  154.5946 N   0  0  0  0  0  0  0  0  0  0  0  0
  150.5769  137.8303  154.6225 C   0  0  0  0  0  0  0  0  0  0  0  0
  150.1911  139.1475  155.1188 N   0  0  0  0  0  0  0  0  0  0  0  0
  148.7444  139.6192  155.1577 C   0  0  2  0  0  0  0  0  0  0  0  0
  147.9209  138.6949  154.5043 O   0  0  0  0  0  0  0  0  0  0  0  0
  147.6694  139.1288  153.1707 C   0  0  1  0  0  0  0  0  0  0  0  0
  146.4592  138.3983  152.5630 C   0  0  0  0  0  0  0  0  0  0  0  0
  146.5826  138.3406  151.1577 O   0  0  0  0  0  0  0  0  0  0  0  0
  147.5097  140.6404  153.3577 C   0  0  1  0  0  0  0  0  0  0  0  0
  146.2002  140.9506  153.8075 O   0  0  0  0  0  0  0  0  0  0  0  0
  148.5810  140.9565  154.4012 C   0  0  1  0  0  0  0  0  0  0  0  0
  148.2184  142.0377  155.2400 O   0  0  0  0  0  0  0  0  0  0  0  0
  151.1972  140.0009  155.6481 C   0  0  0  0  0  0  0  0  0  0  0  0
  150.8506  141.0869  156.1135 O   0  0  0  0  0  0  0  0  0  0  0  0
  152.4941  139.5855  155.6202 N   0  5  0  0  0  0  0  0  0  0  0  0
  148.4826  139.6582  156.2166 H   0  0  0  0  0  0  0  0  0  0  0  0
  148.5555  138.9556  152.5568 H   0  0  0  0  0  0  0  0  0  0  0  0
  147.6855  141.1834  152.4285 H   0  0  0  0  0  0  0  0  0  0  0  0
  149.5141  141.1996  153.8904 H   0  0  0  0  0  0  0  0  0  0  0  0
  154.1882  137.1192  154.6577 H   0  0  0  0  0  0  0  0  0  0  0  0
  149.7626  137.1930  154.2782 H   0  0  0  0  0  0  0  0  0  0  0  0
  146.3524  137.3939  152.9739 H   0  0  0  0  0  0  0  0  0  0  0  0
  145.5413  138.9424  152.7874 H   0  0  0  0  0  0  0  0  0  0  0  0
  145.7168  138.3550  150.7798 H   0  0  0  0  0  0  0  0  0  0  0  0
  145.5896  140.6917  153.1338 H   0  0  0  0  0  0  0  0  0  0  0  0
  148.6294  142.8207  154.9041 H   0  0  0  0  0  0  0  0  0  0  0  0
  1  2  2  0  0  0  0
  1 22  1  0  0  0  0
  2 17  1  0  0  0  0
  2  3  1  0  0  0  0
  3  4  2  0  0  0  0
  4  5  1  0  0  0  0
  4 23  1  0  0  0  0
  5  6  1  0  0  0  0
  5 15  1  0  0  0  0
  6 18  1  0  0  0  0
  6 13  1  0  0  0  0
  6  7  1  0  0  0  0
  7  8  1  0  0  0  0
  8 19  1  0  0  0  0
  8  9  1  0  0  0  0
  8 11  1  0  0  0  0
  9 10  1  0  0  0  0
  9 24  1  0  0  0  0
  9 25  1  0  0  0  0
 10 26  1  0  0  0  0
 11 20  1  0  0  0  0
 11 12  1  0  0  0  0
 11 13  1  0  0  0  0
 12 27  1  0  0  0  0
 13 21  1  0  0  0  0
 13 14  1  0  0  0  0
 14 28  1  0  0  0  0
 15 16  2  0  0  0  0
 15 17  1  0  0  0  0
M  CHG  1  17  -1
M  END
> <s_m_source_file>
AV-unprocessed.smi

> <i_m_source_file_index>
72

> <i_lp_mmshare_version>
43012

> <i_f3d_flags>
0

> <s_epik_input>
W05IMl1jMW5bY0hdbihjKD1PKW4xKVtDQEBIXTJPW0NASF0oW0NIMl1bT0hdKVtDQEBIXShbT0hdKVtDQEhdMltPSF0=

> <s_epik_cmdline>
J2VwaWtfcHl0aG9uJywgJy1waCcsICc3LjAnLCAnLXRuJywgJzgnLCAnLW1hJywgJzIwMCcsICctbWV0YWxfYmluZGluZycsICctaW1hZScsICc8aW5maWxlLm1hZT4nLCAnLW9tYWUnLCAnPG91dGZpbGUubWFlPic=

> <r_lp_tautomer_probability>
7.17554e-07

> <r_epik_Ionization_Penalty>
12.8705

> <r_epik_Ionization_Penalty_Charging>
5.64144

> <r_epik_Ionization_Penalty_Neutral>
7.22905

> <r_epik_State_Penalty>
3.30104

> <r_epik_Charging_Adjusted_Penalty>
8.94249

> <i_epik_Tot_Q>
-1

> <i_epik_Tot_abs_Q>
1

> <r_epik_Metal_State_Penalty>
0.529074

> <b_epik_Metal_Only>
1

> <s_epik_Chemistry_Notes>
This compound contains an acetal/aminal-like group ( X-CH(R)-Y where X, Y are N, S, or O) that may be acid/base labile, releasing an aldehyde.

> <s_lp_Force_Field>
OPLS_2005

> <r_lp_Energy>
36.9813

> <b_lp_Chiralities_Consistent>
1

> <s_lp_Variant>
AV-unprocessed.smi:72-67

> <Gold.Version>
5.8.1

> <Gold.Id.Protein>
6NUR|6NUR_protein|mol2

> <Gold.PLP.Fitness>
53.8929

> <Gold.PLP.PLP>
-32.0798

> <Gold.PLP.part.hbond>
-8.3075

> <Gold.PLP.part.metal>
0.0000

> <Gold.PLP.part.buried>
-3.8829

> <Gold.PLP.part.nonpolar>
-23.2464

> <Gold.PLP.part.repulsive>
0.3362

> <Gold.PLP.ligand.clash>
0.0000

> <Gold.PLP.ligand.torsion>
0.4102

> <Gold.PLP.Chemscore.Hbond>
6.5370

> <Gold.PLP.Chemscore.CHOScore>
1.0000

> <Gold.PLP.Chemscore.Metal>
0.0000

> <Gold.Chemscore.Hbonds>
donor molecule, donor type, donor heavy atom, donor atom, acceptor molecule, acceptor atom, score
      L1  H    10    26       P1 10171  0.86
      L1  H    12    27       P1 10175  1.00
      L1  H    14    28       P1  8028  0.66
      P1  H  7954  7966       L1    10  0.88
      P1  H  7997  8008       L1    17  1.85
      P1  H 10752 10764       L1     3  0.67
      L1  C     4    23       P1  7948  0.59

> <Gold.PLP.Chemscore.Internal.Correction>
0.0226

> <Gold.Rescore>
     Score         DG    S(hbond)    S(metal)    S(lipo)     H(rot)  DE(clash)    DE(int)     intcor
      7.78     -11.43       3.82        0.00      30.23       4.04       0.89       2.76       ----

> <Gold.Chemscore.Fitness>
7.7793

> <Gold.Chemscore.DG>
-11.4254

> <Gold.Chemscore.ZeroCoef>
-5.4800

> <Gold.Chemscore.Hbond>
3.8178

> <Gold.Chemscore.Metal>
0.0000

> <Gold.Chemscore.Lipo>
30.2309

> <Gold.Chemscore.Internal_Hbond>
0.0000

> <Gold.Chemscore.DEClash>
0.8853

> <Gold.Chemscore.DEInternal>
2.7608

> <Gold.Chemscore.Rot>
4.0403

> <Gold.Chemscore.Internal.Correction>
   9.000000E+99

> <Gold.Chemscore.Hbonds>
donor molecule, donor type, donor heavy atom, donor atom, acceptor molecule, acceptor atom, score
      L1  H    10    26       P1 10171  0.84
      L1  H    12    27       P1 10175  0.66
      L1  H    14    28       P1  8028  0.62
      P1  H  7954  7966       L1    10  0.80
      P1  H  7997  8008       L1    17  0.20
      P1  H 10752 10764       L1     3  0.22

> <Gold.Chemscore.Hbond.Weighted>
-12.7515

> <Gold.Chemscore.Metal.Weighted>
-0.0000

> <Gold.Chemscore.Lipo.Weighted>
-3.5370

> <Gold.Chemscore.Internal_Hbond.Weighted>
0.0000

> <Gold.Chemscore.DEClash.Weighted>
0.8853

> <Gold.Chemscore.DEInternal.Weighted>
2.7608

> <Gold.Chemscore.Rot.Weighted>
10.3431

> <Gold.Chemscore.Internal.Correction.Weighted>
   9.000000E+99

> <Gold.Protein.RotatedTorsions>
[ 6907 6896 6895 6894 ] final   77.69 input  -60.11 | X-H torsion
[ 7974 7965 7964 7962 ] final -152.14 input  175.53 | X-H torsion
[ 8008 7997 7996 7995 ] final  -41.78 input   59.86 | X-H torsion
[ 10167 10162 10161 10158 ] final -142.74 input  -65.29 | X-H torsion
[ 10718 10713 10712 10709 ] final   10.57 input   66.30 | X-H torsion
[ 10763 10752 10751 10750 ] final  -83.93 input  -60.55 | X-H torsion
[ 11005 11000 10999 10996 ] final -173.29 input  -57.11 | X-H torsion

> <Gold.Protein.ActiveResidues>
 VAL166  LYS551  ARG553  GLY616  TRP617  ASP618  TYR619  PRO620  LYS621  CYS622 
 ASP623  PHE694  ASN695  SER759  ASP760  ASP761  ALA762  ILE779  LEU786  VAL792 
 PHE793  MET794  SER795  GLU796  ALA797  LYS798  CYS799  TRP800  GLU811  SER814 

> <Gold.Protein.RotatedAtoms>
  152.5128  134.3778  159.9340 H   0  0  0  0  0  0  0  0  0  0  0  0  # atno 6907 bound_to 6896
  151.3734  133.3840  159.2710 H   0  0  0  0  0  0  0  0  0  0  0  0  # atno 6908 bound_to 6896
  150.9560  134.8974  159.7760 H   0  0  0  0  0  0  0  0  0  0  0  0  # atno 6909 bound_to 6896
  144.7810  140.4702  143.5839 H   0  0  0  0  0  0  0  0  0  0  0  0  # atno 7974 bound_to 7965
  154.4002  140.1490  156.3248 H   0  0  0  0  0  0  0  0  0  0  0  0  # atno 8008 bound_to 7997
  155.8497  140.3458  155.5664 H   0  0  0  0  0  0  0  0  0  0  0  0  # atno 8009 bound_to 7997
  155.7998  140.0868  157.1954 H   0  0  0  0  0  0  0  0  0  0  0  0  # atno 8010 bound_to 7997
  139.8059  143.7769  152.2661 H   0  0  0  0  0  0  0  0  0  0  0  0  # atno 10167 bound_to 10162
  156.9830  130.6013  149.5678 H   0  0  0  0  0  0  0  0  0  0  0  0  # atno 10718 bound_to 10713
  154.5935  135.5538  153.7302 H   0  0  0  0  0  0  0  0  0  0  0  0  # atno 10763 bound_to 10752
  153.0126  135.6349  154.1815 H   0  0  0  0  0  0  0  0  0  0  0  0  # atno 10764 bound_to 10752
  154.1756  135.2890  155.3048 H   0  0  0  0  0  0  0  0  0  0  0  0  # atno 10765 bound_to 10752
  140.4875  134.6017  157.4942 H   0  0  0  0  0  0  0  0  0  0  0  0  # atno 11005 bound_to 11000
  145.6050  139.1507  143.3108 LP  0  0  0  0  0  0  0  0  0  0  0  0  # atno 17320 bound_to 7965
  146.2018  140.6169  142.9099 LP  0  0  0  0  0  0  0  0  0  0  0  0  # atno 17321 bound_to 7965
  139.7903  144.7412  150.9964 LP  0  0  0  0  0  0  0  0  0  0  0  0  # atno 17342 bound_to 10162
  140.7819  143.4449  151.0497 LP  0  0  0  0  0  0  0  0  0  0  0  0  # atno 17343 bound_to 10162
  156.0237  130.5331  150.8347 LP  0  0  0  0  0  0  0  0  0  0  0  0  # atno 17370 bound_to 10713
  157.5513  131.0944  150.9691 LP  0  0  0  0  0  0  0  0  0  0  0  0  # atno 17371 bound_to 10713
  139.9789  134.7169  155.9896 LP  0  0  0  0  0  0  0  0  0  0  0  0  # atno 17394 bound_to 11000
  141.1501  133.6550  156.3986 LP  0  0  0  0  0  0  0  0  0  0  0  0  # atno 17395 bound_to 11000

$$$$
