AV-unprocessed.smi:281|AV-procd|sdf|2116|dock6
  -GOLD-   2262021413D 1   1.00000     0.00000
 Structure written by MMmdl.
 55 59  0  0  0  0  0  0  0  0  1 V2000
  153.3737  138.5058  154.2904 C   0  0  0  0  0  0  0  0  0  0  0  0
  151.8722  138.4175  154.5804 C   0  0  1  0  0  0  0  0  0  0  0  0
  151.5470  137.3286  155.6145 C   0  0  0  0  0  0  0  0  0  0  0  0
  150.1243  137.3595  155.9173 N   0  0  0  0  0  0  0  0  0  0  0  0
  149.6650  136.3277  156.6552 C   0  0  0  0  0  0  0  0  0  0  0  0
  150.0840  135.0882  156.3025 N   0  0  0  0  0  0  0  0  0  0  0  0
  149.6584  134.0207  156.9847 C   0  0  0  0  0  0  0  0  0  0  0  0
  148.8258  133.9730  158.0268 N   0  0  0  0  0  0  0  0  0  0  0  0
  148.3981  135.2196  158.3792 C   0  0  0  0  0  0  0  0  0  0  0  0
  148.7614  136.4433  157.7494 C   0  0  0  0  0  0  0  0  0  0  0  0
  148.1130  137.5050  158.3689 N   0  0  0  0  0  0  0  0  0  0  0  0
  147.4124  136.9419  159.3149 C   0  0  0  0  0  0  0  0  0  0  0  0
  147.5324  135.5729  159.4003 N   0  0  0  0  0  0  0  0  0  0  0  0
  146.8676  134.6943  160.3509 C   0  0  0  0  0  0  0  0  0  0  0  0
  147.1066  135.0791  161.8317 C   0  0  2  0  0  0  0  0  0  0  0  0
  147.0417  133.9110  162.6289 O   0  0  0  0  0  0  0  0  0  0  0  0
  146.0761  136.0886  162.3421 C   0  0  0  0  0  0  0  0  0  0  0  0
  146.8689  137.3849  162.4519 C   0  0  0  0  0  0  0  0  0  0  0  0
  148.1453  136.9298  162.8630 O   0  0  0  0  0  0  0  0  0  0  0  0
  148.4544  135.7876  162.0773 C   0  0  0  0  0  0  0  0  0  0  0  0
  149.6783  138.6571  156.4030 C   0  0  0  0  0  0  0  0  0  0  0  0
  150.0504  139.7782  155.4044 C   0  0  1  0  0  0  0  0  0  0  0  0
  149.1986  139.7650  154.1273 C   0  0  0  0  0  0  0  0  0  0  0  0
  148.2685  140.9606  154.2805 C   0  0  0  0  0  0  0  0  0  0  0  0
  149.0787  141.8905  154.9739 O   0  0  0  0  0  0  0  0  0  0  0  0
  149.7386  141.1710  156.0052 C   0  0  2  0  0  0  0  0  0  0  0  0
  150.9456  141.9657  156.5241 C   0  0  0  0  0  0  0  0  0  0  0  0
  151.4450  139.6847  155.0827 O   0  0  0  0  0  0  0  0  0  0  0  0
  153.7535  137.5636  153.8947 H   0  0  0  0  0  0  0  0  0  0  0  0
  153.9365  138.7416  155.1942 H   0  0  0  0  0  0  0  0  0  0  0  0
  153.5827  139.2833  153.5554 H   0  0  0  0  0  0  0  0  0  0  0  0
  151.3548  138.1960  153.6464 H   0  0  0  0  0  0  0  0  0  0  0  0
  151.8239  136.3460  155.2299 H   0  0  0  0  0  0  0  0  0  0  0  0
  152.1272  137.4998  156.5216 H   0  0  0  0  0  0  0  0  0  0  0  0
  150.0386  133.0682  156.6463 H   0  0  0  0  0  0  0  0  0  0  0  0
  146.7841  137.5164  159.9800 H   0  0  0  0  0  0  0  0  0  0  0  0
  145.7994  134.7021  160.1303 H   0  0  0  0  0  0  0  0  0  0  0  0
  147.2082  133.6742  160.1670 H   0  0  0  0  0  0  0  0  0  0  0  0
  146.5576  133.2518  162.1555 H   0  0  0  0  0  0  0  0  0  0  0  0
  145.2047  136.1879  161.6939 H   0  0  0  0  0  0  0  0  0  0  0  0
  145.7143  135.8121  163.3339 H   0  0  0  0  0  0  0  0  0  0  0  0
  146.9471  137.8819  161.4836 H   0  0  0  0  0  0  0  0  0  0  0  0
  146.4380  138.0845  163.1685 H   0  0  0  0  0  0  0  0  0  0  0  0
  149.1975  135.1572  162.5674 H   0  0  0  0  0  0  0  0  0  0  0  0
  148.8891  136.1429  161.1428 H   0  0  0  0  0  0  0  0  0  0  0  0
  148.6004  138.6432  156.5718 H   0  0  0  0  0  0  0  0  0  0  0  0
  150.1486  138.8528  157.3679 H   0  0  0  0  0  0  0  0  0  0  0  0
  149.8276  139.9300  153.2517 H   0  0  0  0  0  0  0  0  0  0  0  0
  148.6558  138.8320  153.9716 H   0  0  0  0  0  0  0  0  0  0  0  0
  147.9271  141.3552  153.3234 H   0  0  0  0  0  0  0  0  0  0  0  0
  147.3954  140.7064  154.8834 H   0  0  0  0  0  0  0  0  0  0  0  0
  149.0190  141.0633  156.8193 H   0  0  0  0  0  0  0  0  0  0  0  0
  151.4714  141.4138  157.3036 H   0  0  0  0  0  0  0  0  0  0  0  0
  150.6276  142.9185  156.9477 H   0  0  0  0  0  0  0  0  0  0  0  0
  151.6553  142.1821  155.7252 H   0  0  0  0  0  0  0  0  0  0  0  0
  1  2  1  0  0  0  0
  1 29  1  0  0  0  0
  1 30  1  0  0  0  0
  1 31  1  0  0  0  0
  2 28  1  0  0  0  0
  2  3  1  0  0  0  0
  2 32  1  0  0  0  0
  3  4  1  0  0  0  0
  3 33  1  0  0  0  0
  3 34  1  0  0  0  0
  4  5  1  0  0  0  0
  4 21  1  0  0  0  0
  5 10  1  0  0  0  0
  5  6  2  0  0  0  0
  6  7  1  0  0  0  0
  7  8  2  0  0  0  0
  7 35  1  0  0  0  0
  8  9  1  0  0  0  0
  9 13  1  0  0  0  0
  9 10  2  0  0  0  0
 10 11  1  0  0  0  0
 11 12  2  0  0  0  0
 12 13  1  0  0  0  0
 12 36  1  0  0  0  0
 13 14  1  0  0  0  0
 14 15  1  0  0  0  0
 14 37  1  0  0  0  0
 14 38  1  0  0  0  0
 15 20  1  0  0  0  0
 15 16  1  0  0  0  0
 15 17  1  0  0  0  0
 16 39  1  0  0  0  0
 17 18  1  0  0  0  0
 17 40  1  0  0  0  0
 17 41  1  0  0  0  0
 18 19  1  0  0  0  0
 18 42  1  0  0  0  0
 18 43  1  0  0  0  0
 19 20  1  0  0  0  0
 20 44  1  0  0  0  0
 20 45  1  0  0  0  0
 21 22  1  0  0  0  0
 21 46  1  0  0  0  0
 21 47  1  0  0  0  0
 22 26  1  0  0  0  0
 22 23  1  0  0  0  0
 22 28  1  0  0  0  0
 23 24  1  0  0  0  0
 23 48  1  0  0  0  0
 23 49  1  0  0  0  0
 24 25  1  0  0  0  0
 24 50  1  0  0  0  0
 24 51  1  0  0  0  0
 25 26  1  0  0  0  0
 26 27  1  0  0  0  0
 26 52  1  0  0  0  0
 27 53  1  0  0  0  0
 27 54  1  0  0  0  0
 27 55  1  0  0  0  0
M  END
> <s_m_source_file>
AV-unprocessed.smi

> <i_m_source_file_index>
281

> <i_lp_mmshare_version>
43012

> <i_f3d_flags>
0

> <s_epik_input>
W0NIM11bQ0BASF0xT1tDSDJdW0NIMl1bQ0BAXTEyW0NIMl1OKFtDSDJdW0NASF0oTzIpW0NIM10pYyhuW2NIXW4zKWMoYzM0KW5bY0hdbjRbQ0gyXVtDQEBdNShbT0hdKVtDSDJdW0NIMl1PW0NIMl01

> <s_epik_cmdline>
J2VwaWtfcHl0aG9uJywgJy1waCcsICc3LjAnLCAnLXRuJywgJzgnLCAnLW1hJywgJzIwMCcsICctbWV0YWxfYmluZGluZycsICctaW1hZScsICc8aW5maWxlLm1hZT4nLCAnLW9tYWUnLCAnPG91dGZpbGUubWFlPic=

> <r_lp_tautomer_probability>
1

> <r_epik_Ionization_Penalty>
0.00571331

> <r_epik_Ionization_Penalty_Charging>
0

> <r_epik_Ionization_Penalty_Neutral>
0.00571331

> <r_epik_State_Penalty>
0.00399586

> <r_epik_Charging_Adjusted_Penalty>
0.00399586

> <i_epik_Tot_Q>
0

> <i_epik_Tot_abs_Q>
0

> <r_epik_Metal_State_Penalty>
-0

> <b_epik_Metal_Only>
0

> <s_lp_Force_Field>
OPLS_2005

> <r_lp_Energy>
55.1206

> <b_lp_Chiralities_Consistent>
1

> <s_lp_Variant>
AV-unprocessed.smi:281-16

> <Gold.Version>
5.8.1

> <Gold.Id.Protein>
6NUR|6NUR_protein|mol2

> <Gold.PLP.Fitness>
38.7449

> <Gold.PLP.PLP>
-34.6596

> <Gold.PLP.part.hbond>
-2.7445

> <Gold.PLP.part.metal>
0.0000

> <Gold.PLP.part.buried>
-4.7804

> <Gold.PLP.part.nonpolar>
-28.0999

> <Gold.PLP.part.repulsive>
0.9065

> <Gold.PLP.ligand.clash>
0.0519

> <Gold.PLP.ligand.torsion>
0.7917

> <Gold.PLP.Chemscore.Hbond>
1.8539

> <Gold.PLP.Chemscore.CHOScore>
0.0000

> <Gold.PLP.Chemscore.Metal>
0.0000

> <Gold.Chemscore.Hbonds>
donor molecule, donor type, donor heavy atom, donor atom, acceptor molecule, acceptor atom, score
      P1  H  6896  6908       L1     8  0.07
      P1  H  6931  6943       L1    19  0.60
      P1  H  7989  7998       L1    28  1.00

> <Gold.PLP.Chemscore.Internal.Correction>
0.1588

> <Gold.Rescore>
     Score         DG    S(hbond)    S(metal)    S(lipo)     H(rot)  DE(clash)    DE(int)     intcor
      9.67     -13.05       0.49        0.00      96.58       2.09       0.84       2.53       ----

> <Gold.Chemscore.Fitness>
9.6732

> <Gold.Chemscore.DG>
-13.0452

> <Gold.Chemscore.ZeroCoef>
-5.4800

> <Gold.Chemscore.Hbond>
0.4859

> <Gold.Chemscore.Metal>
0.0000

> <Gold.Chemscore.Lipo>
96.5772

> <Gold.Chemscore.Internal_Hbond>
0.0000

> <Gold.Chemscore.DEClash>
0.8430

> <Gold.Chemscore.DEInternal>
2.5290

> <Gold.Chemscore.Rot>
2.0927

> <Gold.Chemscore.Internal.Correction>
   9.000000E+99

> <Gold.Chemscore.Hbonds>
donor molecule, donor type, donor heavy atom, donor atom, acceptor molecule, acceptor atom, score
      P1  H  6931  6943       L1    19  0.02
      P1  H  7989  7998       L1    28  0.15

> <Gold.Chemscore.Hbond.Weighted>
-1.6230

> <Gold.Chemscore.Metal.Weighted>
-0.0000

> <Gold.Chemscore.Lipo.Weighted>
-11.2995

> <Gold.Chemscore.Internal_Hbond.Weighted>
0.0000

> <Gold.Chemscore.DEClash.Weighted>
0.8430

> <Gold.Chemscore.DEInternal.Weighted>
2.5290

> <Gold.Chemscore.Rot.Weighted>
5.3573

> <Gold.Chemscore.Internal.Correction.Weighted>
   9.000000E+99

> <Gold.Protein.RotatedTorsions>
[ 6907 6896 6895 6894 ] final  147.99 input  -60.11 | X-H torsion
[ 7974 7965 7964 7962 ] final -112.40 input  175.53 | X-H torsion
[ 8008 7997 7996 7995 ] final  128.06 input   59.86 | X-H torsion
[ 10167 10162 10161 10158 ] final   25.16 input  -65.29 | X-H torsion
[ 10718 10713 10712 10709 ] final -139.06 input   66.30 | X-H torsion
[ 10763 10752 10751 10750 ] final -149.40 input  -60.55 | X-H torsion
[ 11005 11000 10999 10996 ] final  132.24 input  -57.11 | X-H torsion

> <Gold.Protein.ActiveResidues>
 VAL166  LYS551  ARG553  GLY616  TRP617  ASP618  TYR619  PRO620  LYS621  CYS622 
 ASP623  PHE694  ASN695  SER759  ASP760  ASP761  ALA762  ILE779  LEU786  VAL792 
 PHE793  MET794  SER795  GLU796  ALA797  LYS798  CYS799  TRP800  GLU811  SER814 

> <Gold.Protein.RotatedAtoms>
  152.1474  133.4501  159.4796 H   0  0  0  0  0  0  0  0  0  0  0  0  # atno 6907 bound_to 6896
  150.6892  134.2230  159.4413 H   0  0  0  0  0  0  0  0  0  0  0  0  # atno 6908 bound_to 6896
  152.0125  134.9868  160.0619 H   0  0  0  0  0  0  0  0  0  0  0  0  # atno 6909 bound_to 6896
  145.1444  140.8795  143.3683 H   0  0  0  0  0  0  0  0  0  0  0  0  # atno 7974 bound_to 7965
  156.2906  140.2654  156.2374 H   0  0  0  0  0  0  0  0  0  0  0  0  # atno 8008 bound_to 7997
  155.0011  140.0388  157.2379 H   0  0  0  0  0  0  0  0  0  0  0  0  # atno 8009 bound_to 7997
  154.7600  140.2759  155.6227 H   0  0  0  0  0  0  0  0  0  0  0  0  # atno 8010 bound_to 7997
  140.5129  144.0131  150.6380 H   0  0  0  0  0  0  0  0  0  0  0  0  # atno 10167 bound_to 10162
  156.3064  130.7457  151.1522 H   0  0  0  0  0  0  0  0  0  0  0  0  # atno 10718 bound_to 10713
  154.8179  135.3310  154.7123 H   0  0  0  0  0  0  0  0  0  0  0  0  # atno 10763 bound_to 10752
  153.7760  135.6922  153.4902 H   0  0  0  0  0  0  0  0  0  0  0  0  # atno 10764 bound_to 10752
  153.2012  135.4515  155.0217 H   0  0  0  0  0  0  0  0  0  0  0  0  # atno 10765 bound_to 10752
  139.9778  134.9558  156.9553 H   0  0  0  0  0  0  0  0  0  0  0  0  # atno 11005 bound_to 11000
  145.0497  139.3191  143.5935 LP  0  0  0  0  0  0  0  0  0  0  0  0  # atno 17320 bound_to 7965
  146.3501  139.9901  142.8686 LP  0  0  0  0  0  0  0  0  0  0  0  0  # atno 17321 bound_to 7965
  140.3458  143.2992  152.0539 LP  0  0  0  0  0  0  0  0  0  0  0  0  # atno 17342 bound_to 10162
  139.4901  144.6409  151.6878 LP  0  0  0  0  0  0  0  0  0  0  0  0  # atno 17343 bound_to 10162
  157.7380  131.0545  150.5318 LP  0  0  0  0  0  0  0  0  0  0  0  0  # atno 17370 bound_to 10713
  156.5452  130.4218  149.6134 LP  0  0  0  0  0  0  0  0  0  0  0  0  # atno 17371 bound_to 10713
  140.5159  134.0956  155.7280 LP  0  0  0  0  0  0  0  0  0  0  0  0  # atno 17394 bound_to 11000
  141.1453  133.9065  157.2229 LP  0  0  0  0  0  0  0  0  0  0  0  0  # atno 17395 bound_to 11000

$$$$
