AV-unprocessed.smi:2693|AV-procd|sdf|10402|dock6
  -GOLD-   2272014433D 1   1.00000     0.00000
 Structure written by MMmdl.
 45 47  0  0  0  0  0  0  0  0  1 V2000
  145.0009  131.5553  151.6773 C   0  0  0  0  0  0  0  0  0  0  0  0
  144.3764  132.6913  151.0054 N   0  0  0  0  0  0  0  0  0  0  0  0
  143.5408  132.4126  149.8410 C   0  0  0  0  0  0  0  0  0  0  0  0
  144.5654  133.9978  151.4652 C   0  0  0  0  0  0  0  0  0  0  0  0
  143.6216  134.8999  151.1657 N   0  0  0  0  0  0  0  0  0  0  0  0
  143.7973  136.1648  151.6036 C   0  0  0  0  0  0  0  0  0  0  0  0
  144.9349  136.5381  152.3585 C   0  0  0  0  0  0  0  0  0  0  0  0
  145.2102  137.8488  152.8327 N   0  0  0  0  0  0  0  0  0  0  0  0
  146.2126  138.2544  153.6301 C   0  0  0  0  0  0  0  0  0  0  0  0
  147.1371  137.5467  154.0285 O   0  0  0  0  0  0  0  0  0  0  0  0
  146.0915  139.5521  153.9392 N   0  0  0  0  0  0  0  0  0  0  0  0
  147.0159  140.2813  154.8013 C   0  0  1  0  0  0  0  0  0  0  0  0
  148.4155  140.4202  154.1823 C   0  0  2  0  0  0  0  0  0  0  0  0
  149.5920  139.7417  154.8299 C   0  0  0  0  0  0  0  0  0  0  0  0
  150.1843  140.8484  155.7072 C   0  0  0  0  0  0  0  0  0  0  0  0
  149.1105  141.7654  155.9052 O   0  0  0  0  0  0  0  0  0  0  0  0
  148.3949  141.8591  154.6757 C   0  0  2  0  0  0  0  0  0  0  0  0
  146.8548  141.8230  154.7658 C   0  0  0  0  0  0  0  0  0  0  0  0
  146.1396  142.4352  153.5524 C   0  0  0  0  0  0  0  0  0  0  0  0
  146.2401  142.4662  156.0099 C   0  0  0  0  0  0  0  0  0  0  0  0
  145.8674  135.5117  152.6078 C   0  0  0  0  0  0  0  0  0  0  0  0
  145.6791  134.2505  152.1657 N   0  0  0  0  0  0  0  0  0  0  0  0
  144.7077  131.5240  152.7272 H   0  0  0  0  0  0  0  0  0  0  0  0
  146.0870  131.6351  151.6255 H   0  0  0  0  0  0  0  0  0  0  0  0
  144.7136  130.6057  151.2257 H   0  0  0  0  0  0  0  0  0  0  0  0
  142.5117  132.7185  150.0305 H   0  0  0  0  0  0  0  0  0  0  0  0
  143.5329  131.3522  149.5888 H   0  0  0  0  0  0  0  0  0  0  0  0
  143.9061  132.9572  148.9698 H   0  0  0  0  0  0  0  0  0  0  0  0
  143.0271  136.8642  151.3188 H   0  0  0  0  0  0  0  0  0  0  0  0
  144.5723  138.5657  152.5190 H   0  0  0  0  0  0  0  0  0  0  0  0
  145.3071  140.0661  153.5656 H   0  0  0  0  0  0  0  0  0  0  0  0
  147.0627  139.8941  155.8219 H   0  0  0  0  0  0  0  0  0  0  0  0
  148.4025  140.3709  153.0920 H   0  0  0  0  0  0  0  0  0  0  0  0
  149.2678  138.8959  155.4372 H   0  0  0  0  0  0  0  0  0  0  0  0
  150.3174  139.3747  154.1031 H   0  0  0  0  0  0  0  0  0  0  0  0
  150.5718  140.4733  156.6545 H   0  0  0  0  0  0  0  0  0  0  0  0
  150.9946  141.3589  155.1845 H   0  0  0  0  0  0  0  0  0  0  0  0
  148.8214  142.5782  153.9746 H   0  0  0  0  0  0  0  0  0  0  0  0
  146.2827  143.5152  153.5103 H   0  0  0  0  0  0  0  0  0  0  0  0
  145.0652  142.2501  153.5809 H   0  0  0  0  0  0  0  0  0  0  0  0
  146.5142  142.0277  152.6132 H   0  0  0  0  0  0  0  0  0  0  0  0
  146.4004  143.5446  156.0241 H   0  0  0  0  0  0  0  0  0  0  0  0
  146.6725  142.0637  156.9262 H   0  0  0  0  0  0  0  0  0  0  0  0
  145.1651  142.2899  156.0606 H   0  0  0  0  0  0  0  0  0  0  0  0
  146.7733  135.7009  153.1650 H   0  0  0  0  0  0  0  0  0  0  0  0
  1  2  1  0  0  0  0
  1 23  1  0  0  0  0
  1 24  1  0  0  0  0
  1 25  1  0  0  0  0
  2  3  1  0  0  0  0
  2  4  1  0  0  0  0
  3 26  1  0  0  0  0
  3 27  1  0  0  0  0
  3 28  1  0  0  0  0
  4 22  1  0  0  0  0
  4  5  2  0  0  0  0
  5  6  1  0  0  0  0
  6  7  2  0  0  0  0
  6 29  1  0  0  0  0
  7  8  1  0  0  0  0
  7 21  1  0  0  0  0
  8  9  1  0  0  0  0
  8 30  1  0  0  0  0
  9 10  2  0  0  0  0
  9 11  1  0  0  0  0
 11 12  1  0  0  0  0
 11 31  1  0  0  0  0
 12 18  1  0  0  0  0
 12 13  1  0  0  0  0
 12 32  1  0  0  0  0
 13 17  1  0  0  0  0
 13 14  1  0  0  0  0
 13 33  1  0  0  0  0
 14 15  1  0  0  0  0
 14 34  1  0  0  0  0
 14 35  1  0  0  0  0
 15 16  1  0  0  0  0
 15 36  1  0  0  0  0
 15 37  1  0  0  0  0
 16 17  1  0  0  0  0
 17 18  1  0  0  0  0
 17 38  1  0  0  0  0
 18 19  1  0  0  0  0
 18 20  1  0  0  0  0
 19 39  1  0  0  0  0
 19 40  1  0  0  0  0
 19 41  1  0  0  0  0
 20 42  1  0  0  0  0
 20 43  1  0  0  0  0
 20 44  1  0  0  0  0
 21 22  2  0  0  0  0
 21 45  1  0  0  0  0
M  END
> <s_m_source_file>
AV-unprocessed.smi

> <i_m_source_file_index>
2693

> <i_lp_mmshare_version>
43012

> <i_f3d_flags>
0

> <s_epik_input>
W0NIM11OKFtDSDNdKWMxbltjSF1jKFtjSF1uMSlbTkhdQyg9TylbTkhdW0NASF0yQyhbQ0gzXSkoW0NIM10pW0NAQEhdKFtDQEhdMjMpT1tDSDJdW0NIMl0z

> <s_epik_cmdline>
J2VwaWtfcHl0aG9uJywgJy1waCcsICc3LjAnLCAnLXRuJywgJzgnLCAnLW1hJywgJzIwMCcsICctbWV0YWxfYmluZGluZycsICctaW1hZScsICc8aW5maWxlLm1hZT4nLCAnLW9tYWUnLCAnPG91dGZpbGUubWFlPic=

> <r_lp_tautomer_probability>
1

> <r_epik_Ionization_Penalty>
0.00031779

> <r_epik_Ionization_Penalty_Charging>
0

> <r_epik_Ionization_Penalty_Neutral>
0.00031779

> <r_epik_State_Penalty>
-0

> <r_epik_Charging_Adjusted_Penalty>
0

> <i_epik_Tot_Q>
0

> <i_epik_Tot_abs_Q>
0

> <r_epik_Metal_State_Penalty>
-0

> <b_epik_Metal_Only>
0

> <s_lp_Force_Field>
OPLS_2005

> <r_lp_Energy>
29.1856

> <b_lp_Chiralities_Consistent>
1

> <s_lp_Variant>
AV-unprocessed.smi:2693-6

> <Gold.Version>
5.8.1

> <Gold.Id.Protein>
6NUR|6NUR_protein|mol2

> <Gold.PLP.Fitness>
40.6949

> <Gold.PLP.PLP>
-31.4835

> <Gold.PLP.part.hbond>
-1.8675

> <Gold.PLP.part.metal>
0.0000

> <Gold.PLP.part.buried>
-2.3948

> <Gold.PLP.part.nonpolar>
-29.6166

> <Gold.PLP.part.repulsive>
2.2501

> <Gold.PLP.ligand.clash>
0.0000

> <Gold.PLP.ligand.torsion>
0.3652

> <Gold.PLP.Chemscore.Hbond>
1.8037

> <Gold.PLP.Chemscore.CHOScore>
1.4514

> <Gold.PLP.Chemscore.Metal>
0.0000

> <Gold.Chemscore.Hbonds>
donor molecule, donor type, donor heavy atom, donor atom, acceptor molecule, acceptor atom, score
      L1  H     8    30       P1 10175  0.86
      L1  H    11    31       P1 10175  1.00
      L1  C     6    29       P1 10171  0.66
      L1  C    21    45       P1  7948  0.66

> <Gold.PLP.Chemscore.Internal.Correction>
0.1762

> <Gold.Rescore>
     Score         DG    S(hbond)    S(metal)    S(lipo)     H(rot)  DE(clash)    DE(int)     intcor
     13.88     -17.83       1.68        0.00      79.52       1.00       2.41       1.54       ----

> <Gold.Chemscore.Fitness>
13.8814

> <Gold.Chemscore.DG>
-17.8293

> <Gold.Chemscore.ZeroCoef>
-5.4800

> <Gold.Chemscore.Hbond>
1.6784

> <Gold.Chemscore.Metal>
0.0000

> <Gold.Chemscore.Lipo>
79.5156

> <Gold.Chemscore.Internal_Hbond>
0.0000

> <Gold.Chemscore.DEClash>
2.4103

> <Gold.Chemscore.DEInternal>
1.5375

> <Gold.Chemscore.Rot>
1.0000

> <Gold.Chemscore.Internal.Correction>
   9.000000E+99

> <Gold.Chemscore.Hbonds>
donor molecule, donor type, donor heavy atom, donor atom, acceptor molecule, acceptor atom, score
      L1  H     8    30       P1 10175  0.83
      L1  H    11    31       P1 10175  0.96

> <Gold.Chemscore.Hbond.Weighted>
-5.6059

> <Gold.Chemscore.Metal.Weighted>
-0.0000

> <Gold.Chemscore.Lipo.Weighted>
-9.3033

> <Gold.Chemscore.Internal_Hbond.Weighted>
0.0000

> <Gold.Chemscore.DEClash.Weighted>
2.4103

> <Gold.Chemscore.DEInternal.Weighted>
1.5375

> <Gold.Chemscore.Rot.Weighted>
2.5600

> <Gold.Chemscore.Internal.Correction.Weighted>
   9.000000E+99

> <Gold.Protein.RotatedTorsions>
[ 6907 6896 6895 6894 ] final -170.17 input  -60.11 | X-H torsion
[ 7974 7965 7964 7962 ] final -170.28 input  175.53 | X-H torsion
[ 8008 7997 7996 7995 ] final -148.17 input   59.86 | X-H torsion
[ 10167 10162 10161 10158 ] final   41.33 input  -65.29 | X-H torsion
[ 10718 10713 10712 10709 ] final  -50.67 input   66.30 | X-H torsion
[ 10763 10752 10751 10750 ] final -160.64 input  -60.55 | X-H torsion
[ 11005 11000 10999 10996 ] final -151.22 input  -57.11 | X-H torsion

> <Gold.Protein.ActiveResidues>
 VAL166  LYS551  ARG553  GLY616  TRP617  ASP618  TYR619  PRO620  LYS621  CYS622 
 ASP623  PHE694  ASN695  SER759  ASP760  ASP761  ALA762  ILE779  LEU786  VAL792 
 PHE793  MET794  SER795  GLU796  ALA797  LYS798  CYS799  TRP800  GLU811  SER814 

> <Gold.Protein.RotatedAtoms>
  151.5033  133.3500  159.2872 H   0  0  0  0  0  0  0  0  0  0  0  0  # atno 6907 bound_to 6896
  150.8759  134.8143  159.7200 H   0  0  0  0  0  0  0  0  0  0  0  0  # atno 6908 bound_to 6896
  152.4730  134.4924  159.9751 H   0  0  0  0  0  0  0  0  0  0  0  0  # atno 6909 bound_to 6896
  144.7172  140.2096  143.6329 H   0  0  0  0  0  0  0  0  0  0  0  0  # atno 7974 bound_to 7965
  155.5873  140.0649  157.2768 H   0  0  0  0  0  0  0  0  0  0  0  0  # atno 8008 bound_to 7997
  154.4315  140.1841  156.1085 H   0  0  0  0  0  0  0  0  0  0  0  0  # atno 8009 bound_to 7997
  156.0259  140.3312  155.7091 H   0  0  0  0  0  0  0  0  0  0  0  0  # atno 8010 bound_to 7997
  140.3654  144.2174  150.6135 H   0  0  0  0  0  0  0  0  0  0  0  0  # atno 10167 bound_to 10162
  156.1779  130.4150  149.9549 H   0  0  0  0  0  0  0  0  0  0  0  0  # atno 10718 bound_to 10713
  154.7373  135.3060  154.8789 H   0  0  0  0  0  0  0  0  0  0  0  0  # atno 10763 bound_to 10752
  153.9614  135.6752  153.4749 H   0  0  0  0  0  0  0  0  0  0  0  0  # atno 10764 bound_to 10752
  153.0975  135.4928  154.8728 H   0  0  0  0  0  0  0  0  0  0  0  0  # atno 10765 bound_to 10752
  140.7319  134.3612  157.5165 H   0  0  0  0  0  0  0  0  0  0  0  0  # atno 11005 bound_to 11000
  145.8604  139.2220  143.1720 LP  0  0  0  0  0  0  0  0  0  0  0  0  # atno 17320 bound_to 7965
  146.0179  140.8375  142.9938 LP  0  0  0  0  0  0  0  0  0  0  0  0  # atno 17321 bound_to 7965
  140.5086  143.2297  151.8570 LP  0  0  0  0  0  0  0  0  0  0  0  0  # atno 17342 bound_to 10162
  139.4809  144.4976  151.9103 LP  0  0  0  0  0  0  0  0  0  0  0  0  # atno 17343 bound_to 10162
  156.7329  130.9050  151.3627 LP  0  0  0  0  0  0  0  0  0  0  0  0  # atno 17370 bound_to 10713
  157.6848  130.9175  150.0359 LP  0  0  0  0  0  0  0  0  0  0  0  0  # atno 17371 bound_to 10713
  139.8824  134.9024  156.2831 LP  0  0  0  0  0  0  0  0  0  0  0  0  # atno 17394 bound_to 11000
  140.9913  133.7207  156.0819 LP  0  0  0  0  0  0  0  0  0  0  0  0  # atno 17395 bound_to 11000

$$$$
