#       Name:                AV-unprocessed.smi:1381
#       Creating user name   scv26
#       Creation time:       Fri Mar 27 05:21:30 2020


#       File generated by GOLD software.
#

@<TRIPOS>MOLECULE
AV-unprocessed.smi:1381
    50    51     1
SMALL
NO_CHARGES


@<TRIPOS>ATOM
      1 ****        -3.3431   7.4145   1.9651 C.3            1 S1                 0.0000
      2 ****        -2.8878   6.0305   1.6522 C.2            1 S1                 0.0000
      3 ****        -2.6481   5.3726   0.4786 C.2            1 S1                 0.0000
      4 ****        -2.2392   4.0836   0.9126 C.2            1 S1                 0.0000
      5 ****        -1.8897   3.0769  -0.0234 N.am           1 S1                 0.0000
      6 ****        -1.4851   1.8224   0.2381 C.2            1 S1                 0.0000
      7 ****        -1.3473   1.3393   1.3624 O.2            1 S1                 0.0000
      8 ****        -1.2393   1.1418  -0.8909 N.am           1 S1                 0.0000
      9 ****        -0.7911  -0.2449  -0.9424 C.3            1 S1                 0.0000
     10 ****         0.7126  -0.3652  -0.6288 C.3            1 S1                 0.0000
     11 ****         1.1926  -1.7671  -0.7047 N.4            1 S1                 1.0000
     12 ****         2.6539  -1.8530  -0.9368 C.3            1 S1                 0.0000
     13 ****         3.1120  -3.3184  -1.0750 C.3            1 S1                 0.0000
     14 ****         2.7151  -3.9630  -2.4150 C.3            1 S1                 0.0000
     15 ****         2.6673  -4.0822   0.0461 O.3            1 S1                 0.0000
     16 ****         1.2612  -4.0457   0.2768 C.3            1 S1                 0.0000
     17 ****         0.9632  -4.9086   1.5081 C.3            1 S1                 0.0000
     18 ****         0.8114  -2.5865   0.4709 C.3            1 S1                 0.0000
     19 ****        -2.2313   3.9647   2.2314 N.2            1 S1                 0.0000
     20 ****        -2.6479   5.2117   2.7121 O.3            1 S1                 0.0000
     21 ****        -3.3049   8.0467   1.0778 H              1 S1                 0.0000
     22 ****        -2.7106   7.8669   2.7289 H              1 S1                 0.0000
     23 ****        -4.3687   7.4092   2.3339 H              1 S1                 0.0000
     24 ****        -2.7491   5.7557  -0.5260 H              1 S1                 0.0000
     25 ****        -1.9560   3.3415  -0.9951 H              1 S1                 0.0000
     26 ****        -1.3793   1.6120  -1.7734 H              1 S1                 0.0000
     27 ****        -1.3929  -0.8395  -0.2543 H              1 S1                 0.0000
     28 ****        -0.9931  -0.6297  -1.9424 H              1 S1                 0.0000
     29 ****         1.2574   0.2403  -1.3547 H              1 S1                 0.0000
     30 ****         0.9473   0.0483   0.3533 H              1 S1                 0.0000
     31 ****         2.9276  -1.2933  -1.8322 H              1 S1                 0.0000
     32 ****         3.1740  -1.3833  -0.1002 H              1 S1                 0.0000
     33 ****         4.2015  -3.3294  -1.0331 H              1 S1                 0.0000
     34 ****         3.1787  -3.4360  -3.2492 H              1 S1                 0.0000
     35 ****         1.6383  -3.9463  -2.5811 H              1 S1                 0.0000
     36 ****         3.0448  -5.0013  -2.4591 H              1 S1                 0.0000
     37 ****         0.7362  -4.4805  -0.5739 H              1 S1                 0.0000
     38 ****        -0.1042  -4.9227   1.7294 H              1 S1                 0.0000
     39 ****         1.4829  -4.5329   2.3899 H              1 S1                 0.0000
     40 ****         1.2821  -5.9387   1.3481 H              1 S1                 0.0000
     41 ****         1.2661  -2.1672   1.3702 H              1 S1                 0.0000
     42 ****        -0.2675  -2.5606   0.6194 H              1 S1                 0.0000
     43 ****         0.7515  -2.1811  -1.5135 H              1 S1                 0.0000
     44 ****        -1.5422   1.8931   2.1719 LP             1 S1                 0.0000
     45 ****        -1.0405   0.3931   1.4659 LP             1 S1                 0.0000
     46 ****         3.1254  -3.7311   0.8627 LP             1 S1                 0.0000
     47 ****         2.9333  -5.0348  -0.1017 LP             1 S1                 0.0000
     48 ****        -1.9818   3.1585   2.7679 LP             1 S1                 0.0000
     49 ****        -3.4844   5.1028   3.2492 LP             1 S1                 0.0000
     50 ****        -1.9316   5.6069   3.2872 LP             1 S1                 0.0000
@<TRIPOS>BOND
    1    1    2 1     
    2    1   21 1     
    3    1   22 1     
    4    1   23 1     
    5    2   20 1     
    6    2    3 2     
    7    3    4 1     
    8    3   24 1     
    9    4    5 1     
   10    4   19 2     
   11    5    6 am    
   12    5   25 1     
   13    6    7 2     
   14    6    8 am    
   15    8    9 1     
   16    8   26 1     
   17    9   10 1     
   18    9   27 1     
   19    9   28 1     
   20   10   11 1     
   21   10   29 1     
   22   10   30 1     
   23   11   18 1     
   24   11   12 1     
   25   11   43 1     
   26   12   13 1     
   27   12   31 1     
   28   12   32 1     
   29   13   14 1     
   30   13   15 1     
   31   13   33 1     
   32   14   34 1     
   33   14   35 1     
   34   14   36 1     
   35   15   16 1     
   36   16   17 1     
   37   16   18 1     
   38   16   37 1     
   39   17   38 1     
   40   17   39 1     
   41   17   40 1     
   42   18   41 1     
   43   18   42 1     
   44   19   20 1     
   45    7   44 1     
   46    7   45 1     
   47   15   46 1     
   48   15   47 1     
   49   19   48 1     
   50   20   49 1     
   51   20   50 1     
@<TRIPOS>SUBSTRUCTURE
      1 S1             1
@<TRIPOS>SET
LONE_PAIRS      STATIC     ATOMS    <user>   **** ""
7 44 45 46 47 48 49 50
DONOR_HYDROGENS      STATIC     ATOMS    <user>   **** ""
3 25 26 43
ATOM$BLUE        STATIC     ATOMS    COLORGROUP SYSTEM
7 44 45 46 47 48 49 50
ATOM$RED        STATIC     ATOMS    COLORGROUP SYSTEM
3 25 26 43
