#       Name:                AV-unprocessed.smi:311
#       Creating user name   scv26
#       Creation time:       Thu Mar 26 22:20:01 2020


#       File generated by GOLD software.
#

@<TRIPOS>MOLECULE
AV-unprocessed.smi:311
    49    51     1
SMALL
NO_CHARGES


@<TRIPOS>ATOM
      1 ****        -1.9022   4.1079  -2.6491 C.3            1 S1                 0.0000
      2 ****        -2.1049   2.6202  -2.6289 C.2            1 S1                 0.0000
      3 ****        -3.3318   2.1276  -2.6002 N.2            1 S1                 0.0000
      4 ****        -3.1866   0.7373  -2.5793 O.3            1 S1                 0.0000
      5 ****        -1.8619   0.4440  -2.5992 C.2            1 S1                 0.0000
      6 ****        -1.4993  -1.0021  -2.5666 C.3            1 S1                 0.0000
      7 ****        -1.1187   1.5925  -2.6321 C.2            1 S1                 0.0000
      8 ****         0.3802   1.7498  -2.6507 C.3            1 S1                 0.0000
      9 ****         0.9173   1.5542  -1.2342 C.2            1 S1                 0.0000
     10 ****         0.8760   2.4816  -0.4262 O.2            1 S1                 0.0000
     11 ****         1.3798   0.3306  -0.9360 N.am           1 S1                 0.0000
     12 ****         1.7965  -0.1074   0.3914 C.3            1 S1                 0.0000
     13 ****         2.8788  -1.2003   0.3578 C.3            1 S1                 0.0000
     14 ****         2.5334  -2.1514   1.5217 C.3            1 S1                 0.0000
     15 ****         1.3614  -1.5498   2.1874 N.4            1 S1                 1.0000
     16 ****         0.4699  -2.4607   2.9382 C.3            1 S1                 0.0000
     17 ****        -0.6418  -1.6376   3.6201 C.3            1 S1                 0.0000
     18 ****        -1.3867  -0.7364   2.6140 C.3            1 S1                 0.0000
     19 ****        -0.4003   0.1216   1.7986 C.3            1 S1                 0.0000
     20 ****         0.6541  -0.7887   1.1473 C.3            1 S1                 0.0000
     21 ****        -1.1147   4.4036  -1.9558 H              1 S1                 0.0000
     22 ****        -2.8086   4.6433  -2.3648 H              1 S1                 0.0000
     23 ****        -1.6137   4.4471  -3.6438 H              1 S1                 0.0000
     24 ****        -0.5386  -1.1744  -3.0516 H              1 S1                 0.0000
     25 ****        -2.2487  -1.6042  -3.0807 H              1 S1                 0.0000
     26 ****        -1.4273  -1.3560  -1.5383 H              1 S1                 0.0000
     27 ****         0.8481   1.0338  -3.3277 H              1 S1                 0.0000
     28 ****         0.6757   2.7379  -3.0048 H              1 S1                 0.0000
     29 ****         1.3814  -0.3642  -1.6690 H              1 S1                 0.0000
     30 ****         2.1740   0.7328   0.9786 H              1 S1                 0.0000
     31 ****         2.8579  -1.7508  -0.5839 H              1 S1                 0.0000
     32 ****         3.8759  -0.7714   0.4640 H              1 S1                 0.0000
     33 ****         2.2812  -3.1395   1.1336 H              1 S1                 0.0000
     34 ****         3.3588  -2.2646   2.2252 H              1 S1                 0.0000
     35 ****         0.0378  -3.1996   2.2616 H              1 S1                 0.0000
     36 ****         1.0478  -3.0053   3.6856 H              1 S1                 0.0000
     37 ****        -1.3470  -2.3030   4.1191 H              1 S1                 0.0000
     38 ****        -0.2021  -1.0154   4.4008 H              1 S1                 0.0000
     39 ****        -1.9723  -1.3584   1.9357 H              1 S1                 0.0000
     40 ****        -2.0977  -0.0962   3.1371 H              1 S1                 0.0000
     41 ****        -0.9406   0.6846   1.0368 H              1 S1                 0.0000
     42 ****         0.0828   0.8535   2.4473 H              1 S1                 0.0000
     43 ****         0.1567  -1.4960   0.4794 H              1 S1                 0.0000
     44 ****         1.7198  -0.8701   2.8431 H              1 S1                 0.0000
     45 ****        -4.1882   2.6439  -2.5946 LP             1 S1                 0.0000
     46 ****        -3.6326   0.3392  -3.3809 LP             1 S1                 0.0000
     47 ****        -3.6019   0.3669  -1.7485 LP             1 S1                 0.0000
     48 ****         0.4907   3.3638  -0.6969 LP             1 S1                 0.0000
     49 ****         1.2278   2.3530   0.5010 LP             1 S1                 0.0000
@<TRIPOS>BOND
    1    1    2 1     
    2    1   21 1     
    3    1   22 1     
    4    1   23 1     
    5    2    7 1     
    6    2    3 2     
    7    3    4 1     
    8    4    5 1     
    9    5    6 1     
   10    5    7 2     
   11    6   24 1     
   12    6   25 1     
   13    6   26 1     
   14    7    8 1     
   15    8    9 1     
   16    8   27 1     
   17    8   28 1     
   18    9   10 2     
   19    9   11 am    
   20   11   12 1     
   21   11   29 1     
   22   12   20 1     
   23   12   13 1     
   24   12   30 1     
   25   13   14 1     
   26   13   31 1     
   27   13   32 1     
   28   14   15 1     
   29   14   33 1     
   30   14   34 1     
   31   15   20 1     
   32   15   16 1     
   33   15   44 1     
   34   16   17 1     
   35   16   35 1     
   36   16   36 1     
   37   17   18 1     
   38   17   37 1     
   39   17   38 1     
   40   18   19 1     
   41   18   39 1     
   42   18   40 1     
   43   19   20 1     
   44   19   41 1     
   45   19   42 1     
   46   20   43 1     
   47    3   45 1     
   48    4   46 1     
   49    4   47 1     
   50   10   48 1     
   51   10   49 1     
@<TRIPOS>SUBSTRUCTURE
      1 S1             1
@<TRIPOS>SET
LONE_PAIRS      STATIC     ATOMS    <user>   **** ""
5 45 46 47 48 49
DONOR_HYDROGENS      STATIC     ATOMS    <user>   **** ""
2 29 44
ATOM$BLUE        STATIC     ATOMS    COLORGROUP SYSTEM
5 45 46 47 48 49
ATOM$RED        STATIC     ATOMS    COLORGROUP SYSTEM
2 29 44
