AV-unprocessed.smi:3101|AV-procd|sdf|11809|dock9
  -GOLD-   2272017183D 1   1.00000     0.00000
 Structure written by MMmdl.
 28 29  0  0  0  0  0  0  0  0  1 V2000
  152.5640  142.2809  160.7130 C   0  0  0  0  0  0  0  0  0  0  0  0
  152.1051  143.5364  159.9508 C   0  0  1  0  0  0  0  0  0  0  0  0
  153.1010  144.0585  158.9276 C   0  0  0  0  0  0  0  0  0  0  0  0
  152.2216  144.8317  157.9392 C   0  0  0  0  0  0  0  0  0  0  0  0
  150.8650  144.5483  158.2866 O   0  0  0  0  0  0  0  0  0  0  0  0
  150.7963  143.4181  159.1501 C   0  0  1  0  0  0  0  0  0  0  0  0
  150.6226  142.1431  158.2990 C   0  0  0  0  0  0  0  0  0  0  0  0
  150.7760  141.0289  158.8012 O   0  0  0  0  0  0  0  0  0  0  0  0
  150.3173  142.3534  157.0052 N   0  0  0  0  0  0  0  0  0  0  0  0
  150.0778  141.3887  155.9916 C   0  0  0  0  0  0  0  0  0  0  0  0
  149.3725  141.8526  154.8559 C   0  0  0  0  0  0  0  0  0  0  0  0
  149.0649  141.0527  153.8107 N   0  0  0  0  0  0  0  0  0  0  0  0
  149.4655  139.7664  153.8968 C   0  0  0  0  0  0  0  0  0  0  0  0
  150.1682  139.2861  155.0200 C   0  0  0  0  0  0  0  0  0  0  0  0
  150.4726  140.0913  156.0610 N   0  0  0  0  0  0  0  0  0  0  0  0
  152.8073  141.4580  160.0410 H   0  0  0  0  0  0  0  0  0  0  0  0
  151.7887  141.9360  161.3972 H   0  0  0  0  0  0  0  0  0  0  0  0
  153.4555  142.4928  161.3035 H   0  0  0  0  0  0  0  0  0  0  0  0
  151.9514  144.3260  160.6881 H   0  0  0  0  0  0  0  0  0  0  0  0
  153.8693  144.6854  159.3814 H   0  0  0  0  0  0  0  0  0  0  0  0
  153.6042  143.2367  158.4169 H   0  0  0  0  0  0  0  0  0  0  0  0
  152.3931  145.9064  158.0050 H   0  0  0  0  0  0  0  0  0  0  0  0
  152.4204  144.5217  156.9128 H   0  0  0  0  0  0  0  0  0  0  0  0
  149.9377  143.5263  159.8148 H   0  0  0  0  0  0  0  0  0  0  0  0
  150.2445  143.3177  156.7147 H   0  0  0  0  0  0  0  0  0  0  0  0
  149.0493  142.8809  154.7823 H   0  0  0  0  0  0  0  0  0  0  0  0
  149.2247  139.1176  153.0676 H   0  0  0  0  0  0  0  0  0  0  0  0
  150.4862  138.2560  155.0838 H   0  0  0  0  0  0  0  0  0  0  0  0
  1  2  1  0  0  0  0
  1 16  1  0  0  0  0
  1 17  1  0  0  0  0
  1 18  1  0  0  0  0
  2  6  1  0  0  0  0
  2  3  1  0  0  0  0
  2 19  1  0  0  0  0
  3  4  1  0  0  0  0
  3 20  1  0  0  0  0
  3 21  1  0  0  0  0
  4  5  1  0  0  0  0
  4 22  1  0  0  0  0
  4 23  1  0  0  0  0
  5  6  1  0  0  0  0
  6  7  1  0  0  0  0
  6 24  1  0  0  0  0
  7  8  2  0  0  0  0
  7  9  1  0  0  0  0
  9 10  1  0  0  0  0
  9 25  1  0  0  0  0
 10 15  1  0  0  0  0
 10 11  2  0  0  0  0
 11 12  1  0  0  0  0
 11 26  1  0  0  0  0
 12 13  2  0  0  0  0
 13 14  1  0  0  0  0
 13 27  1  0  0  0  0
 14 15  2  0  0  0  0
 14 28  1  0  0  0  0
M  END
> <s_m_source_file>
AV-unprocessed.smi

> <i_m_source_file_index>
3101

> <i_lp_mmshare_version>
43012

> <i_f3d_flags>
0

> <s_epik_input>
W0NIM11bQ0BASF0xW0NIMl1bQ0gyXU9bQ0BIXTFDKD1PKVtOSF1jMltjSF1uW2NIXVtjSF1uMg==

> <s_epik_cmdline>
J2VwaWtfcHl0aG9uJywgJy1waCcsICc3LjAnLCAnLXRuJywgJzgnLCAnLW1hJywgJzIwMCcsICctbWV0YWxfYmluZGluZycsICctaW1hZScsICc8aW5maWxlLm1hZT4nLCAnLW9tYWUnLCAnPG91dGZpbGUubWFlPic=

> <r_lp_tautomer_probability>
1

> <r_epik_Ionization_Penalty>
2.83174e-06

> <r_epik_Ionization_Penalty_Charging>
0

> <r_epik_Ionization_Penalty_Neutral>
2.83174e-06

> <r_epik_State_Penalty>
-0

> <r_epik_Charging_Adjusted_Penalty>
0

> <i_epik_Tot_Q>
0

> <i_epik_Tot_abs_Q>
0

> <r_epik_Metal_State_Penalty>
-0

> <b_epik_Metal_Only>
0

> <s_lp_Force_Field>
OPLS_2005

> <r_lp_Energy>
27.517

> <b_lp_Chiralities_Consistent>
1

> <s_lp_Variant>
AV-unprocessed.smi:3101-2

> <Gold.Version>
5.8.1

> <Gold.Id.Protein>
6NUR|6NUR_protein|mol2

> <Gold.PLP.Fitness>
35.3653

> <Gold.PLP.PLP>
-27.2230

> <Gold.PLP.part.hbond>
-2.8284

> <Gold.PLP.part.metal>
0.0000

> <Gold.PLP.part.buried>
1.6320

> <Gold.PLP.part.nonpolar>
-26.6518

> <Gold.PLP.part.repulsive>
2.2558

> <Gold.PLP.ligand.clash>
0.0000

> <Gold.PLP.ligand.torsion>
0.2816

> <Gold.PLP.Chemscore.Hbond>
1.1911

> <Gold.PLP.Chemscore.CHOScore>
1.7025

> <Gold.PLP.Chemscore.Metal>
0.0000

> <Gold.Chemscore.Hbonds>
donor molecule, donor type, donor heavy atom, donor atom, acceptor molecule, acceptor atom, score
      L1  H     9    25       P1  8028  0.47
      P1  H  8011  8017       L1    12  0.52
      L1  C    11    26       P1  8028  0.99
      L1  C    13    27       P1  7957  0.66

> <Gold.PLP.Chemscore.Internal.Correction>
0.0249

> <Gold.Rescore>
     Score         DG    S(hbond)    S(metal)    S(lipo)     H(rot)  DE(clash)    DE(int)     intcor
     10.75     -14.80       0.67        0.00      82.41       1.00       1.04       3.00       ----

> <Gold.Chemscore.Fitness>
10.7498

> <Gold.Chemscore.DG>
-14.7951

> <Gold.Chemscore.ZeroCoef>
-5.4800

> <Gold.Chemscore.Hbond>
0.6686

> <Gold.Chemscore.Metal>
0.0000

> <Gold.Chemscore.Lipo>
82.4102

> <Gold.Chemscore.Internal_Hbond>
0.0000

> <Gold.Chemscore.DEClash>
1.0422

> <Gold.Chemscore.DEInternal>
3.0031

> <Gold.Chemscore.Rot>
1.0000

> <Gold.Chemscore.Internal.Correction>
   9.000000E+99

> <Gold.Chemscore.Hbonds>
donor molecule, donor type, donor heavy atom, donor atom, acceptor molecule, acceptor atom, score
      L1  H     9    25       P1  8028  0.45
      P1  H  8011  8017       L1    12  0.06

> <Gold.Chemscore.Hbond.Weighted>
-2.2331

> <Gold.Chemscore.Metal.Weighted>
-0.0000

> <Gold.Chemscore.Lipo.Weighted>
-9.6420

> <Gold.Chemscore.Internal_Hbond.Weighted>
0.0000

> <Gold.Chemscore.DEClash.Weighted>
1.0422

> <Gold.Chemscore.DEInternal.Weighted>
3.0031

> <Gold.Chemscore.Rot.Weighted>
2.5600

> <Gold.Chemscore.Internal.Correction.Weighted>
   9.000000E+99

> <Gold.Protein.RotatedTorsions>
[ 6907 6896 6895 6894 ] final -110.22 input  -60.11 | X-H torsion
[ 7974 7965 7964 7962 ] final   56.94 input  175.53 | X-H torsion
[ 8008 7997 7996 7995 ] final  176.30 input   59.86 | X-H torsion
[ 10167 10162 10161 10158 ] final  -28.23 input  -65.29 | X-H torsion
[ 10718 10713 10712 10709 ] final   16.68 input   66.30 | X-H torsion
[ 10763 10752 10751 10750 ] final  142.56 input  -60.55 | X-H torsion
[ 11005 11000 10999 10996 ] final  150.03 input  -57.11 | X-H torsion

> <Gold.Protein.ActiveResidues>
 VAL166  LYS551  ARG553  GLY616  TRP617  ASP618  TYR619  PRO620  LYS621  CYS622 
 ASP623  PHE694  ASN695  SER759  ASP760  ASP761  ALA762  ILE779  LEU786  VAL792 
 PHE793  MET794  SER795  GLU796  ALA797  LYS798  CYS799  TRP800  GLU811  SER814 

> <Gold.Protein.RotatedAtoms>
  150.7611  133.9414  159.3456 H   0  0  0  0  0  0  0  0  0  0  0  0  # atno 6907 bound_to 6896
  151.7322  135.0870  160.0311 H   0  0  0  0  0  0  0  0  0  0  0  0  # atno 6908 bound_to 6896
  152.3582  133.6226  159.6031 H   0  0  0  0  0  0  0  0  0  0  0  0  # atno 6909 bound_to 6896
  145.9344  139.3834  143.0402 H   0  0  0  0  0  0  0  0  0  0  0  0  # atno 7974 bound_to 7965
  156.0780  140.1387  156.9748 H   0  0  0  0  0  0  0  0  0  0  0  0  # atno 8008 bound_to 7997
  154.4568  140.0958  156.6831 H   0  0  0  0  0  0  0  0  0  0  0  0  # atno 8009 bound_to 7997
  155.5122  140.3454  155.4393 H   0  0  0  0  0  0  0  0  0  0  0  0  # atno 8010 bound_to 7997
  140.7271  143.4027  151.1237 H   0  0  0  0  0  0  0  0  0  0  0  0  # atno 10167 bound_to 10162
  157.0713  130.6349  149.5806 H   0  0  0  0  0  0  0  0  0  0  0  0  # atno 10718 bound_to 10713
  153.9578  135.2963  155.3435 H   0  0  0  0  0  0  0  0  0  0  0  0  # atno 10763 bound_to 10752
  154.7391  135.5033  153.9095 H   0  0  0  0  0  0  0  0  0  0  0  0  # atno 10764 bound_to 10752
  153.0961  135.6721  153.9869 H   0  0  0  0  0  0  0  0  0  0  0  0  # atno 10765 bound_to 10752
  140.1096  134.8933  157.1916 H   0  0  0  0  0  0  0  0  0  0  0  0  # atno 11005 bound_to 11000
  145.8384  140.9594  143.0812 LP  0  0  0  0  0  0  0  0  0  0  0  0  # atno 17320 bound_to 7965
  144.6769  140.0252  143.7483 LP  0  0  0  0  0  0  0  0  0  0  0  0  # atno 17321 bound_to 7965
  139.7649  143.8579  152.3108 LP  0  0  0  0  0  0  0  0  0  0  0  0  # atno 17342 bound_to 10162
  139.8478  144.7179  150.9251 LP  0  0  0  0  0  0  0  0  0  0  0  0  # atno 17343 bound_to 10162
  155.9949  130.5015  150.7440 LP  0  0  0  0  0  0  0  0  0  0  0  0  # atno 17370 bound_to 10713
  157.4875  131.0908  151.0465 LP  0  0  0  0  0  0  0  0  0  0  0  0  # atno 17371 bound_to 10713
  140.3109  134.3024  155.7267 LP  0  0  0  0  0  0  0  0  0  0  0  0  # atno 17394 bound_to 11000
  141.2127  133.7650  156.9776 LP  0  0  0  0  0  0  0  0  0  0  0  0  # atno 17395 bound_to 11000

$$$$
