AV-unprocessed.smi:113|AV-procd|sdf|1093|dock3
  -GOLD-   2262018193D 1   1.00000     0.00000
 Structure written by MMmdl.
 52 55  0  0  0  0  0  0  0  0  1 V2000
  153.8621  138.1523  160.7668 C   0  0  0  0  0  0  0  0  0  0  0  0
  153.0759  139.3197  160.2074 C   0  0  0  0  0  0  0  0  0  0  0  0
  152.1288  139.1222  159.1873 C   0  0  0  0  0  0  0  0  0  0  0  0
  151.4106  140.2347  158.6924 C   0  0  0  0  0  0  0  0  0  0  0  0
  150.3691  140.0740  157.5790 C   0  0  0  0  0  0  0  0  0  0  0  0
  150.5594  138.9643  156.6551 N   0  0  0  0  0  0  0  0  0  0  0  0
  151.5656  139.0929  155.6670 C   0  0  0  0  0  0  0  0  0  0  0  0
  152.2524  140.1127  155.5732 O   0  0  0  0  0  0  0  0  0  0  0  0
  151.7339  137.9276  154.7959 C   0  0  0  0  0  0  0  0  0  0  0  0
  152.8004  137.9894  153.7138 C   0  0  0  0  0  0  0  0  0  0  0  0
  150.9527  136.8354  154.9751 C   0  0  0  0  0  0  0  0  0  0  0  0
  149.9696  136.7363  155.9443 N   0  0  0  0  0  0  0  0  0  0  0  0
  149.1973  135.4401  156.0856 C   0  0  2  0  0  0  0  0  0  0  0  0
  150.0647  134.2478  156.5046 C   0  0  0  0  0  0  0  0  0  0  0  0
  149.3831  133.1201  155.7578 C   0  0  2  0  0  0  0  0  0  0  0  0
  150.2783  132.0514  155.5286 O   0  0  0  0  0  0  0  0  0  0  0  0
  148.9402  133.8004  154.4583 C   0  0  1  0  0  0  0  0  0  0  0  0
  147.7249  133.1277  153.8018 C   0  0  0  0  0  0  0  0  0  0  0  0
  147.2429  133.9245  152.7409 O   0  0  0  0  0  0  0  0  0  0  0  0
  148.6000  135.1281  154.8611 O   0  0  0  0  0  0  0  0  0  0  0  0
  149.7672  137.8089  156.8418 C   0  0  0  0  0  0  0  0  0  0  0  0
  148.9471  137.7317  157.7585 O   0  0  0  0  0  0  0  0  0  0  0  0
  151.6840  141.5085  159.2602 C   0  0  0  0  0  0  0  0  0  0  0  0
  151.0063  142.6730  158.8252 C   0  0  0  0  0  0  0  0  0  0  0  0
  151.2944  143.9249  159.3970 C   0  0  0  0  0  0  0  0  0  0  0  0
  152.2617  144.0261  160.4103 C   0  0  0  0  0  0  0  0  0  0  0  0
  152.9373  142.8738  160.8503 C   0  0  0  0  0  0  0  0  0  0  0  0
  152.6645  141.6069  160.2912 C   0  0  0  0  0  0  0  0  0  0  0  0
  153.3367  140.5267  160.7459 N   0  0  0  0  0  0  0  0  0  0  0  0
  153.9949  137.3778  160.0108 H   0  0  0  0  0  0  0  0  0  0  0  0
  153.3342  137.7165  161.6153 H   0  0  0  0  0  0  0  0  0  0  0  0
  154.8507  138.4683  161.1021 H   0  0  0  0  0  0  0  0  0  0  0  0
  151.9670  138.1269  158.8021 H   0  0  0  0  0  0  0  0  0  0  0  0
  149.3715  139.9725  158.0090 H   0  0  0  0  0  0  0  0  0  0  0  0
  150.3125  140.9854  156.9824 H   0  0  0  0  0  0  0  0  0  0  0  0
  152.8368  137.0716  153.1262 H   0  0  0  0  0  0  0  0  0  0  0  0
  153.7855  138.1399  154.1573 H   0  0  0  0  0  0  0  0  0  0  0  0
  152.6024  138.8154  153.0296 H   0  0  0  0  0  0  0  0  0  0  0  0
  151.1091  135.9927  154.3169 H   0  0  0  0  0  0  0  0  0  0  0  0
  148.4010  135.6316  156.8054 H   0  0  0  0  0  0  0  0  0  0  0  0
  151.0958  134.3730  156.1757 H   0  0  0  0  0  0  0  0  0  0  0  0
  150.0586  134.1210  157.5874 H   0  0  0  0  0  0  0  0  0  0  0  0
  148.5178  132.7710  156.3235 H   0  0  0  0  0  0  0  0  0  0  0  0
  150.1473  131.7338  154.6480 H   0  0  0  0  0  0  0  0  0  0  0  0
  149.7827  133.8434  153.7659 H   0  0  0  0  0  0  0  0  0  0  0  0
  148.0124  132.1641  153.3801 H   0  0  0  0  0  0  0  0  0  0  0  0
  146.9336  132.9404  154.5280 H   0  0  0  0  0  0  0  0  0  0  0  0
  147.8042  134.6796  152.6529 H   0  0  0  0  0  0  0  0  0  0  0  0
  150.2565  142.6300  158.0504 H   0  0  0  0  0  0  0  0  0  0  0  0
  150.7723  144.8074  159.0576 H   0  0  0  0  0  0  0  0  0  0  0  0
  152.4855  144.9863  160.8512 H   0  0  0  0  0  0  0  0  0  0  0  0
  153.6783  142.9642  161.6311 H   0  0  0  0  0  0  0  0  0  0  0  0
  1  2  1  0  0  0  0
  1 30  1  0  0  0  0
  1 31  1  0  0  0  0
  1 32  1  0  0  0  0
  2 29  1  0  0  0  0
  2  3  2  0  0  0  0
  3  4  1  0  0  0  0
  3 33  1  0  0  0  0
  4  5  1  0  0  0  0
  4 23  2  0  0  0  0
  5  6  1  0  0  0  0
  5 34  1  0  0  0  0
  5 35  1  0  0  0  0
  6 21  1  0  0  0  0
  6  7  1  0  0  0  0
  7  8  2  0  0  0  0
  7  9  1  0  0  0  0
  9 10  1  0  0  0  0
  9 11  2  0  0  0  0
 10 36  1  0  0  0  0
 10 37  1  0  0  0  0
 10 38  1  0  0  0  0
 11 12  1  0  0  0  0
 11 39  1  0  0  0  0
 12 13  1  0  0  0  0
 12 21  1  0  0  0  0
 13 20  1  0  0  0  0
 13 14  1  0  0  0  0
 13 40  1  0  0  0  0
 14 15  1  0  0  0  0
 14 41  1  0  0  0  0
 14 42  1  0  0  0  0
 15 16  1  0  0  0  0
 15 17  1  0  0  0  0
 15 43  1  0  0  0  0
 16 44  1  0  0  0  0
 17 18  1  0  0  0  0
 17 20  1  0  0  0  0
 17 45  1  0  0  0  0
 18 19  1  0  0  0  0
 18 46  1  0  0  0  0
 18 47  1  0  0  0  0
 19 48  1  0  0  0  0
 21 22  2  0  0  0  0
 23 28  1  0  0  0  0
 23 24  1  0  0  0  0
 24 25  2  0  0  0  0
 24 49  1  0  0  0  0
 25 26  1  0  0  0  0
 25 50  1  0  0  0  0
 26 27  2  0  0  0  0
 26 51  1  0  0  0  0
 27 28  1  0  0  0  0
 27 52  1  0  0  0  0
 28 29  2  0  0  0  0
M  END
> <s_m_source_file>
AV-unprocessed.smi

> <i_m_source_file_index>
113

> <i_lp_mmshare_version>
43012

> <i_f3d_flags>
0

> <s_epik_input>
W2NIXTFbY0hdW2NIXVtjSF1jKGMxMiluYyhbQ0gzXSlbY0hdYzJbQ0gyXW4zYyg9TyljKFtDSDNdKVtjSF1uKGMzPU8pW0NAQEhdNFtDSDJdW0NAQEhdKFtPSF0pW0NASF0oTzQpW0NIMl1bT0hd

> <s_epik_cmdline>
J2VwaWtfcHl0aG9uJywgJy1waCcsICc3LjAnLCAnLXRuJywgJzgnLCAnLW1hJywgJzIwMCcsICctbWV0YWxfYmluZGluZycsICctaW1hZScsICc8aW5maWxlLm1hZT4nLCAnLW9tYWUnLCAnPG91dGZpbGUubWFlPic=

> <r_lp_tautomer_probability>
1

> <r_epik_Ionization_Penalty>
0.214728

> <r_epik_Ionization_Penalty_Charging>
3.04883e-08

> <r_epik_Ionization_Penalty_Neutral>
0.214728

> <r_epik_State_Penalty>
0.204913

> <r_epik_Charging_Adjusted_Penalty>
0.204913

> <i_epik_Tot_Q>
0

> <i_epik_Tot_abs_Q>
0

> <r_epik_Metal_State_Penalty>
0.000244761

> <b_epik_Metal_Only>
0

> <s_epik_Chemistry_Notes>
This compound contains an acetal/aminal-like group ( X-CH(R)-Y where X, Y are N, S, or O) that may be acid/base labile, releasing an aldehyde.

> <s_lp_Force_Field>
OPLS_2005

> <r_lp_Energy>
34.9534

> <b_lp_Chiralities_Consistent>
1

> <s_lp_Variant>
AV-unprocessed.smi:113-3

> <Gold.Version>
5.8.1

> <Gold.Id.Protein>
6NUR|6NUR_protein|mol2

> <Gold.PLP.Fitness>
49.0846

> <Gold.PLP.PLP>
-40.5947

> <Gold.PLP.part.hbond>
-2.8591

> <Gold.PLP.part.metal>
0.0000

> <Gold.PLP.part.buried>
-4.5225

> <Gold.PLP.part.nonpolar>
-33.9719

> <Gold.PLP.part.repulsive>
1.1318

> <Gold.PLP.ligand.clash>
0.0000

> <Gold.PLP.ligand.torsion>
0.6986

> <Gold.PLP.Chemscore.Hbond>
2.4048

> <Gold.PLP.Chemscore.CHOScore>
0.8715

> <Gold.PLP.Chemscore.Metal>
0.0000

> <Gold.Chemscore.Hbonds>
donor molecule, donor type, donor heavy atom, donor atom, acceptor molecule, acceptor atom, score
      L1  H    19    48       P1  7948  0.96
      P1  H  7989  7998       L1     8  0.26
      P1  H  7997  8009       L1     8  0.62
      L1  C    11    39       P1  7949  0.27

> <Gold.PLP.Chemscore.Internal.Correction>
0.0584

> <Gold.Rescore>
     Score         DG    S(hbond)    S(metal)    S(lipo)     H(rot)  DE(clash)    DE(int)     intcor
     15.46     -20.02       1.97        0.00     132.42       2.95       3.93       0.63       ----

> <Gold.Chemscore.Fitness>
15.4562

> <Gold.Chemscore.DG>
-20.0159

> <Gold.Chemscore.ZeroCoef>
-5.4800

> <Gold.Chemscore.Hbond>
1.9720

> <Gold.Chemscore.Metal>
0.0000

> <Gold.Chemscore.Lipo>
132.4227

> <Gold.Chemscore.Internal_Hbond>
0.0000

> <Gold.Chemscore.DEClash>
3.9317

> <Gold.Chemscore.DEInternal>
0.6280

> <Gold.Chemscore.Rot>
2.9469

> <Gold.Chemscore.Internal.Correction>
   9.000000E+99

> <Gold.Chemscore.Hbonds>
donor molecule, donor type, donor heavy atom, donor atom, acceptor molecule, acceptor atom, score
      L1  H    19    48       P1  7948  0.74
      P1  H  7989  7998       L1     8  0.09
      P1  H  7997  8009       L1     8  0.62

> <Gold.Chemscore.Hbond.Weighted>
-6.5864

> <Gold.Chemscore.Metal.Weighted>
-0.0000

> <Gold.Chemscore.Lipo.Weighted>
-15.4935

> <Gold.Chemscore.Internal_Hbond.Weighted>
0.0000

> <Gold.Chemscore.DEClash.Weighted>
3.9317

> <Gold.Chemscore.DEInternal.Weighted>
0.6280

> <Gold.Chemscore.Rot.Weighted>
7.5439

> <Gold.Chemscore.Internal.Correction.Weighted>
   9.000000E+99

> <Gold.Protein.RotatedTorsions>
[ 6907 6896 6895 6894 ] final -166.31 input  -60.11 | X-H torsion
[ 7974 7965 7964 7962 ] final  -64.59 input  175.53 | X-H torsion
[ 8008 7997 7996 7995 ] final -143.15 input   59.86 | X-H torsion
[ 10167 10162 10161 10158 ] final   82.01 input  -65.29 | X-H torsion
[ 10718 10713 10712 10709 ] final    6.55 input   66.30 | X-H torsion
[ 10763 10752 10751 10750 ] final   53.24 input  -60.55 | X-H torsion
[ 11005 11000 10999 10996 ] final  -89.34 input  -57.11 | X-H torsion

> <Gold.Protein.ActiveResidues>
 VAL166  LYS551  ARG553  GLY616  TRP617  ASP618  TYR619  PRO620  LYS621  CYS622 
 ASP623  PHE694  ASN695  SER759  ASP760  ASP761  ALA762  ILE779  LEU786  VAL792 
 PHE793  MET794  SER795  GLU796  ALA797  LYS798  CYS799  TRP800  GLU811  SER814 

> <Gold.Protein.RotatedAtoms>
  151.4416  133.3642  159.2782 H   0  0  0  0  0  0  0  0  0  0  0  0  # atno 6907 bound_to 6896
  150.9153  134.8572  159.7464 H   0  0  0  0  0  0  0  0  0  0  0  0  # atno 6908 bound_to 6896
  152.4954  134.4349  159.9576 H   0  0  0  0  0  0  0  0  0  0  0  0  # atno 6909 bound_to 6896
  145.7648  140.8843  143.0411 H   0  0  0  0  0  0  0  0  0  0  0  0  # atno 7974 bound_to 7965
  155.5059  140.0579  157.2931 H   0  0  0  0  0  0  0  0  0  0  0  0  # atno 8008 bound_to 7997
  154.4570  140.1977  156.0302 H   0  0  0  0  0  0  0  0  0  0  0  0  # atno 8009 bound_to 7997
  156.0817  140.3246  155.7706 H   0  0  0  0  0  0  0  0  0  0  0  0  # atno 8010 bound_to 7997
  139.9333  144.6138  150.8324 H   0  0  0  0  0  0  0  0  0  0  0  0  # atno 10167 bound_to 10162
  156.9238  130.5800  149.5648 H   0  0  0  0  0  0  0  0  0  0  0  0  # atno 10718 bound_to 10713
  152.9794  135.5785  154.4709 H   0  0  0  0  0  0  0  0  0  0  0  0  # atno 10763 bound_to 10752
  154.4271  135.2773  155.1939 H   0  0  0  0  0  0  0  0  0  0  0  0  # atno 10764 bound_to 10752
  154.3663  135.6177  153.5770 H   0  0  0  0  0  0  0  0  0  0  0  0  # atno 10765 bound_to 10752
  141.1586  133.7624  156.9581 H   0  0  0  0  0  0  0  0  0  0  0  0  # atno 11005 bound_to 11000
  144.6823  139.9773  143.7483 LP  0  0  0  0  0  0  0  0  0  0  0  0  # atno 17320 bound_to 7965
  146.0228  139.3266  143.0802 LP  0  0  0  0  0  0  0  0  0  0  0  0  # atno 17321 bound_to 7965
  140.7631  143.3216  151.2610 LP  0  0  0  0  0  0  0  0  0  0  0  0  # atno 17342 bound_to 10162
  139.6764  143.9930  152.2784 LP  0  0  0  0  0  0  0  0  0  0  0  0  # atno 17343 bound_to 10162
  156.0479  130.5552  150.8922 LP  0  0  0  0  0  0  0  0  0  0  0  0  # atno 17370 bound_to 10713
  157.5891  131.0945  150.9148 LP  0  0  0  0  0  0  0  0  0  0  0  0  # atno 17371 bound_to 10713
  140.1211  134.9416  157.2205 LP  0  0  0  0  0  0  0  0  0  0  0  0  # atno 17394 bound_to 11000
  140.3070  134.3066  155.7275 LP  0  0  0  0  0  0  0  0  0  0  0  0  # atno 17395 bound_to 11000

$$$$
