AV-unprocessed.smi:3096|AV-procd|sdf|11796|dock8
  -GOLD-   2272017173D 1   1.00000     0.00000
 Structure written by MMmdl.
 33 33  0  0  0  0  0  0  0  0  2 V2000
  144.5568  133.6848  150.1132 C   0  0  0  0  0  0  0  0  0  0  0  0
  145.6681  133.5843  150.8572 C   0  0  0  0  0  0  0  0  0  0  0  0
  145.9773  134.4598  152.0513 C   0  0  0  0  0  0  0  0  0  0  0  0
  144.9108  135.4573  152.1993 N   0  0  0  0  0  0  0  0  0  0  0  0
  145.0791  136.7941  152.2128 C   0  0  0  0  0  0  0  0  0  0  0  0
  146.3135  137.3206  152.0906 N   0  3  0  0  0  0  0  0  0  0  0  0
  146.6353  138.7527  152.0906 C   0  0  0  0  0  0  0  0  0  0  0  0
  144.0112  137.6046  152.3484 N   0  0  0  0  0  0  0  0  0  0  0  0
  142.6160  137.1637  152.4767 C   0  0  0  0  0  0  0  0  0  0  0  0
  142.0782  137.4198  153.8906 C   0  0  0  0  0  0  0  0  0  0  0  0
  140.6296  137.3705  153.9260 N   0  0  0  0  0  0  0  0  0  0  0  0
  139.7258  138.1542  153.2397 C   0  0  0  0  0  0  0  0  0  0  0  0
  138.4752  137.7372  153.5955 C   0  0  0  0  0  0  0  0  0  0  0  0
  138.7201  136.6785  154.5144 C   0  0  0  0  0  0  0  0  0  0  0  0
  140.0108  136.4614  154.7099 N   0  0  0  0  0  0  0  0  0  0  0  0
  143.7952  134.4174  150.3364 H   0  0  0  0  0  0  0  0  0  0  0  0
  144.3949  133.0320  149.2679 H   0  0  0  0  0  0  0  0  0  0  0  0
  146.4089  132.8407  150.6003 H   0  0  0  0  0  0  0  0  0  0  0  0
  146.0315  133.8424  152.9482 H   0  0  0  0  0  0  0  0  0  0  0  0
  146.9388  134.9584  151.9237 H   0  0  0  0  0  0  0  0  0  0  0  0
  143.9719  135.0963  152.2911 H   0  0  0  0  0  0  0  0  0  0  0  0
  147.7104  138.8964  151.9821 H   0  0  0  0  0  0  0  0  0  0  0  0
  146.3179  139.2143  153.0257 H   0  0  0  0  0  0  0  0  0  0  0  0
  146.1342  139.2566  151.2640 H   0  0  0  0  0  0  0  0  0  0  0  0
  144.1682  138.6025  152.3486 H   0  0  0  0  0  0  0  0  0  0  0  0
  142.0136  137.6975  151.7409 H   0  0  0  0  0  0  0  0  0  0  0  0
  142.5536  136.1017  152.2375 H   0  0  0  0  0  0  0  0  0  0  0  0
  142.4686  136.6758  154.5863 H   0  0  0  0  0  0  0  0  0  0  0  0
  142.4018  138.3961  154.2548 H   0  0  0  0  0  0  0  0  0  0  0  0
  140.0433  138.9349  152.5637 H   0  0  0  0  0  0  0  0  0  0  0  0
  137.5289  138.1279  153.2516 H   0  0  0  0  0  0  0  0  0  0  0  0
  138.0034  136.0661  155.0420 H   0  0  0  0  0  0  0  0  0  0  0  0
  147.0932  136.6867  151.9872 H   0  0  0  0  0  0  0  0  0  0  0  0
  1  2  2  0  0  0  0
  1 16  1  0  0  0  0
  1 17  1  0  0  0  0
  2  3  1  0  0  0  0
  2 18  1  0  0  0  0
  3  4  1  0  0  0  0
  3 19  1  0  0  0  0
  3 20  1  0  0  0  0
  4  5  1  0  0  0  0
  4 21  1  0  0  0  0
  5  6  2  0  0  0  0
  5  8  1  0  0  0  0
  6  7  1  0  0  0  0
  6 33  1  0  0  0  0
  7 22  1  0  0  0  0
  7 23  1  0  0  0  0
  7 24  1  0  0  0  0
  8  9  1  0  0  0  0
  8 25  1  0  0  0  0
  9 10  1  0  0  0  0
  9 26  1  0  0  0  0
  9 27  1  0  0  0  0
 10 11  1  0  0  0  0
 10 28  1  0  0  0  0
 10 29  1  0  0  0  0
 11 15  1  0  0  0  0
 11 12  1  0  0  0  0
 12 13  2  0  0  0  0
 12 30  1  0  0  0  0
 13 14  1  0  0  0  0
 13 31  1  0  0  0  0
 14 15  2  0  0  0  0
 14 32  1  0  0  0  0
M  CHG  1   6   1
M  END
> <s_m_source_file>
AV-unprocessed.smi

> <i_m_source_file_index>
3096

> <i_lp_mmshare_version>
43012

> <i_f3d_flags>
0

> <s_epik_input>
W0NIMl09W0NIXVtDSDJdW05IXS9DKD1OL1tDSDNdKVtOSF1bQ0gyXVtDSDJdbjFbY0hdW2NIXVtjSF1uMQ==

> <s_epik_cmdline>
J2VwaWtfcHl0aG9uJywgJy1waCcsICc3LjAnLCAnLXRuJywgJzgnLCAnLW1hJywgJzIwMCcsICctbWV0YWxfYmluZGluZycsICctaW1hZScsICc8aW5maWxlLm1hZT4nLCAnLW9tYWUnLCAnPG91dGZpbGUubWFlPic=

> <r_lp_tautomer_probability>
1

> <r_epik_Ionization_Penalty>
5.14269e-05

> <r_epik_Ionization_Penalty_Charging>
1.55211e-07

> <r_epik_Ionization_Penalty_Neutral>
5.12717e-05

> <r_epik_State_Penalty>
-0

> <r_epik_Charging_Adjusted_Penalty>
1.55211e-07

> <i_epik_Tot_Q>
1

> <i_epik_Tot_abs_Q>
1

> <r_epik_Metal_State_Penalty>
-0

> <b_epik_Metal_Only>
0

> <s_epik_Chemistry_Notes>
This compound has an imine and may undergo hydrolysis.

> <s_lp_Force_Field>
OPLS_2005

> <r_lp_Energy>
4.847

> <b_lp_Chiralities_Consistent>
1

> <s_lp_Variant>
AV-unprocessed.smi:3096-1

> <Gold.Version>
5.8.1

> <Gold.Id.Protein>
6NUR|6NUR_protein|mol2

> <Gold.PLP.Fitness>
46.7099

> <Gold.PLP.PLP>
-28.9694

> <Gold.PLP.part.hbond>
-4.0000

> <Gold.PLP.part.metal>
0.0000

> <Gold.PLP.part.buried>
-6.4648

> <Gold.PLP.part.nonpolar>
-20.4900

> <Gold.PLP.part.repulsive>
0.1434

> <Gold.PLP.ligand.clash>
0.0000

> <Gold.PLP.ligand.torsion>
0.1272

> <Gold.PLP.Chemscore.Hbond>
4.9913

> <Gold.PLP.Chemscore.CHOScore>
1.0000

> <Gold.PLP.Chemscore.Metal>
0.0000

> <Gold.Chemscore.Hbonds>
donor molecule, donor type, donor heavy atom, donor atom, acceptor molecule, acceptor atom, score
      L1  H     6    33       P1  7948  2.00
      L1  H     8    25       P1 10175  2.00
      P1  H 11000 11005       L1    15  0.70
      L1  C    12    30       P1 10160  1.00

> <Gold.PLP.Chemscore.Internal.Correction>
0.0211

> <Gold.Rescore>
     Score         DG    S(hbond)    S(metal)    S(lipo)     H(rot)  DE(clash)    DE(int)     intcor
     15.22     -15.44       2.52        0.00      54.45       1.89       0.04       0.18       ----

> <Gold.Chemscore.Fitness>
15.2244

> <Gold.Chemscore.DG>
-15.4399

> <Gold.Chemscore.ZeroCoef>
-5.4800

> <Gold.Chemscore.Hbond>
2.5224

> <Gold.Chemscore.Metal>
0.0000

> <Gold.Chemscore.Lipo>
54.4549

> <Gold.Chemscore.Internal_Hbond>
0.0000

> <Gold.Chemscore.DEClash>
0.0354

> <Gold.Chemscore.DEInternal>
0.1801

> <Gold.Chemscore.Rot>
1.8891

> <Gold.Chemscore.Internal.Correction>
   9.000000E+99

> <Gold.Chemscore.Hbonds>
donor molecule, donor type, donor heavy atom, donor atom, acceptor molecule, acceptor atom, score
      L1  H     6    33       P1  7948  0.98
      L1  H     8    25       P1 10175  0.98
      P1  H 11000 11005       L1    15  0.21

> <Gold.Chemscore.Hbond.Weighted>
-8.4247

> <Gold.Chemscore.Metal.Weighted>
-0.0000

> <Gold.Chemscore.Lipo.Weighted>
-6.3712

> <Gold.Chemscore.Internal_Hbond.Weighted>
0.0000

> <Gold.Chemscore.DEClash.Weighted>
0.0354

> <Gold.Chemscore.DEInternal.Weighted>
0.1801

> <Gold.Chemscore.Rot.Weighted>
4.8361

> <Gold.Chemscore.Internal.Correction.Weighted>
   9.000000E+99

> <Gold.Protein.RotatedTorsions>
[ 6907 6896 6895 6894 ] final -149.58 input  -60.11 | X-H torsion
[ 7974 7965 7964 7962 ] final  176.75 input  175.53 | X-H torsion
[ 8008 7997 7996 7995 ] final  -88.94 input   59.86 | X-H torsion
[ 10167 10162 10161 10158 ] final -161.73 input  -65.29 | X-H torsion
[ 10718 10713 10712 10709 ] final -152.47 input   66.30 | X-H torsion
[ 10763 10752 10751 10750 ] final   82.82 input  -60.55 | X-H torsion
[ 11005 11000 10999 10996 ] final   72.69 input  -57.11 | X-H torsion

> <Gold.Protein.ActiveResidues>
 VAL166  LYS551  ARG553  GLY616  TRP617  ASP618  TYR619  PRO620  LYS621  CYS622 
 ASP623  PHE694  ASN695  SER759  ASP760  ASP761  ALA762  ILE779  LEU786  VAL792 
 PHE793  MET794  SER795  GLU796  ALA797  LYS798  CYS799  TRP800  GLU811  SER814 

> <Gold.Protein.RotatedAtoms>
  151.1862  133.4695  159.2594 H   0  0  0  0  0  0  0  0  0  0  0  0  # atno 6907 bound_to 6896
  151.1209  135.0078  159.8548 H   0  0  0  0  0  0  0  0  0  0  0  0  # atno 6908 bound_to 6896
  152.5456  134.1774  159.8674 H   0  0  0  0  0  0  0  0  0  0  0  0  # atno 6909 bound_to 6896
  144.7179  140.0144  143.6440 H   0  0  0  0  0  0  0  0  0  0  0  0  # atno 7974 bound_to 7965
  154.6807  140.0547  157.0263 H   0  0  0  0  0  0  0  0  0  0  0  0  # atno 8008 bound_to 7997
  155.0956  140.3223  155.4543 H   0  0  0  0  0  0  0  0  0  0  0  0  # atno 8009 bound_to 7997
  156.2693  140.2040  156.6082 H   0  0  0  0  0  0  0  0  0  0  0  0  # atno 8010 bound_to 7997
  139.6443  144.0201  152.2115 H   0  0  0  0  0  0  0  0  0  0  0  0  # atno 10167 bound_to 10162
  156.4730  130.8267  151.2496 H   0  0  0  0  0  0  0  0  0  0  0  0  # atno 10718 bound_to 10713
  153.1236  135.4714  154.9236 H   0  0  0  0  0  0  0  0  0  0  0  0  # atno 10763 bound_to 10752
  154.7599  135.3128  154.8401 H   0  0  0  0  0  0  0  0  0  0  0  0  # atno 10764 bound_to 10752
  153.8959  135.6880  153.4811 H   0  0  0  0  0  0  0  0  0  0  0  0  # atno 10765 bound_to 10752
  139.9478  134.7281  156.0936 H   0  0  0  0  0  0  0  0  0  0  0  0  # atno 11005 bound_to 11000
  146.0232  139.3269  143.0800 LP  0  0  0  0  0  0  0  0  0  0  0  0  # atno 17320 bound_to 7965
  145.8543  140.9511  143.0733 LP  0  0  0  0  0  0  0  0  0  0  0  0  # atno 17321 bound_to 7965
  139.9898  144.6369  150.7824 LP  0  0  0  0  0  0  0  0  0  0  0  0  # atno 17342 bound_to 10162
  140.7507  143.2959  151.3205 LP  0  0  0  0  0  0  0  0  0  0  0  0  # atno 17343 bound_to 10162
  157.7490  131.0070  150.3173 LP  0  0  0  0  0  0  0  0  0  0  0  0  # atno 17370 bound_to 10713
  156.3599  130.3845  149.7259 LP  0  0  0  0  0  0  0  0  0  0  0  0  # atno 17371 bound_to 10713
  141.1133  133.6636  156.3032 LP  0  0  0  0  0  0  0  0  0  0  0  0  # atno 17394 bound_to 11000
  140.5792  134.5762  157.5476 LP  0  0  0  0  0  0  0  0  0  0  0  0  # atno 17395 bound_to 11000

$$$$
