AV-unprocessed.smi:1741|AV-procd|sdf|7017|dock1
  -GOLD-   22720 8233D 1   1.00000     0.00000
 Structure written by MMmdl.
 38 39  0  0  0  0  0  0  0  0  1 V2000
  143.7005  133.1350  149.2602 C   0  0  0  0  0  0  0  0  0  0  0  0
  144.8154  132.0884  149.3686 C   0  0  0  0  0  0  0  0  0  0  0  0
  145.6700  132.3355  150.5132 N   0  0  0  0  0  0  0  0  0  0  0  0
  146.4167  133.4629  150.7915 C   0  0  0  0  0  0  0  0  0  0  0  0
  147.0515  133.2028  151.9729 C   0  0  0  0  0  0  0  0  0  0  0  0
  147.9412  134.0197  152.7152 N   0  0  0  0  0  0  0  0  0  0  0  0
  148.3487  133.8404  153.9823 C   0  0  0  0  0  0  0  0  0  0  0  0
  147.9960  132.9142  154.7127 O   0  0  0  0  0  0  0  0  0  0  0  0
  149.1950  134.8094  154.3593 N   0  0  0  0  0  0  0  0  0  0  0  0
  149.8075  134.9466  155.6790 C   0  0  1  0  0  0  0  0  0  0  0  0
  150.7982  133.7904  155.8867 C   0  0  0  0  0  0  0  0  0  0  0  0
  150.4798  136.3295  155.7863 C   0  0  2  0  0  0  0  0  0  0  0  0
  149.5506  137.5142  155.5172 C   0  0  0  0  0  0  0  0  0  0  0  0
  150.5313  138.5833  155.0949 C   0  0  0  0  0  0  0  0  0  0  0  0
  151.5324  137.7785  154.2723 C   0  0  0  0  0  0  0  0  0  0  0  0
  151.5130  136.4589  154.8106 O   0  0  0  0  0  0  0  0  0  0  0  0
  146.6417  131.8988  152.3537 C   0  0  0  0  0  0  0  0  0  0  0  0
  145.8086  131.3793  151.4647 N   0  0  0  0  0  0  0  0  0  0  0  0
  143.0630  132.9339  148.3991 H   0  0  0  0  0  0  0  0  0  0  0  0
  144.1118  134.1380  149.1434 H   0  0  0  0  0  0  0  0  0  0  0  0
  143.0695  133.1323  150.1495 H   0  0  0  0  0  0  0  0  0  0  0  0
  144.3876  131.0896  149.4637 H   0  0  0  0  0  0  0  0  0  0  0  0
  145.4248  132.0867  148.4637 H   0  0  0  0  0  0  0  0  0  0  0  0
  146.4254  134.3213  150.1361 H   0  0  0  0  0  0  0  0  0  0  0  0
  148.3007  134.8300  152.2321 H   0  0  0  0  0  0  0  0  0  0  0  0
  149.4179  135.5268  153.6852 H   0  0  0  0  0  0  0  0  0  0  0  0
  149.0466  134.8755  156.4583 H   0  0  0  0  0  0  0  0  0  0  0  0
  151.2403  133.8196  156.8827 H   0  0  0  0  0  0  0  0  0  0  0  0
  151.6106  133.8269  155.1601 H   0  0  0  0  0  0  0  0  0  0  0  0
  150.3009  132.8254  155.7828 H   0  0  0  0  0  0  0  0  0  0  0  0
  150.9371  136.4527  156.7698 H   0  0  0  0  0  0  0  0  0  0  0  0
  148.8669  137.2909  154.6968 H   0  0  0  0  0  0  0  0  0  0  0  0
  148.9600  137.7992  156.3883 H   0  0  0  0  0  0  0  0  0  0  0  0
  150.0692  139.3939  154.5311 H   0  0  0  0  0  0  0  0  0  0  0  0
  151.0199  139.0097  155.9721 H   0  0  0  0  0  0  0  0  0  0  0  0
  151.2176  137.7298  153.2292 H   0  0  0  0  0  0  0  0  0  0  0  0
  152.5344  138.2068  154.3042 H   0  0  0  0  0  0  0  0  0  0  0  0
  146.9168  131.3230  153.2251 H   0  0  0  0  0  0  0  0  0  0  0  0
  1  2  1  0  0  0  0
  1 19  1  0  0  0  0
  1 20  1  0  0  0  0
  1 21  1  0  0  0  0
  2  3  1  0  0  0  0
  2 22  1  0  0  0  0
  2 23  1  0  0  0  0
  3 18  1  0  0  0  0
  3  4  1  0  0  0  0
  4  5  2  0  0  0  0
  4 24  1  0  0  0  0
  5  6  1  0  0  0  0
  5 17  1  0  0  0  0
  6  7  1  0  0  0  0
  6 25  1  0  0  0  0
  7  8  2  0  0  0  0
  7  9  1  0  0  0  0
  9 10  1  0  0  0  0
  9 26  1  0  0  0  0
 10 11  1  0  0  0  0
 10 12  1  0  0  0  0
 10 27  1  0  0  0  0
 11 28  1  0  0  0  0
 11 29  1  0  0  0  0
 11 30  1  0  0  0  0
 12 16  1  0  0  0  0
 12 13  1  0  0  0  0
 12 31  1  0  0  0  0
 13 14  1  0  0  0  0
 13 32  1  0  0  0  0
 13 33  1  0  0  0  0
 14 15  1  0  0  0  0
 14 34  1  0  0  0  0
 14 35  1  0  0  0  0
 15 16  1  0  0  0  0
 15 36  1  0  0  0  0
 15 37  1  0  0  0  0
 17 18  2  0  0  0  0
 17 38  1  0  0  0  0
M  END
> <s_m_source_file>
AV-unprocessed.smi

> <i_m_source_file_index>
1741

> <i_lp_mmshare_version>
43012

> <i_f3d_flags>
0

> <s_epik_input>
W0NIM11bQ0gyXW4xW2NIXWMoW2NIXW4xKVtOSF1DKD1PKVtOSF1bQ0BIXShbQ0gzXSlbQ0BASF0yW0NIMl1bQ0gyXVtDSDJdTzI=

> <s_epik_cmdline>
J2VwaWtfcHl0aG9uJywgJy1waCcsICc3LjAnLCAnLXRuJywgJzgnLCAnLW1hJywgJzIwMCcsICctbWV0YWxfYmluZGluZycsICctaW1hZScsICc8aW5maWxlLm1hZT4nLCAnLW9tYWUnLCAnPG91dGZpbGUubWFlPic=

> <r_lp_tautomer_probability>
1

> <r_epik_Ionization_Penalty>
0.000179292

> <r_epik_Ionization_Penalty_Charging>
0

> <r_epik_Ionization_Penalty_Neutral>
0.000179292

> <r_epik_State_Penalty>
-0

> <r_epik_Charging_Adjusted_Penalty>
0

> <i_epik_Tot_Q>
0

> <i_epik_Tot_abs_Q>
0

> <r_epik_Metal_State_Penalty>
-0

> <b_epik_Metal_Only>
0

> <s_lp_Force_Field>
OPLS_2005

> <r_lp_Energy>
22.1754

> <b_lp_Chiralities_Consistent>
1

> <s_lp_Variant>
AV-unprocessed.smi:1741-2

> <Gold.Version>
5.8.1

> <Gold.Id.Protein>
6NUR|6NUR_protein|mol2

> <Gold.PLP.Fitness>
40.1561

> <Gold.PLP.PLP>
-29.6043

> <Gold.PLP.part.hbond>
-2.9757

> <Gold.PLP.part.metal>
0.0000

> <Gold.PLP.part.buried>
-2.0165

> <Gold.PLP.part.nonpolar>
-25.6337

> <Gold.PLP.part.repulsive>
0.3184

> <Gold.PLP.ligand.clash>
0.0000

> <Gold.PLP.ligand.torsion>
0.1383

> <Gold.PLP.Chemscore.Hbond>
2.8800

> <Gold.PLP.Chemscore.CHOScore>
0.7170

> <Gold.PLP.Chemscore.Metal>
0.0000

> <Gold.Chemscore.Hbonds>
donor molecule, donor type, donor heavy atom, donor atom, acceptor molecule, acceptor atom, score
      L1  H     6    25       P1  7948  0.95
      L1  H     9    26       P1  7948  0.88
      P1  H 10752 10765       L1    16  1.00
      L1  C     4    24       P1  7921  0.71

> <Gold.PLP.Chemscore.Internal.Correction>
0.0374

> <Gold.Rescore>
     Score         DG    S(hbond)    S(metal)    S(lipo)     H(rot)  DE(clash)    DE(int)     intcor
     15.82     -17.62       2.16        0.00      72.32       1.38       0.43       1.37       ----

> <Gold.Chemscore.Fitness>
15.8188

> <Gold.Chemscore.DG>
-17.6166

> <Gold.Chemscore.ZeroCoef>
-5.4800

> <Gold.Chemscore.Hbond>
2.1572

> <Gold.Chemscore.Metal>
0.0000

> <Gold.Chemscore.Lipo>
72.3218

> <Gold.Chemscore.Internal_Hbond>
0.0000

> <Gold.Chemscore.DEClash>
0.4310

> <Gold.Chemscore.DEInternal>
1.3668

> <Gold.Chemscore.Rot>
1.3790

> <Gold.Chemscore.Internal.Correction>
   9.000000E+99

> <Gold.Chemscore.Hbonds>
donor molecule, donor type, donor heavy atom, donor atom, acceptor molecule, acceptor atom, score
      L1  H     6    25       P1  7948  0.20
      L1  H     9    26       P1  7948  0.25
      P1  H 10752 10765       L1    16  0.92

> <Gold.Chemscore.Hbond.Weighted>
-7.2051

> <Gold.Chemscore.Metal.Weighted>
-0.0000

> <Gold.Chemscore.Lipo.Weighted>
-8.4617

> <Gold.Chemscore.Internal_Hbond.Weighted>
0.0000

> <Gold.Chemscore.DEClash.Weighted>
0.4310

> <Gold.Chemscore.DEInternal.Weighted>
1.3668

> <Gold.Chemscore.Rot.Weighted>
3.5302

> <Gold.Chemscore.Internal.Correction.Weighted>
   9.000000E+99

> <Gold.Protein.RotatedTorsions>
[ 6907 6896 6895 6894 ] final  -36.54 input  -60.11 | X-H torsion
[ 7974 7965 7964 7962 ] final  -96.68 input  175.53 | X-H torsion
[ 8008 7997 7996 7995 ] final   74.25 input   59.86 | X-H torsion
[ 10167 10162 10161 10158 ] final   12.98 input  -65.29 | X-H torsion
[ 10718 10713 10712 10709 ] final    3.08 input   66.30 | X-H torsion
[ 10763 10752 10751 10750 ] final -172.88 input  -60.55 | X-H torsion
[ 11005 11000 10999 10996 ] final -126.63 input  -57.11 | X-H torsion

> <Gold.Protein.ActiveResidues>
 VAL166  LYS551  ARG553  GLY616  TRP617  ASP618  TYR619  PRO620  LYS621  CYS622 
 ASP623  PHE694  ASN695  SER759  ASP760  ASP761  ALA762  ILE779  LEU786  VAL792 
 PHE793  MET794  SER795  GLU796  ALA797  LYS798  CYS799  TRP800  GLU811  SER814 

> <Gold.Protein.RotatedAtoms>
  151.0259  134.9503  159.8084 H   0  0  0  0  0  0  0  0  0  0  0  0  # atno 6907 bound_to 6896
  152.5335  134.2843  159.9029 H   0  0  0  0  0  0  0  0  0  0  0  0  # atno 6908 bound_to 6896
  151.2851  133.4149  159.2663 H   0  0  0  0  0  0  0  0  0  0  0  0  # atno 6909 bound_to 6896
  145.3436  140.9464  143.2594 H   0  0  0  0  0  0  0  0  0  0  0  0  # atno 7974 bound_to 7965
  155.7956  140.3478  155.5374 H   0  0  0  0  0  0  0  0  0  0  0  0  # atno 8008 bound_to 7997
  155.8590  140.0968  157.1646 H   0  0  0  0  0  0  0  0  0  0  0  0  # atno 8009 bound_to 7997
  154.4011  140.1362  156.3924 H   0  0  0  0  0  0  0  0  0  0  0  0  # atno 8010 bound_to 7997
  140.6032  143.8561  150.6987 H   0  0  0  0  0  0  0  0  0  0  0  0  # atno 10167 bound_to 10162
  156.8725  130.5625  149.5656 H   0  0  0  0  0  0  0  0  0  0  0  0  # atno 10718 bound_to 10713
  154.6143  135.2868  155.0398 H   0  0  0  0  0  0  0  0  0  0  0  0  # atno 10763 bound_to 10752
  154.1616  135.6487  153.4991 H   0  0  0  0  0  0  0  0  0  0  0  0  # atno 10764 bound_to 10752
  153.0208  135.5379  154.6908 H   0  0  0  0  0  0  0  0  0  0  0  0  # atno 10765 bound_to 10752
  140.9665  134.0864  157.3914 H   0  0  0  0  0  0  0  0  0  0  0  0  # atno 11005 bound_to 11000
  144.8771  139.4956  143.6740 LP  0  0  0  0  0  0  0  0  0  0  0  0  # atno 17320 bound_to 7965
  146.2997  139.7388  142.9100 LP  0  0  0  0  0  0  0  0  0  0  0  0  # atno 17321 bound_to 7965
  140.2112  143.3882  152.1717 LP  0  0  0  0  0  0  0  0  0  0  0  0  # atno 17342 bound_to 10162
  139.5306  144.7154  151.5069 LP  0  0  0  0  0  0  0  0  0  0  0  0  # atno 17343 bound_to 10162
  156.0719  130.5750  150.9399 LP  0  0  0  0  0  0  0  0  0  0  0  0  # atno 17370 bound_to 10713
  157.6187  131.0931  150.8662 LP  0  0  0  0  0  0  0  0  0  0  0  0  # atno 17371 bound_to 10713
  139.8896  135.0106  156.6691 LP  0  0  0  0  0  0  0  0  0  0  0  0  # atno 17394 bound_to 11000
  140.7391  133.8993  155.8265 LP  0  0  0  0  0  0  0  0  0  0  0  0  # atno 17395 bound_to 11000

$$$$
