#       Name:                AV-unprocessed.smi:1195
#       Creating user name   scv26
#       Creation time:       Fri Mar 27 03:59:48 2020


#       File generated by GOLD software.
#

@<TRIPOS>MOLECULE
AV-unprocessed.smi:1195
    46    47     1
SMALL
NO_CHARGES


@<TRIPOS>ATOM
      1 ****        -7.2186  -0.8375  -1.0467 N.am           1 S1                 0.0000
      2 ****        -6.1031  -0.1078  -0.9699 C.2            1 S1                 0.0000
      3 ****        -5.4667   0.2153  -1.9721 O.2            1 S1                 0.0000
      4 ****        -5.6573   0.3081   0.4381 C.3            1 S1                 0.0000
      5 ****        -4.3639   0.9724   0.4501 N.pl3          1 S1                 0.0000
      6 ****        -3.1085   0.3962   0.4288 C.2            1 S1                 0.0000
      7 ****        -2.2235   1.4366   0.4521 C.2            1 S1                 0.0000
      8 ****        -0.8063   1.4124   0.4409 N.am           1 S1                 0.0000
      9 ****        -0.0095   0.3314   0.4497 C.2            1 S1                 0.0000
     10 ****        -0.4001  -0.8359   0.4750 O.2            1 S1                 0.0000
     11 ****         1.2847   0.6810   0.4277 N.am           1 S1                 0.0000
     12 ****         2.4096  -0.2493   0.4318 C.3            1 S1                 0.0000
     13 ****         3.6599   0.4595   0.9867 C.3            1 S1                 0.0000
     14 ****         4.8925  -0.4586   0.9503 C.3            1 S1                 0.0000
     15 ****         5.1467  -0.9876  -0.4715 C.3            1 S1                 0.0000
     16 ****         6.2422  -1.8781  -0.4541 O.3            1 S1                 0.0000
     17 ****         3.9050  -1.7099  -1.0214 C.3            1 S1                 0.0000
     18 ****         2.6720  -0.7924  -0.9888 C.3            1 S1                 0.0000
     19 ****        -3.0125   2.6156   0.4854 C.2            1 S1                 0.0000
     20 ****        -4.3050   2.3275   0.4867 N.2            1 S1                 0.0000
     21 ****        -7.5585  -1.1375  -1.9491 H              1 S1                 0.0000
     22 ****        -7.7192  -1.0860  -0.2058 H              1 S1                 0.0000
     23 ****        -6.4063   0.9699   0.8759 H              1 S1                 0.0000
     24 ****        -5.5957  -0.5745   1.0758 H              1 S1                 0.0000
     25 ****        -2.9697  -0.6744   0.3966 H              1 S1                 0.0000
     26 ****        -0.3515   2.3136   0.4284 H              1 S1                 0.0000
     27 ****         1.5105   1.6648   0.4065 H              1 S1                 0.0000
     28 ****         2.1741  -1.0866   1.0921 H              1 S1                 0.0000
     29 ****         3.8645   1.3588   0.4038 H              1 S1                 0.0000
     30 ****         3.4793   0.7896   2.0105 H              1 S1                 0.0000
     31 ****         5.7671   0.0841   1.3108 H              1 S1                 0.0000
     32 ****         4.7417  -1.2935   1.6362 H              1 S1                 0.0000
     33 ****         5.4017  -0.1543  -1.1275 H              1 S1                 0.0000
     34 ****         6.4077  -2.1679  -1.3384 H              1 S1                 0.0000
     35 ****         4.0862  -2.0465  -2.0428 H              1 S1                 0.0000
     36 ****         3.7041  -2.6050  -0.4308 H              1 S1                 0.0000
     37 ****         1.8017  -1.3411  -1.3509 H              1 S1                 0.0000
     38 ****         2.8219   0.0383  -1.6800 H              1 S1                 0.0000
     39 ****        -2.6982   3.6485   0.5104 H              1 S1                 0.0000
     40 ****        -5.7814  -0.0693  -2.8776 LP             1 S1                 0.0000
     41 ****        -4.6347   0.7626  -1.8812 LP             1 S1                 0.0000
     42 ****        -1.3799  -1.0350   0.4908 LP             1 S1                 0.0000
     43 ****         0.2625  -1.5849   0.4797 LP             1 S1                 0.0000
     44 ****         6.0278  -2.6652   0.1242 LP             1 S1                 0.0000
     45 ****         7.0506  -1.4113  -0.0954 LP             1 S1                 0.0000
     46 ****        -5.0714   2.9694   0.5097 LP             1 S1                 0.0000
@<TRIPOS>BOND
    1    1    2 am    
    2    1   21 1     
    3    1   22 1     
    4    2    3 2     
    5    2    4 1     
    6    4    5 1     
    7    4   23 1     
    8    4   24 1     
    9    5   20 1     
   10    5    6 1     
   11    6    7 2     
   12    6   25 1     
   13    7    8 1     
   14    7   19 1     
   15    8    9 am    
   16    8   26 1     
   17    9   10 2     
   18    9   11 am    
   19   11   12 1     
   20   11   27 1     
   21   12   18 1     
   22   12   13 1     
   23   12   28 1     
   24   13   14 1     
   25   13   29 1     
   26   13   30 1     
   27   14   15 1     
   28   14   31 1     
   29   14   32 1     
   30   15   16 1     
   31   15   17 1     
   32   15   33 1     
   33   16   34 1     
   34   17   18 1     
   35   17   35 1     
   36   17   36 1     
   37   18   37 1     
   38   18   38 1     
   39   19   20 2     
   40   19   39 1     
   41    3   40 1     
   42    3   41 1     
   43   10   42 1     
   44   10   43 1     
   45   16   44 1     
   46   16   45 1     
   47   20   46 1     
@<TRIPOS>SUBSTRUCTURE
      1 S1             1
@<TRIPOS>SET
LONE_PAIRS      STATIC     ATOMS    <user>   **** ""
7 40 41 42 43 44 45 46
DONOR_HYDROGENS      STATIC     ATOMS    <user>   **** ""
5 21 22 26 27 34
ATOM$BLUE        STATIC     ATOMS    COLORGROUP SYSTEM
7 40 41 42 43 44 45 46
ATOM$RED        STATIC     ATOMS    COLORGROUP SYSTEM
5 21 22 26 27 34
