AV-unprocessed.smi:3117|AV-procd|sdf|11885|dock6
  -GOLD-   2272017273D 1   1.00000     0.00000
 Structure written by MMmdl.
 36 36  0  0  0  0  0  0  0  0  1 V2000
  149.2907  142.3443  158.2826 C   0  0  0  0  0  0  0  0  0  0  0  0
  150.5210  142.0775  157.3997 C   0  0  1  0  0  0  0  0  0  0  0  0
  150.1151  142.2356  155.9961 N   0  0  0  0  0  0  0  0  0  0  0  0
  148.9262  141.4977  155.5695 C   0  0  0  0  0  0  0  0  0  0  0  0
  149.2585  140.4414  154.4958 C   0  0  0  0  0  0  0  0  0  0  0  0
  150.5731  139.6980  154.7928 C   0  0  0  0  0  0  0  0  0  0  0  0
  148.0903  139.4677  154.2586 C   0  0  0  0  0  0  0  0  0  0  0  0
  149.4540  141.1478  153.2877 O   0  0  0  0  0  0  0  0  0  0  0  0
  151.7301  142.9613  157.8372 C   0  0  1  0  0  0  0  0  0  0  0  0
  151.4617  144.4799  157.7864 C   0  0  0  0  0  0  0  0  0  0  0  0
  152.3564  142.5258  159.0848 N   0  0  0  0  0  0  0  0  0  0  0  0
  152.5254  143.2529  160.2460 C   0  0  0  0  0  0  0  0  0  0  0  0
  153.1878  142.4595  161.1382 C   0  0  0  0  0  0  0  0  0  0  0  0
  153.3945  141.2483  160.4226 C   0  0  0  0  0  0  0  0  0  0  0  0
  152.8994  141.2910  159.1971 N   0  0  0  0  0  0  0  0  0  0  0  0
  149.5155  142.1791  159.3366 H   0  0  0  0  0  0  0  0  0  0  0  0
  148.4686  141.6779  158.0200 H   0  0  0  0  0  0  0  0  0  0  0  0
  148.9313  143.3677  158.1742 H   0  0  0  0  0  0  0  0  0  0  0  0
  150.7907  141.0341  157.5677 H   0  0  0  0  0  0  0  0  0  0  0  0
  149.9857  143.2213  155.7925 H   0  0  0  0  0  0  0  0  0  0  0  0
  148.4710  140.9911  156.4167 H   0  0  0  0  0  0  0  0  0  0  0  0
  148.1809  142.1924  155.1799 H   0  0  0  0  0  0  0  0  0  0  0  0
  150.4953  139.0971  155.6995 H   0  0  0  0  0  0  0  0  0  0  0  0
  151.4018  140.3941  154.9285 H   0  0  0  0  0  0  0  0  0  0  0  0
  150.8390  139.0231  153.9784 H   0  0  0  0  0  0  0  0  0  0  0  0
  147.8922  138.8617  155.1432 H   0  0  0  0  0  0  0  0  0  0  0  0
  148.3042  138.7835  153.4368 H   0  0  0  0  0  0  0  0  0  0  0  0
  147.1709  140.0014  154.0148 H   0  0  0  0  0  0  0  0  0  0  0  0
  149.3571  140.5422  152.5687 H   0  0  0  0  0  0  0  0  0  0  0  0
  152.4958  142.8198  157.0728 H   0  0  0  0  0  0  0  0  0  0  0  0
  151.0878  144.7746  156.8057 H   0  0  0  0  0  0  0  0  0  0  0  0
  152.3816  145.0384  157.9621 H   0  0  0  0  0  0  0  0  0  0  0  0
  150.7378  144.8164  158.5246 H   0  0  0  0  0  0  0  0  0  0  0  0
  152.1641  144.2662  160.3397 H   0  0  0  0  0  0  0  0  0  0  0  0
  153.4837  142.7084  162.1466 H   0  0  0  0  0  0  0  0  0  0  0  0
  153.8874  140.3462  160.7539 H   0  0  0  0  0  0  0  0  0  0  0  0
  1  2  1  0  0  0  0
  1 16  1  0  0  0  0
  1 17  1  0  0  0  0
  1 18  1  0  0  0  0
  2  3  1  0  0  0  0
  2  9  1  0  0  0  0
  2 19  1  0  0  0  0
  3  4  1  0  0  0  0
  3 20  1  0  0  0  0
  4  5  1  0  0  0  0
  4 21  1  0  0  0  0
  4 22  1  0  0  0  0
  5  6  1  0  0  0  0
  5  7  1  0  0  0  0
  5  8  1  0  0  0  0
  6 23  1  0  0  0  0
  6 24  1  0  0  0  0
  6 25  1  0  0  0  0
  7 26  1  0  0  0  0
  7 27  1  0  0  0  0
  7 28  1  0  0  0  0
  8 29  1  0  0  0  0
  9 10  1  0  0  0  0
  9 11  1  0  0  0  0
  9 30  1  0  0  0  0
 10 31  1  0  0  0  0
 10 32  1  0  0  0  0
 10 33  1  0  0  0  0
 11 15  1  0  0  0  0
 11 12  1  0  0  0  0
 12 13  2  0  0  0  0
 12 34  1  0  0  0  0
 13 14  1  0  0  0  0
 13 35  1  0  0  0  0
 14 15  2  0  0  0  0
 14 36  1  0  0  0  0
M  END
> <s_m_source_file>
AV-unprocessed.smi

> <i_m_source_file_index>
3117

> <i_lp_mmshare_version>
43012

> <i_f3d_flags>
0

> <s_epik_input>
W0NIM11DKFtDSDNdKShbT0hdKVtDSDJdW05IXVtDQEBIXShbQ0gzXSlbQ0BIXShbQ0gzXSluMVtjSF1bY0hdW2NIXW4x

> <s_epik_cmdline>
J2VwaWtfcHl0aG9uJywgJy1waCcsICc3LjAnLCAnLXRuJywgJzgnLCAnLW1hJywgJzIwMCcsICctbWV0YWxfYmluZGluZycsICctaW1hZScsICc8aW5maWxlLm1hZT4nLCAnLW9tYWUnLCAnPG91dGZpbGUubWFlPic=

> <r_lp_tautomer_probability>
1

> <r_epik_Ionization_Penalty>
2.13419

> <r_epik_Ionization_Penalty_Charging>
0

> <r_epik_Ionization_Penalty_Neutral>
2.13419

> <r_epik_State_Penalty>
2.27148

> <r_epik_Charging_Adjusted_Penalty>
2.27148

> <i_epik_Tot_Q>
0

> <i_epik_Tot_abs_Q>
0

> <r_epik_Metal_State_Penalty>
2.27029

> <b_epik_Metal_Only>
0

> <s_lp_Force_Field>
OPLS_2005

> <r_lp_Energy>
16.3619

> <b_lp_Chiralities_Consistent>
1

> <s_lp_Variant>
AV-unprocessed.smi:3117-8

> <Gold.Version>
5.8.1

> <Gold.Id.Protein>
6NUR|6NUR_protein|mol2

> <Gold.PLP.Fitness>
44.1943

> <Gold.PLP.PLP>
-36.6230

> <Gold.PLP.part.hbond>
-3.4448

> <Gold.PLP.part.metal>
0.0000

> <Gold.PLP.part.buried>
-4.8473

> <Gold.PLP.part.nonpolar>
-28.8028

> <Gold.PLP.part.repulsive>
0.0000

> <Gold.PLP.ligand.clash>
0.0000

> <Gold.PLP.ligand.torsion>
0.8280

> <Gold.PLP.Chemscore.Hbond>
2.9765

> <Gold.PLP.Chemscore.CHOScore>
0.0000

> <Gold.PLP.Chemscore.Metal>
0.0000

> <Gold.Chemscore.Hbonds>
donor molecule, donor type, donor heavy atom, donor atom, acceptor molecule, acceptor atom, score
      L1  H     3    20       P1  8028  1.00
      L1  H     8    29       P1  7957  0.96
      P1  H  7989  7998       L1     8  0.04
      P1  H  8011  8017       L1     8  0.70

> <Gold.PLP.Chemscore.Internal.Correction>
0.2978

> <Gold.Rescore>
     Score         DG    S(hbond)    S(metal)    S(lipo)     H(rot)  DE(clash)    DE(int)     intcor
     16.52     -17.30       1.98        0.00      92.51       2.19       0.02       0.76       ----

> <Gold.Chemscore.Fitness>
16.5196

> <Gold.Chemscore.DG>
-17.2987

> <Gold.Chemscore.ZeroCoef>
-5.4800

> <Gold.Chemscore.Hbond>
1.9750

> <Gold.Chemscore.Metal>
0.0000

> <Gold.Chemscore.Lipo>
92.5121

> <Gold.Chemscore.Internal_Hbond>
0.0000

> <Gold.Chemscore.DEClash>
0.0188

> <Gold.Chemscore.DEInternal>
0.7603

> <Gold.Chemscore.Rot>
2.1882

> <Gold.Chemscore.Internal.Correction>
   9.000000E+99

> <Gold.Chemscore.Hbonds>
donor molecule, donor type, donor heavy atom, donor atom, acceptor molecule, acceptor atom, score
      L1  H     3    20       P1  8028  0.95
      L1  H     8    29       P1  7957  0.88
      P1  H  8011  8017       L1     8  0.07

> <Gold.Chemscore.Hbond.Weighted>
-6.5966

> <Gold.Chemscore.Metal.Weighted>
-0.0000

> <Gold.Chemscore.Lipo.Weighted>
-10.8239

> <Gold.Chemscore.Internal_Hbond.Weighted>
0.0000

> <Gold.Chemscore.DEClash.Weighted>
0.0188

> <Gold.Chemscore.DEInternal.Weighted>
0.7603

> <Gold.Chemscore.Rot.Weighted>
5.6018

> <Gold.Chemscore.Internal.Correction.Weighted>
   9.000000E+99

> <Gold.Protein.RotatedTorsions>
[ 6907 6896 6895 6894 ] final   20.99 input  -60.11 | X-H torsion
[ 7974 7965 7964 7962 ] final -160.94 input  175.53 | X-H torsion
[ 8008 7997 7996 7995 ] final  -49.95 input   59.86 | X-H torsion
[ 10167 10162 10161 10158 ] final   66.13 input  -65.29 | X-H torsion
[ 10718 10713 10712 10709 ] final -124.20 input   66.30 | X-H torsion
[ 10763 10752 10751 10750 ] final -165.41 input  -60.55 | X-H torsion
[ 11005 11000 10999 10996 ] final  -52.58 input  -57.11 | X-H torsion

> <Gold.Protein.ActiveResidues>
 VAL166  LYS551  ARG553  GLY616  TRP617  ASP618  TYR619  PRO620  LYS621  CYS622 
 ASP623  PHE694  ASN695  SER759  ASP760  ASP761  ALA762  ILE779  LEU786  VAL792 
 PHE793  MET794  SER795  GLU796  ALA797  LYS798  CYS799  TRP800  GLU811  SER814 

> <Gold.Protein.RotatedAtoms>
  151.9050  135.0363  160.0509 H   0  0  0  0  0  0  0  0  0  0  0  0  # atno 6907 bound_to 6896
  152.2327  133.5066  159.5233 H   0  0  0  0  0  0  0  0  0  0  0  0  # atno 6908 bound_to 6896
  150.7030  134.1111  159.4043 H   0  0  0  0  0  0  0  0  0  0  0  0  # atno 6909 bound_to 6896
  144.7409  140.3469  143.6123 H   0  0  0  0  0  0  0  0  0  0  0  0  # atno 7974 bound_to 7965
  154.4053  140.1284  156.4586 H   0  0  0  0  0  0  0  0  0  0  0  0  # atno 8008 bound_to 7997
  155.7295  140.3491  155.5033 H   0  0  0  0  0  0  0  0  0  0  0  0  # atno 8009 bound_to 7997
  155.9140  140.1041  157.1248 H   0  0  0  0  0  0  0  0  0  0  0  0  # atno 8010 bound_to 7997
  140.1037  144.4881  150.7021 H   0  0  0  0  0  0  0  0  0  0  0  0  # atno 10167 bound_to 10162
  156.1567  130.6573  150.9991 H   0  0  0  0  0  0  0  0  0  0  0  0  # atno 10718 bound_to 10713
  154.6934  135.2975  154.9446 H   0  0  0  0  0  0  0  0  0  0  0  0  # atno 10763 bound_to 10752
  154.0402  135.6658  153.4793 H   0  0  0  0  0  0  0  0  0  0  0  0  # atno 10764 bound_to 10752
  153.0628  135.5105  154.8039 H   0  0  0  0  0  0  0  0  0  0  0  0  # atno 10765 bound_to 10752
  141.0932  133.6629  156.4046 H   0  0  0  0  0  0  0  0  0  0  0  0  # atno 11005 bound_to 11000
  145.7316  139.1738  143.2427 LP  0  0  0  0  0  0  0  0  0  0  0  0  # atno 17320 bound_to 7965
  146.1202  140.7319  142.9461 LP  0  0  0  0  0  0  0  0  0  0  0  0  # atno 17321 bound_to 7965
  140.6964  143.2406  151.4989 LP  0  0  0  0  0  0  0  0  0  0  0  0  # atno 17342 bound_to 10162
  139.5657  144.2048  152.1761 LP  0  0  0  0  0  0  0  0  0  0  0  0  # atno 17343 bound_to 10162
  157.6700  131.0863  150.7635 LP  0  0  0  0  0  0  0  0  0  0  0  0  # atno 17370 bound_to 10713
  156.7700  130.4825  149.5420 LP  0  0  0  0  0  0  0  0  0  0  0  0  # atno 17371 bound_to 10713
  140.5203  134.6311  157.5315 LP  0  0  0  0  0  0  0  0  0  0  0  0  # atno 17394 bound_to 11000
  139.9762  134.7211  155.9945 LP  0  0  0  0  0  0  0  0  0  0  0  0  # atno 17395 bound_to 11000

$$$$
