AV-unprocessed.smi:243|AV-procd|sdf|1853|dock8
  -GOLD-   2262020483D 1   1.00000     0.00000
 Structure written by MMmdl.
 58 61  0  0  0  0  0  0  0  0  2 V2000
  145.7223  128.7892  151.9872 C   0  0  0  0  0  0  0  0  0  0  0  0
  145.5502  130.3150  151.9999 C   0  0  0  0  0  0  0  0  0  0  0  0
  146.8359  131.0324  152.1954 N   0  3  1  0  0  0  0  0  0  0  0  0
  146.6661  132.4969  152.3814 C   0  0  0  0  0  0  0  0  0  0  0  0
  148.0223  133.2245  152.4703 C   0  0  0  0  0  0  0  0  0  0  0  0
  149.0211  132.6006  153.4686 C   0  0  1  0  0  0  0  0  0  0  0  0
  148.8684  133.0956  154.8494 N   0  0  0  0  0  0  0  0  0  0  0  0
  147.7665  132.7289  155.7345 C   0  0  0  0  0  0  0  0  0  0  0  0
  149.9306  133.7225  155.4176 C   0  0  0  0  0  0  0  0  0  0  0  0
  151.0879  133.0256  155.5613 N   0  0  0  0  0  0  0  0  0  0  0  0
  152.1599  133.6025  156.1118 C   0  0  0  0  0  0  0  0  0  0  0  0
  152.2895  134.8441  156.5817 N   0  0  0  0  0  0  0  0  0  0  0  0
  151.1298  135.5490  156.4466 C   0  0  0  0  0  0  0  0  0  0  0  0
  149.9152  135.0722  155.8760 C   0  0  0  0  0  0  0  0  0  0  0  0
  148.9528  136.0750  155.9158 N   0  0  0  0  0  0  0  0  0  0  0  0
  149.5649  137.0858  156.4689 C   0  0  0  0  0  0  0  0  0  0  0  0
  150.8725  136.8536  156.8308 N   0  0  0  0  0  0  0  0  0  0  0  0
  151.7803  137.7959  157.4680 C   0  0  0  0  0  0  0  0  0  0  0  0
  151.8792  139.1537  156.7329 C   0  0  2  0  0  0  0  0  0  0  0  0
  153.0756  139.8044  157.1259 O   0  0  0  0  0  0  0  0  0  0  0  0
  150.7092  140.0804  157.0400 C   0  0  0  0  0  0  0  0  0  0  0  0
  150.6020  140.9185  155.7732 C   0  0  0  0  0  0  0  0  0  0  0  0
  150.8518  139.9727  154.7476 O   0  0  0  0  0  0  0  0  0  0  0  0
  151.8548  139.0636  155.1922 C   0  0  0  0  0  0  0  0  0  0  0  0
  149.0598  131.0586  153.3268 C   0  0  1  0  0  0  0  0  0  0  0  0
  149.9802  130.3674  154.3477 C   0  0  0  0  0  0  0  0  0  0  0  0
  147.6520  130.4335  153.2819 C   0  0  0  0  0  0  0  0  0  0  0  0
  144.7517  128.2956  151.9353 H   0  0  0  0  0  0  0  0  0  0  0  0
  146.2197  128.4410  152.8929 H   0  0  0  0  0  0  0  0  0  0  0  0
  146.3023  128.4479  151.1305 H   0  0  0  0  0  0  0  0  0  0  0  0
  145.0656  130.6561  151.0839 H   0  0  0  0  0  0  0  0  0  0  0  0
  144.8717  130.5625  152.8172 H   0  0  0  0  0  0  0  0  0  0  0  0
  146.1127  132.9154  151.5415 H   0  0  0  0  0  0  0  0  0  0  0  0
  146.0539  132.6850  153.2606 H   0  0  0  0  0  0  0  0  0  0  0  0
  148.4775  133.1927  151.4797 H   0  0  0  0  0  0  0  0  0  0  0  0
  147.8740  134.2826  152.6904 H   0  0  0  0  0  0  0  0  0  0  0  0
  150.0028  132.9289  153.1253 H   0  0  0  0  0  0  0  0  0  0  0  0
  147.7352  133.3793  156.6097 H   0  0  0  0  0  0  0  0  0  0  0  0
  147.8726  131.7031  156.0857 H   0  0  0  0  0  0  0  0  0  0  0  0
  146.8038  132.8311  155.2432 H   0  0  0  0  0  0  0  0  0  0  0  0
  153.0393  132.9799  156.1876 H   0  0  0  0  0  0  0  0  0  0  0  0
  149.0734  138.0332  156.6370 H   0  0  0  0  0  0  0  0  0  0  0  0
  151.4470  137.9496  158.4951 H   0  0  0  0  0  0  0  0  0  0  0  0
  152.7644  137.3298  157.5346 H   0  0  0  0  0  0  0  0  0  0  0  0
  152.8800  140.3767  157.8521 H   0  0  0  0  0  0  0  0  0  0  0  0
  149.7911  139.5039  157.1613 H   0  0  0  0  0  0  0  0  0  0  0  0
  150.8463  140.6790  157.9416 H   0  0  0  0  0  0  0  0  0  0  0  0
  149.6255  141.3892  155.6580 H   0  0  0  0  0  0  0  0  0  0  0  0
  151.3667  141.6964  155.7504 H   0  0  0  0  0  0  0  0  0  0  0  0
  152.8179  139.3200  154.7477 H   0  0  0  0  0  0  0  0  0  0  0  0
  151.5879  138.0689  154.8371 H   0  0  0  0  0  0  0  0  0  0  0  0
  149.5029  130.8607  152.3492 H   0  0  0  0  0  0  0  0  0  0  0  0
  149.5842  130.4347  155.3606 H   0  0  0  0  0  0  0  0  0  0  0  0
  150.9740  130.8165  154.3477 H   0  0  0  0  0  0  0  0  0  0  0  0
  150.0981  129.3089  154.1138 H   0  0  0  0  0  0  0  0  0  0  0  0
  147.1350  130.5411  154.2350 H   0  0  0  0  0  0  0  0  0  0  0  0
  147.7521  129.3619  153.1044 H   0  0  0  0  0  0  0  0  0  0  0  0
  147.3662  130.9026  151.3455 H   0  0  0  0  0  0  0  0  0  0  0  0
  1  2  1  0  0  0  0
  1 28  1  0  0  0  0
  1 29  1  0  0  0  0
  1 30  1  0  0  0  0
  2  3  1  0  0  0  0
  2 31  1  0  0  0  0
  2 32  1  0  0  0  0
  3 27  1  0  0  0  0
  3  4  1  0  0  0  0
  3 58  1  0  0  0  0
  4  5  1  0  0  0  0
  4 33  1  0  0  0  0
  4 34  1  0  0  0  0
  5  6  1  0  0  0  0
  5 35  1  0  0  0  0
  5 36  1  0  0  0  0
  6  7  1  0  0  0  0
  6 25  1  0  0  0  0
  6 37  1  0  0  0  0
  7  8  1  0  0  0  0
  7  9  1  0  0  0  0
  8 38  1  0  0  0  0
  8 39  1  0  0  0  0
  8 40  1  0  0  0  0
  9 14  1  0  0  0  0
  9 10  2  0  0  0  0
 10 11  1  0  0  0  0
 11 12  2  0  0  0  0
 11 41  1  0  0  0  0
 12 13  1  0  0  0  0
 13 17  1  0  0  0  0
 13 14  2  0  0  0  0
 14 15  1  0  0  0  0
 15 16  2  0  0  0  0
 16 17  1  0  0  0  0
 16 42  1  0  0  0  0
 17 18  1  0  0  0  0
 18 19  1  0  0  0  0
 18 43  1  0  0  0  0
 18 44  1  0  0  0  0
 19 24  1  0  0  0  0
 19 20  1  0  0  0  0
 19 21  1  0  0  0  0
 20 45  1  0  0  0  0
 21 22  1  0  0  0  0
 21 46  1  0  0  0  0
 21 47  1  0  0  0  0
 22 23  1  0  0  0  0
 22 48  1  0  0  0  0
 22 49  1  0  0  0  0
 23 24  1  0  0  0  0
 24 50  1  0  0  0  0
 24 51  1  0  0  0  0
 25 26  1  0  0  0  0
 25 27  1  0  0  0  0
 25 52  1  0  0  0  0
 26 53  1  0  0  0  0
 26 54  1  0  0  0  0
 26 55  1  0  0  0  0
 27 56  1  0  0  0  0
 27 57  1  0  0  0  0
M  CHG  1   3   1
M  END
> <s_m_source_file>
AV-unprocessed.smi

> <i_m_source_file_index>
243

> <i_lp_mmshare_version>
43012

> <i_f3d_flags>
0

> <s_epik_input>
W0NIM11bQ0gyXU4xW0NIMl1bQ0gyXVtDQEhdKFtDQEBIXShbQ0gzXSlbQ0gyXTEpTihbQ0gzXSljKG5bY0hdbjIpYyhjMjMpbltjSF1uM1tDSDJdW0NAQF00KFtPSF0pW0NIMl1bQ0gyXU9bQ0gyXTQ=

> <s_epik_cmdline>
J2VwaWtfcHl0aG9uJywgJy1waCcsICc3LjAnLCAnLXRuJywgJzgnLCAnLW1hJywgJzIwMCcsICctbWV0YWxfYmluZGluZycsICctaW1hZScsICc8aW5maWxlLm1hZT4nLCAnLW9tYWUnLCAnPG91dGZpbGUubWFlPic=

> <r_lp_tautomer_probability>
1

> <r_epik_Ionization_Penalty>
0.00253099

> <r_epik_Ionization_Penalty_Charging>
0.00137877

> <r_epik_Ionization_Penalty_Neutral>
0.00115221

> <r_epik_State_Penalty>
-0

> <r_epik_Charging_Adjusted_Penalty>
0.00137877

> <i_epik_Tot_Q>
1

> <i_epik_Tot_abs_Q>
1

> <r_epik_Metal_State_Penalty>
-0

> <b_epik_Metal_Only>
0

> <s_lp_Force_Field>
OPLS_2005

> <r_lp_Energy>
51.4738

> <b_lp_Chiralities_Consistent>
1

> <s_lp_Variant>
AV-unprocessed.smi:243-6

> <Gold.Version>
5.8.1

> <Gold.Id.Protein>
6NUR|6NUR_protein|mol2

> <Gold.PLP.Fitness>
46.4584

> <Gold.PLP.PLP>
-39.5392

> <Gold.PLP.part.hbond>
-4.3053

> <Gold.PLP.part.metal>
0.0000

> <Gold.PLP.part.buried>
-3.7623

> <Gold.PLP.part.nonpolar>
-30.1200

> <Gold.PLP.part.repulsive>
0.1321

> <Gold.PLP.ligand.clash>
0.0000

> <Gold.PLP.ligand.torsion>
1.7872

> <Gold.PLP.Chemscore.Hbond>
3.3908

> <Gold.PLP.Chemscore.CHOScore>
0.0000

> <Gold.PLP.Chemscore.Metal>
0.0000

> <Gold.Chemscore.Hbonds>
donor molecule, donor type, donor heavy atom, donor atom, acceptor molecule, acceptor atom, score
      L1  H     3    58       P1 10747  1.00
      P1  H  7989  7998       L1    23  1.00
      P1  H  7997  8009       L1    20  0.75
      P1  H 10752 10765       L1    12  0.67

> <Gold.PLP.Chemscore.Internal.Correction>
0.3212

> <Gold.Rescore>
     Score         DG    S(hbond)    S(metal)    S(lipo)     H(rot)  DE(clash)    DE(int)     intcor
     16.35     -18.53       2.62        0.00      85.83       2.24       0.35       1.84       ----

> <Gold.Chemscore.Fitness>
16.3477

> <Gold.Chemscore.DG>
-18.5348

> <Gold.Chemscore.ZeroCoef>
-5.4800

> <Gold.Chemscore.Hbond>
2.6174

> <Gold.Chemscore.Metal>
0.0000

> <Gold.Chemscore.Lipo>
85.8265

> <Gold.Chemscore.Internal_Hbond>
0.0000

> <Gold.Chemscore.DEClash>
0.3489

> <Gold.Chemscore.DEInternal>
1.8381

> <Gold.Chemscore.Rot>
2.2379

> <Gold.Chemscore.Internal.Correction>
   9.000000E+99

> <Gold.Chemscore.Hbonds>
donor molecule, donor type, donor heavy atom, donor atom, acceptor molecule, acceptor atom, score
      L1  H     3    58       P1 10747  0.97
      P1  H  7989  7998       L1    23  0.22
      P1  H  7997  8009       L1    20  0.33
      P1  H 10752 10765       L1    12  0.03

> <Gold.Chemscore.Hbond.Weighted>
-8.7422

> <Gold.Chemscore.Metal.Weighted>
-0.0000

> <Gold.Chemscore.Lipo.Weighted>
-10.0417

> <Gold.Chemscore.Internal_Hbond.Weighted>
0.0000

> <Gold.Chemscore.DEClash.Weighted>
0.3489

> <Gold.Chemscore.DEInternal.Weighted>
1.8381

> <Gold.Chemscore.Rot.Weighted>
5.7291

> <Gold.Chemscore.Internal.Correction.Weighted>
   9.000000E+99

> <Gold.Protein.RotatedTorsions>
[ 6907 6896 6895 6894 ] final  -92.68 input  -60.11 | X-H torsion
[ 7974 7965 7964 7962 ] final  133.67 input  175.53 | X-H torsion
[ 8008 7997 7996 7995 ] final  167.90 input   59.86 | X-H torsion
[ 10167 10162 10161 10158 ] final   74.34 input  -65.29 | X-H torsion
[ 10718 10713 10712 10709 ] final    4.52 input   66.30 | X-H torsion
[ 10763 10752 10751 10750 ] final -138.56 input  -60.55 | X-H torsion
[ 11005 11000 10999 10996 ] final  103.87 input  -57.11 | X-H torsion

> <Gold.Protein.ActiveResidues>
 VAL166  LYS551  ARG553  GLY616  TRP617  ASP618  TYR619  PRO620  LYS621  CYS622 
 ASP623  PHE694  ASN695  SER759  ASP760  ASP761  ALA762  ILE779  LEU786  VAL792 
 PHE793  MET794  SER795  GLU796  ALA797  LYS798  CYS799  TRP800  GLU811  SER814 

> <Gold.Protein.RotatedAtoms>
  150.6910  134.2084  159.4349 H   0  0  0  0  0  0  0  0  0  0  0  0  # atno 6907 bound_to 6896
  152.0047  134.9906  160.0575 H   0  0  0  0  0  0  0  0  0  0  0  0  # atno 6908 bound_to 6896
  152.1545  133.4508  159.4867 H   0  0  0  0  0  0  0  0  0  0  0  0  # atno 6909 bound_to 6896
  144.9842  139.4473  143.5371 H   0  0  0  0  0  0  0  0  0  0  0  0  # atno 7974 bound_to 7965
  156.1594  140.1605  156.8638 H   0  0  0  0  0  0  0  0  0  0  0  0  # atno 8008 bound_to 7997
  154.5146  140.0792  156.8092 H   0  0  0  0  0  0  0  0  0  0  0  0  # atno 8009 bound_to 7997
  155.3738  140.3401  155.4246 H   0  0  0  0  0  0  0  0  0  0  0  0  # atno 8010 bound_to 7997
  140.0148  144.5586  150.7629 H   0  0  0  0  0  0  0  0  0  0  0  0  # atno 10167 bound_to 10162
  156.8938  130.5697  149.5649 H   0  0  0  0  0  0  0  0  0  0  0  0  # atno 10718 bound_to 10713
  154.8633  135.3608  154.5404 H   0  0  0  0  0  0  0  0  0  0  0  0  # atno 10763 bound_to 10752
  153.6026  135.7012  153.5383 H   0  0  0  0  0  0  0  0  0  0  0  0  # atno 10764 bound_to 10752
  153.3278  135.4133  155.1431 H   0  0  0  0  0  0  0  0  0  0  0  0  # atno 10765 bound_to 10752
  139.8787  134.9279  156.5275 H   0  0  0  0  0  0  0  0  0  0  0  0  # atno 11005 bound_to 11000
  146.3415  139.9133  142.8777 LP  0  0  0  0  0  0  0  0  0  0  0  0  # atno 17320 bound_to 7965
  145.2378  140.9998  143.3953 LP  0  0  0  0  0  0  0  0  0  0  0  0  # atno 17321 bound_to 7965
  140.7367  143.2756  151.3753 LP  0  0  0  0  0  0  0  0  0  0  0  0  # atno 17342 bound_to 10162
  139.6180  144.0964  152.2364 LP  0  0  0  0  0  0  0  0  0  0  0  0  # atno 17343 bound_to 10162
  156.0616  130.5667  150.9203 LP  0  0  0  0  0  0  0  0  0  0  0  0  # atno 17370 bound_to 10713
  157.6068  131.0938  150.8866 LP  0  0  0  0  0  0  0  0  0  0  0  0  # atno 17371 bound_to 10713
  140.8405  133.8209  155.9070 LP  0  0  0  0  0  0  0  0  0  0  0  0  # atno 17394 bound_to 11000
  140.9242  134.2103  157.4907 LP  0  0  0  0  0  0  0  0  0  0  0  0  # atno 17395 bound_to 11000

$$$$
