AV-unprocessed.smi:236|AV-procd|sdf|1816|dock5
  -GOLD-   2262020403D 1   1.00000     0.00000
 Structure written by MMmdl.
 58 62  0  0  0  0  0  0  0  0  1 V2000
  147.2842  133.2378  152.4221 C   0  0  0  0  0  0  0  0  0  0  0  0
  146.2777  132.9259  151.3050 C   0  0  1  0  0  0  0  0  0  0  0  0
  145.6110  131.6915  151.5555 O   0  0  0  0  0  0  0  0  0  0  0  0
  144.2744  131.7467  151.0650 C   0  0  0  0  0  0  0  0  0  0  0  0
  144.1574  133.0794  150.3306 C   0  0  0  0  0  0  0  0  0  0  0  0
  145.1584  133.9581  151.0706 C   0  0  2  0  0  0  0  0  0  0  0  0
  145.6048  134.9774  150.1964 O   0  0  0  0  0  0  0  0  0  0  0  0
  144.5957  134.5919  152.3732 C   0  0  0  0  0  0  0  0  0  0  0  0
  145.2464  135.8360  152.7534 N   0  0  0  0  0  0  0  0  0  0  0  0
  144.9969  137.0888  152.2400 C   0  0  0  0  0  0  0  0  0  0  0  0
  145.7231  138.0501  152.7414 N   0  0  0  0  0  0  0  0  0  0  0  0
  146.5199  137.4175  153.6891 C   0  0  0  0  0  0  0  0  0  0  0  0
  147.5298  137.8586  154.5917 C   0  0  0  0  0  0  0  0  0  0  0  0
  147.9174  139.1567  154.6874 N   0  0  0  0  0  0  0  0  0  0  0  0
  147.5994  140.0497  153.5756 C   0  0  0  0  0  0  0  0  0  0  0  0
  147.8656  141.5090  153.9757 C   0  0  0  0  0  0  0  0  0  0  0  0
  149.2097  141.6371  154.4261 O   0  0  0  0  0  0  0  0  0  0  0  0
  149.4676  140.8490  155.5858 C   0  0  2  0  0  0  0  0  0  0  0  0
  150.9039  141.1268  156.0463 C   0  0  0  0  0  0  0  0  0  0  0  0
  150.8688  141.7019  157.3421 O   0  0  0  0  0  0  0  0  0  0  0  0
  150.8500  143.1181  157.3123 C   0  0  0  0  0  0  0  0  0  0  0  0
  151.2155  143.6445  158.6837 C   0  0  0  0  0  0  0  0  0  0  0  0
  151.7995  145.0299  158.8425 C   0  0  0  0  0  0  0  0  0  0  0  0
  152.6634  143.8178  159.0825 C   0  0  0  0  0  0  0  0  0  0  0  0
  149.2585  139.3650  155.2255 C   0  0  0  0  0  0  0  0  0  0  0  0
  148.1175  136.9158  155.3771 N   0  0  0  0  0  0  0  0  0  0  0  0
  147.7400  135.6366  155.2980 C   0  0  0  0  0  0  0  0  0  0  0  0
  146.8140  135.0875  154.5106 N   0  0  0  0  0  0  0  0  0  0  0  0
  146.2290  136.0235  153.7099 C   0  0  0  0  0  0  0  0  0  0  0  0
  147.7711  134.1985  152.2535 H   0  0  0  0  0  0  0  0  0  0  0  0
  148.0620  132.4750  152.4621 H   0  0  0  0  0  0  0  0  0  0  0  0
  146.8060  133.2661  153.4013 H   0  0  0  0  0  0  0  0  0  0  0  0
  146.8282  132.7877  150.3723 H   0  0  0  0  0  0  0  0  0  0  0  0
  144.0534  130.8981  150.4172 H   0  0  0  0  0  0  0  0  0  0  0  0
  143.5895  131.7128  151.9128 H   0  0  0  0  0  0  0  0  0  0  0  0
  144.4740  132.9378  149.2957 H   0  0  0  0  0  0  0  0  0  0  0  0
  143.1402  133.4674  150.3026 H   0  0  0  0  0  0  0  0  0  0  0  0
  145.6594  134.6216  149.3227 H   0  0  0  0  0  0  0  0  0  0  0  0
  143.5277  134.7876  152.2710 H   0  0  0  0  0  0  0  0  0  0  0  0
  144.6968  133.8972  153.2080 H   0  0  0  0  0  0  0  0  0  0  0  0
  144.2630  137.2662  151.4672 H   0  0  0  0  0  0  0  0  0  0  0  0
  148.2090  139.7862  152.7100 H   0  0  0  0  0  0  0  0  0  0  0  0
  146.5537  139.9348  153.2871 H   0  0  0  0  0  0  0  0  0  0  0  0
  147.7121  142.1670  153.1204 H   0  0  0  0  0  0  0  0  0  0  0  0
  147.1748  141.8331  154.7556 H   0  0  0  0  0  0  0  0  0  0  0  0
  148.7784  141.1295  156.3849 H   0  0  0  0  0  0  0  0  0  0  0  0
  151.4671  140.1928  156.0848 H   0  0  0  0  0  0  0  0  0  0  0  0
  151.4109  141.7875  155.3411 H   0  0  0  0  0  0  0  0  0  0  0  0
  151.5561  143.4937  156.5698 H   0  0  0  0  0  0  0  0  0  0  0  0
  149.8565  143.4827  157.0475 H   0  0  0  0  0  0  0  0  0  0  0  0
  150.5382  143.3215  159.4722 H   0  0  0  0  0  0  0  0  0  0  0  0
  151.9891  145.6088  157.9408 H   0  0  0  0  0  0  0  0  0  0  0  0
  151.4906  145.6080  159.7112 H   0  0  0  0  0  0  0  0  0  0  0  0
  152.9315  143.5859  160.1113 H   0  0  0  0  0  0  0  0  0  0  0  0
  153.4246  143.5876  158.3395 H   0  0  0  0  0  0  0  0  0  0  0  0
  149.4320  138.7520  156.1089 H   0  0  0  0  0  0  0  0  0  0  0  0
  149.9890  139.0540  154.4773 H   0  0  0  0  0  0  0  0  0  0  0  0
  148.2552  134.9560  155.9597 H   0  0  0  0  0  0  0  0  0  0  0  0
  1  2  1  0  0  0  0
  1 30  1  0  0  0  0
  1 31  1  0  0  0  0
  1 32  1  0  0  0  0
  2  6  1  0  0  0  0
  2  3  1  0  0  0  0
  2 33  1  0  0  0  0
  3  4  1  0  0  0  0
  4  5  1  0  0  0  0
  4 34  1  0  0  0  0
  4 35  1  0  0  0  0
  5  6  1  0  0  0  0
  5 36  1  0  0  0  0
  5 37  1  0  0  0  0
  6  7  1  0  0  0  0
  6  8  1  0  0  0  0
  7 38  1  0  0  0  0
  8  9  1  0  0  0  0
  8 39  1  0  0  0  0
  8 40  1  0  0  0  0
  9 29  1  0  0  0  0
  9 10  1  0  0  0  0
 10 11  2  0  0  0  0
 10 41  1  0  0  0  0
 11 12  1  0  0  0  0
 12 29  2  0  0  0  0
 12 13  1  0  0  0  0
 13 14  1  0  0  0  0
 13 26  2  0  0  0  0
 14 25  1  0  0  0  0
 14 15  1  0  0  0  0
 15 16  1  0  0  0  0
 15 42  1  0  0  0  0
 15 43  1  0  0  0  0
 16 17  1  0  0  0  0
 16 44  1  0  0  0  0
 16 45  1  0  0  0  0
 17 18  1  0  0  0  0
 18 19  1  0  0  0  0
 18 25  1  0  0  0  0
 18 46  1  0  0  0  0
 19 20  1  0  0  0  0
 19 47  1  0  0  0  0
 19 48  1  0  0  0  0
 20 21  1  0  0  0  0
 21 22  1  0  0  0  0
 21 49  1  0  0  0  0
 21 50  1  0  0  0  0
 22 24  1  0  0  0  0
 22 23  1  0  0  0  0
 22 51  1  0  0  0  0
 23 24  1  0  0  0  0
 23 52  1  0  0  0  0
 23 53  1  0  0  0  0
 24 54  1  0  0  0  0
 24 55  1  0  0  0  0
 25 56  1  0  0  0  0
 25 57  1  0  0  0  0
 26 27  1  0  0  0  0
 27 28  2  0  0  0  0
 27 58  1  0  0  0  0
 28 29  1  0  0  0  0
M  END
> <s_m_source_file>
AV-unprocessed.smi

> <i_m_source_file_index>
236

> <i_lp_mmshare_version>
43012

> <i_f3d_flags>
0

> <s_epik_input>
W0NIMl0xW0NIMl1PW0NAQEhdKFtDSDNdKVtDQEBdMShbT0hdKVtDSDJdbihbY0hdbjIpYyhjMjMpbltjSF1uYzNONFtDSDJdW0NIMl1PW0NASF0oW0NIMl00KVtDSDJdT1tDSDJdW0NIXTVbQ0gyXVtDSDJdNQ==

> <s_epik_cmdline>
J2VwaWtfcHl0aG9uJywgJy1waCcsICc3LjAnLCAnLXRuJywgJzgnLCAnLW1hJywgJzIwMCcsICctbWV0YWxfYmluZGluZycsICctaW1hZScsICc8aW5maWxlLm1hZT4nLCAnLW9tYWUnLCAnPG91dGZpbGUubWFlPic=

> <r_lp_tautomer_probability>
1

> <r_epik_Ionization_Penalty>
7.21838e-05

> <r_epik_Ionization_Penalty_Charging>
0

> <r_epik_Ionization_Penalty_Neutral>
7.21838e-05

> <r_epik_State_Penalty>
-0

> <r_epik_Charging_Adjusted_Penalty>
0

> <i_epik_Tot_Q>
0

> <i_epik_Tot_abs_Q>
0

> <r_epik_Metal_State_Penalty>
-0

> <b_epik_Metal_Only>
0

> <s_lp_Force_Field>
OPLS_2005

> <r_lp_Energy>
48.2383

> <b_lp_Chiralities_Consistent>
1

> <s_lp_Variant>
AV-unprocessed.smi:236-8

> <Gold.Version>
5.8.1

> <Gold.Id.Protein>
6NUR|6NUR_protein|mol2

> <Gold.PLP.Fitness>
47.9754

> <Gold.PLP.PLP>
-46.0897

> <Gold.PLP.part.hbond>
-2.7671

> <Gold.PLP.part.metal>
0.0000

> <Gold.PLP.part.buried>
-3.6540

> <Gold.PLP.part.nonpolar>
-39.7513

> <Gold.PLP.part.repulsive>
0.8686

> <Gold.PLP.ligand.clash>
0.0000

> <Gold.PLP.ligand.torsion>
2.7110

> <Gold.PLP.Chemscore.Hbond>
1.1082

> <Gold.PLP.Chemscore.CHOScore>
1.0000

> <Gold.PLP.Chemscore.Metal>
0.0000

> <Gold.Chemscore.Hbonds>
donor molecule, donor type, donor heavy atom, donor atom, acceptor molecule, acceptor atom, score
      L1  H     7    38       P1  7921  0.98
      P1  H  8011  8017       L1    17  0.08
      L1  C    10    41       P1 10171  1.00

> <Gold.PLP.Chemscore.Internal.Correction>
0.9831

> <Gold.Rescore>
     Score         DG    S(hbond)    S(metal)    S(lipo)     H(rot)  DE(clash)    DE(int)     intcor
      9.29     -15.95       0.99        0.00     123.99       2.87       0.36       6.30       ----

> <Gold.Chemscore.Fitness>
9.2868

> <Gold.Chemscore.DG>
-15.9468

> <Gold.Chemscore.ZeroCoef>
-5.4800

> <Gold.Chemscore.Hbond>
0.9868

> <Gold.Chemscore.Metal>
0.0000

> <Gold.Chemscore.Lipo>
123.9888

> <Gold.Chemscore.Internal_Hbond>
0.0000

> <Gold.Chemscore.DEClash>
0.3568

> <Gold.Chemscore.DEInternal>
6.3032

> <Gold.Chemscore.Rot>
2.8655

> <Gold.Chemscore.Internal.Correction>
   9.000000E+99

> <Gold.Chemscore.Hbonds>
donor molecule, donor type, donor heavy atom, donor atom, acceptor molecule, acceptor atom, score
      L1  H     7    38       P1  7921  0.87

> <Gold.Chemscore.Hbond.Weighted>
-3.2959

> <Gold.Chemscore.Metal.Weighted>
-0.0000

> <Gold.Chemscore.Lipo.Weighted>
-14.5067

> <Gold.Chemscore.Internal_Hbond.Weighted>
0.0000

> <Gold.Chemscore.DEClash.Weighted>
0.3568

> <Gold.Chemscore.DEInternal.Weighted>
6.3032

> <Gold.Chemscore.Rot.Weighted>
7.3358

> <Gold.Chemscore.Internal.Correction.Weighted>
   9.000000E+99

> <Gold.Protein.RotatedTorsions>
[ 6907 6896 6895 6894 ] final -113.12 input  -60.11 | X-H torsion
[ 7974 7965 7964 7962 ] final  135.36 input  175.53 | X-H torsion
[ 8008 7997 7996 7995 ] final -139.07 input   59.86 | X-H torsion
[ 10167 10162 10161 10158 ] final -101.69 input  -65.29 | X-H torsion
[ 10718 10713 10712 10709 ] final  -57.55 input   66.30 | X-H torsion
[ 10763 10752 10751 10750 ] final  -79.73 input  -60.55 | X-H torsion
[ 11005 11000 10999 10996 ] final -123.67 input  -57.11 | X-H torsion

> <Gold.Protein.ActiveResidues>
 VAL166  LYS551  ARG553  GLY616  TRP617  ASP618  TYR619  PRO620  LYS621  CYS622 
 ASP623  PHE694  ASN695  SER759  ASP760  ASP761  ALA762  ILE779  LEU786  VAL792 
 PHE793  MET794  SER795  GLU796  ALA797  LYS798  CYS799  TRP800  GLU811  SER814 

> <Gold.Protein.RotatedAtoms>
  150.7807  133.8990  159.3335 H   0  0  0  0  0  0  0  0  0  0  0  0  # atno 6907 bound_to 6896
  151.6853  135.0953  160.0233 H   0  0  0  0  0  0  0  0  0  0  0  0  # atno 6908 bound_to 6896
  152.3857  133.6569  159.6232 H   0  0  0  0  0  0  0  0  0  0  0  0  # atno 6909 bound_to 6896
  144.9671  139.4646  143.5451 H   0  0  0  0  0  0  0  0  0  0  0  0  # atno 7974 bound_to 7965
  155.4388  140.0530  157.3012 H   0  0  0  0  0  0  0  0  0  0  0  0  # atno 8008 bound_to 7997
  154.4827  140.2088  155.9684 H   0  0  0  0  0  0  0  0  0  0  0  0  # atno 8009 bound_to 7997
  156.1229  140.3185  155.8240 H   0  0  0  0  0  0  0  0  0  0  0  0  # atno 8010 bound_to 7997
  140.2386  143.3555  152.0822 H   0  0  0  0  0  0  0  0  0  0  0  0  # atno 10167 bound_to 10162
  156.1202  130.4167  150.0455 H   0  0  0  0  0  0  0  0  0  0  0  0  # atno 10718 bound_to 10713
  154.5423  135.5685  153.6850 H   0  0  0  0  0  0  0  0  0  0  0  0  # atno 10763 bound_to 10752
  152.9967  135.6231  154.2485 H   0  0  0  0  0  0  0  0  0  0  0  0  # atno 10764 bound_to 10752
  154.2416  135.2862  155.2831 H   0  0  0  0  0  0  0  0  0  0  0  0  # atno 10765 bound_to 10752
  140.9901  134.0551  157.3664 H   0  0  0  0  0  0  0  0  0  0  0  0  # atno 11005 bound_to 11000
  146.3371  139.8859  142.8817 LP  0  0  0  0  0  0  0  0  0  0  0  0  # atno 17320 bound_to 7965
  145.2614  141.0078  143.3824 LP  0  0  0  0  0  0  0  0  0  0  0  0  # atno 17321 bound_to 7965
  139.5085  144.6851  151.5909 LP  0  0  0  0  0  0  0  0  0  0  0  0  # atno 17342 bound_to 10162
  140.6131  143.9399  150.6468 LP  0  0  0  0  0  0  0  0  0  0  0  0  # atno 17343 bound_to 10162
  156.8395  130.9421  151.3632 LP  0  0  0  0  0  0  0  0  0  0  0  0  # atno 17370 bound_to 10713
  157.6386  130.8787  149.9405 LP  0  0  0  0  0  0  0  0  0  0  0  0  # atno 17371 bound_to 10713
  139.8988  135.0156  156.7167 LP  0  0  0  0  0  0  0  0  0  0  0  0  # atno 17394 bound_to 11000
  140.7053  133.9270  155.8050 LP  0  0  0  0  0  0  0  0  0  0  0  0  # atno 17395 bound_to 11000

$$$$
