AV-unprocessed.smi:1|AV-procd|sdf|11|dock3
  -GOLD-   2262015103D 1   1.00000     0.00000
 Structure written by MMmdl.
 57 62  0  0  0  0  0  0  0  0  1 V2000
  149.7208  131.1810  154.1795 O   0  0  0  0  0  0  0  0  0  0  0  0
  148.5710  131.5589  153.9383 C   0  0  0  0  0  0  0  0  0  0  0  0
  147.9844  132.7893  154.2060 N   0  0  0  0  0  0  0  0  0  0  0  0
  148.7154  133.7858  154.6053 C   0  0  0  0  0  0  0  0  0  0  0  0
  150.0896  133.9132  154.8486 N   0  0  0  0  0  0  0  0  0  0  0  0
  150.7431  135.0714  155.2977 C   0  0  0  0  0  0  0  0  0  0  0  0
  150.1546  136.2088  155.5554 N   0  0  0  0  0  0  0  0  0  0  0  0
  148.7881  136.1362  155.3260 C   0  0  0  0  0  0  0  0  0  0  0  0
  148.0357  135.0697  154.8844 C   0  0  0  0  0  0  0  0  0  0  0  0
  146.6939  135.4222  154.7793 N   0  0  0  0  0  0  0  0  0  0  0  0
  146.6954  136.6947  155.1692 C   0  0  0  0  0  0  0  0  0  0  0  0
  147.9006  137.1895  155.5124 N   0  0  0  0  0  0  0  0  0  0  0  0
  148.2282  138.5675  155.9882 C   0  0  2  0  0  0  0  0  0  0  0  0
  149.5926  138.7879  155.8201 O   0  0  0  0  0  0  0  0  0  0  0  0
  149.9820  139.7767  156.7599 C   0  0  2  0  0  0  0  0  0  0  0  0
  151.5083  139.8580  156.8925 C   0  0  0  0  0  0  0  0  0  0  0  0
  151.8283  140.6972  157.9896 O   0  0  0  0  0  0  0  0  0  0  0  0
  152.8887  140.4171  158.7699 C   0  0  0  0  0  0  0  0  0  0  0  0
  153.6907  139.5114  158.5334 O   0  0  0  0  0  0  0  0  0  0  0  0
  152.9912  141.3216  159.9515 C   0  0  0  0  0  0  0  0  0  0  0  0
  153.7610  140.9194  161.0679 C   0  0  0  0  0  0  0  0  0  0  0  0
  153.8769  141.7530  162.1971 C   0  0  0  0  0  0  0  0  0  0  0  0
  153.2228  142.9985  162.2246 C   0  0  0  0  0  0  0  0  0  0  0  0
  152.4528  143.4096  161.1212 C   0  0  0  0  0  0  0  0  0  0  0  0
  152.3368  142.5779  159.9902 C   0  0  0  0  0  0  0  0  0  0  0  0
  149.2305  139.3595  158.0270 C   0  0  2  0  0  0  0  0  0  0  0  0
  149.9486  138.3503  158.7171 O   0  0  0  0  0  0  0  0  0  0  0  0
  148.9141  137.0938  159.0848 S   0  0  0  0  0  0  0  0  0  0  0  0
  149.4723  135.8565  158.5191 O   0  0  0  0  0  0  0  0  0  0  0  0
  148.5318  137.2140  160.5000 O   0  0  0  0  0  0  0  0  0  0  0  0
  147.6077  137.5567  158.1535 O   0  0  0  0  0  0  0  0  0  0  0  0
  147.9171  138.7699  157.4847 C   0  0  2  0  0  0  0  0  0  0  0  0
  147.6547  130.6053  153.2436 C   0  0  0  0  0  0  0  0  0  0  0  0
  147.8519  129.2140  153.3715 C   0  0  0  0  0  0  0  0  0  0  0  0
  146.9885  128.3154  152.7144 C   0  0  0  0  0  0  0  0  0  0  0  0
  145.9288  128.8047  151.9263 C   0  0  0  0  0  0  0  0  0  0  0  0
  145.7325  130.1931  151.7934 C   0  0  0  0  0  0  0  0  0  0  0  0
  146.5943  131.0928  152.4506 C   0  0  0  0  0  0  0  0  0  0  0  0
  151.8203  134.9524  155.4224 H   0  0  0  0  0  0  0  0  0  0  0  0
  145.7917  137.2856  155.2019 H   0  0  0  0  0  0  0  0  0  0  0  0
  147.6600  139.2365  155.3402 H   0  0  0  0  0  0  0  0  0  0  0  0
  149.5970  140.7367  156.4101 H   0  0  0  0  0  0  0  0  0  0  0  0
  151.9387  138.8657  157.0332 H   0  0  0  0  0  0  0  0  0  0  0  0
  151.9378  140.2736  155.9800 H   0  0  0  0  0  0  0  0  0  0  0  0
  154.2725  139.9675  161.0703 H   0  0  0  0  0  0  0  0  0  0  0  0
  154.4688  141.4358  163.0430 H   0  0  0  0  0  0  0  0  0  0  0  0
  153.3113  143.6375  163.0908 H   0  0  0  0  0  0  0  0  0  0  0  0
  151.9497  144.3651  161.1416 H   0  0  0  0  0  0  0  0  0  0  0  0
  151.7374  142.9245  159.1609 H   0  0  0  0  0  0  0  0  0  0  0  0
  149.0620  140.1991  158.7020 H   0  0  0  0  0  0  0  0  0  0  0  0
  147.0894  139.4732  157.5781 H   0  0  0  0  0  0  0  0  0  0  0  0
  148.6634  128.8311  153.9734 H   0  0  0  0  0  0  0  0  0  0  0  0
  147.1396  127.2508  152.8151 H   0  0  0  0  0  0  0  0  0  0  0  0
  145.2677  128.1151  151.4223 H   0  0  0  0  0  0  0  0  0  0  0  0
  144.9211  130.5681  151.1872 H   0  0  0  0  0  0  0  0  0  0  0  0
  146.4382  132.1568  152.3434 H   0  0  0  0  0  0  0  0  0  0  0  0
  150.6602  133.0954  154.6883 H   0  0  0  0  0  0  0  0  0  0  0  0
  1  2  2  0  0  0  0
  2  3  1  0  0  0  0
  2 33  1  0  0  0  0
  3  4  2  0  0  0  0
  4  9  1  0  0  0  0
  4  5  1  0  0  0  0
  5  6  1  0  0  0  0
  5 57  1  0  0  0  0
  6  7  2  0  0  0  0
  6 39  1  0  0  0  0
  7  8  1  0  0  0  0
  8 12  1  0  0  0  0
  8  9  2  0  0  0  0
  9 10  1  0  0  0  0
 10 11  2  0  0  0  0
 11 12  1  0  0  0  0
 11 40  1  0  0  0  0
 12 13  1  0  0  0  0
 13 32  1  0  0  0  0
 13 14  1  0  0  0  0
 13 41  1  0  0  0  0
 14 15  1  0  0  0  0
 15 16  1  0  0  0  0
 15 26  1  0  0  0  0
 15 42  1  0  0  0  0
 16 17  1  0  0  0  0
 16 43  1  0  0  0  0
 16 44  1  0  0  0  0
 17 18  1  0  0  0  0
 18 19  2  0  0  0  0
 18 20  1  0  0  0  0
 20 25  1  0  0  0  0
 20 21  2  0  0  0  0
 21 22  1  0  0  0  0
 21 45  1  0  0  0  0
 22 23  2  0  0  0  0
 22 46  1  0  0  0  0
 23 24  1  0  0  0  0
 23 47  1  0  0  0  0
 24 25  2  0  0  0  0
 24 48  1  0  0  0  0
 25 49  1  0  0  0  0
 26 32  1  0  0  0  0
 26 27  1  0  0  0  0
 26 50  1  0  0  0  0
 27 28  1  0  0  0  0
 28 29  2  0  0  0  0
 28 30  2  0  0  0  0
 28 31  1  0  0  0  0
 31 32  1  0  0  0  0
 32 51  1  0  0  0  0
 33 38  1  0  0  0  0
 33 34  2  0  0  0  0
 34 35  1  0  0  0  0
 34 52  1  0  0  0  0
 35 36  2  0  0  0  0
 35 53  1  0  0  0  0
 36 37  1  0  0  0  0
 36 54  1  0  0  0  0
 37 38  2  0  0  0  0
 37 55  1  0  0  0  0
 38 56  1  0  0  0  0
M  END
> <s_m_source_file>
AV-unprocessed.smi

> <i_m_source_file_index>
1

> <i_lp_mmshare_version>
43012

> <i_f3d_flags>
0

> <s_epik_input>
W2NIXTFbY0hdW2NIXVtjSF1bY0hdYzFDKD1PKVtOSF1jKG5bY0hdbjIpYyhjMjMpbltjSF1uM1tDQEBIXShbQ0BIXShbQ0BIXTQ1KU9TKE81KSg9Tyk9TylPW0NASF00W0NIMl1PQyg9TyljNltjSF1bY0hdW2NIXVtjSF1bY0hdNg==

> <s_epik_cmdline>
J2VwaWtfcHl0aG9uJywgJy1waCcsICc3LjAnLCAnLXRuJywgJzgnLCAnLW1hJywgJzIwMCcsICctbWV0YWxfYmluZGluZycsICctaW1hZScsICc8aW5maWxlLm1hZT4nLCAnLW9tYWUnLCAnPG91dGZpbGUubWFlPic=

> <r_epik_Ionization_Penalty>
0.122545

> <r_epik_Ionization_Penalty_Charging>
0.122545

> <r_epik_Ionization_Penalty_Neutral>
7.8935e-16

> <r_epik_State_Penalty>
2.69178

> <r_epik_Charging_Adjusted_Penalty>
2.81433

> <i_epik_Tot_Q>
0

> <i_epik_Tot_abs_Q>
0

> <r_epik_Metal_State_Penalty>
3.02665

> <b_epik_Metal_Only>
0

> <s_epik_Chemistry_Notes>
This compound has an ester and may undergo hydrolysis at high or low pH. This compound contains an acetal/aminal-like group ( X-CH(R)-Y where X, Y are N, S, or O) that may be acid/base labile, releasing an aldehyde.

> <s_lp_Force_Field>
OPLS_2005

> <r_lp_Energy>
59.7171

> <b_lp_Chiralities_Consistent>
1

> <s_lp_Variant>
AV-unprocessed.smi:1-11

> <Gold.Version>
5.8.1

> <Gold.Id.Protein>
6NUR|6NUR_protein|mol2

> <Gold.PLP.Fitness>
60.5706

> <Gold.PLP.PLP>
-54.4627

> <Gold.PLP.part.hbond>
-3.9495

> <Gold.PLP.part.metal>
0.0000

> <Gold.PLP.part.buried>
-6.6735

> <Gold.PLP.part.nonpolar>
-42.9384

> <Gold.PLP.part.repulsive>
0.3615

> <Gold.PLP.ligand.clash>
0.0000

> <Gold.PLP.ligand.torsion>
1.3549

> <Gold.PLP.Chemscore.Hbond>
2.8596

> <Gold.PLP.Chemscore.CHOScore>
0.0000

> <Gold.PLP.Chemscore.Metal>
0.0000

> <Gold.Chemscore.Hbonds>
donor molecule, donor type, donor heavy atom, donor atom, acceptor molecule, acceptor atom, score
      P1  H  6896  6907       L1    29  0.98
      P1  H  6931  6943       L1    30  0.72
      P1  H  6934  6947       L1    30  0.19
      P1  H  7997  8010       L1    19  1.00

> <Gold.PLP.Chemscore.Internal.Correction>
0.2389

> <Gold.Rescore>
     Score         DG    S(hbond)    S(metal)    S(lipo)     H(rot)  DE(clash)    DE(int)     intcor
     19.72     -23.39       2.78        0.00     120.40       2.13       0.00       3.67       ----

> <Gold.Chemscore.Fitness>
19.7160

> <Gold.Chemscore.DG>
-23.3867

> <Gold.Chemscore.ZeroCoef>
-5.4800

> <Gold.Chemscore.Hbond>
2.7787

> <Gold.Chemscore.Metal>
0.0000

> <Gold.Chemscore.Lipo>
120.4039

> <Gold.Chemscore.Internal_Hbond>
0.0000

> <Gold.Chemscore.DEClash>
0.0048

> <Gold.Chemscore.DEInternal>
3.6659

> <Gold.Chemscore.Rot>
2.1333

> <Gold.Chemscore.Internal.Correction>
   9.000000E+99

> <Gold.Chemscore.Hbonds>
donor molecule, donor type, donor heavy atom, donor atom, acceptor molecule, acceptor atom, score
      P1  H  6896  6907       L1    29  0.91
      P1  H  6931  6943       L1    30  0.72
      P1  H  6934  6947       L1    30  0.17
      P1  H  7997  8010       L1    19  0.49

> <Gold.Chemscore.Hbond.Weighted>
-9.2808

> <Gold.Chemscore.Metal.Weighted>
-0.0000

> <Gold.Chemscore.Lipo.Weighted>
-14.0873

> <Gold.Chemscore.Internal_Hbond.Weighted>
0.0000

> <Gold.Chemscore.DEClash.Weighted>
0.0048

> <Gold.Chemscore.DEInternal.Weighted>
3.6659

> <Gold.Chemscore.Rot.Weighted>
5.4614

> <Gold.Chemscore.Internal.Correction.Weighted>
   9.000000E+99

> <Gold.Protein.RotatedTorsions>
[ 6907 6896 6895 6894 ] final  -73.87 input  -60.11 | X-H torsion
[ 7974 7965 7964 7962 ] final -163.21 input  175.53 | X-H torsion
[ 8008 7997 7996 7995 ] final   36.45 input   59.86 | X-H torsion
[ 10167 10162 10161 10158 ] final   25.65 input  -65.29 | X-H torsion
[ 10718 10713 10712 10709 ] final  155.95 input   66.30 | X-H torsion
[ 10763 10752 10751 10750 ] final  101.36 input  -60.55 | X-H torsion
[ 11005 11000 10999 10996 ] final  -44.46 input  -57.11 | X-H torsion

> <Gold.Protein.ActiveResidues>
 VAL166  LYS551  ARG553  GLY616  TRP617  ASP618  TYR619  PRO620  LYS621  CYS622 
 ASP623  PHE694  ASN695  SER759  ASP760  ASP761  ALA762  ILE779  LEU786  VAL792 
 PHE793  MET794  SER795  GLU796  ALA797  LYS798  CYS799  TRP800  GLU811  SER814 

> <Gold.Protein.RotatedAtoms>
  150.7114  134.4952  159.5534 H   0  0  0  0  0  0  0  0  0  0  0  0  # atno 6907 bound_to 6896
  152.2561  134.8079  160.0447 H   0  0  0  0  0  0  0  0  0  0  0  0  # atno 6908 bound_to 6896
  151.8809  133.3460  159.3803 H   0  0  0  0  0  0  0  0  0  0  0  0  # atno 6909 bound_to 6896
  144.7333  140.3141  143.6183 H   0  0  0  0  0  0  0  0  0  0  0  0  # atno 7974 bound_to 7965
  155.1877  140.3305  155.4364 H   0  0  0  0  0  0  0  0  0  0  0  0  # atno 8008 bound_to 7997
  156.2454  140.1916  156.6922 H   0  0  0  0  0  0  0  0  0  0  0  0  # atno 8009 bound_to 7997
  154.6227  140.0593  156.9621 H   0  0  0  0  0  0  0  0  0  0  0  0  # atno 8010 bound_to 7997
  140.5088  144.0194  150.6363 H   0  0  0  0  0  0  0  0  0  0  0  0  # atno 10167 bound_to 10162
  157.2115  131.0698  151.1967 H   0  0  0  0  0  0  0  0  0  0  0  0  # atno 10718 bound_to 10713
  153.3257  135.4047  155.1454 H   0  0  0  0  0  0  0  0  0  0  0  0  # atno 10763 bound_to 10752
  154.8611  135.3598  154.5537 H   0  0  0  0  0  0  0  0  0  0  0  0  # atno 10764 bound_to 10752
  153.5973  135.7072  153.5458 H   0  0  0  0  0  0  0  0  0  0  0  0  # atno 10765 bound_to 10752
  141.0452  133.6764  156.2876 H   0  0  0  0  0  0  0  0  0  0  0  0  # atno 11005 bound_to 11000
  145.7635  139.1833  143.2253 LP  0  0  0  0  0  0  0  0  0  0  0  0  # atno 17320 bound_to 7965
  146.0967  140.7592  142.9569 LP  0  0  0  0  0  0  0  0  0  0  0  0  # atno 17321 bound_to 7965
  140.3511  143.2962  152.0486 LP  0  0  0  0  0  0  0  0  0  0  0  0  # atno 17342 bound_to 10162
  139.4890  144.6373  151.6949 LP  0  0  0  0  0  0  0  0  0  0  0  0  # atno 17343 bound_to 10162
  157.3668  130.7160  149.6538 LP  0  0  0  0  0  0  0  0  0  0  0  0  # atno 17370 bound_to 10713
  155.9690  130.4210  150.4449 LP  0  0  0  0  0  0  0  0  0  0  0  0  # atno 17371 bound_to 10713
  140.6160  134.5410  157.5540 LP  0  0  0  0  0  0  0  0  0  0  0  0  # atno 17394 bound_to 11000
  139.9306  134.7971  156.0941 LP  0  0  0  0  0  0  0  0  0  0  0  0  # atno 17395 bound_to 11000

$$$$
