AV-unprocessed.smi:2565|AV-procd|sdf|10071|dock7
  -GOLD-   2272014103D 1   1.00000     0.00000
 Structure written by MMmdl.
 24 25  0  0  0  0  0  0  0  0  1 V2000
  150.1351  136.9758  154.9295 C   0  0  0  0  0  0  0  0  0  0  0  0
  151.0404  138.1074  154.9122 N   0  0  0  0  0  0  0  0  0  0  0  0
  152.3807  138.1061  154.8576 C   0  0  0  0  0  0  0  0  0  0  0  0
  152.9465  139.3120  154.8668 N   0  0  0  0  0  0  0  0  0  0  0  0
  151.8850  140.1925  154.9333 N   0  0  0  0  0  0  0  0  0  0  0  0
  150.7823  139.4311  154.9484 C   0  0  0  0  0  0  0  0  0  0  0  0
  149.3861  139.9749  155.0344 C   0  0  1  0  0  0  0  0  0  0  0  0
  149.3585  141.5158  155.0349 C   0  0  0  0  0  0  0  0  0  0  0  0
  147.9781  141.9976  155.0369 N   0  0  0  0  0  0  0  0  0  0  0  0
  147.2202  141.4356  153.9196 C   0  0  0  0  0  0  0  0  0  0  0  0
  147.3070  139.8986  153.9307 C   0  0  0  0  0  0  0  0  0  0  0  0
  148.6723  139.4961  153.8968 O   0  0  0  0  0  0  0  0  0  0  0  0
  150.6987  136.0458  155.0089 H   0  0  0  0  0  0  0  0  0  0  0  0
  149.5503  136.9584  154.0096 H   0  0  0  0  0  0  0  0  0  0  0  0
  149.4612  137.0543  155.7829 H   0  0  0  0  0  0  0  0  0  0  0  0
  152.9613  137.1962  154.8134 H   0  0  0  0  0  0  0  0  0  0  0  0
  148.9091  139.5882  155.9364 H   0  0  0  0  0  0  0  0  0  0  0  0
  149.8896  141.9010  155.9056 H   0  0  0  0  0  0  0  0  0  0  0  0
  149.8805  141.8946  154.1554 H   0  0  0  0  0  0  0  0  0  0  0  0
  147.9717  143.0107  154.9759 H   0  0  0  0  0  0  0  0  0  0  0  0
  146.1786  141.7522  153.9771 H   0  0  0  0  0  0  0  0  0  0  0  0
  147.6121  141.8173  152.9761 H   0  0  0  0  0  0  0  0  0  0  0  0
  146.8128  139.4856  154.8117 H   0  0  0  0  0  0  0  0  0  0  0  0
  146.7965  139.4887  153.0593 H   0  0  0  0  0  0  0  0  0  0  0  0
  1  2  1  0  0  0  0
  1 13  1  0  0  0  0
  1 14  1  0  0  0  0
  1 15  1  0  0  0  0
  2  6  1  0  0  0  0
  2  3  1  0  0  0  0
  3  4  2  0  0  0  0
  3 16  1  0  0  0  0
  4  5  1  0  0  0  0
  5  6  2  0  0  0  0
  6  7  1  0  0  0  0
  7 12  1  0  0  0  0
  7  8  1  0  0  0  0
  7 17  1  0  0  0  0
  8  9  1  0  0  0  0
  8 18  1  0  0  0  0
  8 19  1  0  0  0  0
  9 10  1  0  0  0  0
  9 20  1  0  0  0  0
 10 11  1  0  0  0  0
 10 21  1  0  0  0  0
 10 22  1  0  0  0  0
 11 12  1  0  0  0  0
 11 23  1  0  0  0  0
 11 24  1  0  0  0  0
M  END
> <s_m_source_file>
AV-unprocessed.smi

> <i_m_source_file_index>
2565

> <i_lp_mmshare_version>
43012

> <i_f3d_flags>
0

> <s_epik_input>
W0NIM11uMVtjSF1ubmMxW0NAQEhdMltDSDJdW05IXVtDSDJdW0NIMl1PMg==

> <s_epik_cmdline>
J2VwaWtfcHl0aG9uJywgJy1waCcsICc3LjAnLCAnLXRuJywgJzgnLCAnLW1hJywgJzIwMCcsICctbWV0YWxfYmluZGluZycsICctaW1hZScsICc8aW5maWxlLm1hZT4nLCAnLW9tYWUnLCAnPG91dGZpbGUubWFlPic=

> <r_lp_tautomer_probability>
1

> <r_epik_Ionization_Penalty>
0.980774

> <r_epik_Ionization_Penalty_Charging>
0

> <r_epik_Ionization_Penalty_Neutral>
0.980774

> <r_epik_State_Penalty>
1.0271

> <r_epik_Charging_Adjusted_Penalty>
1.0271

> <i_epik_Tot_Q>
0

> <i_epik_Tot_abs_Q>
0

> <r_epik_Metal_State_Penalty>
1.02688

> <b_epik_Metal_Only>
0

> <s_lp_Force_Field>
OPLS_2005

> <r_lp_Energy>
14.243

> <b_lp_Chiralities_Consistent>
1

> <s_lp_Variant>
AV-unprocessed.smi:2565-4

> <Gold.Version>
5.8.1

> <Gold.Id.Protein>
6NUR|6NUR_protein|mol2

> <Gold.PLP.Fitness>
30.3586

> <Gold.PLP.PLP>
-22.2636

> <Gold.PLP.part.hbond>
-3.4443

> <Gold.PLP.part.metal>
0.0000

> <Gold.PLP.part.buried>
-3.7596

> <Gold.PLP.part.nonpolar>
-17.5228

> <Gold.PLP.part.repulsive>
1.2124

> <Gold.PLP.ligand.clash>
0.0000

> <Gold.PLP.ligand.torsion>
0.0089

> <Gold.PLP.Chemscore.Hbond>
2.7033

> <Gold.PLP.Chemscore.CHOScore>
0.0000

> <Gold.PLP.Chemscore.Metal>
0.0000

> <Gold.Chemscore.Hbonds>
donor molecule, donor type, donor heavy atom, donor atom, acceptor molecule, acceptor atom, score
      L1  H     9    20       P1  8028  0.91
      P1  H  7989  7998       L1     5  0.76
      P1  H  7997  8008       L1     4  1.00

> <Gold.PLP.Chemscore.Internal.Correction>
0.0030

> <Gold.Rescore>
     Score         DG    S(hbond)    S(metal)    S(lipo)     H(rot)  DE(clash)    DE(int)     intcor
     12.60     -12.84       2.03        0.00      26.86       1.00       0.01       0.23       ----

> <Gold.Chemscore.Fitness>
12.6004

> <Gold.Chemscore.DG>
-12.8430

> <Gold.Chemscore.ZeroCoef>
-5.4800

> <Gold.Chemscore.Hbond>
2.0300

> <Gold.Chemscore.Metal>
0.0000

> <Gold.Chemscore.Lipo>
26.8608

> <Gold.Chemscore.Internal_Hbond>
0.0000

> <Gold.Chemscore.DEClash>
0.0089

> <Gold.Chemscore.DEInternal>
0.2337

> <Gold.Chemscore.Rot>
1.0000

> <Gold.Chemscore.Internal.Correction>
   9.000000E+99

> <Gold.Chemscore.Hbonds>
donor molecule, donor type, donor heavy atom, donor atom, acceptor molecule, acceptor atom, score
      L1  H     9    20       P1  8028  0.75
      P1  H  7989  7998       L1     5  0.10
      P1  H  7997  8008       L1     4  0.56

> <Gold.Chemscore.Hbond.Weighted>
-6.7803

> <Gold.Chemscore.Metal.Weighted>
-0.0000

> <Gold.Chemscore.Lipo.Weighted>
-3.1427

> <Gold.Chemscore.Internal_Hbond.Weighted>
0.0000

> <Gold.Chemscore.DEClash.Weighted>
0.0089

> <Gold.Chemscore.DEInternal.Weighted>
0.2337

> <Gold.Chemscore.Rot.Weighted>
2.5600

> <Gold.Chemscore.Internal.Correction.Weighted>
   9.000000E+99

> <Gold.Protein.RotatedTorsions>
[ 6907 6896 6895 6894 ] final   70.98 input  -60.11 | X-H torsion
[ 7974 7965 7964 7962 ] final  -52.07 input  175.53 | X-H torsion
[ 8008 7997 7996 7995 ] final  -10.22 input   59.86 | X-H torsion
[ 10167 10162 10161 10158 ] final  117.30 input  -65.29 | X-H torsion
[ 10718 10713 10712 10709 ] final -155.57 input   66.30 | X-H torsion
[ 10763 10752 10751 10750 ] final  151.26 input  -60.55 | X-H torsion
[ 11005 11000 10999 10996 ] final  114.85 input  -57.11 | X-H torsion

> <Gold.Protein.ActiveResidues>
 VAL166  LYS551  ARG553  GLY616  TRP617  ASP618  TYR619  PRO620  LYS621  CYS622 
 ASP623  PHE694  ASN695  SER759  ASP760  ASP761  ALA762  ILE779  LEU786  VAL792 
 PHE793  MET794  SER795  GLU796  ALA797  LYS798  CYS799  TRP800  GLU811  SER814 

> <Gold.Protein.RotatedAtoms>
  152.4782  134.4788  159.9658 H   0  0  0  0  0  0  0  0  0  0  0  0  # atno 6907 bound_to 6896
  151.4799  133.3543  159.2844 H   0  0  0  0  0  0  0  0  0  0  0  0  # atno 6908 bound_to 6896
  150.8836  134.8257  159.7304 H   0  0  0  0  0  0  0  0  0  0  0  0  # atno 6909 bound_to 6896
  145.9120  140.7907  142.9690 H   0  0  0  0  0  0  0  0  0  0  0  0  # atno 7974 bound_to 7965
  154.5574  140.2334  155.8388 H   0  0  0  0  0  0  0  0  0  0  0  0  # atno 8008 bound_to 7997
  156.2000  140.3055  155.9467 H   0  0  0  0  0  0  0  0  0  0  0  0  # atno 8009 bound_to 7997
  155.2953  140.0428  157.3016 H   0  0  0  0  0  0  0  0  0  0  0  0  # atno 8010 bound_to 7997
  139.6188  144.7097  151.2680 H   0  0  0  0  0  0  0  0  0  0  0  0  # atno 10167 bound_to 10162
  156.5147  130.8451  151.2660 H   0  0  0  0  0  0  0  0  0  0  0  0  # atno 10718 bound_to 10713
  154.1009  135.2846  155.3252 H   0  0  0  0  0  0  0  0  0  0  0  0  # atno 10763 bound_to 10752
  154.6556  135.5353  153.7958 H   0  0  0  0  0  0  0  0  0  0  0  0  # atno 10764 bound_to 10752
  153.0379  135.6521  154.1172 H   0  0  0  0  0  0  0  0  0  0  0  0  # atno 10765 bound_to 10752
  139.8992  134.9574  156.6955 H   0  0  0  0  0  0  0  0  0  0  0  0  # atno 11005 bound_to 11000
  144.6744  140.1841  143.7403 LP  0  0  0  0  0  0  0  0  0  0  0  0  # atno 17320 bound_to 7965
  145.8659  139.2247  143.1689 LP  0  0  0  0  0  0  0  0  0  0  0  0  # atno 17321 bound_to 7965
  140.7368  143.6695  150.8094 LP  0  0  0  0  0  0  0  0  0  0  0  0  # atno 17342 bound_to 10162
  140.0303  143.5451  152.2763 LP  0  0  0  0  0  0  0  0  0  0  0  0  # atno 17343 bound_to 10162
  157.7445  130.9938  150.2683 LP  0  0  0  0  0  0  0  0  0  0  0  0  # atno 17370 bound_to 10713
  156.3206  130.3785  149.7578 LP  0  0  0  0  0  0  0  0  0  0  0  0  # atno 17371 bound_to 10713
  140.7191  133.9156  155.8135 LP  0  0  0  0  0  0  0  0  0  0  0  0  # atno 17394 bound_to 11000
  141.0241  134.0848  157.4088 LP  0  0  0  0  0  0  0  0  0  0  0  0  # atno 17395 bound_to 11000

$$$$
