#       Name:                AV-unprocessed.smi:787
#       Creating user name   scv26
#       Creation time:       Fri Mar 27 01:15:23 2020


#       File generated by GOLD software.
#

@<TRIPOS>MOLECULE
AV-unprocessed.smi:787
    52    54     1
SMALL
NO_CHARGES


@<TRIPOS>ATOM
      1 ****        -4.1885  -0.0797   2.4323 C.3            1 S1                 0.0000
      2 ****        -3.2665   0.3586   1.3962 N.pl3          1 S1                 0.0000
      3 ****        -2.4320   1.4641   1.6136 C.ar           1 S1                 0.0000
      4 ****        -2.3833   2.0396   2.8373 N.ar           1 S1                 0.0000
      5 ****        -1.5869   3.1040   2.9991 C.ar           1 S1                 0.0000
      6 ****        -0.8011   3.7155   2.0996 N.ar           1 S1                 0.0000
      7 ****        -0.8398   3.1516   0.8851 C.ar           1 S1                 0.0000
      8 ****        -0.1378   3.5785  -0.2285 N.2            1 S1                 0.0000
      9 ****        -0.5240   2.6963  -1.1453 C.2            1 S1                 0.0000
     10 ****        -1.3792   1.7276  -0.7599 N.pl3          1 S1                 0.0000
     11 ****        -1.8897   0.6462  -1.5919 C.3            1 S1                 0.0000
     12 ****        -1.0123  -0.6277  -1.5609 C.3            1 S1                 0.0000
     13 ****        -0.9976  -1.1576  -0.2494 O.3            1 S1                 0.0000
     14 ****         0.4480  -0.3765  -1.9908 C.3            1 S1                 0.0000
     15 ****         1.2455  -1.6306  -2.0215 N.4            1 S1                 1.0000
     16 ****         1.1066  -2.3651  -3.2995 C.3            1 S1                 0.0000
     17 ****         2.6669  -1.4385  -1.6382 C.3            1 S1                 0.0000
     18 ****         2.8137  -1.1280  -0.1575 C.ar           1 S1                 0.0000
     19 ****         3.1045   0.1843   0.2743 C.ar           1 S1                 0.0000
     20 ****         3.2159   0.4693   1.6490 C.ar           1 S1                 0.0000
     21 ****         3.0444  -0.5575   2.5974 C.ar           1 S1                 0.0000
     22 ****         2.7622  -1.8696   2.1706 C.ar           1 S1                 0.0000
     23 ****         2.6476  -2.1546   0.7961 C.ar           1 S1                 0.0000
     24 ****        -1.6383   2.0070   0.5822 C.ar           1 S1                 0.0000
     25 ****        -4.7805  -0.9212   2.0724 H              1 S1                 0.0000
     26 ****        -4.8713   0.7247   2.7076 H              1 S1                 0.0000
     27 ****        -3.6466  -0.3995   3.3231 H              1 S1                 0.0000
     28 ****        -3.3712  -0.0116   0.4632 H              1 S1                 0.0000
     29 ****        -1.5794   3.5323   3.9904 H              1 S1                 0.0000
     30 ****        -0.1451   2.7448  -2.1557 H              1 S1                 0.0000
     31 ****        -2.9107   0.4167  -1.2874 H              1 S1                 0.0000
     32 ****        -1.9612   1.0136  -2.6165 H              1 S1                 0.0000
     33 ****        -1.4686  -1.3712  -2.2143 H              1 S1                 0.0000
     34 ****        -1.8882  -1.3119   0.0281 H              1 S1                 0.0000
     35 ****         0.4839   0.1060  -2.9687 H              1 S1                 0.0000
     36 ****         0.8957   0.3328  -1.2973 H              1 S1                 0.0000
     37 ****         1.5412  -1.7987  -4.1244 H              1 S1                 0.0000
     38 ****         0.0589  -2.5567  -3.5315 H              1 S1                 0.0000
     39 ****         1.6110  -3.3306  -3.2461 H              1 S1                 0.0000
     40 ****         3.2322  -2.3492  -1.8418 H              1 S1                 0.0000
     41 ****         3.1161  -0.6504  -2.2448 H              1 S1                 0.0000
     42 ****         3.2335   0.9795  -0.4455 H              1 S1                 0.0000
     43 ****         3.4321   1.4758   1.9766 H              1 S1                 0.0000
     44 ****         3.1303  -0.3388   3.6518 H              1 S1                 0.0000
     45 ****         2.6313  -2.6571   2.8980 H              1 S1                 0.0000
     46 ****         2.4257  -3.1625   0.4769 H              1 S1                 0.0000
     47 ****         0.8539  -2.2252  -1.3045 H              1 S1                 0.0000
     48 ****        -2.9253   1.6812   3.5974 LP             1 S1                 0.0000
     49 ****        -0.2406   4.5151   2.3151 LP             1 S1                 0.0000
     50 ****         0.4939   4.3483  -0.3197 LP             1 S1                 0.0000
     51 ****        -0.5606  -0.5063   0.3710 LP             1 S1                 0.0000
     52 ****        -0.4893  -2.0187  -0.2408 LP             1 S1                 0.0000
@<TRIPOS>BOND
    1    1    2 1     
    2    1   25 1     
    3    1   26 1     
    4    1   27 1     
    5    2    3 1     
    6    2   28 1     
    7    3   24 ar    
    8    3    4 ar    
    9    4    5 ar    
   10    5    6 ar    
   11    5   29 1     
   12    6    7 ar    
   13    7   24 ar    
   14    7    8 1     
   15    8    9 2     
   16    9   10 1     
   17    9   30 1     
   18   10   11 1     
   19   10   24 1     
   20   11   12 1     
   21   11   31 1     
   22   11   32 1     
   23   12   13 1     
   24   12   14 1     
   25   12   33 1     
   26   13   34 1     
   27   14   15 1     
   28   14   35 1     
   29   14   36 1     
   30   15   16 1     
   31   15   17 1     
   32   15   47 1     
   33   16   37 1     
   34   16   38 1     
   35   16   39 1     
   36   17   18 1     
   37   17   40 1     
   38   17   41 1     
   39   18   23 ar    
   40   18   19 ar    
   41   19   20 ar    
   42   19   42 1     
   43   20   21 ar    
   44   20   43 1     
   45   21   22 ar    
   46   21   44 1     
   47   22   23 ar    
   48   22   45 1     
   49   23   46 1     
   50    4   48 1     
   51    6   49 1     
   52    8   50 1     
   53   13   51 1     
   54   13   52 1     
@<TRIPOS>SUBSTRUCTURE
      1 S1             1
@<TRIPOS>SET
LONE_PAIRS      STATIC     ATOMS    <user>   **** ""
5 48 49 50 51 52
DONOR_HYDROGENS      STATIC     ATOMS    <user>   **** ""
3 28 34 47
ATOM$BLUE        STATIC     ATOMS    COLORGROUP SYSTEM
5 48 49 50 51 52
ATOM$RED        STATIC     ATOMS    COLORGROUP SYSTEM
3 28 34 47
