AV-unprocessed.smi:2988|AV-procd|sdf|11389|dock9
  -GOLD-   2272016313D 1   1.00000     0.00000
 Structure written by MMmdl.
 37 38  0  0  0  0  0  0  0  0  1 V2000
  153.5539  141.8507  161.1542 C   0  0  0  0  0  0  0  0  0  0  0  0
  153.1517  143.1367  160.4114 C   0  0  2  0  0  0  0  0  0  0  0  0
  152.0141  143.8789  161.1428 C   0  0  0  0  0  0  0  0  0  0  0  0
  151.6625  145.2024  160.4448 C   0  0  0  0  0  0  0  0  0  0  0  0
  151.3092  144.9801  158.9666 C   0  0  0  0  0  0  0  0  0  0  0  0
  152.4369  144.2362  158.2291 C   0  0  0  0  0  0  0  0  0  0  0  0
  152.8043  142.9055  158.9165 C   0  0  2  0  0  0  0  0  0  0  0  0
  151.7102  141.9478  158.7471 N   0  0  0  0  0  0  0  0  0  0  0  0
  151.8084  140.7127  158.2319 C   0  0  0  0  0  0  0  0  0  0  0  0
  152.8595  140.2344  157.8043 O   0  0  0  0  0  0  0  0  0  0  0  0
  150.5112  139.8952  158.1874 C   0  0  0  0  0  0  0  0  0  0  0  0
  149.5509  140.4240  157.2085 N   0  0  0  0  0  0  0  0  0  0  0  0
  150.0816  141.3656  156.3443 N   0  0  0  0  0  0  0  0  0  0  0  0
  149.3330  141.8802  155.4305 C   0  0  0  0  0  0  0  0  0  0  0  0
  147.9431  141.5118  155.2749 C   0  0  0  0  0  0  0  0  0  0  0  0
  146.9884  142.2347  154.0285 Cl  0  0  0  0  0  0  0  0  0  0  0  0
  147.4304  140.5951  156.1335 C   0  0  0  0  0  0  0  0  0  0  0  0
  145.7751  140.1055  156.0123 Cl  0  0  0  0  0  0  0  0  0  0  0  0
  148.2534  139.9881  157.1886 C   0  0  0  0  0  0  0  0  0  0  0  0
  147.8240  139.1571  157.9904 O   0  0  0  0  0  0  0  0  0  0  0  0
  152.7135  141.1644  161.2607 H   0  0  0  0  0  0  0  0  0  0  0  0
  153.9181  142.0775  162.1564 H   0  0  0  0  0  0  0  0  0  0  0  0
  154.3501  141.3249  160.6265 H   0  0  0  0  0  0  0  0  0  0  0  0
  154.0256  143.7897  160.4336 H   0  0  0  0  0  0  0  0  0  0  0  0
  151.1278  143.2450  161.1944 H   0  0  0  0  0  0  0  0  0  0  0  0
  152.3049  144.0809  162.1742 H   0  0  0  0  0  0  0  0  0  0  0  0
  150.8285  145.6827  160.9576 H   0  0  0  0  0  0  0  0  0  0  0  0
  152.5069  145.8891  160.5184 H   0  0  0  0  0  0  0  0  0  0  0  0
  150.3811  144.4120  158.8943 H   0  0  0  0  0  0  0  0  0  0  0  0
  151.1193  145.9385  158.4829 H   0  0  0  0  0  0  0  0  0  0  0  0
  152.1509  144.0589  157.1917 H   0  0  0  0  0  0  0  0  0  0  0  0
  153.3197  144.8759  158.1932 H   0  0  0  0  0  0  0  0  0  0  0  0
  153.6931  142.5190  158.4146 H   0  0  0  0  0  0  0  0  0  0  0  0
  150.8015  142.2471  159.0697 H   0  0  0  0  0  0  0  0  0  0  0  0
  150.7296  138.8483  157.9671 H   0  0  0  0  0  0  0  0  0  0  0  0
  150.0763  139.8981  159.1884 H   0  0  0  0  0  0  0  0  0  0  0  0
  149.7079  142.6219  154.7250 H   0  0  0  0  0  0  0  0  0  0  0  0
  1  2  1  0  0  0  0
  1 21  1  0  0  0  0
  1 22  1  0  0  0  0
  1 23  1  0  0  0  0
  2  7  1  0  0  0  0
  2  3  1  0  0  0  0
  2 24  1  0  0  0  0
  3  4  1  0  0  0  0
  3 25  1  0  0  0  0
  3 26  1  0  0  0  0
  4  5  1  0  0  0  0
  4 27  1  0  0  0  0
  4 28  1  0  0  0  0
  5  6  1  0  0  0  0
  5 29  1  0  0  0  0
  5 30  1  0  0  0  0
  6  7  1  0  0  0  0
  6 31  1  0  0  0  0
  6 32  1  0  0  0  0
  7  8  1  0  0  0  0
  7 33  1  0  0  0  0
  8  9  1  0  0  0  0
  8 34  1  0  0  0  0
  9 10  2  0  0  0  0
  9 11  1  0  0  0  0
 11 12  1  0  0  0  0
 11 35  1  0  0  0  0
 11 36  1  0  0  0  0
 12 19  1  0  0  0  0
 12 13  1  0  0  0  0
 13 14  2  0  0  0  0
 14 15  1  0  0  0  0
 14 37  1  0  0  0  0
 15 16  1  0  0  0  0
 15 17  2  0  0  0  0
 17 18  1  0  0  0  0
 17 19  1  0  0  0  0
 19 20  2  0  0  0  0
M  END
> <s_m_source_file>
AV-unprocessed.smi

> <i_m_source_file_index>
2988

> <i_lp_mmshare_version>
43012

> <i_f3d_flags>
0

> <s_epik_input>
W0NIM11bQ0BASF0xW0NIMl1bQ0gyXVtDSDJdW0NIMl1bQ0BIXTFbTkhdQyg9TylbQ0gyXW4ybltjSF1jKENsKWMoQ2wpYzI9Tw==

> <s_epik_cmdline>
J2VwaWtfcHl0aG9uJywgJy1waCcsICc3LjAnLCAnLXRuJywgJzgnLCAnLW1hJywgJzIwMCcsICctbWV0YWxfYmluZGluZycsICctaW1hZScsICc8aW5maWxlLm1hZT4nLCAnLW9tYWUnLCAnPG91dGZpbGUubWFlPic=

> <r_lp_tautomer_probability>
1

> <r_epik_Ionization_Penalty>
1.90782e-08

> <r_epik_Ionization_Penalty_Charging>
3.13143e-11

> <r_epik_Ionization_Penalty_Neutral>
1.90469e-08

> <r_epik_State_Penalty>
-0

> <r_epik_Charging_Adjusted_Penalty>
3.13143e-11

> <i_epik_Tot_Q>
0

> <i_epik_Tot_abs_Q>
0

> <r_epik_Metal_State_Penalty>
-0

> <b_epik_Metal_Only>
0

> <s_lp_Force_Field>
OPLS_2005

> <r_lp_Energy>
23.4163

> <b_lp_Chiralities_Consistent>
1

> <s_lp_Variant>
AV-unprocessed.smi:2988-3

> <Gold.Version>
5.8.1

> <Gold.Id.Protein>
6NUR|6NUR_protein|mol2

> <Gold.PLP.Fitness>
45.7879

> <Gold.PLP.PLP>
-42.1871

> <Gold.PLP.part.hbond>
-1.8341

> <Gold.PLP.part.metal>
0.0000

> <Gold.PLP.part.buried>
-4.4165

> <Gold.PLP.part.nonpolar>
-36.0686

> <Gold.PLP.part.repulsive>
0.1606

> <Gold.PLP.ligand.clash>
0.0000

> <Gold.PLP.ligand.torsion>
0.2713

> <Gold.PLP.Chemscore.Hbond>
1.0000

> <Gold.PLP.Chemscore.CHOScore>
0.3789

> <Gold.PLP.Chemscore.Metal>
0.0000

> <Gold.Chemscore.Hbonds>
donor molecule, donor type, donor heavy atom, donor atom, acceptor molecule, acceptor atom, score
      P1  H  7997  8010       L1    10  0.98
      L1  C    14    37       P1  8028  0.47

> <Gold.PLP.Chemscore.Internal.Correction>
0.0067

> <Gold.Rescore>
     Score         DG    S(hbond)    S(metal)    S(lipo)     H(rot)  DE(clash)    DE(int)     intcor
     17.05     -17.45       0.96        0.00     107.63       1.50       0.01       0.39       ----

> <Gold.Chemscore.Fitness>
17.0478

> <Gold.Chemscore.DG>
-17.4466

> <Gold.Chemscore.ZeroCoef>
-5.4800

> <Gold.Chemscore.Hbond>
0.9604

> <Gold.Chemscore.Metal>
0.0000

> <Gold.Chemscore.Lipo>
107.6322

> <Gold.Chemscore.Internal_Hbond>
0.0000

> <Gold.Chemscore.DEClash>
0.0081

> <Gold.Chemscore.DEInternal>
0.3907

> <Gold.Chemscore.Rot>
1.4977

> <Gold.Chemscore.Internal.Correction>
   9.000000E+99

> <Gold.Chemscore.Hbonds>
donor molecule, donor type, donor heavy atom, donor atom, acceptor molecule, acceptor atom, score
      P1  H  7997  8010       L1    10  0.93

> <Gold.Chemscore.Hbond.Weighted>
-3.2077

> <Gold.Chemscore.Metal.Weighted>
-0.0000

> <Gold.Chemscore.Lipo.Weighted>
-12.5930

> <Gold.Chemscore.Internal_Hbond.Weighted>
0.0000

> <Gold.Chemscore.DEClash.Weighted>
0.0081

> <Gold.Chemscore.DEInternal.Weighted>
0.3907

> <Gold.Chemscore.Rot.Weighted>
3.8341

> <Gold.Chemscore.Internal.Correction.Weighted>
   9.000000E+99

> <Gold.Protein.RotatedTorsions>
[ 6907 6896 6895 6894 ] final  -61.88 input  -60.11 | X-H torsion
[ 7974 7965 7964 7962 ] final  161.40 input  175.53 | X-H torsion
[ 8008 7997 7996 7995 ] final   46.32 input   59.86 | X-H torsion
[ 10167 10162 10161 10158 ] final  160.95 input  -65.29 | X-H torsion
[ 10718 10713 10712 10709 ] final  -49.26 input   66.30 | X-H torsion
[ 10763 10752 10751 10750 ] final -123.86 input  -60.55 | X-H torsion
[ 11005 11000 10999 10996 ] final  -39.04 input  -57.11 | X-H torsion

> <Gold.Protein.ActiveResidues>
 VAL166  LYS551  ARG553  GLY616  TRP617  ASP618  TYR619  PRO620  LYS621  CYS622 
 ASP623  PHE694  ASN695  SER759  ASP760  ASP761  ALA762  ILE779  LEU786  VAL792 
 PHE793  MET794  SER795  GLU796  ALA797  LYS798  CYS799  TRP800  GLU811  SER814 

> <Gold.Protein.RotatedAtoms>
  150.7754  134.6645  159.6357 H   0  0  0  0  0  0  0  0  0  0  0  0  # atno 6907 bound_to 6896
  152.3821  134.6571  160.0148 H   0  0  0  0  0  0  0  0  0  0  0  0  # atno 6908 bound_to 6896
  151.6897  133.3274  159.3276 H   0  0  0  0  0  0  0  0  0  0  0  0  # atno 6909 bound_to 6896
  144.7687  139.7893  143.6305 H   0  0  0  0  0  0  0  0  0  0  0  0  # atno 7974 bound_to 7965
  155.3506  140.3413  155.4239 H   0  0  0  0  0  0  0  0  0  0  0  0  # atno 8008 bound_to 7997
  156.1766  140.1649  156.8387 H   0  0  0  0  0  0  0  0  0  0  0  0  # atno 8009 bound_to 7997
  154.5288  140.0750  156.8290 H   0  0  0  0  0  0  0  0  0  0  0  0  # atno 8010 bound_to 7997
  139.4844  144.4584  151.8738 H   0  0  0  0  0  0  0  0  0  0  0  0  # atno 10167 bound_to 10162
  156.1910  130.4153  149.9372 H   0  0  0  0  0  0  0  0  0  0  0  0  # atno 10718 bound_to 10713
  154.8714  135.4083  154.3012 H   0  0  0  0  0  0  0  0  0  0  0  0  # atno 10763 bound_to 10752
  153.3871  135.7013  153.6528 H   0  0  0  0  0  0  0  0  0  0  0  0  # atno 10764 bound_to 10752
  153.5326  135.3664  155.2654 H   0  0  0  0  0  0  0  0  0  0  0  0  # atno 10765 bound_to 10752
  141.0072  133.6925  156.2133 H   0  0  0  0  0  0  0  0  0  0  0  0  # atno 11005 bound_to 11000
  146.1817  139.5012  142.9862 LP  0  0  0  0  0  0  0  0  0  0  0  0  # atno 17320 bound_to 7965
  145.6389  141.0288  143.1822 LP  0  0  0  0  0  0  0  0  0  0  0  0  # atno 17321 bound_to 7965
  140.4045  144.2450  150.5891 LP  0  0  0  0  0  0  0  0  0  0  0  0  # atno 17342 bound_to 10162
  140.5026  143.2313  151.8656 LP  0  0  0  0  0  0  0  0  0  0  0  0  # atno 17343 bound_to 10162
  156.7112  130.8971  151.3609 LP  0  0  0  0  0  0  0  0  0  0  0  0  # atno 17370 bound_to 10713
  157.6929  130.9252  150.0563 LP  0  0  0  0  0  0  0  0  0  0  0  0  # atno 17371 bound_to 10713
  140.6793  134.4784  157.5589 LP  0  0  0  0  0  0  0  0  0  0  0  0  # atno 17394 bound_to 11000
  139.9070  134.8427  156.1669 LP  0  0  0  0  0  0  0  0  0  0  0  0  # atno 17395 bound_to 11000

$$$$
