#       Name:                AV-unprocessed.smi:1100
#       Creating user name   scv26
#       Creation time:       Fri Mar 27 03:30:02 2020


#       File generated by GOLD software.
#

@<TRIPOS>MOLECULE
AV-unprocessed.smi:1100
    50    51     1
SMALL
NO_CHARGES


@<TRIPOS>ATOM
      1 ****        -1.6249   1.6734   1.3532 C.3            1 S1                 0.0000
      2 ****        -0.9647   0.3106   1.6786 C.3            1 S1                 0.0000
      3 ****         0.5784   0.4747   1.7674 C.3            1 S1                 0.0000
      4 ****         1.1684   1.0537   0.5632 N.am           1 S1                 0.0000
      5 ****         1.3070   0.4153  -0.6076 C.2            1 S1                 0.0000
      6 ****         0.9584  -0.7526  -0.7786 O.2            1 S1                 0.0000
      7 ****         1.8629   1.2208  -1.5321 N.am           1 S1                 0.0000
      8 ****         2.1189   0.9732  -2.8894 C.2            1 S1                 0.0000
      9 ****         2.8514   1.9789  -3.6294 C.2            1 S1                 0.0000
     10 ****         3.1260   1.8212  -4.9389 C.2            1 S1                 0.0000
     11 ****         2.6969   0.6289  -5.6735 C.2            1 S1                 0.0000
     12 ****         2.9457   0.4684  -6.8688 O.2            1 S1                 0.0000
     13 ****         2.0020  -0.2925  -4.9458 N.am           1 S1                 0.0000
     14 ****         1.5214  -1.5161  -5.5930 C.3            1 S1                 0.0000
     15 ****         1.7195  -0.1198  -3.5768 C.2            1 S1                 0.0000
     16 ****        -1.5079  -0.3239   2.9253 N.4            1 S1                 1.0000
     17 ****        -2.9778  -0.1734   3.1179 C.3            1 S1                 0.0000
     18 ****        -3.4441  -0.8392   4.4241 C.3            1 S1                 0.0000
     19 ****        -3.0708  -2.2084   4.4296 O.3            1 S1                 0.0000
     20 ****        -1.6613  -2.3605   4.3664 C.3            1 S1                 0.0000
     21 ****        -1.1385  -1.7615   3.0505 C.3            1 S1                 0.0000
     22 ****        -1.1839   2.1411   0.4733 H              1 S1                 0.0000
     23 ****        -1.5196   2.3742   2.1819 H              1 S1                 0.0000
     24 ****        -2.6854   1.5706   1.1238 H              1 S1                 0.0000
     25 ****        -1.2002  -0.3590   0.8497 H              1 S1                 0.0000
     26 ****         0.8309   1.1233   2.6068 H              1 S1                 0.0000
     27 ****         1.0841  -0.4718   1.9524 H              1 S1                 0.0000
     28 ****         1.4838   2.0109   0.6237 H              1 S1                 0.0000
     29 ****         2.1296   2.1420  -1.2168 H              1 S1                 0.0000
     30 ****         3.1868   2.8745  -3.1270 H              1 S1                 0.0000
     31 ****         3.6747   2.5912  -5.4611 H              1 S1                 0.0000
     32 ****         0.9371  -2.1483  -4.9237 H              1 S1                 0.0000
     33 ****         2.3612  -2.1120  -5.9531 H              1 S1                 0.0000
     34 ****         0.8843  -1.2758  -6.4455 H              1 S1                 0.0000
     35 ****         1.1547  -0.9328  -3.1501 H              1 S1                 0.0000
     36 ****        -3.2587   0.8775   3.1746 H              1 S1                 0.0000
     37 ****        -3.5038  -0.6087   2.2667 H              1 S1                 0.0000
     38 ****        -3.0230  -0.3302   5.2927 H              1 S1                 0.0000
     39 ****        -4.5287  -0.7707   4.5119 H              1 S1                 0.0000
     40 ****        -1.1888  -1.8860   5.2282 H              1 S1                 0.0000
     41 ****        -1.4200  -3.4225   4.4169 H              1 S1                 0.0000
     42 ****        -1.5467  -2.3177   2.2049 H              1 S1                 0.0000
     43 ****        -0.0598  -1.8994   3.0261 H              1 S1                 0.0000
     44 ****        -1.0764   0.1589   3.7005 H              1 S1                 0.0000
     45 ****         0.5511  -1.2683  -0.0248 LP             1 S1                 0.0000
     46 ****         1.0825  -1.1858  -1.6713 LP             1 S1                 0.0000
     47 ****         3.4572   1.1656  -7.3710 LP             1 S1                 0.0000
     48 ****         2.6363  -0.3592  -7.3372 LP             1 S1                 0.0000
     49 ****        -3.4828  -2.6612   3.6389 LP             1 S1                 0.0000
     50 ****        -3.4067  -2.6340   5.2699 LP             1 S1                 0.0000
@<TRIPOS>BOND
    1    1    2 1     
    2    1   22 1     
    3    1   23 1     
    4    1   24 1     
    5    2    3 1     
    6    2   16 1     
    7    2   25 1     
    8    3    4 1     
    9    3   26 1     
   10    3   27 1     
   11    4    5 am    
   12    4   28 1     
   13    5    6 2     
   14    5    7 am    
   15    7    8 1     
   16    7   29 1     
   17    8   15 2     
   18    8    9 1     
   19    9   10 2     
   20    9   30 1     
   21   10   11 1     
   22   10   31 1     
   23   11   12 2     
   24   11   13 am    
   25   13   14 1     
   26   13   15 1     
   27   14   32 1     
   28   14   33 1     
   29   14   34 1     
   30   15   35 1     
   31   16   21 1     
   32   16   17 1     
   33   16   44 1     
   34   17   18 1     
   35   17   36 1     
   36   17   37 1     
   37   18   19 1     
   38   18   38 1     
   39   18   39 1     
   40   19   20 1     
   41   20   21 1     
   42   20   40 1     
   43   20   41 1     
   44   21   42 1     
   45   21   43 1     
   46    6   45 1     
   47    6   46 1     
   48   12   47 1     
   49   12   48 1     
   50   19   49 1     
   51   19   50 1     
@<TRIPOS>SUBSTRUCTURE
      1 S1             1
@<TRIPOS>SET
LONE_PAIRS      STATIC     ATOMS    <user>   **** ""
6 45 46 47 48 49 50
DONOR_HYDROGENS      STATIC     ATOMS    <user>   **** ""
3 28 29 44
ATOM$BLUE        STATIC     ATOMS    COLORGROUP SYSTEM
6 45 46 47 48 49 50
ATOM$RED        STATIC     ATOMS    COLORGROUP SYSTEM
3 28 29 44
