AV-unprocessed.smi:82|AV-procd|sdf|798|dock8
  -GOLD-   2262017183D 1   1.00000     0.00000
 Structure written by MMmdl.
 58 61  0  0  0  0  0  0  0  0  1 V2000
  152.3990  144.6873  158.5681 C   0  0  0  0  0  0  0  0  0  0  0  0
  151.9287  143.3533  158.6541 O   0  0  0  0  0  0  0  0  0  0  0  0
  151.0432  143.0197  157.5987 C   0  0  0  0  0  0  0  0  0  0  0  0
  151.2413  141.5360  157.2467 C   0  0  0  0  0  0  0  0  0  0  0  0
  150.4799  141.0680  156.0815 N   0  0  0  0  0  0  0  0  0  0  0  0
  149.0445  141.1466  156.3688 C   0  0  0  0  0  0  0  0  0  0  0  0
  148.1761  140.7525  155.1662 C   0  0  0  0  0  0  0  0  0  0  0  0
  148.5209  139.4037  154.7312 N   0  0  0  0  0  0  0  0  0  0  0  0
  147.6404  138.8416  153.8641 C   0  0  0  0  0  0  0  0  0  0  0  0
  147.2219  139.5367  152.7721 N   0  0  0  0  0  0  0  0  0  0  0  0
  146.3513  138.9919  151.9173 C   0  0  0  0  0  0  0  0  0  0  0  0
  145.7811  137.7865  151.9615 N   0  0  0  0  0  0  0  0  0  0  0  0
  146.1992  137.0810  153.0513 C   0  0  0  0  0  0  0  0  0  0  0  0
  147.1222  137.5270  154.0396 C   0  0  0  0  0  0  0  0  0  0  0  0
  147.3282  136.5238  154.9793 N   0  0  0  0  0  0  0  0  0  0  0  0
  146.5679  135.5443  154.5726 C   0  0  0  0  0  0  0  0  0  0  0  0
  145.8309  135.8040  153.4392 N   0  0  0  0  0  0  0  0  0  0  0  0
  144.9537  134.8952  152.7595 C   0  0  0  0  0  0  0  0  0  0  0  0
  145.2825  133.4022  152.6653 C   0  0  0  0  0  0  0  0  0  0  0  0
  144.6996  133.3496  151.2351 C   0  0  0  0  0  0  0  0  0  0  0  0
  145.5796  132.6029  150.2204 C   0  0  0  0  0  0  0  0  0  0  0  0
  146.9419  132.9522  150.3610 O   0  0  0  0  0  0  0  0  0  0  0  0
  143.2686  132.7835  151.0999 C   0  0  0  0  0  0  0  0  0  0  0  0
  142.7933  132.7759  149.7690 O   0  0  0  0  0  0  0  0  0  0  0  0
  144.8530  134.8868  151.2308 C   0  0  0  0  0  0  0  0  0  0  0  0
  149.9496  139.2412  154.4653 C   0  0  0  0  0  0  0  0  0  0  0  0
  150.7953  139.6775  155.6845 C   0  0  1  0  0  0  0  0  0  0  0  0
  152.2743  139.4085  155.3570 C   0  0  0  0  0  0  0  0  0  0  0  0
  153.0729  144.8926  159.3996 H   0  0  0  0  0  0  0  0  0  0  0  0
  151.5748  145.4001  158.6188 H   0  0  0  0  0  0  0  0  0  0  0  0
  152.9486  144.8525  157.6406 H   0  0  0  0  0  0  0  0  0  0  0  0
  150.0125  143.1861  157.9162 H   0  0  0  0  0  0  0  0  0  0  0  0
  151.2282  143.6753  156.7506 H   0  0  0  0  0  0  0  0  0  0  0  0
  152.3012  141.3113  157.1204 H   0  0  0  0  0  0  0  0  0  0  0  0
  150.9336  140.9766  158.1314 H   0  0  0  0  0  0  0  0  0  0  0  0
  148.7998  140.5100  157.2209 H   0  0  0  0  0  0  0  0  0  0  0  0
  148.7821  142.1648  156.6585 H   0  0  0  0  0  0  0  0  0  0  0  0
  147.1248  140.8278  155.4416 H   0  0  0  0  0  0  0  0  0  0  0  0
  148.3382  141.4478  154.3414 H   0  0  0  0  0  0  0  0  0  0  0  0
  146.0691  139.6121  151.0793 H   0  0  0  0  0  0  0  0  0  0  0  0
  146.5218  134.6005  155.0965 H   0  0  0  0  0  0  0  0  0  0  0  0
  143.9705  135.0438  153.2074 H   0  0  0  0  0  0  0  0  0  0  0  0
  146.3571  133.2150  152.6956 H   0  0  0  0  0  0  0  0  0  0  0  0
  144.7624  132.7828  153.3969 H   0  0  0  0  0  0  0  0  0  0  0  0
  145.4992  131.5239  150.3556 H   0  0  0  0  0  0  0  0  0  0  0  0
  145.2648  132.8093  149.1968 H   0  0  0  0  0  0  0  0  0  0  0  0
  147.4684  132.2691  149.9744 H   0  0  0  0  0  0  0  0  0  0  0  0
  143.2178  131.7584  151.4674 H   0  0  0  0  0  0  0  0  0  0  0  0
  142.5656  133.3642  151.6984 H   0  0  0  0  0  0  0  0  0  0  0  0
  141.9512  133.2043  149.7487 H   0  0  0  0  0  0  0  0  0  0  0  0
  143.9951  135.4304  150.8338 H   0  0  0  0  0  0  0  0  0  0  0  0
  145.7767  135.2145  150.7507 H   0  0  0  0  0  0  0  0  0  0  0  0
  150.1550  138.1954  154.2326 H   0  0  0  0  0  0  0  0  0  0  0  0
  150.2259  139.8285  153.5880 H   0  0  0  0  0  0  0  0  0  0  0  0
  150.5317  139.0165  156.5121 H   0  0  0  0  0  0  0  0  0  0  0  0
  152.4102  138.4035  154.9562 H   0  0  0  0  0  0  0  0  0  0  0  0
  152.8992  139.4688  156.2475 H   0  0  0  0  0  0  0  0  0  0  0  0
  152.6538  140.1116  154.6149 H   0  0  0  0  0  0  0  0  0  0  0  0
  1  2  1  0  0  0  0
  1 29  1  0  0  0  0
  1 30  1  0  0  0  0
  1 31  1  0  0  0  0
  2  3  1  0  0  0  0
  3  4  1  0  0  0  0
  3 32  1  0  0  0  0
  3 33  1  0  0  0  0
  4  5  1  0  0  0  0
  4 34  1  0  0  0  0
  4 35  1  0  0  0  0
  5 27  1  0  0  0  0
  5  6  1  0  0  0  0
  6  7  1  0  0  0  0
  6 36  1  0  0  0  0
  6 37  1  0  0  0  0
  7  8  1  0  0  0  0
  7 38  1  0  0  0  0
  7 39  1  0  0  0  0
  8  9  1  0  0  0  0
  8 26  1  0  0  0  0
  9 14  1  0  0  0  0
  9 10  2  0  0  0  0
 10 11  1  0  0  0  0
 11 12  2  0  0  0  0
 11 40  1  0  0  0  0
 12 13  1  0  0  0  0
 13 17  1  0  0  0  0
 13 14  2  0  0  0  0
 14 15  1  0  0  0  0
 15 16  2  0  0  0  0
 16 17  1  0  0  0  0
 16 41  1  0  0  0  0
 17 18  1  0  0  0  0
 18 25  1  0  0  0  0
 18 19  1  0  0  0  0
 18 42  1  0  0  0  0
 19 20  1  0  0  0  0
 19 43  1  0  0  0  0
 19 44  1  0  0  0  0
 20 21  1  0  0  0  0
 20 23  1  0  0  0  0
 20 25  1  0  0  0  0
 21 22  1  0  0  0  0
 21 45  1  0  0  0  0
 21 46  1  0  0  0  0
 22 47  1  0  0  0  0
 23 24  1  0  0  0  0
 23 48  1  0  0  0  0
 23 49  1  0  0  0  0
 24 50  1  0  0  0  0
 25 51  1  0  0  0  0
 25 52  1  0  0  0  0
 26 27  1  0  0  0  0
 26 53  1  0  0  0  0
 26 54  1  0  0  0  0
 27 28  1  0  0  0  0
 27 55  1  0  0  0  0
 28 56  1  0  0  0  0
 28 57  1  0  0  0  0
 28 58  1  0  0  0  0
M  END
> <s_m_source_file>
AV-unprocessed.smi

> <i_m_source_file_index>
82

> <i_lp_mmshare_version>
43012

> <i_f3d_flags>
0

> <s_epik_input>
W0NIM11PW0NIMl1bQ0gyXU4xW0NIMl1bQ0gyXU4oW0NIMl1bQ0BIXTFbQ0gzXSljKG5bY0hdbjIpYyhjMjMpbltjSF1uM1tDSF0oW0NIMl00KVtDSDJdQzQoW0NIMl1bT0hdKVtDSDJdW09IXQ==

> <s_epik_cmdline>
J2VwaWtfcHl0aG9uJywgJy1waCcsICc3LjAnLCAnLXRuJywgJzgnLCAnLW1hJywgJzIwMCcsICctbWV0YWxfYmluZGluZycsICctaW1hZScsICc8aW5maWxlLm1hZT4nLCAnLW9tYWUnLCAnPG91dGZpbGUubWFlPic=

> <r_lp_tautomer_probability>
1

> <r_epik_Ionization_Penalty>
0.549054

> <r_epik_Ionization_Penalty_Charging>
0

> <r_epik_Ionization_Penalty_Neutral>
0.549054

> <r_epik_State_Penalty>
0.552556

> <r_epik_Charging_Adjusted_Penalty>
0.552556

> <i_epik_Tot_Q>
0

> <i_epik_Tot_abs_Q>
0

> <r_epik_Metal_State_Penalty>
0.545162

> <b_epik_Metal_Only>
0

> <s_lp_Force_Field>
OPLS_2005

> <r_lp_Energy>
72.4409

> <b_lp_Chiralities_Consistent>
1

> <s_lp_Variant>
AV-unprocessed.smi:82-5

> <Gold.Version>
5.8.1

> <Gold.Id.Protein>
6NUR|6NUR_protein|mol2

> <Gold.PLP.Fitness>
46.8540

> <Gold.PLP.PLP>
-42.1834

> <Gold.PLP.part.hbond>
-2.9043

> <Gold.PLP.part.metal>
0.0000

> <Gold.PLP.part.buried>
-6.6143

> <Gold.PLP.part.nonpolar>
-38.1725

> <Gold.PLP.part.repulsive>
4.2034

> <Gold.PLP.ligand.clash>
0.0000

> <Gold.PLP.ligand.torsion>
1.5708

> <Gold.PLP.Chemscore.Hbond>
2.0000

> <Gold.PLP.Chemscore.CHOScore>
0.3466

> <Gold.PLP.Chemscore.Metal>
0.0000

> <Gold.Chemscore.Hbonds>
donor molecule, donor type, donor heavy atom, donor atom, acceptor molecule, acceptor atom, score
      L1  H    22    47       P1 10747  0.84
      L1  H    24    50       P1 10186  1.00
      L1  C    11    40       P1 10171  0.36
      L1  C    11    40       P1 10175  0.04

> <Gold.PLP.Chemscore.Internal.Correction>
0.7725

> <Gold.Rescore>
     Score         DG    S(hbond)    S(metal)    S(lipo)     H(rot)  DE(clash)    DE(int)     intcor
     10.39     -11.98       1.99        0.00      82.85       3.84       0.02       1.57       ----

> <Gold.Chemscore.Fitness>
10.3906

> <Gold.Chemscore.DG>
-11.9816

> <Gold.Chemscore.ZeroCoef>
-5.4800

> <Gold.Chemscore.Hbond>
1.9901

> <Gold.Chemscore.Metal>
0.0000

> <Gold.Chemscore.Lipo>
82.8521

> <Gold.Chemscore.Internal_Hbond>
0.0000

> <Gold.Chemscore.DEClash>
0.0208

> <Gold.Chemscore.DEInternal>
1.5701

> <Gold.Chemscore.Rot>
3.8434

> <Gold.Chemscore.Internal.Correction>
   9.000000E+99

> <Gold.Chemscore.Hbonds>
donor molecule, donor type, donor heavy atom, donor atom, acceptor molecule, acceptor atom, score
      L1  H    22    47       P1 10747  0.79
      L1  H    24    50       P1 10186  0.93

> <Gold.Chemscore.Hbond.Weighted>
-6.6470

> <Gold.Chemscore.Metal.Weighted>
-0.0000

> <Gold.Chemscore.Lipo.Weighted>
-9.6937

> <Gold.Chemscore.Internal_Hbond.Weighted>
0.0000

> <Gold.Chemscore.DEClash.Weighted>
0.0208

> <Gold.Chemscore.DEInternal.Weighted>
1.5701

> <Gold.Chemscore.Rot.Weighted>
9.8391

> <Gold.Chemscore.Internal.Correction.Weighted>
   9.000000E+99

> <Gold.Protein.RotatedTorsions>
[ 6907 6896 6895 6894 ] final   98.23 input  -60.11 | X-H torsion
[ 7974 7965 7964 7962 ] final   94.52 input  175.53 | X-H torsion
[ 8008 7997 7996 7995 ] final    8.14 input   59.86 | X-H torsion
[ 10167 10162 10161 10158 ] final -118.50 input  -65.29 | X-H torsion
[ 10718 10713 10712 10709 ] final   99.51 input   66.30 | X-H torsion
[ 10763 10752 10751 10750 ] final  -79.23 input  -60.55 | X-H torsion
[ 11005 11000 10999 10996 ] final  -88.59 input  -57.11 | X-H torsion

> <Gold.Protein.ActiveResidues>
 VAL166  LYS551  ARG553  GLY616  TRP617  ASP618  TYR619  PRO620  LYS621  CYS622 
 ASP623  PHE694  ASN695  SER759  ASP760  ASP761  ALA762  ILE779  LEU786  VAL792 
 PHE793  MET794  SER795  GLU796  ALA797  LYS798  CYS799  TRP800  GLU811  SER814 

> <Gold.Protein.RotatedAtoms>
  152.5412  134.0612  159.8152 H   0  0  0  0  0  0  0  0  0  0  0  0  # atno 6907 bound_to 6896
  151.0740  133.5436  159.2632 H   0  0  0  0  0  0  0  0  0  0  0  0  # atno 6908 bound_to 6896
  151.2288  135.0555  159.9033 H   0  0  0  0  0  0  0  0  0  0  0  0  # atno 6909 bound_to 6896
  145.4644  139.2285  143.2969 H   0  0  0  0  0  0  0  0  0  0  0  0  # atno 7974 bound_to 7965
  154.7630  140.2788  155.6199 H   0  0  0  0  0  0  0  0  0  0  0  0  # atno 8008 bound_to 7997
  156.2919  140.2656  156.2341 H   0  0  0  0  0  0  0  0  0  0  0  0  # atno 8009 bound_to 7997
  154.9994  140.0373  157.2343 H   0  0  0  0  0  0  0  0  0  0  0  0  # atno 8010 bound_to 7997
  140.0568  143.5006  152.2053 H   0  0  0  0  0  0  0  0  0  0  0  0  # atno 10167 bound_to 10162
  157.6874  131.0672  150.4960 H   0  0  0  0  0  0  0  0  0  0  0  0  # atno 10718 bound_to 10713
  154.5360  135.5702  153.6799 H   0  0  0  0  0  0  0  0  0  0  0  0  # atno 10763 bound_to 10752
  152.9951  135.6216  154.2565 H   0  0  0  0  0  0  0  0  0  0  0  0  # atno 10764 bound_to 10752
  154.2494  135.2859  155.2802 H   0  0  0  0  0  0  0  0  0  0  0  0  # atno 10765 bound_to 10752
  141.1599  133.7579  156.9474 H   0  0  0  0  0  0  0  0  0  0  0  0  # atno 11005 bound_to 11000
  146.2432  140.5416  142.8925 LP  0  0  0  0  0  0  0  0  0  0  0  0  # atno 17320 bound_to 7965
  144.7983  140.6165  143.6495 LP  0  0  0  0  0  0  0  0  0  0  0  0  # atno 17321 bound_to 7965
  139.5918  144.7553  151.3382 LP  0  0  0  0  0  0  0  0  0  0  0  0  # atno 17342 bound_to 10162
  140.7190  143.7186  150.7713 LP  0  0  0  0  0  0  0  0  0  0  0  0  # atno 17343 bound_to 10162
  156.5284  130.4179  149.6214 LP  0  0  0  0  0  0  0  0  0  0  0  0  # atno 17370 bound_to 10713
  156.3091  130.7219  151.2108 LP  0  0  0  0  0  0  0  0  0  0  0  0  # atno 17371 bound_to 10713
  140.1280  134.9374  157.2298 LP  0  0  0  0  0  0  0  0  0  0  0  0  # atno 17394 bound_to 11000
  140.2988  134.3156  155.7295 LP  0  0  0  0  0  0  0  0  0  0  0  0  # atno 17395 bound_to 11000

$$$$
