AV-unprocessed.smi:3267|AV-procd|sdf|12507|dock8
  -GOLD-   2272018413D 1   1.00000     0.00000
 Structure written by MMmdl.
 38 39  0  0  0  0  0  0  0  0  1 V2000
  146.0947  141.5056  155.1495 C   0  0  0  0  0  0  0  0  0  0  0  0
  147.5406  141.0617  155.4237 C   0  0  1  0  0  0  0  0  0  0  0  0
  148.3018  140.6250  154.1493 C   0  0  0  0  0  0  0  0  0  0  0  0
  149.5782  139.9834  154.4199 N   0  0  0  0  0  0  0  0  0  0  0  0
  150.1309  138.8802  153.8034 C   0  0  0  0  0  0  0  0  0  0  0  0
  151.3404  138.6477  154.3928 C   0  0  0  0  0  0  0  0  0  0  0  0
  151.4389  139.6710  155.3765 C   0  0  0  0  0  0  0  0  0  0  0  0
  150.3826  140.4674  155.3916 N   0  0  0  0  0  0  0  0  0  0  0  0
  148.2494  142.1322  156.1210 N   0  0  0  0  0  0  0  0  0  0  0  0
  148.5320  142.1527  157.4308 C   0  0  0  0  0  0  0  0  0  0  0  0
  148.2079  141.2672  158.2227 O   0  0  0  0  0  0  0  0  0  0  0  0
  149.2108  143.2556  157.7730 N   0  0  0  0  0  0  0  0  0  0  0  0
  149.6454  143.5838  159.1253 C   0  0  0  0  0  0  0  0  0  0  0  0
  151.0337  142.9962  159.4275 C   0  0  1  0  0  0  0  0  0  0  0  0
  152.1648  143.6243  158.6138 C   0  0  0  0  0  0  0  0  0  0  0  0
  153.3874  143.4675  159.5076 C   0  0  0  0  0  0  0  0  0  0  0  0
  152.8143  143.0158  160.8534 C   0  0  0  0  0  0  0  0  0  0  0  0
  151.4229  143.2811  160.7619 O   0  0  0  0  0  0  0  0  0  0  0  0
  145.5405  140.7287  154.6222 H   0  0  0  0  0  0  0  0  0  0  0  0
  146.0565  142.4124  154.5451 H   0  0  0  0  0  0  0  0  0  0  0  0
  145.5663  141.7106  156.0811 H   0  0  0  0  0  0  0  0  0  0  0  0
  147.4905  140.1984  156.0898 H   0  0  0  0  0  0  0  0  0  0  0  0
  147.6915  139.9532  153.5434 H   0  0  0  0  0  0  0  0  0  0  0  0
  148.4941  141.4993  153.5266 H   0  0  0  0  0  0  0  0  0  0  0  0
  149.6245  138.3610  153.0029 H   0  0  0  0  0  0  0  0  0  0  0  0
  152.0467  137.8655  154.1577 H   0  0  0  0  0  0  0  0  0  0  0  0
  152.2408  139.8574  156.0756 H   0  0  0  0  0  0  0  0  0  0  0  0
  148.5660  142.9075  155.5572 H   0  0  0  0  0  0  0  0  0  0  0  0
  149.4297  143.9250  157.0498 H   0  0  0  0  0  0  0  0  0  0  0  0
  149.6557  144.6669  159.2583 H   0  0  0  0  0  0  0  0  0  0  0  0
  148.9090  143.1919  159.8274 H   0  0  0  0  0  0  0  0  0  0  0  0
  151.0360  141.9145  159.2797 H   0  0  0  0  0  0  0  0  0  0  0  0
  152.2883  143.1497  157.6400 H   0  0  0  0  0  0  0  0  0  0  0  0
  151.9703  144.6846  158.4472 H   0  0  0  0  0  0  0  0  0  0  0  0
  154.0872  142.7291  159.1147 H   0  0  0  0  0  0  0  0  0  0  0  0
  153.9171  144.4163  159.6002 H   0  0  0  0  0  0  0  0  0  0  0  0
  152.9650  141.9444  160.9943 H   0  0  0  0  0  0  0  0  0  0  0  0
  153.2635  143.5370  161.6992 H   0  0  0  0  0  0  0  0  0  0  0  0
  1  2  1  0  0  0  0
  1 19  1  0  0  0  0
  1 20  1  0  0  0  0
  1 21  1  0  0  0  0
  2  3  1  0  0  0  0
  2  9  1  0  0  0  0
  2 22  1  0  0  0  0
  3  4  1  0  0  0  0
  3 23  1  0  0  0  0
  3 24  1  0  0  0  0
  4  8  1  0  0  0  0
  4  5  1  0  0  0  0
  5  6  2  0  0  0  0
  5 25  1  0  0  0  0
  6  7  1  0  0  0  0
  6 26  1  0  0  0  0
  7  8  2  0  0  0  0
  7 27  1  0  0  0  0
  9 10  1  0  0  0  0
  9 28  1  0  0  0  0
 10 11  2  0  0  0  0
 10 12  1  0  0  0  0
 12 13  1  0  0  0  0
 12 29  1  0  0  0  0
 13 14  1  0  0  0  0
 13 30  1  0  0  0  0
 13 31  1  0  0  0  0
 14 18  1  0  0  0  0
 14 15  1  0  0  0  0
 14 32  1  0  0  0  0
 15 16  1  0  0  0  0
 15 33  1  0  0  0  0
 15 34  1  0  0  0  0
 16 17  1  0  0  0  0
 16 35  1  0  0  0  0
 16 36  1  0  0  0  0
 17 18  1  0  0  0  0
 17 37  1  0  0  0  0
 17 38  1  0  0  0  0
M  END
> <s_m_source_file>
AV-unprocessed.smi

> <i_m_source_file_index>
3267

> <i_lp_mmshare_version>
43012

> <i_f3d_flags>
0

> <s_epik_input>
bjFbY0hdW2NIXVtjSF1uMVtDSDJdW0NAQEhdKFtDSDNdKVtOSF1DKD1PKVtOSF1bQ0gyXVtDQEBIXTJbQ0gyXVtDSDJdW0NIMl1PMg==

> <s_epik_cmdline>
J2VwaWtfcHl0aG9uJywgJy1waCcsICc3LjAnLCAnLXRuJywgJzgnLCAnLW1hJywgJzIwMCcsICctbWV0YWxfYmluZGluZycsICctaW1hZScsICc8aW5maWxlLm1hZT4nLCAnLW9tYWUnLCAnPG91dGZpbGUubWFlPic=

> <r_lp_tautomer_probability>
1

> <r_epik_Ionization_Penalty>
6.24796e-05

> <r_epik_Ionization_Penalty_Charging>
0

> <r_epik_Ionization_Penalty_Neutral>
6.24796e-05

> <r_epik_State_Penalty>
-0

> <r_epik_Charging_Adjusted_Penalty>
0

> <i_epik_Tot_Q>
0

> <i_epik_Tot_abs_Q>
0

> <r_epik_Metal_State_Penalty>
-0

> <b_epik_Metal_Only>
0

> <s_lp_Force_Field>
OPLS_2005

> <r_lp_Energy>
14.3103

> <b_lp_Chiralities_Consistent>
1

> <s_lp_Variant>
AV-unprocessed.smi:3267-4

> <Gold.Version>
5.8.1

> <Gold.Id.Protein>
6NUR|6NUR_protein|mol2

> <Gold.PLP.Fitness>
40.9641

> <Gold.PLP.PLP>
-32.6396

> <Gold.PLP.part.hbond>
-5.0573

> <Gold.PLP.part.metal>
0.0000

> <Gold.PLP.part.buried>
-0.7552

> <Gold.PLP.part.nonpolar>
-27.6935

> <Gold.PLP.part.repulsive>
0.2756

> <Gold.PLP.ligand.clash>
0.0000

> <Gold.PLP.ligand.torsion>
0.6660

> <Gold.PLP.Chemscore.Hbond>
1.7440

> <Gold.PLP.Chemscore.CHOScore>
1.4613

> <Gold.PLP.Chemscore.Metal>
0.0000

> <Gold.Chemscore.Hbonds>
donor molecule, donor type, donor heavy atom, donor atom, acceptor molecule, acceptor atom, score
      L1  H     9    28       P1  8028  0.83
      L1  H    12    29       P1  8028  0.93
      L1  C     5    25       P1  7948  1.00
      L1  C     5    25       P1  7957  0.48

> <Gold.PLP.Chemscore.Internal.Correction>
0.0406

> <Gold.Rescore>
     Score         DG    S(hbond)    S(metal)    S(lipo)     H(rot)  DE(clash)    DE(int)     intcor
     15.47     -16.19       1.57        0.00      87.54       1.87       0.03       0.68       ----

> <Gold.Chemscore.Fitness>
15.4708

> <Gold.Chemscore.DG>
-16.1864

> <Gold.Chemscore.ZeroCoef>
-5.4800

> <Gold.Chemscore.Hbond>
1.5740

> <Gold.Chemscore.Metal>
0.0000

> <Gold.Chemscore.Lipo>
87.5429

> <Gold.Chemscore.Internal_Hbond>
0.0000

> <Gold.Chemscore.DEClash>
0.0329

> <Gold.Chemscore.DEInternal>
0.6827

> <Gold.Chemscore.Rot>
1.8724

> <Gold.Chemscore.Internal.Correction>
   9.000000E+99

> <Gold.Chemscore.Hbonds>
donor molecule, donor type, donor heavy atom, donor atom, acceptor molecule, acceptor atom, score
      L1  H     9    28       P1  8028  0.81
      L1  H    12    29       P1  8028  0.59

> <Gold.Chemscore.Hbond.Weighted>
-5.2571

> <Gold.Chemscore.Metal.Weighted>
-0.0000

> <Gold.Chemscore.Lipo.Weighted>
-10.2425

> <Gold.Chemscore.Internal_Hbond.Weighted>
0.0000

> <Gold.Chemscore.DEClash.Weighted>
0.0329

> <Gold.Chemscore.DEInternal.Weighted>
0.6827

> <Gold.Chemscore.Rot.Weighted>
4.7933

> <Gold.Chemscore.Internal.Correction.Weighted>
   9.000000E+99

> <Gold.Protein.RotatedTorsions>
[ 6907 6896 6895 6894 ] final   15.83 input  -60.11 | X-H torsion
[ 7974 7965 7964 7962 ] final -179.07 input  175.53 | X-H torsion
[ 8008 7997 7996 7995 ] final -151.16 input   59.86 | X-H torsion
[ 10167 10162 10161 10158 ] final -130.06 input  -65.29 | X-H torsion
[ 10718 10713 10712 10709 ] final  164.15 input   66.30 | X-H torsion
[ 10763 10752 10751 10750 ] final  127.22 input  -60.55 | X-H torsion
[ 11005 11000 10999 10996 ] final   99.31 input  -57.11 | X-H torsion

> <Gold.Protein.ActiveResidues>
 VAL166  LYS551  ARG553  GLY616  TRP617  ASP618  TYR619  PRO620  LYS621  CYS622 
 ASP623  PHE694  ASN695  SER759  ASP760  ASP761  ALA762  ILE779  LEU786  VAL792 
 PHE793  MET794  SER795  GLU796  ALA797  LYS798  CYS799  TRP800  GLU811  SER814 

> <Gold.Protein.RotatedAtoms>
  151.8242  135.0642  160.0428 H   0  0  0  0  0  0  0  0  0  0  0  0  # atno 6907 bound_to 6896
  152.2928  133.5574  159.5577 H   0  0  0  0  0  0  0  0  0  0  0  0  # atno 6908 bound_to 6896
  150.7238  134.0320  159.3778 H   0  0  0  0  0  0  0  0  0  0  0  0  # atno 6909 bound_to 6896
  144.7134  140.0773  143.6427 H   0  0  0  0  0  0  0  0  0  0  0  0  # atno 7974 bound_to 7965
  155.6349  140.0695  157.2637 H   0  0  0  0  0  0  0  0  0  0  0  0  # atno 8008 bound_to 7997
  154.4197  140.1761  156.1561 H   0  0  0  0  0  0  0  0  0  0  0  0  # atno 8009 bound_to 7997
  155.9903  140.3346  155.6749 H   0  0  0  0  0  0  0  0  0  0  0  0  # atno 8010 bound_to 7997
  139.9333  143.6247  152.2524 H   0  0  0  0  0  0  0  0  0  0  0  0  # atno 10167 bound_to 10162
  157.0985  131.0436  151.2508 H   0  0  0  0  0  0  0  0  0  0  0  0  # atno 10718 bound_to 10713
  153.7058  135.3276  155.3235 H   0  0  0  0  0  0  0  0  0  0  0  0  # atno 10763 bound_to 10752
  154.8399  135.4465  154.1364 H   0  0  0  0  0  0  0  0  0  0  0  0  # atno 10764 bound_to 10752
  153.2444  135.6974  153.7826 H   0  0  0  0  0  0  0  0  0  0  0  0  # atno 10765 bound_to 10752
  139.8771  134.9090  156.4587 H   0  0  0  0  0  0  0  0  0  0  0  0  # atno 11005 bound_to 11000
  145.9732  139.2885  143.1086 LP  0  0  0  0  0  0  0  0  0  0  0  0  # atno 17320 bound_to 7965
  145.9093  140.9190  143.0462 LP  0  0  0  0  0  0  0  0  0  0  0  0  # atno 17321 bound_to 7965
  139.6764  144.7658  151.1687 LP  0  0  0  0  0  0  0  0  0  0  0  0  # atno 17342 bound_to 10162
  140.7631  143.5788  150.8917 LP  0  0  0  0  0  0  0  0  0  0  0  0  # atno 17343 bound_to 10162
  157.4661  130.7681  149.7280 LP  0  0  0  0  0  0  0  0  0  0  0  0  # atno 17370 bound_to 10713
  155.9880  130.3963  150.3140 LP  0  0  0  0  0  0  0  0  0  0  0  0  # atno 17371 bound_to 10713
  140.8880  133.7869  155.9539 LP  0  0  0  0  0  0  0  0  0  0  0  0  # atno 17394 bound_to 11000
  140.8784  134.2641  157.5156 LP  0  0  0  0  0  0  0  0  0  0  0  0  # atno 17395 bound_to 11000

$$$$
