#       Name:                AV-unprocessed.smi:35
#       Creating user name   scv26
#       Creation time:       Thu Mar 26 16:03:06 2020


#       File generated by GOLD software.
#

@<TRIPOS>MOLECULE
AV-unprocessed.smi:35
    41    42     1
SMALL
NO_CHARGES


@<TRIPOS>ATOM
      1 ****        -2.6086   4.4462   0.9573 O.2            1 S1                 0.0000
      2 ****        -2.2504   3.3220   0.6104 C.2            1 S1                 0.0000
      3 ****        -3.1310   2.3304   0.2886 N.pl3          1 S1                -1.0000
      4 ****        -2.7288   1.0834  -0.0966 C.2            1 S1                 0.0000
      5 ****        -3.5164   0.1739  -0.3576 O.2            1 S1                 0.0000
      6 ****        -1.3364   0.8077  -0.1860 N.am           1 S1                 0.0000
      7 ****        -0.8669  -0.5676  -0.6125 C.3            1 S1                 0.0000
      8 ****         0.3594  -0.4405  -1.2702 O.3            1 S1                 0.0000
      9 ****         1.2481  -1.4661  -0.8378 C.3            1 S1                 0.0000
     10 ****         2.7156  -1.0703  -1.0791 C.3            1 S1                 0.0000
     11 ****         3.0862  -1.3592  -2.4106 O.3            1 S1                 0.0000
     12 ****         0.8536  -1.6810   0.6295 C.3            1 S1                 0.0000
     13 ****         1.4659  -0.7112   1.4638 O.3            1 S1                 0.0000
     14 ****        -0.6623  -1.5290   0.5777 C.3            1 S1                 0.0000
     15 ****        -1.2218  -1.1197   1.8148 O.3            1 S1                 0.0000
     16 ****        -0.4196   1.7896   0.1477 C.2            1 S1                 0.0000
     17 ****        -0.8242   3.0154   0.5362 C.2            1 S1                 0.0000
     18 ****         0.5977   4.3199   0.9870 Br             1 S1                 0.0000
     19 ****        -1.5986  -0.9343  -1.3336 H              1 S1                 0.0000
     20 ****         1.0106  -2.3792  -1.3874 H              1 S1                 0.0000
     21 ****         2.8842  -0.0155  -0.8593 H              1 S1                 0.0000
     22 ****         3.3717  -1.6481  -0.4274 H              1 S1                 0.0000
     23 ****         3.9886  -1.1066  -2.5320 H              1 S1                 0.0000
     24 ****         1.1450  -2.6689   0.9877 H              1 S1                 0.0000
     25 ****         1.0488  -0.7469   2.3113 H              1 S1                 0.0000
     26 ****        -1.1077  -2.4839   0.2956 H              1 S1                 0.0000
     27 ****        -2.1395  -0.9367   1.6781 H              1 S1                 0.0000
     28 ****         0.6381   1.5772   0.1036 H              1 S1                 0.0000
     29 ****        -1.9259   5.1403   1.1854 LP             1 S1                 0.0000
     30 ****        -3.5827   4.6661   1.0113 LP             1 S1                 0.0000
     31 ****        -4.1108   2.5247   0.3368 LP             1 S1                 0.0000
     32 ****        -4.5018   0.3314  -0.2917 LP             1 S1                 0.0000
     33 ****        -3.1709  -0.7224  -0.6355 LP             1 S1                 0.0000
     34 ****         0.7569   0.4529  -1.0613 LP             1 S1                 0.0000
     35 ****         0.2165  -0.5194  -2.2568 LP             1 S1                 0.0000
     36 ****         2.5044  -0.8461  -3.0416 LP             1 S1                 0.0000
     37 ****         2.9837  -2.3387  -2.5843 LP             1 S1                 0.0000
     38 ****         1.3495   0.1992   1.0670 LP             1 S1                 0.0000
     39 ****         2.4410  -0.9119   1.5574 LP             1 S1                 0.0000
     40 ****        -0.7573  -0.2962   2.1404 LP             1 S1                 0.0000
     41 ****        -1.1193  -1.8496   2.4907 LP             1 S1                 0.0000
@<TRIPOS>BOND
    1    1    2 2     
    2    2   17 1     
    3    2    3 1     
    4    3    4 1     
    5    4    5 2     
    6    4    6 am    
    7    6    7 1     
    8    6   16 1     
    9    7   14 1     
   10    7    8 1     
   11    7   19 1     
   12    8    9 1     
   13    9   10 1     
   14    9   12 1     
   15    9   20 1     
   16   10   11 1     
   17   10   21 1     
   18   10   22 1     
   19   11   23 1     
   20   12   13 1     
   21   12   14 1     
   22   12   24 1     
   23   13   25 1     
   24   14   15 1     
   25   14   26 1     
   26   15   27 1     
   27   16   17 2     
   28   16   28 1     
   29   17   18 1     
   30    1   29 1     
   31    1   30 1     
   32    3   31 1     
   33    5   32 1     
   34    5   33 1     
   35    8   34 1     
   36    8   35 1     
   37   11   36 1     
   38   11   37 1     
   39   13   38 1     
   40   13   39 1     
   41   15   40 1     
   42   15   41 1     
@<TRIPOS>SUBSTRUCTURE
      1 S1             1
@<TRIPOS>SET
LONE_PAIRS      STATIC     ATOMS    <user>   **** ""
13 29 30 31 32 33 34 35 36 37 38 39 40 41
DONOR_HYDROGENS      STATIC     ATOMS    <user>   **** ""
3 23 25 27
ATOM$BLUE        STATIC     ATOMS    COLORGROUP SYSTEM
13 29 30 31 32 33 34 35 36 37 38 39 40 41
ATOM$RED        STATIC     ATOMS    COLORGROUP SYSTEM
3 23 25 27
