AV-unprocessed.smi:1103|AV-procd|sdf|4771|dock9
  -GOLD-   22720 3313D 1   1.00000     0.00000
 Structure written by MMmdl.
 44 45  0  0  0  0  0  0  0  0  2 V2000
  148.3499  132.7285  153.0967 C   0  0  0  0  0  0  0  0  0  0  0  0
  149.2649  133.4073  154.1264 C   0  0  0  0  0  0  0  0  0  0  0  0
  148.9515  134.8478  154.3050 N   0  3  1  0  0  0  0  0  0  0  0  0
  147.5409  135.0663  154.7159 C   0  0  0  0  0  0  0  0  0  0  0  0
  147.2037  136.5643  154.7529 C   0  0  0  0  0  0  0  0  0  0  0  0
  148.1610  137.3169  155.6847 C   0  0  0  0  0  0  0  0  0  0  0  0
  149.6213  137.0657  155.2707 C   0  0  1  0  0  0  0  0  0  0  0  0
  150.5939  137.8127  156.2098 C   0  0  0  0  0  0  0  0  0  0  0  0
  150.4240  139.2621  156.1678 N   0  0  0  0  0  0  0  0  0  0  0  0
  151.3575  140.1577  156.5240 C   0  0  0  0  0  0  0  0  0  0  0  0
  152.4733  139.8364  156.9358 O   0  0  0  0  0  0  0  0  0  0  0  0
  150.9588  141.6322  156.3911 C   0  0  0  0  0  0  0  0  0  0  0  0
  151.3178  142.4130  157.5637 N   0  0  0  0  0  0  0  0  0  0  0  0
  151.2325  143.7780  157.7450 C   0  0  0  0  0  0  0  0  0  0  0  0
  151.6789  144.0542  159.0061 C   0  0  0  0  0  0  0  0  0  0  0  0
  151.7840  145.3851  159.6929 C   0  0  0  0  0  0  0  0  0  0  0  0
  152.0240  142.7729  159.5229 C   0  0  0  0  0  0  0  0  0  0  0  0
  151.8095  141.7948  158.6585 N   0  0  0  0  0  0  0  0  0  0  0  0
  149.9009  135.5467  155.2130 C   0  0  0  0  0  0  0  0  0  0  0  0
  148.5467  131.6567  153.0593 H   0  0  0  0  0  0  0  0  0  0  0  0
  148.5013  133.1178  152.0904 H   0  0  0  0  0  0  0  0  0  0  0  0
  147.2989  132.8616  153.3553 H   0  0  0  0  0  0  0  0  0  0  0  0
  149.1308  132.8895  155.0769 H   0  0  0  0  0  0  0  0  0  0  0  0
  150.3137  133.2823  153.8534 H   0  0  0  0  0  0  0  0  0  0  0  0
  146.8693  134.5679  154.0155 H   0  0  0  0  0  0  0  0  0  0  0  0
  147.3702  134.6158  155.6950 H   0  0  0  0  0  0  0  0  0  0  0  0
  147.2678  136.9801  153.7464 H   0  0  0  0  0  0  0  0  0  0  0  0
  146.1739  136.7074  155.0817 H   0  0  0  0  0  0  0  0  0  0  0  0
  147.9384  138.3842  155.6572 H   0  0  0  0  0  0  0  0  0  0  0  0
  148.0029  136.9913  156.7138 H   0  0  0  0  0  0  0  0  0  0  0  0
  149.7483  137.4676  154.2641 H   0  0  0  0  0  0  0  0  0  0  0  0
  150.4708  137.4654  157.2372 H   0  0  0  0  0  0  0  0  0  0  0  0
  151.6245  137.5874  155.9341 H   0  0  0  0  0  0  0  0  0  0  0  0
  149.5381  139.6095  155.8294 H   0  0  0  0  0  0  0  0  0  0  0  0
  151.4401  142.0568  155.5086 H   0  0  0  0  0  0  0  0  0  0  0  0
  149.8814  141.7156  156.2429 H   0  0  0  0  0  0  0  0  0  0  0  0
  150.8607  144.4322  156.9702 H   0  0  0  0  0  0  0  0  0  0  0  0
  152.1051  145.2821  160.7297 H   0  0  0  0  0  0  0  0  0  0  0  0
  150.8275  145.9082  159.7040 H   0  0  0  0  0  0  0  0  0  0  0  0
  152.5030  146.0377  159.1975 H   0  0  0  0  0  0  0  0  0  0  0  0
  152.4218  142.5260  160.4962 H   0  0  0  0  0  0  0  0  0  0  0  0
  149.8341  135.1132  156.2124 H   0  0  0  0  0  0  0  0  0  0  0  0
  150.9204  135.3817  154.8672 H   0  0  0  0  0  0  0  0  0  0  0  0
  149.0462  135.2749  153.3945 H   0  0  0  0  0  0  0  0  0  0  0  0
  1  2  1  0  0  0  0
  1 20  1  0  0  0  0
  1 21  1  0  0  0  0
  1 22  1  0  0  0  0
  2  3  1  0  0  0  0
  2 23  1  0  0  0  0
  2 24  1  0  0  0  0
  3 19  1  0  0  0  0
  3  4  1  0  0  0  0
  3 44  1  0  0  0  0
  4  5  1  0  0  0  0
  4 25  1  0  0  0  0
  4 26  1  0  0  0  0
  5  6  1  0  0  0  0
  5 27  1  0  0  0  0
  5 28  1  0  0  0  0
  6  7  1  0  0  0  0
  6 29  1  0  0  0  0
  6 30  1  0  0  0  0
  7  8  1  0  0  0  0
  7 19  1  0  0  0  0
  7 31  1  0  0  0  0
  8  9  1  0  0  0  0
  8 32  1  0  0  0  0
  8 33  1  0  0  0  0
  9 10  1  0  0  0  0
  9 34  1  0  0  0  0
 10 11  2  0  0  0  0
 10 12  1  0  0  0  0
 12 13  1  0  0  0  0
 12 35  1  0  0  0  0
 12 36  1  0  0  0  0
 13 18  1  0  0  0  0
 13 14  1  0  0  0  0
 14 15  2  0  0  0  0
 14 37  1  0  0  0  0
 15 16  1  0  0  0  0
 15 17  1  0  0  0  0
 16 38  1  0  0  0  0
 16 39  1  0  0  0  0
 16 40  1  0  0  0  0
 17 18  2  0  0  0  0
 17 41  1  0  0  0  0
 19 42  1  0  0  0  0
 19 43  1  0  0  0  0
M  CHG  1   3   1
M  END
> <s_m_source_file>
AV-unprocessed.smi

> <i_m_source_file_index>
1103

> <i_lp_mmshare_version>
43012

> <i_f3d_flags>
0

> <s_epik_input>
W0NIM11bQ0gyXU4xW0NIMl1bQ0gyXVtDSDJdW0NASF0oW0NIMl0xKVtDSDJdW05IXUMoPU8pW0NIMl1uMltjSF1jKFtDSDNdKVtjSF1uMg==

> <s_epik_cmdline>
J2VwaWtfcHl0aG9uJywgJy1waCcsICc3LjAnLCAnLXRuJywgJzgnLCAnLW1hJywgJzIwMCcsICctbWV0YWxfYmluZGluZycsICctaW1hZScsICc8aW5maWxlLm1hZT4nLCAnLW9tYWUnLCAnPG91dGZpbGUubWFlPic=

> <r_lp_tautomer_probability>
1

> <r_epik_Ionization_Penalty>
0.000672456

> <r_epik_Ionization_Penalty_Charging>
0.000647327

> <r_epik_Ionization_Penalty_Neutral>
2.51297e-05

> <r_epik_State_Penalty>
0.000409793

> <r_epik_Charging_Adjusted_Penalty>
0.00105712

> <i_epik_Tot_Q>
1

> <i_epik_Tot_abs_Q>
1

> <r_epik_Metal_State_Penalty>
-0

> <b_epik_Metal_Only>
0

> <s_lp_Force_Field>
OPLS_2005

> <r_lp_Energy>
19.0507

> <b_lp_Chiralities_Consistent>
1

> <s_lp_Variant>
AV-unprocessed.smi:1103-1

> <Gold.Version>
5.8.1

> <Gold.Id.Protein>
6NUR|6NUR_protein|mol2

> <Gold.PLP.Fitness>
46.6203

> <Gold.PLP.PLP>
-35.3465

> <Gold.PLP.part.hbond>
-2.0000

> <Gold.PLP.part.metal>
0.0000

> <Gold.PLP.part.buried>
-4.6046

> <Gold.PLP.part.nonpolar>
-29.6948

> <Gold.PLP.part.repulsive>
0.0420

> <Gold.PLP.ligand.clash>
0.0000

> <Gold.PLP.ligand.torsion>
0.3858

> <Gold.PLP.Chemscore.Hbond>
3.0000

> <Gold.PLP.Chemscore.CHOScore>
1.0000

> <Gold.PLP.Chemscore.Metal>
0.0000

> <Gold.Chemscore.Hbonds>
donor molecule, donor type, donor heavy atom, donor atom, acceptor molecule, acceptor atom, score
      L1  H     3    44       P1  7948  2.00
      P1  H  7997  8008       L1    11  1.00
      L1  C    14    37       P1  8028  1.00

> <Gold.PLP.Chemscore.Internal.Correction>
0.0454

> <Gold.Rescore>
     Score         DG    S(hbond)    S(metal)    S(lipo)     H(rot)  DE(clash)    DE(int)     intcor
     15.19     -17.21       1.90        0.00      82.70       1.68       0.10       1.92       ----

> <Gold.Chemscore.Fitness>
15.1870

> <Gold.Chemscore.DG>
-17.2087

> <Gold.Chemscore.ZeroCoef>
-5.4800

> <Gold.Chemscore.Hbond>
1.9041

> <Gold.Chemscore.Metal>
0.0000

> <Gold.Chemscore.Lipo>
82.6985

> <Gold.Chemscore.Internal_Hbond>
0.0000

> <Gold.Chemscore.DEClash>
0.1049

> <Gold.Chemscore.DEInternal>
1.9168

> <Gold.Chemscore.Rot>
1.6823

> <Gold.Chemscore.Internal.Correction>
   9.000000E+99

> <Gold.Chemscore.Hbonds>
donor molecule, donor type, donor heavy atom, donor atom, acceptor molecule, acceptor atom, score
      L1  H     3    44       P1  7948  0.45
      P1  H  7997  8008       L1    11  0.95

> <Gold.Chemscore.Hbond.Weighted>
-6.3595

> <Gold.Chemscore.Metal.Weighted>
-0.0000

> <Gold.Chemscore.Lipo.Weighted>
-9.6757

> <Gold.Chemscore.Internal_Hbond.Weighted>
0.0000

> <Gold.Chemscore.DEClash.Weighted>
0.1049

> <Gold.Chemscore.DEInternal.Weighted>
1.9168

> <Gold.Chemscore.Rot.Weighted>
4.3066

> <Gold.Chemscore.Internal.Correction.Weighted>
   9.000000E+99

> <Gold.Protein.RotatedTorsions>
[ 6907 6896 6895 6894 ] final  -91.84 input  -60.11 | X-H torsion
[ 7974 7965 7964 7962 ] final  156.44 input  175.53 | X-H torsion
[ 8008 7997 7996 7995 ] final  -70.54 input   59.86 | X-H torsion
[ 10167 10162 10161 10158 ] final -157.89 input  -65.29 | X-H torsion
[ 10718 10713 10712 10709 ] final  143.55 input   66.30 | X-H torsion
[ 10763 10752 10751 10750 ] final   55.80 input  -60.55 | X-H torsion
[ 11005 11000 10999 10996 ] final   18.53 input  -57.11 | X-H torsion

> <Gold.Protein.ActiveResidues>
 VAL166  LYS551  ARG553  GLY616  TRP617  ASP618  TYR619  PRO620  LYS621  CYS622 
 ASP623  PHE694  ASN695  SER759  ASP760  ASP761  ALA762  ILE779  LEU786  VAL792 
 PHE793  MET794  SER795  GLU796  ALA797  LYS798  CYS799  TRP800  GLU811  SER814 

> <Gold.Protein.RotatedAtoms>
  150.6898  134.2215  159.4398 H   0  0  0  0  0  0  0  0  0  0  0  0  # atno 6907 bound_to 6896
  152.0171  134.9841  160.0579 H   0  0  0  0  0  0  0  0  0  0  0  0  # atno 6908 bound_to 6896
  152.1433  133.4442  159.4814 H   0  0  0  0  0  0  0  0  0  0  0  0  # atno 6909 bound_to 6896
  144.7963  139.7204  143.6200 H   0  0  0  0  0  0  0  0  0  0  0  0  # atno 7974 bound_to 7965
  154.5019  140.0832  156.7816 H   0  0  0  0  0  0  0  0  0  0  0  0  # atno 8008 bound_to 7997
  155.3982  140.3436  155.4237 H   0  0  0  0  0  0  0  0  0  0  0  0  # atno 8009 bound_to 7997
  156.1467  140.1546  156.8822 H   0  0  0  0  0  0  0  0  0  0  0  0  # atno 8010 bound_to 7997
  139.6735  143.9703  152.2297 H   0  0  0  0  0  0  0  0  0  0  0  0  # atno 10167 bound_to 10162
  157.3676  131.0974  151.0858 H   0  0  0  0  0  0  0  0  0  0  0  0  # atno 10718 bound_to 10713
  152.9822  135.5698  154.5126 H   0  0  0  0  0  0  0  0  0  0  0  0  # atno 10763 bound_to 10752
  154.4628  135.2782  155.1702 H   0  0  0  0  0  0  0  0  0  0  0  0  # atno 10764 bound_to 10752
  154.3283  135.6254  153.5593 H   0  0  0  0  0  0  0  0  0  0  0  0  # atno 10765 bound_to 10752
  140.4238  134.1491  155.7675 H   0  0  0  0  0  0  0  0  0  0  0  0  # atno 11005 bound_to 11000
  146.2232  139.5673  142.9605 LP  0  0  0  0  0  0  0  0  0  0  0  0  # atno 17320 bound_to 7965
  145.5666  141.0399  143.2197 LP  0  0  0  0  0  0  0  0  0  0  0  0  # atno 17321 bound_to 7965
  139.9474  144.6642  150.8205 LP  0  0  0  0  0  0  0  0  0  0  0  0  # atno 17342 bound_to 10162
  140.7627  143.3204  151.2635 LP  0  0  0  0  0  0  0  0  0  0  0  0  # atno 17343 bound_to 10162
  157.1974  130.6379  149.5726 LP  0  0  0  0  0  0  0  0  0  0  0  0  # atno 17370 bound_to 10713
  155.9749  130.4702  150.6421 LP  0  0  0  0  0  0  0  0  0  0  0  0  # atno 17371 bound_to 10713
  141.1773  133.8487  157.1377 LP  0  0  0  0  0  0  0  0  0  0  0  0  # atno 17394 bound_to 11000
  140.0182  134.9958  157.0536 LP  0  0  0  0  0  0  0  0  0  0  0  0  # atno 17395 bound_to 11000

$$$$
