AV-unprocessed.smi:131|AV-procd|sdf|1161|dock6
  -GOLD-   2262018303D 1   1.00000     0.00000
 Structure written by MMmdl.
 55 58  0  0  0  0  0  0  0  0  1 V2000
  151.4598  137.1778  159.7973 O   0  0  0  0  0  0  0  0  0  0  0  0
  152.1085  137.6465  158.8614 C   0  0  0  0  0  0  0  0  0  0  0  0
  153.4822  138.2862  159.1190 C   0  0  0  0  0  0  0  0  0  0  0  0
  153.3924  139.6129  159.7671 N   0  0  0  0  0  0  0  0  0  0  0  0
  154.0994  139.8217  160.9773 C   0  0  0  0  0  0  0  0  0  0  0  0
  154.7662  138.9217  161.4904 O   0  0  0  0  0  0  0  0  0  0  0  0
  153.9830  141.1567  161.5528 C   0  0  0  0  0  0  0  0  0  0  0  0
  154.6061  141.4390  162.7095 F   0  0  0  0  0  0  0  0  0  0  0  0
  153.2577  142.1163  160.9423 C   0  0  0  0  0  0  0  0  0  0  0  0
  152.5895  141.9047  159.7493 N   0  0  0  0  0  0  0  0  0  0  0  0
  151.7901  142.9965  159.0689 C   0  0  2  0  0  0  0  0  0  0  0  0
  152.7103  144.1563  158.6402 C   0  0  0  0  0  0  0  0  0  0  0  0
  152.0242  145.3689  159.2375 C   0  0  0  0  0  0  0  0  0  0  0  0
  151.3347  144.7726  160.4551 C   0  0  0  0  0  0  0  0  0  0  0  0
  150.8540  143.5287  159.9628 O   0  0  0  0  0  0  0  0  0  0  0  0
  152.6368  140.6320  159.1400 C   0  0  0  0  0  0  0  0  0  0  0  0
  152.0403  140.4210  158.0815 O   0  0  0  0  0  0  0  0  0  0  0  0
  151.7259  137.6123  157.5714 N   0  0  0  0  0  0  0  0  0  0  0  0
  150.5222  137.1139  157.0004 C   0  0  0  0  0  0  0  0  0  0  0  0
  149.6275  136.4569  157.8726 C   0  0  0  0  0  0  0  0  0  0  0  0
  148.4205  135.9157  157.3897 C   0  0  0  0  0  0  0  0  0  0  0  0
  148.1067  136.0295  156.0220 C   0  0  0  0  0  0  0  0  0  0  0  0
  146.5901  135.3244  155.3894 S   0  0  0  0  0  0  0  0  0  0  0  0
  145.7338  134.9092  156.5118 O   0  0  0  0  0  0  0  0  0  0  0  0
  146.0720  136.2374  154.3586 O   0  0  0  0  0  0  0  0  0  0  0  0
  147.1448  133.8942  154.5866 N   0  0  0  0  0  0  0  0  0  0  0  0
  148.5354  133.4617  154.7724 C   0  0  0  0  0  0  0  0  0  0  0  0
  149.0531  133.1312  153.3717 C   0  0  0  0  0  0  0  0  0  0  0  0
  147.7959  132.7193  152.6187 C   0  0  0  0  0  0  0  0  0  0  0  0
  146.7243  133.6384  153.2033 C   0  0  0  0  0  0  0  0  0  0  0  0
  148.9942  136.6695  155.1362 C   0  0  0  0  0  0  0  0  0  0  0  0
  150.2019  137.2065  155.6223 C   0  0  0  0  0  0  0  0  0  0  0  0
  154.0735  137.5903  159.7158 H   0  0  0  0  0  0  0  0  0  0  0  0
  154.0304  138.3574  158.1778 H   0  0  0  0  0  0  0  0  0  0  0  0
  153.2106  143.0813  161.4229 H   0  0  0  0  0  0  0  0  0  0  0  0
  151.2691  142.5088  158.2430 H   0  0  0  0  0  0  0  0  0  0  0  0
  153.7045  144.0308  159.0725 H   0  0  0  0  0  0  0  0  0  0  0  0
  152.7994  144.2040  157.5547 H   0  0  0  0  0  0  0  0  0  0  0  0
  152.7171  146.1723  159.4890 H   0  0  0  0  0  0  0  0  0  0  0  0
  151.2806  145.7606  158.5423 H   0  0  0  0  0  0  0  0  0  0  0  0
  152.0477  144.6090  161.2645 H   0  0  0  0  0  0  0  0  0  0  0  0
  150.5237  145.3971  160.8298 H   0  0  0  0  0  0  0  0  0  0  0  0
  152.4031  137.9595  156.9076 H   0  0  0  0  0  0  0  0  0  0  0  0
  149.8643  136.3656  158.9228 H   0  0  0  0  0  0  0  0  0  0  0  0
  147.7457  135.4164  158.0689 H   0  0  0  0  0  0  0  0  0  0  0  0
  149.1344  134.2388  155.2484 H   0  0  0  0  0  0  0  0  0  0  0  0
  148.5470  132.5802  155.4139 H   0  0  0  0  0  0  0  0  0  0  0  0
  149.4810  134.0246  152.9148 H   0  0  0  0  0  0  0  0  0  0  0  0
  149.8185  132.3548  153.3762 H   0  0  0  0  0  0  0  0  0  0  0  0
  147.8962  132.8201  151.5377 H   0  0  0  0  0  0  0  0  0  0  0  0
  147.5552  131.6787  152.8406 H   0  0  0  0  0  0  0  0  0  0  0  0
  145.7290  133.1942  153.1742 H   0  0  0  0  0  0  0  0  0  0  0  0
  146.6964  134.5784  152.6514 H   0  0  0  0  0  0  0  0  0  0  0  0
  148.7552  136.7433  154.0853 H   0  0  0  0  0  0  0  0  0  0  0  0
  150.8686  137.6700  154.9128 H   0  0  0  0  0  0  0  0  0  0  0  0
  1  2  2  0  0  0  0
  2  3  1  0  0  0  0
  2 18  1  0  0  0  0
  3  4  1  0  0  0  0
  3 33  1  0  0  0  0
  3 34  1  0  0  0  0
  4 16  1  0  0  0  0
  4  5  1  0  0  0  0
  5  6  2  0  0  0  0
  5  7  1  0  0  0  0
  7  8  1  0  0  0  0
  7  9  2  0  0  0  0
  9 10  1  0  0  0  0
  9 35  1  0  0  0  0
 10 11  1  0  0  0  0
 10 16  1  0  0  0  0
 11 15  1  0  0  0  0
 11 12  1  0  0  0  0
 11 36  1  0  0  0  0
 12 13  1  0  0  0  0
 12 37  1  0  0  0  0
 12 38  1  0  0  0  0
 13 14  1  0  0  0  0
 13 39  1  0  0  0  0
 13 40  1  0  0  0  0
 14 15  1  0  0  0  0
 14 41  1  0  0  0  0
 14 42  1  0  0  0  0
 16 17  2  0  0  0  0
 18 19  1  0  0  0  0
 18 43  1  0  0  0  0
 19 32  1  0  0  0  0
 19 20  2  0  0  0  0
 20 21  1  0  0  0  0
 20 44  1  0  0  0  0
 21 22  2  0  0  0  0
 21 45  1  0  0  0  0
 22 23  1  0  0  0  0
 22 31  1  0  0  0  0
 23 24  2  0  0  0  0
 23 25  2  0  0  0  0
 23 26  1  0  0  0  0
 26 30  1  0  0  0  0
 26 27  1  0  0  0  0
 27 28  1  0  0  0  0
 27 46  1  0  0  0  0
 27 47  1  0  0  0  0
 28 29  1  0  0  0  0
 28 48  1  0  0  0  0
 28 49  1  0  0  0  0
 29 30  1  0  0  0  0
 29 50  1  0  0  0  0
 29 51  1  0  0  0  0
 30 52  1  0  0  0  0
 30 53  1  0  0  0  0
 31 32  2  0  0  0  0
 31 54  1  0  0  0  0
 32 55  1  0  0  0  0
M  END
> <s_m_source_file>
AV-unprocessed.smi

> <i_m_source_file_index>
131

> <i_lp_mmshare_version>
43012

> <i_f3d_flags>
0

> <s_epik_input>
W0NIMl0xW0NIMl1bQ0gyXVtDSDJdTjFTKD1PKSg9TyljKFtjSF1bY0hdMilbY0hdW2NIXWMyW05IXUMoPU8pW0NIMl1uM2MoPU8pYyhGKVtjSF1uKGMzPU8pW0NAQEhdNFtDSDJdW0NIMl1bQ0gyXU80

> <s_epik_cmdline>
J2VwaWtfcHl0aG9uJywgJy1waCcsICc3LjAnLCAnLXRuJywgJzgnLCAnLW1hJywgJzIwMCcsICctbWV0YWxfYmluZGluZycsICctaW1hZScsICc8aW5maWxlLm1hZT4nLCAnLW9tYWUnLCAnPG91dGZpbGUubWFlPic=

> <r_lp_tautomer_probability>
1

> <r_epik_Ionization_Penalty>
1.92533e-06

> <r_epik_Ionization_Penalty_Charging>
3.88729e-08

> <r_epik_Ionization_Penalty_Neutral>
1.88646e-06

> <r_epik_State_Penalty>
-0

> <r_epik_Charging_Adjusted_Penalty>
3.88729e-08

> <i_epik_Tot_Q>
0

> <i_epik_Tot_abs_Q>
0

> <r_epik_Metal_State_Penalty>
-0

> <b_epik_Metal_Only>
0

> <s_epik_Chemistry_Notes>
This compound contains an acetal/aminal-like group ( X-CH(R)-Y where X, Y are N, S, or O) that may be acid/base labile, releasing an aldehyde.

> <s_lp_Force_Field>
OPLS_2005

> <r_lp_Energy>
42.8804

> <b_lp_Chiralities_Consistent>
1

> <s_lp_Variant>
AV-unprocessed.smi:131-1

> <Gold.Version>
5.8.1

> <Gold.Id.Protein>
6NUR|6NUR_protein|mol2

> <Gold.PLP.Fitness>
50.6712

> <Gold.PLP.PLP>
-48.0480

> <Gold.PLP.part.hbond>
-1.3203

> <Gold.PLP.part.metal>
0.0000

> <Gold.PLP.part.buried>
-3.4896

> <Gold.PLP.part.nonpolar>
-43.6726

> <Gold.PLP.part.repulsive>
0.2714

> <Gold.PLP.ligand.clash>
0.0000

> <Gold.PLP.ligand.torsion>
1.5173

> <Gold.PLP.Chemscore.Hbond>
1.0000

> <Gold.PLP.Chemscore.CHOScore>
0.0000

> <Gold.PLP.Chemscore.Metal>
0.0000

> <Gold.Chemscore.Hbonds>
donor molecule, donor type, donor heavy atom, donor atom, acceptor molecule, acceptor atom, score
      P1  H  6896  6909       L1     1  1.00

> <Gold.PLP.Chemscore.Internal.Correction>
2.6577

> <Gold.Rescore>
     Score         DG    S(hbond)    S(metal)    S(lipo)     H(rot)  DE(clash)    DE(int)     intcor
     11.24     -15.46       1.00        0.00      98.68       1.92       0.11       4.10       ----

> <Gold.Chemscore.Fitness>
11.2412

> <Gold.Chemscore.DG>
-15.4554

> <Gold.Chemscore.ZeroCoef>
-5.4800

> <Gold.Chemscore.Hbond>
0.9990

> <Gold.Chemscore.Metal>
0.0000

> <Gold.Chemscore.Lipo>
98.6754

> <Gold.Chemscore.Internal_Hbond>
0.0000

> <Gold.Chemscore.DEClash>
0.1111

> <Gold.Chemscore.DEInternal>
4.1030

> <Gold.Chemscore.Rot>
1.9166

> <Gold.Chemscore.Internal.Correction>
   9.000000E+99

> <Gold.Chemscore.Hbonds>
donor molecule, donor type, donor heavy atom, donor atom, acceptor molecule, acceptor atom, score
      P1  H  6896  6909       L1     1  0.90

> <Gold.Chemscore.Hbond.Weighted>
-3.3367

> <Gold.Chemscore.Metal.Weighted>
-0.0000

> <Gold.Chemscore.Lipo.Weighted>
-11.5450

> <Gold.Chemscore.Internal_Hbond.Weighted>
0.0000

> <Gold.Chemscore.DEClash.Weighted>
0.1111

> <Gold.Chemscore.DEInternal.Weighted>
4.1030

> <Gold.Chemscore.Rot.Weighted>
4.9064

> <Gold.Chemscore.Internal.Correction.Weighted>
   9.000000E+99

> <Gold.Protein.RotatedTorsions>
[ 6907 6896 6895 6894 ] final  111.81 input  -60.11 | X-H torsion
[ 7974 7965 7964 7962 ] final  117.10 input  175.53 | X-H torsion
[ 8008 7997 7996 7995 ] final -162.32 input   59.86 | X-H torsion
[ 10167 10162 10161 10158 ] final  113.53 input  -65.29 | X-H torsion
[ 10718 10713 10712 10709 ] final  154.98 input   66.30 | X-H torsion
[ 10763 10752 10751 10750 ] final  -11.41 input  -60.55 | X-H torsion
[ 11005 11000 10999 10996 ] final  -53.42 input  -57.11 | X-H torsion

> <Gold.Protein.ActiveResidues>
 VAL166  LYS551  ARG553  GLY616  TRP617  ASP618  TYR619  PRO620  LYS621  CYS622 
 ASP623  PHE694  ASN695  SER759  ASP760  ASP761  ALA762  ILE779  LEU786  VAL792 
 PHE793  MET794  SER795  GLU796  ALA797  LYS798  CYS799  TRP800  GLU811  SER814 

> <Gold.Protein.RotatedAtoms>
  152.4950  133.8605  159.7247 H   0  0  0  0  0  0  0  0  0  0  0  0  # atno 6907 bound_to 6896
  150.9118  133.6979  159.2859 H   0  0  0  0  0  0  0  0  0  0  0  0  # atno 6908 bound_to 6896
  151.4386  135.1022  159.9716 H   0  0  0  0  0  0  0  0  0  0  0  0  # atno 6909 bound_to 6896
  145.1715  139.3099  143.4465 H   0  0  0  0  0  0  0  0  0  0  0  0  # atno 7974 bound_to 7965
  155.8051  140.0897  157.1935 H   0  0  0  0  0  0  0  0  0  0  0  0  # atno 8008 bound_to 7997
  154.3981  140.1465  156.3379 H   0  0  0  0  0  0  0  0  0  0  0  0  # atno 8009 bound_to 7997
  155.8423  140.3438  155.5642 H   0  0  0  0  0  0  0  0  0  0  0  0  # atno 8010 bound_to 7997
  139.6455  144.7126  151.2152 H   0  0  0  0  0  0  0  0  0  0  0  0  # atno 10167 bound_to 10162
  157.2244  131.0725  151.1892 H   0  0  0  0  0  0  0  0  0  0  0  0  # atno 10718 bound_to 10713
  153.4834  135.7017  153.5925 H   0  0  0  0  0  0  0  0  0  0  0  0  # atno 10763 bound_to 10752
  153.4129  135.3844  155.2062 H   0  0  0  0  0  0  0  0  0  0  0  0  # atno 10764 bound_to 10752
  154.8720  135.3909  154.4286 H   0  0  0  0  0  0  0  0  0  0  0  0  # atno 10765 bound_to 10752
  141.0975  133.6622  156.4169 H   0  0  0  0  0  0  0  0  0  0  0  0  # atno 11005 bound_to 11000
  146.3468  140.1861  142.8589 LP  0  0  0  0  0  0  0  0  0  0  0  0  # atno 17320 bound_to 7965
  145.0228  140.8808  143.5156 LP  0  0  0  0  0  0  0  0  0  0  0  0  # atno 17321 bound_to 7965
  140.7512  143.6239  150.8487 LP  0  0  0  0  0  0  0  0  0  0  0  0  # atno 17342 bound_to 10162
  139.9881  143.5877  152.2920 LP  0  0  0  0  0  0  0  0  0  0  0  0  # atno 17343 bound_to 10162
  157.3543  130.7098  149.6460 LP  0  0  0  0  0  0  0  0  0  0  0  0  # atno 17370 bound_to 10713
  155.9680  130.4243  150.4605 LP  0  0  0  0  0  0  0  0  0  0  0  0  # atno 17371 bound_to 10713
  140.5105  134.6400  157.5282 LP  0  0  0  0  0  0  0  0  0  0  0  0  # atno 17394 bound_to 11000
  139.9816  134.7129  155.9850 LP  0  0  0  0  0  0  0  0  0  0  0  0  # atno 17395 bound_to 11000

$$$$
