AV-unprocessed.smi:3349|AV-procd|sdf|12931|dock2
  -GOLD-   2272019363D 1   1.00000     0.00000
 Structure written by MMmdl.
 40 41  0  0  0  0  0  0  0  0  1 V2000
  151.1084  140.0330  158.5283 C   0  0  0  0  0  0  0  0  0  0  0  0
  150.3653  141.3739  158.2970 C   0  0  2  0  0  0  0  0  0  0  0  0
  150.3832  141.7017  156.7785 C   0  0  0  0  0  0  0  0  0  0  0  0
  150.0082  140.5556  155.9577 N   0  0  0  0  0  0  0  0  0  0  0  0
  149.5279  140.6366  154.7082 C   0  0  0  0  0  0  0  0  0  0  0  0
  149.3402  141.7064  154.1278 O   0  0  0  0  0  0  0  0  0  0  0  0
  149.1977  139.3059  154.0114 C   0  0  2  0  0  0  0  0  0  0  0  0
  147.6700  139.1558  153.8428 C   0  0  0  0  0  0  0  0  0  0  0  0
  149.8073  138.1714  154.7118 N   0  0  0  0  0  0  0  0  0  0  0  0
  151.0920  137.8490  154.9073 C   0  0  0  0  0  0  0  0  0  0  0  0
  151.2752  136.6861  155.5164 N   0  0  0  0  0  0  0  0  0  0  0  0
  149.9746  136.2971  155.6563 C   0  0  0  0  0  0  0  0  0  0  0  0
  149.0596  137.1347  155.1694 N   0  0  0  0  0  0  0  0  0  0  0  0
  150.8930  142.4716  159.1409 N   0  0  0  0  0  0  0  0  0  0  0  0
  152.3556  142.4467  159.2597 C   0  0  0  0  0  0  0  0  0  0  0  0
  152.9062  143.6045  160.1106 C   0  0  0  0  0  0  0  0  0  0  0  0
  152.4815  144.8459  159.5653 O   0  0  0  0  0  0  0  0  0  0  0  0
  151.0655  144.9448  159.5045 C   0  0  0  0  0  0  0  0  0  0  0  0
  150.5027  143.7979  158.6476 C   0  0  0  0  0  0  0  0  0  0  0  0
  150.7563  139.2395  157.8703 H   0  0  0  0  0  0  0  0  0  0  0  0
  150.9626  139.6484  159.5365 H   0  0  0  0  0  0  0  0  0  0  0  0
  152.1803  140.1434  158.3608 H   0  0  0  0  0  0  0  0  0  0  0  0
  149.3222  141.2118  158.5733 H   0  0  0  0  0  0  0  0  0  0  0  0
  149.6709  142.4866  156.5289 H   0  0  0  0  0  0  0  0  0  0  0  0
  151.3725  142.0601  156.4880 H   0  0  0  0  0  0  0  0  0  0  0  0
  150.1308  139.6402  156.3659 H   0  0  0  0  0  0  0  0  0  0  0  0
  149.6384  139.3289  153.0132 H   0  0  0  0  0  0  0  0  0  0  0  0
  147.2300  140.0510  153.4018 H   0  0  0  0  0  0  0  0  0  0  0  0
  147.1757  138.9808  154.7995 H   0  0  0  0  0  0  0  0  0  0  0  0
  147.4238  138.3232  153.1832 H   0  0  0  0  0  0  0  0  0  0  0  0
  151.9163  138.4735  154.5947 H   0  0  0  0  0  0  0  0  0  0  0  0
  149.6937  135.3613  156.1166 H   0  0  0  0  0  0  0  0  0  0  0  0
  152.6894  141.5246  159.7312 H   0  0  0  0  0  0  0  0  0  0  0  0
  152.8082  142.4790  158.2675 H   0  0  0  0  0  0  0  0  0  0  0  0
  152.5699  143.5178  161.1453 H   0  0  0  0  0  0  0  0  0  0  0  0
  153.9958  143.5776  160.1254 H   0  0  0  0  0  0  0  0  0  0  0  0
  150.6457  144.9179  160.5114 H   0  0  0  0  0  0  0  0  0  0  0  0
  150.7957  145.9079  159.0712 H   0  0  0  0  0  0  0  0  0  0  0  0
  150.8351  143.9214  157.6157 H   0  0  0  0  0  0  0  0  0  0  0  0
  149.4196  143.9048  158.6466 H   0  0  0  0  0  0  0  0  0  0  0  0
  1  2  1  0  0  0  0
  1 20  1  0  0  0  0
  1 21  1  0  0  0  0
  1 22  1  0  0  0  0
  2  3  1  0  0  0  0
  2 14  1  0  0  0  0
  2 23  1  0  0  0  0
  3  4  1  0  0  0  0
  3 24  1  0  0  0  0
  3 25  1  0  0  0  0
  4  5  1  0  0  0  0
  4 26  1  0  0  0  0
  5  6  2  0  0  0  0
  5  7  1  0  0  0  0
  7  8  1  0  0  0  0
  7  9  1  0  0  0  0
  7 27  1  0  0  0  0
  8 28  1  0  0  0  0
  8 29  1  0  0  0  0
  8 30  1  0  0  0  0
  9 13  1  0  0  0  0
  9 10  1  0  0  0  0
 10 11  2  0  0  0  0
 10 31  1  0  0  0  0
 11 12  1  0  0  0  0
 12 13  2  0  0  0  0
 12 32  1  0  0  0  0
 14 19  1  0  0  0  0
 14 15  1  0  0  0  0
 15 16  1  0  0  0  0
 15 33  1  0  0  0  0
 15 34  1  0  0  0  0
 16 17  1  0  0  0  0
 16 35  1  0  0  0  0
 16 36  1  0  0  0  0
 17 18  1  0  0  0  0
 18 19  1  0  0  0  0
 18 37  1  0  0  0  0
 18 38  1  0  0  0  0
 19 39  1  0  0  0  0
 19 40  1  0  0  0  0
M  END
> <s_m_source_file>
AV-unprocessed.smi

> <i_m_source_file_index>
3349

> <i_lp_mmshare_version>
43012

> <i_f3d_flags>
0

> <s_epik_input>
W0NIMl0xW0NIMl1PW0NIMl1bQ0gyXU4xW0NASF0oW0NIM10pW0NIMl1bTkhdQyg9TylbQ0BIXShbQ0gzXSluMltjSF1uW2NIXW4y

> <s_epik_cmdline>
J2VwaWtfcHl0aG9uJywgJy1waCcsICc3LjAnLCAnLXRuJywgJzgnLCAnLW1hJywgJzIwMCcsICctbWV0YWxfYmluZGluZycsICctaW1hZScsICc8aW5maWxlLm1hZT4nLCAnLW9tYWUnLCAnPG91dGZpbGUubWFlPic=

> <r_lp_tautomer_probability>
1

> <r_epik_Ionization_Penalty>
0.211373

> <r_epik_Ionization_Penalty_Charging>
0

> <r_epik_Ionization_Penalty_Neutral>
0.211373

> <r_epik_State_Penalty>
0.201459

> <r_epik_Charging_Adjusted_Penalty>
0.201459

> <i_epik_Tot_Q>
0

> <i_epik_Tot_abs_Q>
0

> <r_epik_Metal_State_Penalty>
0.201458

> <b_epik_Metal_Only>
0

> <s_lp_Force_Field>
OPLS_2005

> <r_lp_Energy>
36.462

> <b_lp_Chiralities_Consistent>
1

> <s_lp_Variant>
AV-unprocessed.smi:3349-1

> <Gold.Version>
5.8.1

> <Gold.Id.Protein>
6NUR|6NUR_protein|mol2

> <Gold.PLP.Fitness>
37.6317

> <Gold.PLP.PLP>
-34.6760

> <Gold.PLP.part.hbond>
-3.0546

> <Gold.PLP.part.metal>
0.0000

> <Gold.PLP.part.buried>
-3.7740

> <Gold.PLP.part.nonpolar>
-28.3094

> <Gold.PLP.part.repulsive>
0.5921

> <Gold.PLP.ligand.clash>
0.0000

> <Gold.PLP.ligand.torsion>
0.9573

> <Gold.PLP.Chemscore.Hbond>
1.5600

> <Gold.PLP.Chemscore.CHOScore>
0.0000

> <Gold.PLP.Chemscore.Metal>
0.0000

> <Gold.Chemscore.Hbonds>
donor molecule, donor type, donor heavy atom, donor atom, acceptor molecule, acceptor atom, score
      P1  H  8011  8017       L1     6  0.54
      P1  H 10752 10763       L1    11  0.63

> <Gold.PLP.Chemscore.Internal.Correction>
0.1903

> <Gold.Rescore>
     Score         DG    S(hbond)    S(metal)    S(lipo)     H(rot)  DE(clash)    DE(int)     intcor
     11.57     -12.92       1.70        0.00      71.14       2.56       0.18       1.17       ----

> <Gold.Chemscore.Fitness>
11.5674

> <Gold.Chemscore.DG>
-12.9205

> <Gold.Chemscore.ZeroCoef>
-5.4800

> <Gold.Chemscore.Hbond>
1.6957

> <Gold.Chemscore.Metal>
0.0000

> <Gold.Chemscore.Lipo>
71.1362

> <Gold.Chemscore.Internal_Hbond>
0.0000

> <Gold.Chemscore.DEClash>
0.1831

> <Gold.Chemscore.DEInternal>
1.1701

> <Gold.Chemscore.Rot>
2.5570

> <Gold.Chemscore.Internal.Correction>
   9.000000E+99

> <Gold.Chemscore.Hbonds>
donor molecule, donor type, donor heavy atom, donor atom, acceptor molecule, acceptor atom, score
      P1  H  8011  8017       L1     6  0.53
      P1  H 10752 10763       L1    11  0.53

> <Gold.Chemscore.Hbond.Weighted>
-5.6635

> <Gold.Chemscore.Metal.Weighted>
-0.0000

> <Gold.Chemscore.Lipo.Weighted>
-8.3229

> <Gold.Chemscore.Internal_Hbond.Weighted>
0.0000

> <Gold.Chemscore.DEClash.Weighted>
0.1831

> <Gold.Chemscore.DEInternal.Weighted>
1.1701

> <Gold.Chemscore.Rot.Weighted>
6.5459

> <Gold.Chemscore.Internal.Correction.Weighted>
   9.000000E+99

> <Gold.Protein.RotatedTorsions>
[ 6907 6896 6895 6894 ] final -170.62 input  -60.11 | X-H torsion
[ 7974 7965 7964 7962 ] final -104.11 input  175.53 | X-H torsion
[ 8008 7997 7996 7995 ] final   77.55 input   59.86 | X-H torsion
[ 10167 10162 10161 10158 ] final   37.46 input  -65.29 | X-H torsion
[ 10718 10713 10712 10709 ] final  115.66 input   66.30 | X-H torsion
[ 10763 10752 10751 10750 ] final   66.90 input  -60.55 | X-H torsion
[ 11005 11000 10999 10996 ] final  109.52 input  -57.11 | X-H torsion

> <Gold.Protein.ActiveResidues>
 VAL166  LYS551  ARG553  GLY616  TRP617  ASP618  TYR619  PRO620  LYS621  CYS622 
 ASP623  PHE694  ASN695  SER759  ASP760  ASP761  ALA762  ILE779  LEU786  VAL792 
 PHE793  MET794  SER795  GLU796  ALA797  LYS798  CYS799  TRP800  GLU811  SER814 

> <Gold.Protein.RotatedAtoms>
  151.5106  133.3486  159.2884 H   0  0  0  0  0  0  0  0  0  0  0  0  # atno 6907 bound_to 6896
  150.8715  134.8091  159.7169 H   0  0  0  0  0  0  0  0  0  0  0  0  # atno 6908 bound_to 6896
  152.4701  134.4990  159.9771 H   0  0  0  0  0  0  0  0  0  0  0  0  # atno 6909 bound_to 6896
  145.2473  140.9226  143.3115 H   0  0  0  0  0  0  0  0  0  0  0  0  # atno 7974 bound_to 7965
  155.8432  140.3461  155.5645 H   0  0  0  0  0  0  0  0  0  0  0  0  # atno 8008 bound_to 7997
  155.8118  140.0900  157.1919 H   0  0  0  0  0  0  0  0  0  0  0  0  # atno 8009 bound_to 7997
  154.4005  140.1446  156.3383 H   0  0  0  0  0  0  0  0  0  0  0  0  # atno 8010 bound_to 7997
  140.4030  144.1698  150.6134 H   0  0  0  0  0  0  0  0  0  0  0  0  # atno 10167 bound_to 10162
  157.6208  131.1015  150.7361 H   0  0  0  0  0  0  0  0  0  0  0  0  # atno 10718 bound_to 10713
  153.0161  135.5304  154.6895 H   0  0  0  0  0  0  0  0  0  0  0  0  # atno 10763 bound_to 10752
  154.6034  135.2870  155.0513 H   0  0  0  0  0  0  0  0  0  0  0  0  # atno 10764 bound_to 10752
  154.1562  135.6555  153.5027 H   0  0  0  0  0  0  0  0  0  0  0  0  # atno 10765 bound_to 10752
  139.8863  134.9460  156.6138 H   0  0  0  0  0  0  0  0  0  0  0  0  # atno 11005 bound_to 11000
  144.9535  139.4057  143.6391 LP  0  0  0  0  0  0  0  0  0  0  0  0  # atno 17320 bound_to 7965
  146.3312  139.8553  142.8866 LP  0  0  0  0  0  0  0  0  0  0  0  0  # atno 17321 bound_to 7965
  140.4720  143.2410  151.9076 LP  0  0  0  0  0  0  0  0  0  0  0  0  # atno 17342 bound_to 10162
  139.4784  144.5360  151.8598 LP  0  0  0  0  0  0  0  0  0  0  0  0  # atno 17343 bound_to 10162
  156.7719  130.4831  149.5417 LP  0  0  0  0  0  0  0  0  0  0  0  0  # atno 17370 bound_to 10713
  156.1353  130.6207  151.0392 LP  0  0  0  0  0  0  0  0  0  0  0  0  # atno 17371 bound_to 10713
  140.7791  133.8675  155.8553 LP  0  0  0  0  0  0  0  0  0  0  0  0  # atno 17394 bound_to 11000
  140.9776  134.1449  157.4523 LP  0  0  0  0  0  0  0  0  0  0  0  0  # atno 17395 bound_to 11000

$$$$
