AV-unprocessed.smi:499|AV-procd|sdf|2733|dock6
  -GOLD-   2262023183D 1   1.00000     0.00000
 Structure written by MMmdl.
 36 37  0  0  0  0  0  0  0  0  1 V2000
  149.3847  139.5248  157.2940 C   0  0  0  0  0  0  0  0  0  0  0  0
  149.7335  140.5862  156.2314 C   0  0  2  0  0  0  0  0  0  0  0  0
  150.5803  139.9337  155.2156 C   0  0  0  0  0  0  0  0  0  0  0  0
  151.2447  139.4187  154.4199 N   0  0  0  0  0  0  0  0  0  0  0  0
  150.5323  141.6522  156.8415 N   0  0  0  0  0  0  0  0  0  0  0  0
  150.2583  142.3639  157.9480 C   0  0  0  0  0  0  0  0  0  0  0  0
  149.2606  142.1829  158.6459 O   0  0  0  0  0  0  0  0  0  0  0  0
  151.2935  143.4322  158.3276 C   0  0  0  0  0  0  0  0  0  0  0  0
  151.9503  143.1698  159.6191 N   0  0  0  0  0  0  0  0  0  0  0  0
  152.7948  142.0449  159.6936 C   0  0  0  0  0  0  0  0  0  0  0  0
  153.4620  141.7016  160.8122 C   0  0  0  0  0  0  0  0  0  0  0  0
  154.3181  140.4464  160.8773 C   0  0  0  0  0  0  0  0  0  0  0  0
  155.3639  140.5692  160.0613 F   0  0  0  0  0  0  0  0  0  0  0  0
  154.7762  140.2396  162.1122 F   0  0  0  0  0  0  0  0  0  0  0  0
  153.6240  139.3712  160.5023 F   0  0  0  0  0  0  0  0  0  0  0  0
  153.2463  142.5405  161.9747 C   0  0  0  0  0  0  0  0  0  0  0  0
  152.4304  143.6117  161.9248 C   0  0  0  0  0  0  0  0  0  0  0  0
  151.7247  143.9811  160.6957 C   0  0  0  0  0  0  0  0  0  0  0  0
  150.9767  144.9575  160.6372 O   0  0  0  0  0  0  0  0  0  0  0  0
  148.4478  141.0965  155.5707 C   0  0  0  0  0  0  0  0  0  0  0  0
  147.7749  140.3671  154.4290 C   0  0  0  0  0  0  0  0  0  0  0  0
  148.4304  141.7097  154.1888 C   0  0  0  0  0  0  0  0  0  0  0  0
  148.8745  138.6743  156.8405 H   0  0  0  0  0  0  0  0  0  0  0  0
  148.7262  139.9180  158.0686 H   0  0  0  0  0  0  0  0  0  0  0  0
  150.2819  139.1435  157.7833 H   0  0  0  0  0  0  0  0  0  0  0  0
  151.3860  141.8846  156.3544 H   0  0  0  0  0  0  0  0  0  0  0  0
  152.0320  143.4883  157.5269 H   0  0  0  0  0  0  0  0  0  0  0  0
  150.8161  144.4140  158.3438 H   0  0  0  0  0  0  0  0  0  0  0  0
  152.8579  141.4691  158.7815 H   0  0  0  0  0  0  0  0  0  0  0  0
  153.7493  142.3084  162.9019 H   0  0  0  0  0  0  0  0  0  0  0  0
  152.2942  144.2149  162.8105 H   0  0  0  0  0  0  0  0  0  0  0  0
  147.7519  141.5410  156.2792 H   0  0  0  0  0  0  0  0  0  0  0  0
  148.2635  139.4881  154.0140 H   0  0  0  0  0  0  0  0  0  0  0  0
  146.6873  140.3332  154.4308 H   0  0  0  0  0  0  0  0  0  0  0  0
  147.7790  142.5671  154.0321 H   0  0  0  0  0  0  0  0  0  0  0  0
  149.3563  141.7226  153.6179 H   0  0  0  0  0  0  0  0  0  0  0  0
  1  2  1  0  0  0  0
  1 23  1  0  0  0  0
  1 24  1  0  0  0  0
  1 25  1  0  0  0  0
  2  3  1  0  0  0  0
  2  5  1  0  0  0  0
  2 20  1  0  0  0  0
  3  4  3  0  0  0  0
  5  6  1  0  0  0  0
  5 26  1  0  0  0  0
  6  7  2  0  0  0  0
  6  8  1  0  0  0  0
  8  9  1  0  0  0  0
  8 27  1  0  0  0  0
  8 28  1  0  0  0  0
  9 18  1  0  0  0  0
  9 10  1  0  0  0  0
 10 11  2  0  0  0  0
 10 29  1  0  0  0  0
 11 12  1  0  0  0  0
 11 16  1  0  0  0  0
 12 13  1  0  0  0  0
 12 14  1  0  0  0  0
 12 15  1  0  0  0  0
 16 17  2  0  0  0  0
 16 30  1  0  0  0  0
 17 18  1  0  0  0  0
 17 31  1  0  0  0  0
 18 19  2  0  0  0  0
 20 22  1  0  0  0  0
 20 21  1  0  0  0  0
 20 32  1  0  0  0  0
 21 22  1  0  0  0  0
 21 33  1  0  0  0  0
 21 34  1  0  0  0  0
 22 35  1  0  0  0  0
 22 36  1  0  0  0  0
M  END
> <s_m_source_file>
AV-unprocessed.smi

> <i_m_source_file_index>
499

> <i_lp_mmshare_version>
43012

> <i_f3d_flags>
0

> <s_epik_input>
W0NIMl0xW0NIMl1bQ0hdMVtDQF0oW0NIM10pKEMjTilbTkhdQyg9TylbQ0gyXW4yW2NIXWMoQyhGKShGKUYpW2NIXVtjSF1jMj1P

> <s_epik_cmdline>
J2VwaWtfcHl0aG9uJywgJy1waCcsICc3LjAnLCAnLXRuJywgJzgnLCAnLW1hJywgJzIwMCcsICctbWV0YWxfYmluZGluZycsICctaW1hZScsICc8aW5maWxlLm1hZT4nLCAnLW9tYWUnLCAnPG91dGZpbGUubWFlPic=

> <r_lp_tautomer_probability>
1

> <r_epik_Ionization_Penalty>
4.79953e-07

> <r_epik_Ionization_Penalty_Charging>
1.46911e-08

> <r_epik_Ionization_Penalty_Neutral>
4.65262e-07

> <r_epik_State_Penalty>
-0

> <r_epik_Charging_Adjusted_Penalty>
1.46911e-08

> <i_epik_Tot_Q>
0

> <i_epik_Tot_abs_Q>
0

> <r_epik_Metal_State_Penalty>
-0

> <b_epik_Metal_Only>
0

> <s_lp_Force_Field>
OPLS_2005

> <r_lp_Energy>
23.9412

> <b_lp_Chiralities_Consistent>
1

> <s_lp_Variant>
AV-unprocessed.smi:499-2

> <Gold.Version>
5.8.1

> <Gold.Id.Protein>
6NUR|6NUR_protein|mol2

> <Gold.PLP.Fitness>
49.5277

> <Gold.PLP.PLP>
-47.1466

> <Gold.PLP.part.hbond>
-1.6635

> <Gold.PLP.part.metal>
0.0000

> <Gold.PLP.part.buried>
-4.9229

> <Gold.PLP.part.nonpolar>
-41.1227

> <Gold.PLP.part.repulsive>
0.6044

> <Gold.PLP.ligand.clash>
0.0000

> <Gold.PLP.ligand.torsion>
1.0395

> <Gold.PLP.Chemscore.Hbond>
0.9500

> <Gold.PLP.Chemscore.CHOScore>
0.0000

> <Gold.PLP.Chemscore.Metal>
0.0000

> <Gold.Chemscore.Hbonds>
donor molecule, donor type, donor heavy atom, donor atom, acceptor molecule, acceptor atom, score
      P1  H  7989  7998       L1     4  0.90

> <Gold.PLP.Chemscore.Internal.Correction>
1.6102

> <Gold.Rescore>
     Score         DG    S(hbond)    S(metal)    S(lipo)     H(rot)  DE(clash)    DE(int)     intcor
     12.22     -13.67       0.94        0.00      84.96       1.90       0.55       0.91       ----

> <Gold.Chemscore.Fitness>
12.2153

> <Gold.Chemscore.DG>
-13.6748

> <Gold.Chemscore.ZeroCoef>
-5.4800

> <Gold.Chemscore.Hbond>
0.9360

> <Gold.Chemscore.Metal>
0.0000

> <Gold.Chemscore.Lipo>
84.9606

> <Gold.Chemscore.Internal_Hbond>
0.0000

> <Gold.Chemscore.DEClash>
0.5482

> <Gold.Chemscore.DEInternal>
0.9113

> <Gold.Chemscore.Rot>
1.9030

> <Gold.Chemscore.Internal.Correction>
   9.000000E+99

> <Gold.Chemscore.Hbonds>
donor molecule, donor type, donor heavy atom, donor atom, acceptor molecule, acceptor atom, score
      P1  H  7989  7998       L1     4  0.18

> <Gold.Chemscore.Hbond.Weighted>
-3.1262

> <Gold.Chemscore.Metal.Weighted>
-0.0000

> <Gold.Chemscore.Lipo.Weighted>
-9.9404

> <Gold.Chemscore.Internal_Hbond.Weighted>
0.0000

> <Gold.Chemscore.DEClash.Weighted>
0.5482

> <Gold.Chemscore.DEInternal.Weighted>
0.9113

> <Gold.Chemscore.Rot.Weighted>
4.8718

> <Gold.Chemscore.Internal.Correction.Weighted>
   9.000000E+99

> <Gold.Protein.RotatedTorsions>
[ 6907 6896 6895 6894 ] final   87.51 input  -60.11 | X-H torsion
[ 7974 7965 7964 7962 ] final    0.35 input  175.53 | X-H torsion
[ 8008 7997 7996 7995 ] final  142.87 input   59.86 | X-H torsion
[ 10167 10162 10161 10158 ] final  -60.19 input  -65.29 | X-H torsion
[ 10718 10713 10712 10709 ] final  -83.33 input   66.30 | X-H torsion
[ 10763 10752 10751 10750 ] final  112.31 input  -60.55 | X-H torsion
[ 11005 11000 10999 10996 ] final  -27.73 input  -57.11 | X-H torsion

> <Gold.Protein.ActiveResidues>
 VAL166  LYS551  ARG553  GLY616  TRP617  ASP618  TYR619  PRO620  LYS621  CYS622 
 ASP623  PHE694  ASN695  SER759  ASP760  ASP761  ALA762  ILE779  LEU786  VAL792 
 PHE793  MET794  SER795  GLU796  ALA797  LYS798  CYS799  TRP800  GLU811  SER814 

> <Gold.Protein.RotatedAtoms>
  152.5412  134.2264  159.8807 H   0  0  0  0  0  0  0  0  0  0  0  0  # atno 6907 bound_to 6896
  151.2239  133.4480  159.2609 H   0  0  0  0  0  0  0  0  0  0  0  0  # atno 6908 bound_to 6896
  151.0780  134.9853  159.8397 H   0  0  0  0  0  0  0  0  0  0  0  0  # atno 6909 bound_to 6896
  146.2433  140.1151  142.8342 H   0  0  0  0  0  0  0  0  0  0  0  0  # atno 7974 bound_to 7965
  156.2941  140.2277  156.4799 H   0  0  0  0  0  0  0  0  0  0  0  0  # atno 8008 bound_to 7997
  154.7862  140.0457  157.1187 H   0  0  0  0  0  0  0  0  0  0  0  0  # atno 8009 bound_to 7997
  154.9699  140.3065  155.4996 H   0  0  0  0  0  0  0  0  0  0  0  0  # atno 8010 bound_to 7997
  140.6087  143.2381  151.5760 H   0  0  0  0  0  0  0  0  0  0  0  0  # atno 10167 bound_to 10162
  156.0020  130.4662  150.4241 H   0  0  0  0  0  0  0  0  0  0  0  0  # atno 10718 bound_to 10713
  153.4760  135.3690  155.2417 H   0  0  0  0  0  0  0  0  0  0  0  0  # atno 10763 bound_to 10752
  154.8756  135.3943  154.3756 H   0  0  0  0  0  0  0  0  0  0  0  0  # atno 10764 bound_to 10752
  153.4352  135.7083  153.6270 H   0  0  0  0  0  0  0  0  0  0  0  0  # atno 10765 bound_to 10752
  140.9145  133.7439  156.0716 H   0  0  0  0  0  0  0  0  0  0  0  0  # atno 11005 bound_to 11000
  145.0454  140.8977  143.5027 LP  0  0  0  0  0  0  0  0  0  0  0  0  # atno 17320 bound_to 7965
  145.1239  139.2675  143.5574 LP  0  0  0  0  0  0  0  0  0  0  0  0  # atno 17321 bound_to 7965
  139.5344  144.2822  152.1220 LP  0  0  0  0  0  0  0  0  0  0  0  0  # atno 17342 bound_to 10162
  140.2017  144.4651  150.6428 LP  0  0  0  0  0  0  0  0  0  0  0  0  # atno 17343 bound_to 10162
  157.2295  131.0501  151.2500 LP  0  0  0  0  0  0  0  0  0  0  0  0  # atno 17370 bound_to 10713
  157.3725  130.7188  149.6574 LP  0  0  0  0  0  0  0  0  0  0  0  0  # atno 17371 bound_to 10713
  140.8068  134.3446  157.5424 LP  0  0  0  0  0  0  0  0  0  0  0  0  # atno 17394 bound_to 11000
  139.8763  134.9230  156.3314 LP  0  0  0  0  0  0  0  0  0  0  0  0  # atno 17395 bound_to 11000

$$$$
