AV-unprocessed.smi:1051|AV-procd|sdf|4614|dock4
  -GOLD-   22720 3113D 1   1.00000     0.00000
 Structure written by MMmdl.
 45 47  0  0  0  0  0  0  0  0  1 V2000
  144.5472  143.6056  158.3380 C   0  0  0  0  0  0  0  0  0  0  0  0
  144.2952  144.1517  156.9334 C   0  0  0  0  0  0  0  0  0  0  0  0
  143.3874  144.9665  156.7713 O   0  0  0  0  0  0  0  0  0  0  0  0
  145.1706  143.6636  155.8296 C   0  0  0  0  0  0  0  0  0  0  0  0
  145.0810  144.1920  154.5209 C   0  0  0  0  0  0  0  0  0  0  0  0
  145.9223  143.7096  153.5016 C   0  0  0  0  0  0  0  0  0  0  0  0
  146.8601  142.6969  153.7739 C   0  0  0  0  0  0  0  0  0  0  0  0
  146.9656  142.1535  155.0775 C   0  0  0  0  0  0  0  0  0  0  0  0
  147.8524  141.1600  155.4335 O   0  0  0  0  0  0  0  0  0  0  0  0
  149.0867  141.0727  154.7306 C   0  0  0  0  0  0  0  0  0  0  0  0
  150.2621  141.3293  155.6892 C   0  0  2  0  0  0  0  0  0  0  0  0
  151.3115  140.4523  155.3321 O   0  0  0  0  0  0  0  0  0  0  0  0
  149.8873  141.1426  157.1734 C   0  0  0  0  0  0  0  0  0  0  0  0
  151.0069  141.4652  158.0556 N   0  0  0  0  0  0  0  0  0  0  0  0
  152.0371  140.6492  158.3811 C   0  0  0  0  0  0  0  0  0  0  0  0
  152.1983  139.4959  157.9826 O   0  0  0  0  0  0  0  0  0  0  0  0
  152.8660  141.3299  159.2069 N   0  0  0  0  0  0  0  0  0  0  0  0
  154.1058  140.8449  159.8010 C   0  0  0  0  0  0  0  0  0  0  0  0
  152.3652  142.6240  159.3963 C   0  0  0  0  0  0  0  0  0  0  0  0
  152.8628  143.7058  160.1427 C   0  0  0  0  0  0  0  0  0  0  0  0
  152.1114  144.9043  160.1219 C   0  0  0  0  0  0  0  0  0  0  0  0
  150.9094  144.9959  159.3727 C   0  0  0  0  0  0  0  0  0  0  0  0
  150.4318  143.8908  158.6296 C   0  0  0  0  0  0  0  0  0  0  0  0
  151.1960  142.7114  158.6706 C   0  0  0  0  0  0  0  0  0  0  0  0
  146.1178  142.6466  156.0908 C   0  0  0  0  0  0  0  0  0  0  0  0
  144.4160  142.5237  158.3566 H   0  0  0  0  0  0  0  0  0  0  0  0
  143.8479  144.0455  159.0495 H   0  0  0  0  0  0  0  0  0  0  0  0
  145.5597  143.8434  158.6647 H   0  0  0  0  0  0  0  0  0  0  0  0
  144.3733  144.9693  154.2744 H   0  0  0  0  0  0  0  0  0  0  0  0
  145.8474  144.1188  152.5048 H   0  0  0  0  0  0  0  0  0  0  0  0
  147.4866  142.3547  152.9645 H   0  0  0  0  0  0  0  0  0  0  0  0
  149.1972  140.1011  154.2453 H   0  0  0  0  0  0  0  0  0  0  0  0
  149.1020  141.8352  153.9499 H   0  0  0  0  0  0  0  0  0  0  0  0
  150.6146  142.3476  155.5184 H   0  0  0  0  0  0  0  0  0  0  0  0
  151.5142  139.9056  156.0761 H   0  0  0  0  0  0  0  0  0  0  0  0
  149.0619  141.8071  157.4312 H   0  0  0  0  0  0  0  0  0  0  0  0
  149.5189  140.1326  157.3621 H   0  0  0  0  0  0  0  0  0  0  0  0
  154.1102  141.0340  160.8747 H   0  0  0  0  0  0  0  0  0  0  0  0
  154.9604  141.3582  159.3589 H   0  0  0  0  0  0  0  0  0  0  0  0
  154.2392  139.7726  159.6510 H   0  0  0  0  0  0  0  0  0  0  0  0
  153.7801  143.6289  160.7073 H   0  0  0  0  0  0  0  0  0  0  0  0
  152.4579  145.7605  160.6818 H   0  0  0  0  0  0  0  0  0  0  0  0
  150.3525  145.9216  159.3690 H   0  0  0  0  0  0  0  0  0  0  0  0
  149.5196  143.9561  158.0553 H   0  0  0  0  0  0  0  0  0  0  0  0
  146.2046  142.2269  157.0829 H   0  0  0  0  0  0  0  0  0  0  0  0
  1  2  1  0  0  0  0
  1 26  1  0  0  0  0
  1 27  1  0  0  0  0
  1 28  1  0  0  0  0
  2  3  2  0  0  0  0
  2  4  1  0  0  0  0
  4 25  1  0  0  0  0
  4  5  2  0  0  0  0
  5  6  1  0  0  0  0
  5 29  1  0  0  0  0
  6  7  2  0  0  0  0
  6 30  1  0  0  0  0
  7  8  1  0  0  0  0
  7 31  1  0  0  0  0
  8  9  1  0  0  0  0
  8 25  2  0  0  0  0
  9 10  1  0  0  0  0
 10 11  1  0  0  0  0
 10 32  1  0  0  0  0
 10 33  1  0  0  0  0
 11 12  1  0  0  0  0
 11 13  1  0  0  0  0
 11 34  1  0  0  0  0
 12 35  1  0  0  0  0
 13 14  1  0  0  0  0
 13 36  1  0  0  0  0
 13 37  1  0  0  0  0
 14 24  1  0  0  0  0
 14 15  1  0  0  0  0
 15 16  2  0  0  0  0
 15 17  1  0  0  0  0
 17 18  1  0  0  0  0
 17 19  1  0  0  0  0
 18 38  1  0  0  0  0
 18 39  1  0  0  0  0
 18 40  1  0  0  0  0
 19 24  2  0  0  0  0
 19 20  1  0  0  0  0
 20 21  2  0  0  0  0
 20 41  1  0  0  0  0
 21 22  1  0  0  0  0
 21 42  1  0  0  0  0
 22 23  2  0  0  0  0
 22 43  1  0  0  0  0
 23 24  1  0  0  0  0
 23 44  1  0  0  0  0
 25 45  1  0  0  0  0
M  END
> <s_m_source_file>
AV-unprocessed.smi

> <i_m_source_file_index>
1051

> <i_lp_mmshare_version>
43012

> <i_f3d_flags>
0

> <s_epik_input>
W0NIM11DKD1PKWMxW2NIXVtjSF1bY0hdYyhbY0hdMSlPW0NIMl1bQ0BIXShbT0hdKVtDSDJdbihjKD1PKW4yW0NIM10pYyhjMjMpW2NIXVtjSF1bY0hdW2NIXTM=

> <s_epik_cmdline>
J2VwaWtfcHl0aG9uJywgJy1waCcsICc3LjAnLCAnLXRuJywgJzgnLCAnLW1hJywgJzIwMCcsICctbWV0YWxfYmluZGluZycsICctaW1hZScsICc8aW5maWxlLm1hZT4nLCAnLW9tYWUnLCAnPG91dGZpbGUubWFlPic=

> <r_lp_tautomer_probability>
1

> <r_epik_Ionization_Penalty>
2.40143e-06

> <r_epik_Ionization_Penalty_Charging>
2.1343e-09

> <r_epik_Ionization_Penalty_Neutral>
2.3993e-06

> <r_epik_State_Penalty>
-0

> <r_epik_Charging_Adjusted_Penalty>
2.1343e-09

> <i_epik_Tot_Q>
0

> <i_epik_Tot_abs_Q>
0

> <r_epik_Metal_State_Penalty>
-0

> <b_epik_Metal_Only>
0

> <s_lp_Force_Field>
OPLS_2005

> <r_lp_Energy>
56.3875

> <b_lp_Chiralities_Consistent>
1

> <s_lp_Variant>
AV-unprocessed.smi:1051-1

> <Gold.Version>
5.8.1

> <Gold.Id.Protein>
6NUR|6NUR_protein|mol2

> <Gold.PLP.Fitness>
51.1783

> <Gold.PLP.PLP>
-51.7513

> <Gold.PLP.part.hbond>
-1.0000

> <Gold.PLP.part.metal>
0.0000

> <Gold.PLP.part.buried>
-9.5606

> <Gold.PLP.part.nonpolar>
-41.5525

> <Gold.PLP.part.repulsive>
0.0790

> <Gold.PLP.ligand.clash>
0.0000

> <Gold.PLP.ligand.torsion>
1.6472

> <Gold.PLP.Chemscore.Hbond>
0.8960

> <Gold.PLP.Chemscore.CHOScore>
0.0000

> <Gold.PLP.Chemscore.Metal>
0.0000

> <Gold.Chemscore.Hbonds>
donor molecule, donor type, donor heavy atom, donor atom, acceptor molecule, acceptor atom, score
      P1  H  7989  7998       L1    12  0.93

> <Gold.PLP.Chemscore.Internal.Correction>
0.0333

> <Gold.Rescore>
     Score         DG    S(hbond)    S(metal)    S(lipo)     H(rot)  DE(clash)    DE(int)     intcor
     15.78     -17.51       0.85        0.00     128.76       2.30       0.13       1.60       ----

> <Gold.Chemscore.Fitness>
15.7818

> <Gold.Chemscore.DG>
-17.5148

> <Gold.Chemscore.ZeroCoef>
-5.4800

> <Gold.Chemscore.Hbond>
0.8546

> <Gold.Chemscore.Metal>
0.0000

> <Gold.Chemscore.Lipo>
128.7561

> <Gold.Chemscore.Internal_Hbond>
0.0000

> <Gold.Chemscore.DEClash>
0.1315

> <Gold.Chemscore.DEInternal>
1.6014

> <Gold.Chemscore.Rot>
2.2984

> <Gold.Chemscore.Internal.Correction>
   9.000000E+99

> <Gold.Chemscore.Hbonds>
donor molecule, donor type, donor heavy atom, donor atom, acceptor molecule, acceptor atom, score
      P1  H  7989  7998       L1    12  0.35

> <Gold.Chemscore.Hbond.Weighted>
-2.8542

> <Gold.Chemscore.Metal.Weighted>
-0.0000

> <Gold.Chemscore.Lipo.Weighted>
-15.0645

> <Gold.Chemscore.Internal_Hbond.Weighted>
0.0000

> <Gold.Chemscore.DEClash.Weighted>
0.1315

> <Gold.Chemscore.DEInternal.Weighted>
1.6014

> <Gold.Chemscore.Rot.Weighted>
5.8839

> <Gold.Chemscore.Internal.Correction.Weighted>
   9.000000E+99

> <Gold.Protein.RotatedTorsions>
[ 6907 6896 6895 6894 ] final  -58.09 input  -60.11 | X-H torsion
[ 7974 7965 7964 7962 ] final  -46.04 input  175.53 | X-H torsion
[ 8008 7997 7996 7995 ] final   71.76 input   59.86 | X-H torsion
[ 10167 10162 10161 10158 ] final   20.45 input  -65.29 | X-H torsion
[ 10718 10713 10712 10709 ] final  -50.17 input   66.30 | X-H torsion
[ 10763 10752 10751 10750 ] final  -52.08 input  -60.55 | X-H torsion
[ 11005 11000 10999 10996 ] final  -69.49 input  -57.11 | X-H torsion

> <Gold.Protein.ActiveResidues>
 VAL166  LYS551  ARG553  GLY616  TRP617  ASP618  TYR619  PRO620  LYS621  CYS622 
 ASP623  PHE694  ASN695  SER759  ASP760  ASP761  ALA762  ILE779  LEU786  VAL792 
 PHE793  MET794  SER795  GLU796  ALA797  LYS798  CYS799  TRP800  GLU811  SER814 

> <Gold.Protein.RotatedAtoms>
  150.8034  134.7144  159.6621 H   0  0  0  0  0  0  0  0  0  0  0  0  # atno 6907 bound_to 6896
  152.4153  134.6050  160.0020 H   0  0  0  0  0  0  0  0  0  0  0  0  # atno 6908 bound_to 6896
  151.6281  133.3297  159.3139 H   0  0  0  0  0  0  0  0  0  0  0  0  # atno 6909 bound_to 6896
  145.9760  140.7334  142.9387 H   0  0  0  0  0  0  0  0  0  0  0  0  # atno 7974 bound_to 7965
  155.7587  140.3487  155.5187 H   0  0  0  0  0  0  0  0  0  0  0  0  # atno 8008 bound_to 7997
  155.8934  140.1022  157.1423 H   0  0  0  0  0  0  0  0  0  0  0  0  # atno 8009 bound_to 7997
  154.4036  140.1300  156.4332 H   0  0  0  0  0  0  0  0  0  0  0  0  # atno 8010 bound_to 7997
  140.5503  143.9521  150.6573 H   0  0  0  0  0  0  0  0  0  0  0  0  # atno 10167 bound_to 10162
  156.1825  130.4151  149.9486 H   0  0  0  0  0  0  0  0  0  0  0  0  # atno 10718 bound_to 10713
  154.1369  135.6511  153.4934 H   0  0  0  0  0  0  0  0  0  0  0  0  # atno 10763 bound_to 10752
  153.0178  135.5306  154.6944 H   0  0  0  0  0  0  0  0  0  0  0  0  # atno 10764 bound_to 10752
  154.6195  135.2963  155.0313 H   0  0  0  0  0  0  0  0  0  0  0  0  # atno 10765 bound_to 10752
  141.1555  133.6766  156.6608 H   0  0  0  0  0  0  0  0  0  0  0  0  # atno 11005 bound_to 11000
  144.6849  140.2828  143.7289 LP  0  0  0  0  0  0  0  0  0  0  0  0  # atno 17320 bound_to 7965
  145.7838  139.1901  143.2142 LP  0  0  0  0  0  0  0  0  0  0  0  0  # atno 17321 bound_to 7965
  140.2945  143.3301  152.1030 LP  0  0  0  0  0  0  0  0  0  0  0  0  # atno 17342 bound_to 10162
  139.5024  144.6735  151.6186 LP  0  0  0  0  0  0  0  0  0  0  0  0  # atno 17343 bound_to 10162
  156.7252  130.9022  151.3621 LP  0  0  0  0  0  0  0  0  0  0  0  0  # atno 17370 bound_to 10713
  157.6877  130.9202  150.0431 LP  0  0  0  0  0  0  0  0  0  0  0  0  # atno 17371 bound_to 10713
  140.3249  134.7977  157.4281 LP  0  0  0  0  0  0  0  0  0  0  0  0  # atno 17394 bound_to 11000
  140.1066  134.5402  155.8304 LP  0  0  0  0  0  0  0  0  0  0  0  0  # atno 17395 bound_to 11000

$$$$
